data_PCOD9048438
_publ_section_title
;
Structure prediction by ZEFSAII (Michael W. Deem and Ramdas Pophale) SiO2 
 PCOD9048438
Probable space group: P -1
;
_chemical_formula_sum "Si O2"
_cell_formula_units_Z 13
_cell_length_a 13.295736
_cell_length_b 12.962986
_cell_length_c 9.563226
_cell_angle_alpha 147.392924
_cell_angle_beta 51.407968
_cell_angle_gamma 144.888196
_cell_volume 499.392008
_symmetry_space_group_name_H-M "P -1"
_symmetry_group_IT_number 2
_symmetry_cell_setting 'triclinic'
loop_
_space_group_symop_operation_xyz
x,y,z
-x,-y,-z
loop_
_atom_site_type_symbol
_atom_site_label
_atom_site_fract_x
_atom_site_fract_y
_atom_site_fract_z
Si Si1 0.618517 0.437069 0.010832
Si Si2 0.016879 0.769688 0.148067
Si Si3 0.548632 0.802300 0.407964
Si Si4 0.000000 0.000000 0.000000
Si Si5 0.815823 0.490918 0.555410
Si Si6 0.253456 0.018093 0.973692
Si Si7 0.945377 0.262676 0.619731
O O1 0.814345 0.595590 0.079143
O O2 0.599928 0.639314 0.213987
O O3 0.543452 0.256930 0.729815
O O4 0.467530 0.233054 0.025384
O O5 0.037309 0.843360 0.377293
O O6 0.047386 0.568936 0.894066
O O7 0.170191 0.996790 0.169215
O O8 0.387490 0.692712 0.525366
O O9 0.739427 0.099716 0.587144
O O10 0.191034 0.098837 0.000909
O O11 0.117066 0.290134 0.137462
O O12 0.826768 0.277374 0.328017
O O13 0.961583 0.735218 0.595364
#
# Coordination Sequence:
#
# PCOD9048438 Si02
#       7
#     2   2   2   1   2   2   2
#     4  11  24  41  66 100 136 175 222 277 332 397
#     4  10  24  45  68  97 134 179 227 273 331 400
#     4  11  24  41  66 100 136 175 222 277 332 397
#     4  12  22  40  64 100 134 168 224 270 328 406
#     4  11  24  42  67  97 135 177 219 278 335 390
#     4  11  24  42  67  97 135 177 219 278 335 390
#     4  10  24  45  68  97 134 179 227 273 331 400
#
# _framework density 26.031652000000001
#
# number of rings (size 3 to 8) (size 9 to 14) (size 15 to 20)
#    0.000    1.231    1.538    3.231    6.462    6.769 
#    0.000    6.154    0.000    0.000    0.000    0.000 
#    0.000    0.000    0.000    0.000    0.000    0.000 
#
# Total GULP energy -72564.323384 kJ/mol
# GULP energy per Si atom -5581.871030 kJ/mol
# Density = 2.597240 g / cm^3
# Si number density = 26.031652 Si / 1000 Ang^3
#
#
#
# Elastic Constant Matrix: (Units=GPa)
#
#
# Indices 1 2 3 4 5 6 
#
# 1 134.2955 50.8412 24.2523 -14.9664 7.4365 9.9400
# 2 50.8412 185.6608 26.7710 -13.5524 30.9419 18.1300
# 3 24.2523 26.7710 61.1348 14.9754 -14.3187 -10.5137
# 4 -14.9664 -13.5524 14.9754 29.0958 -15.5863 -1.4620
# 5 7.4365 30.9419 -14.3187 -15.5863 57.3021 8.5526
# 6 9.9400 18.1300 -10.5137 -1.4620 8.5526 34.4988
#
#
#
# Elastic Compliance Matrix: (Units=1/GPa)
#
#
# Indices 1 2 3 4 5 6 
#
# 1 0.010069 -0.000989 -0.006077 0.007888 0.000453 -0.004012
# 2 -0.000989 0.007802 -0.005592 0.003744 -0.003804 -0.004418
# 3 -0.006077 -0.005592 0.028518 -0.017434 0.004471 0.011534
# 4 0.007888 0.003744 -0.017434 0.053211 0.008475 -0.009399
# 5 0.000453 -0.003804 0.004471 0.008475 0.023191 -0.002159
# 6 -0.004012 -0.004418 0.011534 -0.009399 -0.002159 0.036116
#
#
# Mechanical properties :
#
#
# Convention : Reuss Voigt Hill
#
# Bulk Modulus (GPa) = 47.45449 64.98000 56.21724
# Shear Modulus (GPa) = 26.14406 42.79445 34.46926
#
# Velocity S-wave (km/s) = 3.17254 4.05895 3.64281
# Velocity P-wave (km/s) = 5.62931 6.85441 6.27184
#
# Compressibility (1/GPa) = 0.02107282
#
# Stress axis : x y z
#
# Youngs Moduli (GPa) = 99.31441 128.17294 35.06534
#
# Poissons Ratio (x) = 0.12676 0.21310
# Poissons Ratio (y) = 0.09822 0.19608
# Poissons Ratio (z) = 0.60356 0.71673
#
# Static dielectric constant tensor:
#      x y z
#    x 1.888190 0.128350 -0.597660 
#    y 0.128350 2.045410 0.926680 
#    z -0.597660 0.926680 -2.844760 
# 
# From -- ./inp_files/262893.got.cif
#   From: 2010.05.17/outbox.cif.g08.bks.cpg/sg2_132_cif.got.tgz:262893.got - 2010.06.03 11:33:40.
