data_PCOD9048042
_publ_section_title
;
Structure prediction by ZEFSAII (Michael W. Deem and Ramdas Pophale) SiO2 
 PCOD9048042
Probable space group: P -1
;
_chemical_formula_sum "Si O2"
_cell_formula_units_Z 16
_cell_length_a 5.995919
_cell_length_b 20.367689
_cell_length_c 8.733480
_cell_angle_alpha 136.140709
_cell_angle_beta 63.001759
_cell_angle_gamma 118.778730
_cell_volume 637.628792
_symmetry_space_group_name_H-M "P -1"
_symmetry_group_IT_number 2
_symmetry_cell_setting 'triclinic'
loop_
_space_group_symop_operation_xyz
x,y,z
-x,-y,-z
loop_
_atom_site_type_symbol
_atom_site_label
_atom_site_fract_x
_atom_site_fract_y
_atom_site_fract_z
Si Si1 0.597582 0.475577 0.687819
Si Si2 0.112274 0.435638 0.977196
Si Si3 0.131493 0.029161 0.798457
Si Si4 0.457049 0.064734 0.466137
Si Si5 0.399261 0.351435 0.251447
Si Si6 0.392344 0.096884 0.209815
Si Si7 0.778446 0.231133 0.846673
Si Si8 0.099489 0.788833 0.879604
O O1 0.381099 0.432527 0.808992
O O2 0.556165 0.399174 0.432813
O O3 0.554634 0.570723 0.770712
O O4 0.848396 0.513462 0.780768
O O5 0.950203 0.325571 0.867226
O O6 0.000000 0.500000 0.000000
O O7 0.214528 0.030065 0.594647
O O8 0.410243 0.023821 0.769109
O O9 0.912157 0.940419 0.790326
O O10 0.014687 0.123078 0.001229
O O11 0.391795 0.116569 0.424544
O O12 0.685090 0.139632 0.611349
O O13 0.090487 0.309619 0.293686
O O14 0.514142 0.261584 0.019108
O O15 0.599565 0.185778 0.219026
O O16 0.500000 0.000000 0.000000
O O17 0.909397 0.214755 0.938811
#
# Coordination Sequence:
#
# PCOD9048042 Si02
#       8
#     2   2   2   2   2   2   2   2
#     4  10  24  44  73  97 136 187 226 287 358 416
#     4  11  23  45  71 102 137 181 233 287 351 428
#     4  10  24  44  72  94 138 182 233 279 351 417
#     4  11  25  42  71 100 133 187 233 286 352 411
#     4  11  23  45  68 103 140 179 236 289 348 422
#     4  10  25  43  66  95 134 182 235 286 345 411
#     4  12  26  42  67 103 139 180 232 289 349 419
#     4  11  25  44  66 102 144 182 232 293 346 412
#
# _framework density 25.092967999999999
#
# number of rings (size 3 to 8) (size 9 to 14) (size 15 to 20)
#    0.000    1.250    3.750    0.375   10.500    4.500 
#    0.000    0.000    0.000    0.000    0.000    0.000 
#    0.000    0.000    0.000    0.000    0.000    0.000 
#
# Total GULP energy -89402.718526 kJ/mol
# GULP energy per Si atom -5587.669908 kJ/mol
# Density = 2.503586 g / cm^3
# Si number density = 25.092968 Si / 1000 Ang^3
#
#
#
# Elastic Constant Matrix: (Units=GPa)
#
#
# Indices 1 2 3 4 5 6 
#
# 1 73.4347 38.7062 31.2750 -2.5805 35.8281 -4.4071
# 2 38.7062 157.4727 23.0772 -14.8050 13.0209 17.3619
# 3 31.2750 23.0772 60.0689 -2.5836 14.6518 0.8802
# 4 -2.5805 -14.8050 -2.5836 35.6823 -0.5976 -1.1360
# 5 35.8281 13.0209 14.6518 -0.5976 50.1466 -12.8124
# 6 -4.4071 17.3619 0.8802 -1.1360 -12.8124 58.2637
#
#
#
# Elastic Compliance Matrix: (Units=1/GPa)
#
#
# Indices 1 2 3 4 5 6 
#
# 1 0.027241 -0.004157 -0.008746 -0.000656 -0.015853 -0.000067
# 2 -0.004157 0.008005 -0.000882 0.002886 0.000542 -0.002511
# 3 -0.008746 -0.000882 0.021574 0.000541 -0.000002 -0.000715
# 4 -0.000656 0.002886 0.000541 0.029199 -0.000191 -0.000390
# 5 -0.015853 0.000542 -0.000002 -0.000191 0.032609 0.005806
# 6 -0.000067 -0.002511 -0.000715 -0.000390 0.005806 0.019186
#
#
# Mechanical properties :
#
#
# Convention : Reuss Voigt Hill
#
# Bulk Modulus (GPa) = 34.18976 53.01035 43.60006
# Shear Modulus (GPa) = 28.54927 42.01306 35.28117
#
# Velocity S-wave (km/s) = 3.37670 4.09626 3.75376
# Velocity P-wave (km/s) = 5.37193 6.59878 6.01670
#
# Compressibility (1/GPa) = 0.02924852
#
# Stress axis : x y z
#
# Youngs Moduli (GPa) = 36.70896 124.92570 46.35119
#
# Poissons Ratio (x) = 0.51937 0.40541
# Poissons Ratio (y) = 0.15262 0.04088
# Poissons Ratio (z) = 0.32107 0.11019
#
# Static dielectric constant tensor:
#      x y z
#    x 2.076990 0.041200 0.006450 
#    y 0.041200 1.984250 0.000050 
#    z 0.006450 0.000050 2.075550 
# 
# From -- ./inp_files/141578.got.cif
#   From: 2010.05.17/outbox.cif.g08.bks.cpg/sg2_71_cif.got.tgz:141578.got - 2010.06.03 11:33:40.
