data_PCOD9048305
_publ_section_title
;
Structure prediction by ZEFSAII (Michael W. Deem and Ramdas Pophale) SiO2 
 PCOD9048305
Probable space group: P -1
;
_chemical_formula_sum "Si O2"
_cell_formula_units_Z 10
_cell_length_a 8.351388
_cell_length_b 5.820639
_cell_length_c 12.115984
_cell_angle_alpha 128.865791
_cell_angle_beta 56.420316
_cell_angle_gamma 114.193559
_cell_volume 380.256676
_symmetry_space_group_name_H-M "P -1"
_symmetry_group_IT_number 2
_symmetry_cell_setting 'triclinic'
loop_
_space_group_symop_operation_xyz
x,y,z
-x,-y,-z
loop_
_atom_site_type_symbol
_atom_site_label
_atom_site_fract_x
_atom_site_fract_y
_atom_site_fract_z
Si Si1 0.616542 0.687541 0.268329
Si Si2 0.124292 0.316064 0.028062
Si Si3 0.327524 0.120690 0.472794
Si Si4 0.923242 0.017058 0.685959
Si Si5 0.345751 0.228613 0.111741
O O1 0.644709 0.619143 0.366122
O O2 0.433777 0.502593 0.229791
O O3 0.539118 0.006131 0.370198
O O4 0.805691 0.635627 0.110079
O O5 0.071670 0.623443 0.197496
O O6 0.320163 0.274871 0.007425
O O7 0.000000 0.000000 0.000000
O O8 0.136572 0.940002 0.549170
O O9 0.237929 0.114598 0.382191
O O10 0.854514 0.888834 0.790910
O O11 0.500000 0.000000 0.000000
#
# Coordination Sequence:
#
# PCOD9048305 Si02
#       5
#     2   2   2   2   2
#     4  11  23  46  68 100 132 173 223 268 330 390
#     4  12  26  45  70  97 132 175 226 271 319 395
#     4  10  24  45  66  97 140 170 216 273 328 397
#     4  11  24  47  67  99 133 174 221 268 333 386
#     4  12  24  41  74  98 131 173 221 277 321 388
#
# _framework density 26.298024999999999
#
# number of rings (size 3 to 8) (size 9 to 14) (size 15 to 20)
#    0.000    0.800    4.000    3.000    2.800    3.200 
#   14.400    0.000    0.000    0.000    0.000    0.000 
#    0.000    0.000    0.000    0.000    0.000    0.000 
#
# Total GULP energy -55782.731532 kJ/mol
# GULP energy per Si atom -5578.273153 kJ/mol
# Density = 2.623817 g / cm^3
# Si number density = 26.298025 Si / 1000 Ang^3
#
#
#
# Elastic Constant Matrix: (Units=GPa)
#
#
# Indices 1 2 3 4 5 6 
#
# 1 134.4026 -4.4369 27.9364 10.0282 30.0986 -2.2907
# 2 -4.4369 72.0920 23.7998 -0.3518 19.1303 21.1247
# 3 27.9364 23.7998 127.0820 -10.4603 15.5947 -4.9496
# 4 10.0282 -0.3518 -10.4603 25.3512 9.1969 5.0470
# 5 30.0986 19.1303 15.5947 9.1969 68.6071 -3.4416
# 6 -2.2907 21.1247 -4.9496 5.0470 -3.4416 37.4702
#
#
#
# Elastic Compliance Matrix: (Units=1/GPa)
#
#
# Indices 1 2 3 4 5 6 
#
# 1 0.009071 0.002704 -0.002306 -0.002842 -0.003891 -0.001249
# 2 0.002704 0.021199 -0.003957 0.002884 -0.007255 -0.013364
# 3 -0.002306 -0.003957 0.009660 0.004503 -0.000549 0.002709
# 4 -0.002842 0.002884 0.004503 0.046725 -0.007254 -0.008165
# 5 -0.003891 -0.007255 -0.000549 -0.007254 0.019732 0.006569
# 6 -0.001249 -0.013364 0.002709 -0.008165 0.006569 0.036207
#
#
# Mechanical properties :
#
#
# Convention : Reuss Voigt Hill
#
# Bulk Modulus (GPa) = 30.47585 47.57501 39.02543
# Shear Modulus (GPa) = 31.12359 45.37088 38.24724
#
# Velocity S-wave (km/s) = 3.44393 4.15813 3.81777
# Velocity P-wave (km/s) = 5.23717 6.41743 5.85711
#
# Compressibility (1/GPa) = 0.03281287
#
# Stress axis : x y z
#
# Youngs Moduli (GPa) = 110.24186 47.17155 103.51562
#
# Poissons Ratio (x) = -0.12756 0.23866
# Poissons Ratio (y) = -0.29811 0.40966
# Poissons Ratio (z) = 0.25417 0.18668
#
# Static dielectric constant tensor:
#      x y z
#    x 2.047080 0.028320 0.015760 
#    y 0.028320 1.954890 0.010820 
#    z 0.015760 0.010820 2.150130 
# 
# From -- ./inp_files/15268.got.cif
#   From: 2010.05.17/outbox.cif.g08.bks.cpg/sg2_8_cif.got.tgz:15268.got - 2010.06.03 11:33:40.
