data_PCOD9048806
_publ_section_title
;
Structure prediction by ZEFSAII (Michael W. Deem and Ramdas Pophale) SiO2 
 PCOD9048806
Probable space group: P -1
;
_chemical_formula_sum "Si O2"
_cell_formula_units_Z 10
_cell_length_a 18.029387
_cell_length_b 6.771274
_cell_length_c 5.095139
_cell_angle_alpha 104.712959
_cell_angle_beta 80.121225
_cell_angle_gamma 135.768852
_cell_volume 419.618689
_symmetry_space_group_name_H-M "P -1"
_symmetry_group_IT_number 2
_symmetry_cell_setting 'triclinic'
loop_
_space_group_symop_operation_xyz
x,y,z
-x,-y,-z
loop_
_atom_site_type_symbol
_atom_site_label
_atom_site_fract_x
_atom_site_fract_y
_atom_site_fract_z
Si Si1 0.699615 0.579212 0.874671
Si Si2 0.770948 0.269651 0.812294
Si Si3 0.884818 0.213122 0.086488
Si Si4 0.383109 0.368767 0.538988
Si Si5 0.992706 0.840336 0.697043
O O1 0.711906 0.371673 0.889198
O O2 0.636109 0.489098 0.614232
O O3 0.645138 0.604643 0.147404
O O4 0.817414 0.903368 0.881383
O O5 0.878818 0.513914 0.666479
O O6 0.697508 0.962331 0.616211
O O7 0.810329 0.262090 0.069880
O O8 0.916772 0.159818 0.319757
O O9 0.000000 0.500000 0.000000
O O10 0.500000 0.500000 0.500000
O O11 0.000000 0.000000 0.500000
O O12 0.000000 0.000000 0.000000
#
# Coordination Sequence:
#
# PCOD9048806 Si02
#       5
#     2   2   2   2   2
#     4  11  24  44  73 101 140 181 236 286 351 420
#     4  10  24  45  73 103 142 189 232 286 349 415
#     4   9  21  41  66 102 144 181 227 275 337 414
#     4  11  27  48  70 103 138 178 239 301 353 412
#     4  11  23  40  69 101 145 187 225 276 343 415
#
# _framework density 23.831161000000002
#
# number of rings (size 3 to 8) (size 9 to 14) (size 15 to 20)
#    0.000    1.600    2.000    0.600    2.800    9.600 
#    0.000    8.000    0.000    0.000    0.000    0.000 
#    0.000    0.000    0.000    0.000    0.000    0.000 
#
# Total GULP energy -55950.152530 kJ/mol
# GULP energy per Si atom -5595.015253 kJ/mol
# Density = 2.377692 g / cm^3
# Si number density = 23.831161 Si / 1000 Ang^3
#
#
#
# Elastic Constant Matrix: (Units=GPa)
#
#
# Indices 1 2 3 4 5 6 
#
# 1 145.8770 58.1460 23.0964 -25.0343 28.0005 -16.1895
# 2 58.1460 78.5266 33.5512 -13.5664 13.5080 -15.5249
# 3 23.0964 33.5512 103.4930 -31.8983 19.3375 -3.1571
# 4 -25.0343 -13.5664 -31.8983 34.4862 -14.9796 7.8003
# 5 28.0005 13.5080 19.3375 -14.9796 48.6998 -2.0171
# 6 -16.1895 -15.5249 -3.1571 7.8003 -2.0171 49.1313
#
#
#
# Elastic Compliance Matrix: (Units=1/GPa)
#
#
# Indices 1 2 3 4 5 6 
#
# 1 0.011239 -0.007687 0.002430 0.005778 -0.003502 0.000370
# 2 -0.007687 0.021301 -0.006292 -0.004046 -0.000051 0.004434
# 3 0.002430 -0.006292 0.015568 0.013451 -0.001796 -0.002396
# 4 0.005778 -0.004046 0.013451 0.048473 0.007124 -0.005914
# 5 -0.003502 -0.000051 -0.001796 0.007124 0.025409 -0.001373
# 6 0.000370 0.004434 -0.002396 -0.005914 -0.001373 0.022605
#
#
# Mechanical properties :
#
#
# Convention : Reuss Voigt Hill
#
# Bulk Modulus (GPa) = 39.98248 61.94266 50.96257
# Shear Modulus (GPa) = 28.40418 40.67033 34.53725
#
# Velocity S-wave (km/s) = 3.45612 4.13559 3.81103
# Velocity P-wave (km/s) = 5.72191 6.98948 6.38722
#
# Compressibility (1/GPa) = 0.02501096
#
# Stress axis : x y z
#
# Youngs Moduli (GPa) = 88.97576 46.94592 64.23340
#
# Poissons Ratio (x) = 0.36086 -0.15610
# Poissons Ratio (y) = 0.68393 0.40417
# Poissons Ratio (z) = -0.21623 0.29540
#
# Static dielectric constant tensor:
#      x y z
#    x 1.941880 -0.020810 -0.076970 
#    y -0.020810 1.894130 -0.001010 
#    z -0.076970 -0.001010 2.069620 
# 
# From -- ./inp_files/3963.got.cif
#   From: 2010.05.17/outbox.cif.g08.bks.cpg/sg2_2_cif.got.tgz:3963.got - 2010.06.03 11:33:40.
