data_PCOD9048097
_publ_section_title
;
Structure prediction by ZEFSAII (Michael W. Deem and Ramdas Pophale) SiO2 
 PCOD9048097
Probable space group: P -1
;
_chemical_formula_sum "Si O2"
_cell_formula_units_Z 12
_cell_length_a 5.201136
_cell_length_b 8.924803
_cell_length_c 13.935450
_cell_angle_alpha 52.839670
_cell_angle_beta 98.829066
_cell_angle_gamma 95.602356
_cell_volume 509.404444
_symmetry_space_group_name_H-M "P -1"
_symmetry_group_IT_number 2
_symmetry_cell_setting 'triclinic'
loop_
_space_group_symop_operation_xyz
x,y,z
-x,-y,-z
loop_
_atom_site_type_symbol
_atom_site_label
_atom_site_fract_x
_atom_site_fract_y
_atom_site_fract_z
Si Si1 0.700124 0.834373 0.094849
Si Si2 0.972894 0.184187 0.046101
Si Si3 0.677847 0.448985 0.780002
Si Si4 0.125235 0.170180 0.271078
Si Si5 0.374463 0.020132 0.591666
Si Si6 0.223899 0.446253 0.459964
O O1 0.599025 0.651675 0.214462
O O2 0.768278 0.772739 0.015039
O O3 0.918409 0.960364 0.112744
O O4 0.500000 0.000000 0.000000
O O5 0.992802 0.226097 0.141804
O O6 0.786568 0.316624 0.921624
O O7 0.711702 0.657800 0.740717
O O8 0.814512 0.451195 0.684110
O O9 0.358091 0.022186 0.317743
O O10 0.879832 0.108896 0.347939
O O11 0.500000 0.000000 0.500000
O O12 0.258136 0.225259 0.524764
O O13 0.500000 0.500000 0.500000
O O14 0.000000 0.500000 0.500000
#
# Coordination Sequence:
#
# PCOD9048097 Si02
#       6
#     2   2   2   2   2   2
#     4   9  22  42  67 100 152 190 244 302 379 439
#     4  10  24  44  73 109 147 197 247 312 387 447
#     4  11  26  46  73 108 153 192 255 318 375 455
#     4  12  28  46  82 109 152 201 252 310 385 462
#     4  12  28  52  76 108 158 203 253 312 382 448
#     4  12  30  49  79 113 149 203 262 314 377 452
#
# _framework density 23.556923000000001
#
# number of rings (size 3 to 8) (size 9 to 14) (size 15 to 20)
#    0.000    1.000    1.667    2.000   14.000    6.000 
#    0.000    0.000    0.000    0.000    0.000    0.000 
#    0.000    0.000    0.000    0.000    0.000    0.000 
#
# Total GULP energy -66908.920706 kJ/mol
# GULP energy per Si atom -5575.743392 kJ/mol
# Density = 2.350331 g / cm^3
# Si number density = 23.556923 Si / 1000 Ang^3
#
#
#
# Elastic Constant Matrix: (Units=GPa)
#
#
# Indices 1 2 3 4 5 6 
#
# 1 162.2265 42.1619 46.7183 -21.0069 -20.2315 -8.3342
# 2 42.1619 98.7244 48.2752 -16.6799 -24.6839 -6.8527
# 3 46.7183 48.2752 98.6113 -10.3451 -7.6834 3.7188
# 4 -21.0069 -16.6799 -10.3451 31.9229 8.6420 -4.9877
# 5 -20.2315 -24.6839 -7.6834 8.6420 46.3515 1.7277
# 6 -8.3342 -6.8527 3.7188 -4.9877 1.7277 31.2679
#
#
#
# Elastic Compliance Matrix: (Units=1/GPa)
#
#
# Indices 1 2 3 4 5 6 
#
# 1 0.008109 -0.000616 -0.003090 0.003969 0.001850 0.002925
# 2 -0.000616 0.016549 -0.006973 0.005025 0.006275 0.004747
# 3 -0.003090 -0.006973 0.014905 -0.000878 -0.002273 -0.004139
# 4 0.003969 0.005025 -0.000878 0.038495 -0.003234 0.008583
# 5 0.001850 0.006275 -0.002273 -0.003234 0.025942 0.000189
# 6 0.002925 0.004747 -0.004139 0.008583 0.000189 0.035653
#
#
# Mechanical properties :
#
#
# Convention : Reuss Voigt Hill
#
# Bulk Modulus (GPa) = 54.92693 70.43033 62.67863
# Shear Modulus (GPa) = 29.92580 36.73558 33.33069
#
# Velocity S-wave (km/s) = 3.56808 3.95326 3.76560
# Velocity P-wave (km/s) = 6.35155 7.12745 6.75066
#
# Compressibility (1/GPa) = 0.01820600
#
# Stress axis : x y z
#
# Youngs Moduli (GPa) = 123.31756 60.42577 67.09074
#
# Poissons Ratio (x) = 0.03722 0.20731
# Poissons Ratio (y) = 0.07595 0.46781
# Poissons Ratio (z) = 0.38106 0.42134
#
# Static dielectric constant tensor:
#      x y z
#    x 2.777740 0.001920 0.512140 
#    y 0.001920 1.890730 -0.076090 
#    z 0.512140 -0.076090 2.258570 
# 
# From -- ./inp_files/479579.got.cif
#   From: 2010.05.17/outbox.cif.g08.bks.cpg/sg2_240_cif.got.tgz:479579.got - 2010.06.03 11:33:40.
