data_PCOD9048317
_publ_section_title
;
Structure prediction by ZEFSAII (Michael W. Deem and Ramdas Pophale) SiO2 
 PCOD9048317
Probable space group: P -1
;
_chemical_formula_sum "Si O2"
_cell_formula_units_Z 12
_cell_length_a 8.913424
_cell_length_b 12.198202
_cell_length_c 8.959894
_cell_angle_alpha 140.333012
_cell_angle_beta 70.442093
_cell_angle_gamma 130.144374
_cell_volume 448.555962
_symmetry_space_group_name_H-M "P -1"
_symmetry_group_IT_number 2
_symmetry_cell_setting 'triclinic'
loop_
_space_group_symop_operation_xyz
x,y,z
-x,-y,-z
loop_
_atom_site_type_symbol
_atom_site_label
_atom_site_fract_x
_atom_site_fract_y
_atom_site_fract_z
Si Si1 0.245811 0.997291 0.512072
Si Si2 0.253050 0.803910 0.885866
Si Si3 0.291827 0.733991 0.465579
Si Si4 0.342334 0.545999 0.767689
Si Si5 0.804785 0.867702 0.816532
Si Si6 0.154555 0.326871 0.898844
O O1 0.256215 0.872092 0.514682
O O2 0.052786 0.812810 0.278971
O O3 0.460669 0.130801 0.487375
O O4 0.208290 0.167703 0.752505
O O5 0.210197 0.715566 0.638286
O O6 0.230674 0.639602 0.842576
O O7 0.500000 0.000000 0.000000
O O8 0.170935 0.938187 0.077329
O O9 0.179534 0.485011 0.184289
O O10 0.584635 0.718513 0.821494
O O11 0.227648 0.310725 0.473737
O O12 0.324511 0.509042 0.910110
O O13 0.000000 0.000000 0.000000
#
# Coordination Sequence:
#
# PCOD9048317 Si02
#       6
#     2   2   2   2   2   2
#     4  10  26  45  72 105 140 185 229 288 347 412
#     4  10  25  47  70 101 145 183 225 293 350 407
#     4  11  25  46  73 102 139 186 235 282 354 412
#     4  10  25  45  72 103 140 178 232 292 344 410
#     4  10  24  45  67 100 138 184 226 278 351 414
#     4  11  25  48  74 104 140 182 237 288 346 411
#
# _framework density 26.752514999999999
#
# number of rings (size 3 to 8) (size 9 to 14) (size 15 to 20)
#    0.000    1.667    0.000    1.000   18.667    2.000 
#    3.000    0.000    0.000    0.000    0.000    0.000 
#    0.000    0.000    0.000    0.000    0.000    0.000 
#
# Total GULP energy -67441.054747 kJ/mol
# GULP energy per Si atom -5620.087896 kJ/mol
# Density = 2.669163 g / cm^3
# Si number density = 26.752515 Si / 1000 Ang^3
#
#
#
# Elastic Constant Matrix: (Units=GPa)
#
#
# Indices 1 2 3 4 5 6 
#
# 1 163.2928 25.9377 61.0012 22.6148 -6.7043 -10.3464
# 2 25.9377 84.6167 50.7886 27.4372 0.1872 -7.0289
# 3 61.0012 50.7886 169.0138 19.0227 -12.8533 -25.5733
# 4 22.6148 27.4372 19.0227 47.1186 -2.8913 -0.4829
# 5 -6.7043 0.1872 -12.8533 -2.8913 54.4661 17.0168
# 6 -10.3464 -7.0289 -25.5733 -0.4829 17.0168 45.4534
#
#
#
# Elastic Compliance Matrix: (Units=1/GPa)
#
#
# Indices 1 2 3 4 5 6 
#
# 1 0.007372 -0.000008 -0.002311 -0.002589 0.000131 0.000300
# 2 -0.000008 0.017137 -0.004210 -0.008375 -0.001764 0.000851
# 3 -0.002311 -0.004210 0.008560 0.000183 0.000705 0.003377
# 4 -0.002589 -0.008375 0.000183 0.027362 0.001893 -0.002200
# 5 0.000131 -0.001764 0.000705 0.001893 0.021058 -0.007710
# 6 0.000300 0.000851 0.003377 -0.002200 -0.007710 0.026964
#
#
# Mechanical properties :
#
#
# Convention : Reuss Voigt Hill
#
# Bulk Modulus (GPa) = 49.97318 76.93092 63.45205
# Shear Modulus (GPa) = 39.00719 48.02068 43.51393
#
# Velocity S-wave (km/s) = 3.82262 4.24134 4.03741
# Velocity P-wave (km/s) = 6.18090 7.26665 6.74566
#
# Compressibility (1/GPa) = 0.02001073
#
# Stress axis : x y z
#
# Youngs Moduli (GPa) = 135.65419 58.35163 116.82356
#
# Poissons Ratio (x) = 0.00048 0.27003
# Poissons Ratio (y) = 0.00111 0.49178
# Poissons Ratio (z) = 0.31356 0.24563
#
# Static dielectric constant tensor:
#      x y z
#    x 2.098830 0.111240 -0.010380 
#    y 0.111240 2.159320 -0.027650 
#    z -0.010380 -0.027650 2.067580 
# 
# From -- ./inp_files/191081.got.cif
#   From: 2010.05.17/outbox.cif.g08.bks.cpg/sg2_96_cif.got.tgz:191081.got - 2010.06.03 11:33:40.
