data_PCOD9048711
_publ_section_title
;
Structure prediction by ZEFSAII (Michael W. Deem and Ramdas Pophale) SiO2 
 PCOD9048711
Probable space group: P -1
;
_chemical_formula_sum "Si O2"
_cell_formula_units_Z 12
_cell_length_a 13.191285
_cell_length_b 10.573656
_cell_length_c 11.111708
_cell_angle_alpha 136.835331
_cell_angle_beta 148.905626
_cell_angle_gamma 33.169993
_cell_volume 437.496329
_symmetry_space_group_name_H-M "P -1"
_symmetry_group_IT_number 2
_symmetry_cell_setting 'triclinic'
loop_
_space_group_symop_operation_xyz
x,y,z
-x,-y,-z
loop_
_atom_site_type_symbol
_atom_site_label
_atom_site_fract_x
_atom_site_fract_y
_atom_site_fract_z
Si Si1 0.025192 0.742080 0.981585
Si Si2 0.472340 0.081667 0.663387
Si Si3 0.698606 0.143810 0.225774
Si Si4 0.691052 0.504299 0.116915
Si Si5 0.585482 0.238189 0.458971
Si Si6 0.940380 0.361424 0.696888
O O1 0.106391 0.717441 0.906865
O O2 0.757914 0.975600 0.902094
O O3 0.010381 0.526923 0.839549
O O4 0.226054 0.733902 0.260370
O O5 0.396668 0.964600 0.595060
O O6 0.500000 0.000000 0.500000
O O7 0.263432 0.354068 0.648162
O O8 0.625405 0.189636 0.324259
O O9 0.862630 0.238576 0.440773
O O10 0.467837 0.303620 0.016928
O O11 0.846204 0.867164 0.172247
O O12 0.500000 0.500000 0.000000
O O13 0.308889 0.462335 0.360149
#
# Coordination Sequence:
#
# PCOD9048711 Si02
#       6
#     2   2   2   2   2   2
#     4  11  26  47  78 107 143 195 239 297 367 430
#     4  11  28  50  74 107 147 195 245 297 358 435
#     4  11  25  47  72 110 150 187 239 305 359 427
#     4  12  28  50  75 104 147 196 245 295 363 433
#     4  11  24  47  74 110 149 184 242 302 361 429
#     4  10  24  45  71 110 148 184 235 298 365 421
#
# _framework density 27.428801
#
# number of rings (size 3 to 8) (size 9 to 14) (size 15 to 20)
#    0.000    1.000    1.667    2.500    7.000    6.667 
#    0.000    0.000    0.000    0.000    0.000    0.000 
#    0.000    0.000    0.000    0.000    0.000    0.000 
#
# Total GULP energy -67220.505196 kJ/mol
# GULP energy per Si atom -5601.708766 kJ/mol
# Density = 2.736637 g / cm^3
# Si number density = 27.428801 Si / 1000 Ang^3
#
#
#
# Elastic Constant Matrix: (Units=GPa)
#
#
# Indices 1 2 3 4 5 6 
#
# 1 154.6182 33.9295 50.6562 8.0902 19.0997 -26.0398
# 2 33.9295 131.2157 28.1430 12.4006 30.2580 -27.4715
# 3 50.6562 28.1430 103.1727 0.8417 19.6578 -16.5010
# 4 8.0902 12.4006 0.8417 45.8913 0.8410 11.0714
# 5 19.0997 30.2580 19.6578 0.8410 48.4312 1.3311
# 6 -26.0398 -27.4715 -16.5010 11.0714 1.3311 45.6287
#
#
#
# Elastic Compliance Matrix: (Units=1/GPa)
#
#
# Indices 1 2 3 4 5 6 
#
# 1 0.008643 0.000182 -0.003084 -0.002588 -0.002352 0.004623
# 2 0.000182 0.011565 -0.000493 -0.005022 -0.007238 0.008318
# 3 -0.003084 -0.000493 0.012438 -0.000106 -0.003593 0.002571
# 4 -0.002588 -0.005022 -0.000106 0.026188 0.004049 -0.011011
# 5 -0.002352 -0.007238 -0.003593 0.004049 0.027727 -0.008791
# 6 0.004623 0.008318 0.002571 -0.011011 -0.008791 0.033420
#
#
# Mechanical properties :
#
#
# Convention : Reuss Voigt Hill
#
# Bulk Modulus (GPa) = 38.67970 68.27379 53.47675
# Shear Modulus (GPa) = 36.92993 46.40876 41.66934
#
# Velocity S-wave (km/s) = 3.67330 4.11782 3.90190
# Velocity P-wave (km/s) = 5.66775 6.89593 6.31178
#
# Compressibility (1/GPa) = 0.02585336
#
# Stress axis : x y z
#
# Youngs Moduli (GPa) = 115.70419 86.46740 80.39834
#
# Poissons Ratio (x) = -0.01570 0.24798
# Poissons Ratio (y) = -0.02100 0.03967
# Poissons Ratio (z) = 0.35687 0.04266
#
# Static dielectric constant tensor:
#      x y z
#    x 2.160350 0.043730 0.020480 
#    y 0.043730 2.238620 0.166930 
#    z 0.020480 0.166930 2.510550 
# 
# From -- ./inp_files/531338.got.cif
#   From: 2010.05.17/outbox.cif.g08.bks.cpg/sg2_266_cif.got.tgz:531338.got - 2010.06.03 11:33:40.
