data_PCOD9048342
_publ_section_title
;
Structure prediction by ZEFSAII (Michael W. Deem and Ramdas Pophale) SiO2 
 PCOD9048342
Probable space group: P -1
;
_chemical_formula_sum "Si O2"
_cell_formula_units_Z 14
_cell_length_a 24.587496
_cell_length_b 9.707930
_cell_length_c 9.157854
_cell_angle_alpha 129.346449
_cell_angle_beta 29.415152
_cell_angle_gamma 140.549763
_cell_volume 676.917081
_symmetry_space_group_name_H-M "P -1"
_symmetry_group_IT_number 2
_symmetry_cell_setting 'triclinic'
loop_
_space_group_symop_operation_xyz
x,y,z
-x,-y,-z
loop_
_atom_site_type_symbol
_atom_site_label
_atom_site_fract_x
_atom_site_fract_y
_atom_site_fract_z
Si Si1 0.205311 0.018557 0.103066
Si Si2 0.651114 0.590180 0.168850
Si Si3 0.354254 0.831807 0.151052
Si Si4 0.098660 0.745675 0.874006
Si Si5 0.202974 0.332079 0.824293
Si Si6 0.646426 0.146433 0.176108
Si Si7 0.937492 0.935992 0.281818
O O1 0.097025 0.028724 0.453792
O O2 0.153155 0.882592 0.986571
O O3 0.263750 0.921382 0.004914
O O4 0.312983 0.259095 0.953059
O O5 0.500000 0.500000 0.500000
O O6 0.733424 0.698642 0.200377
O O7 0.670052 0.402657 0.957544
O O8 0.226610 0.798806 0.513212
O O9 0.364602 0.898181 0.001595
O O10 0.500000 0.000000 0.000000
O O11 0.000000 0.500000 0.000000
O O12 0.011061 0.813664 0.041390
O O13 0.279073 0.591466 0.802711
O O14 0.194799 0.214250 0.612747
O O15 0.042109 0.178669 0.135418
O O16 0.500000 0.000000 0.500000
#
# Coordination Sequence:
#
# PCOD9048342 Si02
#       7
#     2   2   2   2   2   2   2
#     4  12  25  41  68 101 135 175 235 282 347 406
#     4  11  23  45  72  98 136 179 228 288 338 419
#     4  11  26  45  72  98 140 187 230 282 357 414
#     4  12  25  43  68 103 142 179 232 289 347 417
#     4  10  24  45  67  95 139 175 232 273 361 403
#     4  11  25  45  68 100 139 179 231 290 348 421
#     4  11  25  42  70  98 139 181 230 288 343 418
#
# _framework density 20.682002000000001
#
# number of rings (size 3 to 8) (size 9 to 14) (size 15 to 20)
#    0.000    0.857    1.429    5.571    8.000    1.714 
#    0.000    2.143    0.000    0.000    0.000    0.000 
#    0.000    0.000    0.000    0.000    0.000    0.000 
#
# Total GULP energy -78183.182655 kJ/mol
# GULP energy per Si atom -5584.513047 kJ/mol
# Density = 2.063493 g / cm^3
# Si number density = 20.682002 Si / 1000 Ang^3
#
#
#
# Elastic Constant Matrix: (Units=GPa)
#
#
# Indices 1 2 3 4 5 6 
#
# 1 130.3308 43.9361 34.8628 -5.4356 18.8674 7.6347
# 2 43.9361 108.3018 48.0590 -18.9312 11.7996 -10.7539
# 3 34.8628 48.0590 149.1193 -4.5265 25.1367 -0.1105
# 4 -5.4356 -18.9312 -4.5265 29.5589 -2.6141 10.3302
# 5 18.8674 11.7996 25.1367 -2.6141 37.2380 -0.4560
# 6 7.6347 -10.7539 -0.1105 10.3302 -0.4560 42.3918
#
#
#
# Elastic Compliance Matrix: (Units=1/GPa)
#
#
# Indices 1 2 3 4 5 6 
#
# 1 0.009679 -0.003576 -0.000531 0.000048 -0.003442 -0.002700
# 2 -0.003576 0.013563 -0.003380 0.006681 0.000295 0.002451
# 3 -0.000531 -0.003380 0.008658 -0.001167 -0.004592 -0.000505
# 4 0.000048 0.006681 -0.001167 0.040960 0.001420 -0.008283
# 5 -0.003442 0.000295 -0.004592 0.001420 0.031713 0.000678
# 6 -0.002700 0.002451 -0.000505 -0.008283 0.000678 0.026722
#
#
# Mechanical properties :
#
#
# Convention : Reuss Voigt Hill
#
# Bulk Modulus (GPa) = 59.07961 71.27419 65.17690
# Shear Modulus (GPa) = 32.91419 39.23066 36.07242
#
# Velocity S-wave (km/s) = 3.99361 4.36001 4.18083
# Velocity P-wave (km/s) = 7.06350 7.73841 7.40864
#
# Compressibility (1/GPa) = 0.01692631
#
# Stress axis : x y z
#
# Youngs Moduli (GPa) = 103.32026 73.72913 115.50180
#
# Poissons Ratio (x) = 0.26363 0.06129
# Poissons Ratio (y) = 0.36944 0.39043
# Poissons Ratio (z) = 0.05483 0.24923
#
# Static dielectric constant tensor:
#      x y z
#    x 1.803770 -0.028460 0.036630 
#    y -0.028460 1.818000 -0.033680 
#    z 0.036630 -0.033680 1.755860 
# 
# From -- ./inp_files/174386.got.cif
#   From: 2010.05.17/outbox.cif.g08.bks.cpg/sg2_88_cif.got.tgz:174386.got - 2010.06.03 11:33:40.
