data_PCOD9048519
_publ_section_title
;
Structure prediction by ZEFSAII (Michael W. Deem and Ramdas Pophale) SiO2 
 PCOD9048519
Probable space group: P -1
;
_chemical_formula_sum "Si O2"
_cell_formula_units_Z 14
_cell_length_a 8.753993
_cell_length_b 6.711409
_cell_length_c 13.246727
_cell_angle_alpha 77.913717
_cell_angle_beta 63.606637
_cell_angle_gamma 54.731576
_cell_volume 567.995133
_symmetry_space_group_name_H-M "P -1"
_symmetry_group_IT_number 2
_symmetry_cell_setting 'triclinic'
loop_
_space_group_symop_operation_xyz
x,y,z
-x,-y,-z
loop_
_atom_site_type_symbol
_atom_site_label
_atom_site_fract_x
_atom_site_fract_y
_atom_site_fract_z
Si Si1 0.179569 0.072643 0.049881
Si Si2 0.441425 0.696602 0.404592
Si Si3 0.213092 0.185188 0.729691
Si Si4 0.548738 0.675158 0.697582
Si Si5 0.612628 0.816423 0.873918
Si Si6 0.822786 0.777828 0.493475
Si Si7 0.858771 0.363123 0.960803
O O1 0.242142 0.095053 0.142220
O O2 0.172740 0.841239 0.049933
O O3 0.963875 0.295181 0.046297
O O4 0.373312 0.026964 0.931611
O O5 0.500000 0.500000 0.500000
O O6 0.623678 0.737844 0.326681
O O7 0.416318 0.573969 0.325161
O O8 0.240980 0.967614 0.460345
O O9 0.141526 0.202323 0.635044
O O10 0.027059 0.351276 0.839414
O O11 0.316266 0.899828 0.758156
O O12 0.654702 0.686788 0.767248
O O13 0.623746 0.770109 0.574049
O O14 0.655267 0.620026 0.969135
O O15 0.000000 0.500000 0.500000
#
# Coordination Sequence:
#
# PCOD9048519 Si02
#       7
#     2   2   2   2   2   2   2
#     4  10  24  45  69  95 137 175 228 281 347 401
#     4  11  21  42  68  94 133 189 223 274 346 402
#     4  11  22  41  66  96 139 174 228 281 336 413
#     4  11  22  42  65  97 135 179 228 277 339 415
#     4  11  23  44  69  98 134 176 225 285 340 409
#     4  11  23  40  65  98 138 172 229 287 334 412
#     4  11  23  43  68 102 130 178 225 285 339 411
#
# _framework density 24.648097
#
# number of rings (size 3 to 8) (size 9 to 14) (size 15 to 20)
#    0.000    1.143    4.286    2.571    0.000    4.000 
#    2.571    0.000    0.000    0.000    0.000    0.000 
#    0.000    0.000    0.000    0.000    0.000    0.000 
#
# Total GULP energy -78167.629699 kJ/mol
# GULP energy per Si atom -5583.402121 kJ/mol
# Density = 2.459200 g / cm^3
# Si number density = 24.648097 Si / 1000 Ang^3
#
#
#
# Elastic Constant Matrix: (Units=GPa)
#
#
# Indices 1 2 3 4 5 6 
#
# 1 115.1139 49.2579 44.7652 7.9373 36.5968 17.4874
# 2 49.2579 144.5593 22.1934 21.1896 30.7941 18.0256
# 3 44.7652 22.1934 84.9602 16.4238 24.7797 20.0965
# 4 7.9373 21.1896 16.4238 33.2271 11.0122 12.0698
# 5 36.5968 30.7941 24.7797 11.0122 49.8000 4.4308
# 6 17.4874 18.0256 20.0965 12.0698 4.4308 51.5263
#
#
#
# Elastic Compliance Matrix: (Units=1/GPa)
#
#
# Indices 1 2 3 4 5 6 
#
# 1 0.014051 -0.002900 -0.004923 0.003960 -0.006765 -0.002180
# 2 -0.002900 0.009174 0.001179 -0.004200 -0.003072 -0.001437
# 3 -0.004923 0.001179 0.017205 -0.005303 -0.004157 -0.003852
# 4 0.003960 -0.004200 -0.005303 0.038637 -0.005651 -0.006371
# 5 -0.006765 -0.003072 -0.004157 -0.005651 0.029937 0.003741
# 6 -0.002180 -0.001437 -0.003852 -0.006371 0.003741 0.023323
#
#
# Mechanical properties :
#
#
# Convention : Reuss Voigt Hill
#
# Bulk Modulus (GPa) = 36.84096 64.11849 50.47973
# Shear Modulus (GPa) = 32.32891 42.13846 37.23368
#
# Velocity S-wave (km/s) = 3.62556 4.13922 3.89087
# Velocity P-wave (km/s) = 5.70135 6.99387 6.38043
#
# Compressibility (1/GPa) = 0.02714370
#
# Stress axis : x y z
#
# Youngs Moduli (GPa) = 71.16930 109.00574 58.12339
#
# Poissons Ratio (x) = 0.31607 0.28612
# Poissons Ratio (y) = 0.20636 -0.06854
# Poissons Ratio (z) = 0.35034 -0.12855
#
# Static dielectric constant tensor:
#      x y z
#    x 2.027220 -0.060250 0.012400 
#    y -0.060250 2.046300 0.019980 
#    z 0.012400 0.019980 1.977740 
# 
# From -- ./inp_files/52659.got.cif
#   From: 2010.05.17/outbox.cif.g08.bks.cpg/sg2_27_cif.got.tgz:52659.got - 2010.06.03 11:33:40.
