data_PCOD9048352
_publ_section_title
;
Structure prediction by ZEFSAII (Michael W. Deem and Ramdas Pophale) SiO2 
 PCOD9048352
Probable space group: P -1
;
_chemical_formula_sum "Si O2"
_cell_formula_units_Z 12
_cell_length_a 8.825059
_cell_length_b 12.611602
_cell_length_c 10.044955
_cell_angle_alpha 141.161652
_cell_angle_beta 123.182914
_cell_angle_gamma 58.182986
_cell_volume 575.839716
_symmetry_space_group_name_H-M "P -1"
_symmetry_group_IT_number 2
_symmetry_cell_setting 'triclinic'
loop_
_space_group_symop_operation_xyz
x,y,z
-x,-y,-z
loop_
_atom_site_type_symbol
_atom_site_label
_atom_site_fract_x
_atom_site_fract_y
_atom_site_fract_z
Si Si1 0.651566 0.825694 0.920375
Si Si2 0.581770 0.294173 0.819115
Si Si3 0.012809 0.855989 0.749952
Si Si4 0.603161 0.305976 0.139411
Si Si5 0.298535 0.322225 0.494704
Si Si6 0.036748 0.911127 0.287115
O O1 0.577026 0.701525 0.869149
O O2 0.670057 0.753182 0.710346
O O3 0.849265 0.854134 0.094082
O O4 0.500000 0.000000 0.000000
O O5 0.440478 0.232236 0.588217
O O6 0.784131 0.241373 0.797017
O O7 0.500000 0.500000 0.000000
O O8 0.592167 0.223591 0.906719
O O9 0.903033 0.706676 0.589180
O O10 0.229697 0.787604 0.780625
O O11 0.934266 0.943233 0.661742
O O12 0.000000 0.000000 0.000000
O O13 0.659593 0.487614 0.313428
O O14 0.000000 0.000000 0.500000
#
# Coordination Sequence:
#
# PCOD9048352 Si02
#       6
#     2   2   2   2   2   2
#     4  12  23  43  68 101 136 173 226 283 334 399
#     4  10  24  45  67  97 137 179 221 271 339 402
#     4  12  22  43  69  96 130 178 228 277 332 400
#     4  11  23  43  67  98 135 177 222 277 337 400
#     4  11  24  42  66  95 134 180 223 272 335 403
#     4  12  26  43  69 102 137 173 227 282 336 395
#
# _framework density 20.839130999999998
#
# number of rings (size 3 to 8) (size 9 to 14) (size 15 to 20)
#    0.000    0.667    5.000    2.000    2.333    2.000 
#    0.000    3.333    0.000    0.000    0.000    0.000 
#    0.000    0.000    0.000    0.000    0.000    0.000 
#
# Total GULP energy -66966.230924 kJ/mol
# GULP energy per Si atom -5580.519244 kJ/mol
# Density = 2.079170 g / cm^3
# Si number density = 20.839131 Si / 1000 Ang^3
#
#
#
# Elastic Constant Matrix: (Units=GPa)
#
#
# Indices 1 2 3 4 5 6 
#
# 1 141.0344 34.9092 52.7934 -8.7911 8.4558 5.1485
# 2 34.9092 70.7010 34.4248 -10.0963 -3.7907 -2.2400
# 3 52.7934 34.4248 126.4323 -35.3536 -8.0620 3.9684
# 4 -8.7911 -10.0963 -35.3536 37.3760 7.8804 4.6405
# 5 8.4558 -3.7907 -8.0620 7.8804 43.0070 -1.8086
# 6 5.1485 -2.2400 3.9684 4.6405 -1.8086 47.0057
#
#
#
# Elastic Compliance Matrix: (Units=1/GPa)
#
#
# Indices 1 2 3 4 5 6 
#
# 1 0.009311 -0.003240 -0.003528 -0.001379 -0.002560 -0.000839
# 2 -0.003240 0.017515 -0.003259 0.000372 0.001564 0.001488
# 3 -0.003528 -0.003259 0.013496 0.011129 0.000814 -0.001976
# 4 -0.001379 0.000372 0.011129 0.038684 -0.004899 -0.004778
# 5 -0.002560 0.001564 0.000814 -0.004899 0.025016 0.001732
# 6 -0.000839 0.001488 -0.001976 -0.004778 0.001732 0.022142
#
#
# Mechanical properties :
#
#
# Convention : Reuss Voigt Hill
#
# Bulk Modulus (GPa) = 49.34046 64.71360 57.02703
# Shear Modulus (GPa) = 32.68490 39.88043 36.28267
#
# Velocity S-wave (km/s) = 3.96465 4.37936 4.17716
# Velocity P-wave (km/s) = 6.68477 7.52948 7.11966
#
# Compressibility (1/GPa) = 0.02026734
#
# Stress axis : x y z
#
# Youngs Moduli (GPa) = 107.39432 57.09412 74.09723
#
# Poissons Ratio (x) = 0.18501 0.26143
# Poissons Ratio (y) = 0.34800 0.24147
# Poissons Ratio (z) = 0.37891 0.18606
#
# Static dielectric constant tensor:
#      x y z
#    x 1.712810 0.010510 0.052690 
#    y 0.010510 1.810940 -0.040930 
#    z 0.052690 -0.040930 1.574050 
# 
# From -- ./inp_files/145051.got.cif
#   From: 2010.05.17/outbox.cif.g08.bks.cpg/sg2_73_cif.got.tgz:145051.got - 2010.06.03 11:33:40.
