data_PCOD9048316
_publ_section_title
;
Structure prediction by ZEFSAII (Michael W. Deem and Ramdas Pophale) SiO2 
 PCOD9048316
Probable space group: P -1
;
_chemical_formula_sum "Si O2"
_cell_formula_units_Z 16
_cell_length_a 15.508639
_cell_length_b 9.014914
_cell_length_c 26.188832
_cell_angle_alpha 46.310993
_cell_angle_beta 27.524546
_cell_angle_gamma 29.345740
_cell_volume 772.590607
_symmetry_space_group_name_H-M "P -1"
_symmetry_group_IT_number 2
_symmetry_cell_setting 'triclinic'
loop_
_space_group_symop_operation_xyz
x,y,z
-x,-y,-z
loop_
_atom_site_type_symbol
_atom_site_label
_atom_site_fract_x
_atom_site_fract_y
_atom_site_fract_z
Si Si1 0.700900 0.636281 0.467468
Si Si2 0.581604 0.319674 0.751454
Si Si3 0.379742 0.523839 0.111676
Si Si4 0.186778 0.657436 0.624362
Si Si5 0.124472 0.490852 0.803810
Si Si6 0.246578 0.777027 0.730482
Si Si7 0.759625 0.390729 0.032053
Si Si8 0.635284 0.912192 0.737510
O O1 0.778301 0.545119 0.389245
O O2 0.503761 0.610176 0.594671
O O3 0.018676 0.375544 0.389259
O O4 0.500000 0.000000 0.500000
O O5 0.416559 0.629946 0.729985
O O6 0.397589 0.457381 0.866860
O O7 0.576050 0.130559 0.760775
O O8 0.925872 0.035096 0.654202
O O9 0.521363 0.539807 0.078249
O O10 0.457467 0.225432 0.157036
O O11 0.500000 0.500000 0.000000
O O12 0.024477 0.836592 0.221814
O O13 0.500000 0.500000 0.500000
O O14 0.107805 0.620233 0.728124
O O15 0.092294 0.693154 0.816209
O O16 0.444140 0.125618 0.737379
O O17 0.906380 0.485217 0.921576
O O18 0.000000 0.000000 0.000000
#
# Coordination Sequence:
#
# PCOD9048316 Si02
#       8
#     2   2   2   2   2   2   2   2
#     4  11  23  42  68  98 137 174 226 280 337 406
#     4  10  26  43  70  99 136 177 229 275 338 408
#     4  12  26  43  69  99 140 178 225 281 343 403
#     4  11  24  43  68  99 136 177 231 280 335 400
#     4  11  25  44  70  98 135 180 226 282 339 400
#     4  11  24  43  71 100 134 182 225 276 348 400
#     4  12  26  45  70 102 139 174 232 284 334 405
#     4  10  24  45  67 100 138 177 224 277 345 404
#
# _framework density 20.709544999999999
#
# number of rings (size 3 to 8) (size 9 to 14) (size 15 to 20)
#    0.000    1.000    3.750    1.500    7.000    4.500 
#    0.000    0.625    0.000    0.000    0.000    0.000 
#    0.000    0.000    0.000    0.000    0.000    0.000 
#
# Total GULP energy -89359.129364 kJ/mol
# GULP energy per Si atom -5584.945585 kJ/mol
# Density = 2.066241 g / cm^3
# Si number density = 20.709545 Si / 1000 Ang^3
#
#
#
# Elastic Constant Matrix: (Units=GPa)
#
#
# Indices 1 2 3 4 5 6 
#
# 1 77.7834 18.4079 28.2191 9.6889 -2.8164 -35.9497
# 2 18.4079 62.6613 1.7776 12.7846 -7.6163 -24.5804
# 3 28.2191 1.7776 70.5042 10.8519 -2.4734 -10.5053
# 4 9.6889 12.7846 10.8519 34.9459 2.2209 -4.3053
# 5 -2.8164 -7.6163 -2.4734 2.2209 34.7992 -4.4045
# 6 -35.9497 -24.5804 -10.5053 -4.3053 -4.4045 36.5566
#
#
#
# Elastic Compliance Matrix: (Units=1/GPa)
#
#
# Indices 1 2 3 4 5 6 
#
# 1 0.028746 0.005602 -0.006089 -0.004823 0.007300 0.030597
# 2 0.005602 0.027179 0.002633 -0.009938 0.010339 0.024616
# 3 -0.006089 0.002633 0.017406 -0.004734 0.001677 0.000429
# 4 -0.004823 -0.009938 -0.004734 0.034287 -0.006293 -0.009506
# 5 0.007300 0.010339 0.001677 -0.006293 0.034391 0.018015
# 6 0.030597 0.024616 0.000429 -0.009506 0.018015 0.075170
#
#
# Mechanical properties :
#
#
# Convention : Reuss Voigt Hill
#
# Bulk Modulus (GPa) = 12.88305 34.19536 23.53920
# Shear Modulus (GPa) = 20.94140 32.09664 26.51902
#
# Velocity S-wave (km/s) = 3.18338 3.94108 3.58232
# Velocity P-wave (km/s) = 4.44367 6.10387 5.33870
#
# Compressibility (1/GPa) = 0.07762139
#
# Stress axis : x y z
#
# Youngs Moduli (GPa) = 34.78744 36.79325 57.45253
#
# Poissons Ratio (x) = -0.20611 0.34984
# Poissons Ratio (y) = -0.19487 -0.15126
# Poissons Ratio (z) = 0.21183 -0.09687
#
# Static dielectric constant tensor:
#      x y z
#    x 1.747100 0.000950 -0.033770 
#    y 0.000950 1.795800 -0.006980 
#    z -0.033770 -0.006980 1.729500 
# 
# From -- ./inp_files/178719.got.cif
#   From: 2010.05.17/outbox.cif.g08.bks.cpg/sg2_90_cif.got.tgz:178719.got - 2010.06.03 11:33:40.
