data_PCOD9048296
_publ_section_title
;
Structure prediction by ZEFSAII (Michael W. Deem and Ramdas Pophale) SiO2 
 PCOD9048296
Probable space group: P -1
;
_chemical_formula_sum "Si O2"
_cell_formula_units_Z 14
_cell_length_a 10.927282
_cell_length_b 12.388935
_cell_length_c 5.276300
_cell_angle_alpha 100.453449
_cell_angle_beta 80.257308
_cell_angle_gamma 129.109287
_cell_volume 543.645402
_symmetry_space_group_name_H-M "P -1"
_symmetry_group_IT_number 2
_symmetry_cell_setting 'triclinic'
loop_
_space_group_symop_operation_xyz
x,y,z
-x,-y,-z
loop_
_atom_site_type_symbol
_atom_site_label
_atom_site_fract_x
_atom_site_fract_y
_atom_site_fract_z
Si Si1 0.634560 0.765564 0.287350
Si Si2 0.641928 0.314660 0.367521
Si Si3 0.004621 0.814404 0.372851
Si Si4 0.874131 0.522341 0.743677
Si Si5 0.322857 0.454251 0.840711
Si Si6 0.824212 0.274836 0.981875
Si Si7 0.150819 0.102234 0.226825
O O1 0.480681 0.755374 0.388276
O O2 0.587673 0.611170 0.220707
O O3 0.739189 0.839330 0.534788
O O4 0.738669 0.841310 0.033004
O O5 0.817696 0.443298 0.463472
O O6 0.595453 0.395593 0.250021
O O7 0.662502 0.214139 0.160725
O O8 0.841750 0.664467 0.296768
O O9 0.962756 0.854705 0.665192
O O10 0.044481 0.935833 0.220185
O O11 0.144565 0.803899 0.266326
O O12 0.040440 0.665768 0.824184
O O13 0.743828 0.541892 0.866677
O O14 0.852288 0.405222 0.883040
#
# Coordination Sequence:
#
# PCOD9048296 Si02
#       7
#     2   2   2   2   2   2   2
#     4  11  25  42  64  92 134 167 209 251 318 380
#     4  11  22  37  62  94 132 167 199 255 318 394
#     4   9  20  43  67  89 122 157 221 271 308 354
#     4   9  19  35  59  90 127 161 208 253 315 370
#     4   9  21  37  61  95 121 164 206 262 314 368
#     4   9  19  39  59  95 121 162 207 263 311 372
#     4  10  24  45  66  93 119 170 216 267 304 365
#
# _framework density 25.752079999999999
#
# number of rings (size 3 to 8) (size 9 to 14) (size 15 to 20)
#    0.000    2.286    0.000    1.714    8.000    5.714 
#   10.286    1.429    0.000    0.000    0.000    0.000 
#    0.000    0.000    0.000    0.000    0.000    0.000 
#
# Total GULP energy -78196.848826 kJ/mol
# GULP energy per Si atom -5585.489202 kJ/mol
# Density = 2.569347 g / cm^3
# Si number density = 25.752080 Si / 1000 Ang^3
#
#
#
# Elastic Constant Matrix: (Units=GPa)
#
#
# Indices 1 2 3 4 5 6 
#
# 1 96.4088 36.6916 58.2574 -9.0643 -37.8323 -8.3138
# 2 36.6916 63.6344 49.5490 -2.1230 -14.9256 -2.8498
# 3 58.2574 49.5490 189.2553 -16.5108 -45.7644 -4.3450
# 4 -9.0643 -2.1230 -16.5108 33.0569 6.2380 -1.2849
# 5 -37.8323 -14.9256 -45.7644 6.2380 65.1953 16.0318
# 6 -8.3138 -2.8498 -4.3450 -1.2849 16.0318 26.5473
#
#
#
# Elastic Compliance Matrix: (Units=1/GPa)
#
#
# Indices 1 2 3 4 5 6 
#
# 1 0.016799 -0.006795 -0.001547 0.002116 0.006843 0.000248
# 2 -0.006795 0.022626 -0.004455 -0.002272 -0.001809 0.000554
# 3 -0.001547 -0.004455 0.008061 0.002491 0.003975 -0.001924
# 4 0.002116 -0.002272 0.002491 0.032327 -0.001439 0.003260
# 5 0.006843 -0.001809 0.003975 -0.001439 0.024899 -0.012507
# 6 0.000248 0.000554 -0.001924 0.003260 -0.012507 0.045201
#
#
# Mechanical properties :
#
#
# Convention : Reuss Voigt Hill
#
# Bulk Modulus (GPa) = 45.67869 70.92160 58.30015
# Shear Modulus (GPa) = 27.35135 38.61327 32.98231
#
# Velocity S-wave (km/s) = 3.26253 3.87644 3.58266
# Velocity P-wave (km/s) = 5.65407 6.90186 6.30889
#
# Compressibility (1/GPa) = 0.02189205
#
# Stress axis : x y z
#
# Youngs Moduli (GPa) = 59.52674 44.19614 124.05438
#
# Poissons Ratio (x) = 0.30031 0.19193
# Poissons Ratio (y) = 0.40448 0.55269
# Poissons Ratio (z) = 0.09210 0.19690
#
# Static dielectric constant tensor:
#      x y z
#    x 2.125160 0.028820 0.018230 
#    y 0.028820 1.992150 0.002940 
#    z 0.018230 0.002940 2.096320 
# 
# From -- ./inp_files/71143.got.cif
#   From: 2010.05.17/outbox.cif.g08.bks.cpg/sg2_36_cif.got.tgz:71143.got - 2010.06.03 11:33:40.
