data_PCOD9048547
_publ_section_title
;
Structure prediction by ZEFSAII (Michael W. Deem and Ramdas Pophale) SiO2 
 PCOD9048547
Probable space group: P -1
;
_chemical_formula_sum "Si O2"
_cell_formula_units_Z 16
_cell_length_a 13.654331
_cell_length_b 14.177106
_cell_length_c 11.801384
_cell_angle_alpha 138.092383
_cell_angle_beta 24.112435
_cell_angle_gamma 135.912411
_cell_volume 616.972248
_symmetry_space_group_name_H-M "P -1"
_symmetry_group_IT_number 2
_symmetry_cell_setting 'triclinic'
loop_
_space_group_symop_operation_xyz
x,y,z
-x,-y,-z
loop_
_atom_site_type_symbol
_atom_site_label
_atom_site_fract_x
_atom_site_fract_y
_atom_site_fract_z
Si Si1 0.205678 0.949331 0.156880
Si Si2 0.106760 0.579313 0.571533
Si Si3 0.339226 0.873515 0.489990
Si Si4 0.604139 0.182621 0.870382
Si Si5 0.977055 0.663718 0.188388
Si Si6 0.276379 0.301313 0.746383
Si Si7 0.939198 0.003417 0.274226
Si Si8 0.626176 0.560872 0.655814
O O1 0.208213 0.786260 0.048130
O O2 0.138490 0.944040 0.087534
O O3 0.000000 0.000000 0.500000
O O4 0.433002 0.071828 0.028561
O O5 0.273754 0.727897 0.497325
O O6 0.262626 0.469802 0.368874
O O7 0.000000 0.500000 0.500000
O O8 0.904002 0.627130 0.914282
O O9 0.471903 0.840372 0.203382
O O10 0.500000 0.000000 0.500000
O O11 0.085235 0.919260 0.750759
O O12 0.857516 0.124685 0.549559
O O13 0.594200 0.347897 0.044123
O O14 0.815272 0.700606 0.286969
O O15 0.829358 0.654577 0.451717
O O16 0.000000 0.500000 0.000000
O O17 0.264878 0.136617 0.645924
O O18 0.531365 0.402150 0.570993
#
# Coordination Sequence:
#
# PCOD9048547 Si02
#       8
#     2   2   2   2   2   2   2   2
#     4  11  23  43  69  99 131 177 223 278 344 403
#     4  12  28  45  71 104 139 186 237 282 347 410
#     4  10  24  45  69  99 135 183 226 284 343 396
#     4  10  25  44  67  98 139 171 226 280 339 405
#     4  11  24  43  70 101 136 180 223 286 346 410
#     4  11  25  45  72 101 137 180 232 285 345 414
#     4   9  25  43  65  99 133 174 226 278 337 400
#     4  12  25  46  70 101 141 180 230 282 349 414
#
# _framework density 25.933095999999999
#
# number of rings (size 3 to 8) (size 9 to 14) (size 15 to 20)
#    0.750    0.500    2.500    1.875    7.000    5.000 
#    0.000    0.000    0.000    0.000    0.000    0.000 
#    0.000    0.000    0.000    0.000    0.000    0.000 
#
# Total GULP energy -89363.921261 kJ/mol
# GULP energy per Si atom -5585.245079 kJ/mol
# Density = 2.587407 g / cm^3
# Si number density = 25.933096 Si / 1000 Ang^3
#
#
#
# Elastic Constant Matrix: (Units=GPa)
#
#
# Indices 1 2 3 4 5 6 
#
# 1 106.4625 38.5419 -8.3100 -1.9373 7.0289 -8.7558
# 2 38.5419 169.0485 41.4249 6.2288 12.6270 -11.8722
# 3 -8.3100 41.4249 59.9329 4.2099 10.2444 -12.1760
# 4 -1.9373 6.2288 4.2099 43.8031 -11.6875 -0.1827
# 5 7.0289 12.6270 10.2444 -11.6875 23.7500 7.4089
# 6 -8.7558 -11.8722 -12.1760 -0.1827 7.4089 59.4872
#
#
#
# Elastic Compliance Matrix: (Units=1/GPa)
#
#
# Indices 1 2 3 4 5 6 
#
# 1 0.011606 -0.003356 0.005489 -0.000959 -0.005372 0.002828
# 2 -0.003356 0.008272 -0.005808 -0.001172 -0.001524 0.000154
# 3 0.005489 -0.005808 0.025595 -0.005147 -0.014180 0.006638
# 4 -0.000959 -0.001172 -0.005147 0.028281 0.018169 -0.003605
# 5 -0.005372 -0.001524 -0.014180 0.018169 0.063251 -0.011819
# 6 0.002828 0.000154 0.006638 -0.003605 -0.011819 0.020077
#
#
# Mechanical properties :
#
#
# Convention : Reuss Voigt Hill
#
# Bulk Modulus (GPa) = 26.23126 53.19528 39.71327
# Shear Modulus (GPa) = 28.22621 42.99385 35.61003
#
# Velocity S-wave (km/s) = 3.30271 4.07612 3.70962
# Velocity P-wave (km/s) = 4.96797 6.53529 5.80477
#
# Compressibility (1/GPa) = 0.03812245
#
# Stress axis : x y z
#
# Youngs Moduli (GPa) = 86.16061 120.89197 39.06996
#
# Poissons Ratio (x) = 0.40571 -0.21446
# Poissons Ratio (y) = 0.28915 0.22694
# Poissons Ratio (z) = -0.47294 0.70220
#
# Static dielectric constant tensor:
#      x y z
#    x 2.054580 0.072160 -0.045640 
#    y 0.072160 1.896160 0.042280 
#    z -0.045640 0.042280 2.101860 
# 
# From -- ./inp_files/455048.got.cif
#   From: 2010.05.17/outbox.cif.g08.bks.cpg/sg2_228_cif.got.tgz:455048.got - 2010.06.03 11:33:40.
