data_PCOD9048639
_publ_section_title
;
Structure prediction by ZEFSAII (Michael W. Deem and Ramdas Pophale) SiO2 
 PCOD9048639
Probable space group: P -1
;
_chemical_formula_sum "Si O2"
_cell_formula_units_Z 16
_cell_length_a 22.174382
_cell_length_b 16.680816
_cell_length_c 10.004071
_cell_angle_alpha 33.515324
_cell_angle_beta 34.424117
_cell_angle_gamma 26.792649
_cell_volume 871.312978
_symmetry_space_group_name_H-M "P -1"
_symmetry_group_IT_number 2
_symmetry_cell_setting 'triclinic'
loop_
_space_group_symop_operation_xyz
x,y,z
-x,-y,-z
loop_
_atom_site_type_symbol
_atom_site_label
_atom_site_fract_x
_atom_site_fract_y
_atom_site_fract_z
Si Si1 0.474918 0.687664 0.486077
Si Si2 0.314590 0.366740 0.045943
Si Si3 0.213563 0.863406 0.217608
Si Si4 0.135804 0.452152 0.879322
Si Si5 0.528489 0.635585 0.011001
Si Si6 0.338522 0.094259 0.192285
Si Si7 0.081124 0.733543 0.821233
Si Si8 0.668034 0.498010 0.659739
O O1 0.576051 0.655158 0.228465
O O2 0.442504 0.547837 0.719584
O O3 0.564416 0.616642 0.558382
O O4 0.345736 0.914132 0.426131
O O5 0.386580 0.321313 0.120396
O O6 0.169370 0.585813 0.987022
O O7 0.296962 0.217953 0.231216
O O8 0.359169 0.808159 0.074850
O O9 0.159276 0.806331 0.516358
O O10 0.255159 0.720571 0.216946
O O11 0.081934 0.081116 0.116801
O O12 0.093487 0.603625 0.861780
O O13 0.220814 0.470553 0.590422
O O14 0.239443 0.244431 0.048428
O O15 0.000000 0.500000 0.000000
O O16 0.584804 0.569993 0.848978
O O17 0.500000 0.000000 0.000000
#
# Coordination Sequence:
#
# PCOD9048639 Si02
#       8
#     2   2   2   2   2   2   2   2
#     4  10  17  34  59  80 108 145 188 220 266 322
#     4  10  18  33  53  84 109 143 180 233 265 310
#     4   9  17  32  53  79 103 146 175 220 270 320
#     4  10  19  35  59  81 104 143 191 224 262 324
#     4  11  21  32  58  85 113 138 183 227 276 323
#     4   9  17  34  58  77 106 143 183 228 265 306
#     4   9  17  32  53  77 110 135 181 227 265 308
#     4  10  19  37  55  80 113 144 173 230 278 321
#
# _framework density 18.363091000000001
#
# number of rings (size 3 to 8) (size 9 to 14) (size 15 to 20)
#    0.000    2.250    6.250    1.875    0.000    2.000 
#    4.500    1.250    5.500    1.500    0.000    0.000 
#    0.000    0.000    0.000    0.000    0.000    0.000 
#
# Total GULP energy -89190.348115 kJ/mol
# GULP energy per Si atom -5574.396757 kJ/mol
# Density = 1.832130 g / cm^3
# Si number density = 18.363091 Si / 1000 Ang^3
#
#
#
# Elastic Constant Matrix: (Units=GPa)
#
#
# Indices 1 2 3 4 5 6 
#
# 1 64.4101 28.5147 3.9844 5.5970 -1.9351 -22.5489
# 2 28.5147 130.4436 17.7701 -11.2222 6.9039 -27.4490
# 3 3.9844 17.7701 16.9684 4.9181 -3.4173 -1.5182
# 4 5.5970 -11.2222 4.9181 16.6096 4.3358 0.4675
# 5 -1.9351 6.9039 -3.4173 4.3358 21.9102 8.9794
# 6 -22.5489 -27.4490 -1.5182 0.4675 8.9794 22.5169
#
#
#
# Elastic Compliance Matrix: (Units=1/GPa)
#
#
# Indices 1 2 3 4 5 6 
#
# 1 0.027274 0.005074 -0.012085 0.001291 -0.017589 0.039671
# 2 0.005074 0.039018 -0.065252 0.058436 -0.063190 0.072232
# 3 -0.012085 -0.065252 0.178856 -0.121573 0.123159 -0.126179
# 4 0.001291 0.058436 -0.121573 0.161678 -0.112656 0.105900
# 5 -0.017589 -0.063190 0.123159 -0.112656 0.167264 -0.150705
# 6 0.039671 0.072232 -0.126179 0.105900 -0.150705 0.221585
#
#
# Mechanical properties :
#
#
# Convention : Reuss Voigt Hill
#
# Bulk Modulus (GPa) = 9.93824 34.70671 22.32247
# Shear Modulus (GPa) = 5.13483 22.97753 14.05618
#
# Velocity S-wave (km/s) = 1.67402 3.54119 2.76969
# Velocity P-wave (km/s) = 3.02660 5.97171 4.73401
#
# Compressibility (1/GPa) = 0.10062140
#
# Stress axis : x y z
#
# Youngs Moduli (GPa) = 36.66450 25.62952 5.59108
#
# Poissons Ratio (x) = -0.13004 0.06757
# Poissons Ratio (y) = -0.18604 0.36483
# Poissons Ratio (z) = 0.44309 1.67239
#
# Static dielectric constant tensor:
#      x y z
#    x 1.649500 0.013540 -0.037940 
#    y 0.013540 1.657810 -0.030170 
#    z -0.037940 -0.030170 1.672140 
# 
# From -- ./inp_files/303231.got.cif
#   From: 2010.05.17/outbox.cif.g08.bks.cpg/sg2_152_cif.got.tgz:303231.got - 2010.06.03 11:33:40.
