data_PCOD9048851
_publ_section_title
;
Structure prediction by ZEFSAII (Michael W. Deem and Ramdas Pophale) SiO2 
 PCOD9048851
Probable space group: P -1
;
_chemical_formula_sum "Si O2"
_cell_formula_units_Z 16
_cell_length_a 20.677202
_cell_length_b 17.613851
_cell_length_c 11.894439
_cell_angle_alpha 142.500846
_cell_angle_beta 30.183654
_cell_angle_gamma 161.210478
_cell_volume 693.121827
_symmetry_space_group_name_H-M "P -1"
_symmetry_group_IT_number 2
_symmetry_cell_setting 'triclinic'
loop_
_space_group_symop_operation_xyz
x,y,z
-x,-y,-z
loop_
_atom_site_type_symbol
_atom_site_label
_atom_site_fract_x
_atom_site_fract_y
_atom_site_fract_z
Si Si1 0.497811 0.316585 0.911118
Si Si2 0.064317 0.819167 0.881585
Si Si3 0.778349 0.279822 0.905374
Si Si4 0.873887 0.402837 0.454773
Si Si5 0.635160 0.428747 0.245827
Si Si6 0.034414 0.165117 0.193535
Si Si7 0.754760 0.732856 0.599309
Si Si8 0.106376 0.884817 0.408681
O O1 0.653663 0.318207 0.682213
O O2 0.686916 0.574452 0.883365
O O3 0.244927 0.080613 0.950219
O O4 0.422335 0.308378 0.135013
O O5 0.195811 0.798972 0.695851
O O6 0.020191 0.792936 0.783795
O O7 0.817521 0.613967 0.086732
O O8 0.906759 0.275838 0.778705
O O9 0.920550 0.391030 0.703635
O O10 0.756016 0.409977 0.109016
O O11 0.500000 0.000000 0.000000
O O12 0.000000 0.500000 0.500000
O O13 0.630661 0.541955 0.469370
O O14 0.364403 0.157264 0.297063
O O15 0.882695 0.071988 0.423802
O O16 0.000000 0.000000 0.000000
O O17 0.865656 0.743477 0.547776
O O18 0.000000 0.000000 0.500000
#
# Coordination Sequence:
#
# PCOD9048851 Si02
#       8
#     2   2   2   2   2   2   2   2
#     4  12  25  44  70 102 143 176 238 288 344 419
#     4  11  24  44  74 105 137 182 233 291 352 406
#     4   9  20  42  71 101 132 176 235 287 344 406
#     4  11  21  44  73 102 135 181 233 292 348 409
#     4  10  24  45  74 100 138 184 235 285 347 412
#     4  12  26  44  69 102 140 186 225 281 355 409
#     4  12  27  43  65 103 142 184 233 279 351 413
#     4  11  24  46  69 101 140 183 236 287 343 415
#
# _framework density 23.083964000000002
#
# number of rings (size 3 to 8) (size 9 to 14) (size 15 to 20)
#    0.000    1.000    3.750    1.875    1.750    5.000 
#    0.000    0.000    0.000    0.000    0.000    0.000 
#    0.000    0.000    0.000    0.000    0.000    0.000 
#
# Total GULP energy -89370.636208 kJ/mol
# GULP energy per Si atom -5585.664763 kJ/mol
# Density = 2.303142 g / cm^3
# Si number density = 23.083964 Si / 1000 Ang^3
#
#
#
# Elastic Constant Matrix: (Units=GPa)
#
#
# Indices 1 2 3 4 5 6 
#
# 1 88.1059 30.8079 25.2736 -9.7415 2.2364 -2.0595
# 2 30.8079 109.0823 17.3285 -5.5684 -9.5503 -8.7835
# 3 25.2736 17.3285 125.0896 -9.1120 -1.8309 -7.1839
# 4 -9.7415 -5.5684 -9.1120 37.2861 -4.7157 2.8998
# 5 2.2364 -9.5503 -1.8309 -4.7157 15.0021 1.1749
# 6 -2.0595 -8.7835 -7.1839 2.8998 1.1749 31.8328
#
#
#
# Elastic Compliance Matrix: (Units=1/GPa)
#
#
# Indices 1 2 3 4 5 6 
#
# 1 0.013612 -0.003806 -0.002176 0.002000 -0.004035 -0.000694
# 2 -0.003806 0.011268 -0.000439 0.001404 0.007945 0.002343
# 3 -0.002176 -0.000439 0.008717 0.001567 0.001483 0.001508
# 4 0.002000 0.001404 0.001567 0.029394 0.010197 -0.002184
# 5 -0.004035 0.007945 0.001483 0.010197 0.075817 -0.001461
# 6 -0.000694 0.002343 0.001508 -0.002184 -0.001461 0.032609
#
#
# Mechanical properties :
#
#
# Convention : Reuss Voigt Hill
#
# Bulk Modulus (GPa) = 48.18025 52.12197 50.15111
# Shear Modulus (GPa) = 26.15364 33.41538 29.78451
#
# Velocity S-wave (km/s) = 3.36963 3.80881 3.59593
# Velocity P-wave (km/s) = 6.00468 6.47850 6.24609
#
# Compressibility (1/GPa) = 0.02075539
#
# Stress axis : x y z
#
# Youngs Moduli (GPa) = 73.46276 88.74814 114.71576
#
# Poissons Ratio (x) = 0.33776 0.24966
# Poissons Ratio (y) = 0.27958 0.05035
# Poissons Ratio (z) = 0.15988 0.03895
#
# Static dielectric constant tensor:
#      x y z
#    x 1.884900 -0.042590 -0.043830 
#    y -0.042590 1.889050 0.012590 
#    z -0.043830 0.012590 1.901020 
# 
# From -- ./inp_files/472425.got.cif
#   From: 2010.05.17/outbox.cif.g08.bks.cpg/sg2_237_cif.got.tgz:472425.got - 2010.06.03 11:33:40.
