data_PCOD9048866
_publ_section_title
;
Structure prediction by ZEFSAII (Michael W. Deem and Ramdas Pophale) SiO2 
 PCOD9048866
Probable space group: P -1
;
_chemical_formula_sum "Si O2"
_cell_formula_units_Z 14
_cell_length_a 13.214106
_cell_length_b 15.193622
_cell_length_c 5.228603
_cell_angle_alpha 57.138830
_cell_angle_beta 97.415013
_cell_angle_gamma 132.630583
_cell_volume 598.525601
_symmetry_space_group_name_H-M "P -1"
_symmetry_group_IT_number 2
_symmetry_cell_setting 'triclinic'
loop_
_space_group_symop_operation_xyz
x,y,z
-x,-y,-z
loop_
_atom_site_type_symbol
_atom_site_label
_atom_site_fract_x
_atom_site_fract_y
_atom_site_fract_z
Si Si1 0.387245 0.327554 0.151040
Si Si2 0.598345 0.298076 0.180253
Si Si3 0.117914 0.119298 0.136625
Si Si4 0.050388 0.417543 0.191828
Si Si5 0.878940 0.233414 0.930256
Si Si6 0.596381 0.164582 0.898509
Si Si7 0.178218 0.024146 0.909519
O O1 0.491417 0.316457 0.084308
O O2 0.261574 0.289832 0.997491
O O3 0.280899 0.188278 0.543887
O O4 0.500000 0.500000 0.000000
O O5 0.590915 0.248787 0.545098
O O6 0.771943 0.456830 0.953248
O O7 0.551522 0.177606 0.139147
O O8 0.193716 0.068674 0.138318
O O9 0.000000 0.000000 0.500000
O O10 0.003897 0.098728 0.959927
O O11 0.993881 0.342570 0.569335
O O12 0.000000 0.500000 0.000000
O O13 0.964105 0.289772 0.139506
O O14 0.760284 0.238831 0.881469
O O15 0.793722 0.064671 0.074644
O O16 0.500000 0.000000 0.000000
#
# Coordination Sequence:
#
# PCOD9048866 Si02
#       7
#     2   2   2   2   2   2   2
#     4  11  27  46  71 102 143 190 235 306 361 425
#     4  12  27  45  70 102 150 183 241 296 358 431
#     4   9  22  46  70  96 143 173 249 289 358 419
#     4  12  24  46  68 105 143 190 237 290 356 427
#     4  12  25  42  79 102 144 187 240 293 359 432
#     4  12  25  45  70 105 143 191 232 297 360 436
#     4  10  24  45  74 105 134 188 241 298 353 440
#
# _framework density 23.390812
#
# number of rings (size 3 to 8) (size 9 to 14) (size 15 to 20)
#    0.000    0.857    2.857    2.571   10.000    2.857 
#    0.000    0.000    0.000    0.000    0.000    0.000 
#    0.000    0.000    0.000    0.000    0.000    0.000 
#
# Total GULP energy -78138.672511 kJ/mol
# GULP energy per Si atom -5581.333751 kJ/mol
# Density = 2.333757 g / cm^3
# Si number density = 23.390812 Si / 1000 Ang^3
#
#
#
# Elastic Constant Matrix: (Units=GPa)
#
#
# Indices 1 2 3 4 5 6 
#
# 1 112.2409 46.5537 18.0483 -7.9429 -18.2257 8.1229
# 2 46.5537 127.7412 9.9852 -13.4154 -19.0588 8.7375
# 3 18.0483 9.9852 31.2781 -9.4511 -12.2756 -1.5171
# 4 -7.9429 -13.4154 -9.4511 44.0390 -2.8807 -10.5036
# 5 -18.2257 -19.0588 -12.2756 -2.8807 24.4417 -7.9609
# 6 8.1229 8.7375 -1.5171 -10.5036 -7.9609 49.2083
#
#
#
# Elastic Compliance Matrix: (Units=1/GPa)
#
#
# Indices 1 2 3 4 5 6 
#
# 1 0.011622 -0.003258 -0.004111 0.000285 0.003839 -0.000785
# 2 -0.003258 0.010301 0.002866 0.003886 0.007790 0.000887
# 3 -0.004111 0.002866 0.049868 0.015035 0.029123 0.009628
# 4 0.000285 0.003886 0.015035 0.030456 0.017325 0.009030
# 5 0.003839 0.007790 0.029123 0.017325 0.071106 0.014083
# 6 -0.000785 0.000887 0.009628 0.009030 0.014083 0.024796
#
#
# Mechanical properties :
#
#
# Convention : Reuss Voigt Hill
#
# Bulk Modulus (GPa) = 15.92732 46.71495 31.32114
# Shear Modulus (GPa) = 21.92163 36.64933 29.28548
#
# Velocity S-wave (km/s) = 3.06468 3.96261 3.54221
# Velocity P-wave (km/s) = 4.39852 6.39931 5.49082
#
# Compressibility (1/GPa) = 0.06278520
#
# Stress axis : x y z
#
# Youngs Moduli (GPa) = 86.04302 97.07574 20.05278
#
# Poissons Ratio (x) = 0.31624 0.08244
# Poissons Ratio (y) = 0.28030 -0.05746
# Poissons Ratio (z) = 0.35375 -0.27819
#
# Static dielectric constant tensor:
#      x y z
#    x 1.994020 -0.127520 -0.002830 
#    y -0.127520 2.208860 0.115980 
#    z -0.002830 0.115980 1.909750 
# 
# From -- ./inp_files/77192.got.cif
#   From: 2010.05.17/outbox.cif.g08.bks.cpg/sg2_39_cif.got.tgz:77192.got - 2010.06.03 11:33:40.
