data_PCOD9048167
_publ_section_title
;
Structure prediction by ZEFSAII (Michael W. Deem and Ramdas Pophale) SiO2 
 PCOD9048167
Probable space group: P -1
;
_chemical_formula_sum "Si O2"
_cell_formula_units_Z 11
_cell_length_a 14.373016
_cell_length_b 15.347779
_cell_length_c 12.387777
_cell_angle_alpha 29.212345
_cell_angle_beta 27.252722
_cell_angle_gamma 18.202059
_cell_volume 383.147597
_symmetry_space_group_name_H-M "P -1"
_symmetry_group_IT_number 2
_symmetry_cell_setting 'triclinic'
loop_
_space_group_symop_operation_xyz
x,y,z
-x,-y,-z
loop_
_atom_site_type_symbol
_atom_site_label
_atom_site_fract_x
_atom_site_fract_y
_atom_site_fract_z
Si Si1 0.309140 0.290686 0.525624
Si Si2 0.480426 0.613335 0.509993
Si Si3 0.885458 0.043585 0.798094
Si Si4 0.500000 0.000000 0.000000
Si Si5 0.073634 0.762519 0.122766
Si Si6 0.761253 0.752636 0.763738
O O1 0.314258 0.472738 0.256977
O O2 0.203346 0.202232 0.649640
O O3 0.045092 0.480580 0.689678
O O4 0.639640 0.012511 0.544545
O O5 0.500000 0.500000 0.500000
O O6 0.744170 0.341044 0.611688
O O7 0.107261 0.850629 0.675220
O O8 0.548782 0.771218 0.248616
O O9 0.550718 0.164993 0.016694
O O10 0.106362 0.809693 0.916667
O O11 0.748101 0.782783 0.873523
O O12 0.000000 0.000000 0.000000
#
# Coordination Sequence:
#
# PCOD9048167 Si02
#       6
#     2   2   2   1   2   2
#     4  10  25  48  68 104 147 178 228 290 348 402
#     4  12  27  48  70 103 139 184 231 292 344 415
#     4  11  25  48  72 101 144 180 229 291 351 400
#     4  12  30  42  78 102 138 190 238 276 354 418
#     4  10  24  44  75 103 137 186 231 285 347 417
#     4  11  25  47  73 103 144 187 226 289 345 412
#
# _framework density 28.709561000000001
#
# number of rings (size 3 to 8) (size 9 to 14) (size 15 to 20)
#    0.000    1.091    1.818    2.727    5.091    9.455 
#    0.000    9.091    0.000    0.000    0.000    0.000 
#    0.000    0.000    0.000    0.000    0.000    0.000 
#
# Total GULP energy -61385.750685 kJ/mol
# GULP energy per Si atom -5580.522790 kJ/mol
# Density = 2.864422 g / cm^3
# Si number density = 28.709561 Si / 1000 Ang^3
#
#
#
# Elastic Constant Matrix: (Units=GPa)
#
#
# Indices 1 2 3 4 5 6 
#
# 1 111.3504 62.9809 37.4941 -13.4562 11.3345 9.5525
# 2 62.9809 180.8636 51.1854 -2.8719 -1.7563 4.1964
# 3 37.4941 51.1854 202.3776 -53.4238 4.3119 7.0223
# 4 -13.4562 -2.8719 -53.4238 71.8315 4.2734 11.6701
# 5 11.3345 -1.7563 4.3119 4.2734 32.7823 -8.1566
# 6 9.5525 4.1964 7.0223 11.6701 -8.1566 56.6075
#
#
#
# Elastic Compliance Matrix: (Units=1/GPa)
#
#
# Indices 1 2 3 4 5 6 
#
# 1 0.012704 -0.004280 -0.000281 0.002864 -0.005757 -0.003212
# 2 -0.004280 0.007486 -0.001777 -0.002185 0.002705 0.001228
# 3 -0.000281 -0.001777 0.007042 0.005595 -0.002192 -0.002164
# 4 0.002864 -0.002185 0.005595 0.019852 -0.005914 -0.005960
# 5 -0.005757 0.002705 -0.002192 -0.005914 0.035536 0.007383
# 6 -0.003212 0.001228 -0.002164 -0.005960 0.007383 0.020677
#
#
# Mechanical properties :
#
#
# Convention : Reuss Voigt Hill
#
# Bulk Modulus (GPa) = 68.70795 88.65697 78.68246
# Shear Modulus (GPa) = 41.38224 55.10634 48.24429
#
# Velocity S-wave (km/s) = 3.80071 4.38590 4.10375
# Velocity P-wave (km/s) = 6.57606 7.52302 7.06542
#
# Compressibility (1/GPa) = 0.01455436
#
# Stress axis : x y z
#
# Youngs Moduli (GPa) = 78.71649 133.59088 142.01169
#
# Poissons Ratio (x) = 0.57179 0.03989
# Poissons Ratio (y) = 0.33692 0.25239
# Poissons Ratio (z) = 0.02211 0.23742
#
# Static dielectric constant tensor:
#      x y z
#    x 2.474940 -0.092740 -0.141320 
#    y -0.092740 2.235930 0.054250 
#    z -0.141320 0.054250 2.266480 
# 
# From -- ./inp_files/372143.got.cif
#   From: 2010.05.17/outbox.cif.g08.bks.cpg/sg2_187_cif.got.tgz:372143.got - 2010.06.03 11:33:40.
