data_PCOD9048362
_publ_section_title
;
Structure prediction by ZEFSAII (Michael W. Deem and Ramdas Pophale) SiO2 
 PCOD9048362
Probable space group: P -1
;
_chemical_formula_sum "Si O2"
_cell_formula_units_Z 14
_cell_length_a 18.920050
_cell_length_b 8.798203
_cell_length_c 12.409014
_cell_angle_alpha 137.248025
_cell_angle_beta 141.981550
_cell_angle_gamma 70.288022
_cell_volume 705.439443
_symmetry_space_group_name_H-M "P -1"
_symmetry_group_IT_number 2
_symmetry_cell_setting 'triclinic'
loop_
_space_group_symop_operation_xyz
x,y,z
-x,-y,-z
loop_
_atom_site_type_symbol
_atom_site_label
_atom_site_fract_x
_atom_site_fract_y
_atom_site_fract_z
Si Si1 0.195183 0.108812 0.367350
Si Si2 0.318691 0.244754 0.808812
Si Si3 0.359737 0.812804 0.662766
Si Si4 0.090554 0.437688 0.290658
Si Si5 0.647942 0.672131 0.708414
Si Si6 0.128102 0.974678 0.653586
Si Si7 0.422381 0.156485 0.500426
O O1 0.254006 0.265635 0.632889
O O2 0.144563 0.277505 0.333944
O O3 0.303449 0.084016 0.410509
O O4 0.057460 0.801614 0.062741
O O5 0.357938 0.037752 0.710775
O O6 0.217210 0.106897 0.718457
O O7 0.452796 0.531158 0.158475
O O8 0.218829 0.640761 0.472984
O O9 0.349774 0.574351 0.463097
O O10 0.500000 0.000000 0.000000
O O11 0.072818 0.658526 0.441429
O O12 0.500000 0.500000 0.500000
O O13 0.643261 0.842919 0.693095
O O14 0.770689 0.854940 0.036105
O O15 0.000000 0.000000 0.500000
O O16 0.500000 0.000000 0.500000
#
# Coordination Sequence:
#
# PCOD9048362 Si02
#       7
#     2   2   2   2   2   2   2
#     4  11  25  45  68  96 141 178 227 277 344 416
#     4  11  25  43  67  98 128 180 230 275 337 400
#     4  11  21  43  70  94 129 170 237 274 322 406
#     4  10  24  45  67  99 131 186 223 273 348 408
#     4  12  24  44  71  98 137 178 227 287 340 399
#     4  11  27  43  69 102 138 176 232 283 343 401
#     4  12  27  44  68 104 138 177 228 283 350 405
#
# _framework density 19.845787999999999
#
# number of rings (size 3 to 8) (size 9 to 14) (size 15 to 20)
#    0.000    0.857    4.286    1.286   10.000    1.143 
#    0.000    1.429    0.000    0.000    0.000    0.000 
#    0.000    0.000    0.000    0.000    0.000    0.000 
#
# Total GULP energy -78042.158670 kJ/mol
# GULP energy per Si atom -5574.439905 kJ/mol
# Density = 1.980062 g / cm^3
# Si number density = 19.845788 Si / 1000 Ang^3
#
#
#
# Elastic Constant Matrix: (Units=GPa)
#
#
# Indices 1 2 3 4 5 6 
#
# 1 86.5584 43.5170 45.6587 -13.5502 0.1881 -4.5189
# 2 43.5170 90.0572 34.8270 -0.5257 -9.3269 -24.3996
# 3 45.6587 34.8270 104.9231 -11.2435 7.9626 -3.7944
# 4 -13.5502 -0.5257 -11.2435 38.5715 4.3281 -9.6133
# 5 0.1881 -9.3269 7.9626 4.3281 35.8151 3.0675
# 6 -4.5189 -24.3996 -3.7944 -9.6133 3.0675 38.1594
#
#
#
# Elastic Compliance Matrix: (Units=1/GPa)
#
#
# Indices 1 2 3 4 5 6 
#
# 1 0.018746 -0.007751 -0.005048 0.004680 -0.001393 -0.001947
# 2 -0.007751 0.019451 -0.003240 -0.001372 0.005098 0.010442
# 3 -0.005048 -0.003240 0.013356 0.002429 -0.004045 -0.000404
# 4 0.004680 -0.001372 0.002429 0.030886 -0.005350 0.008130
# 5 -0.001393 0.005098 -0.004045 -0.005350 0.030900 -0.001139
# 6 -0.001947 0.010442 -0.000404 0.008130 -0.001139 0.034752
#
#
# Mechanical properties :
#
#
# Convention : Reuss Voigt Hill
#
# Bulk Modulus (GPa) = 51.34631 58.83825 55.09228
# Shear Modulus (GPa) = 26.78667 33.01157 29.89912
#
# Velocity S-wave (km/s) = 3.67787 4.08291 3.88567
# Velocity P-wave (km/s) = 6.63057 7.20687 6.92472
#
# Compressibility (1/GPa) = 0.01947560
#
# Stress axis : x y z
#
# Youngs Moduli (GPa) = 53.34345 51.41025 74.87468
#
# Poissons Ratio (x) = 0.39847 0.37799
# Poissons Ratio (y) = 0.41346 0.24258
# Poissons Ratio (z) = 0.26929 0.16656
#
# Static dielectric constant tensor:
#      x y z
#    x 1.677280 0.055430 0.066370 
#    y 0.055430 1.884830 0.109980 
#    z 0.066370 0.109980 1.840640 
# 
# From -- ./inp_files/183334.got.cif
#   From: 2010.05.17/outbox.cif.g08.bks.cpg/sg2_92_cif.got.tgz:183334.got - 2010.06.03 11:33:40.
