data_PCOD9048606
_publ_section_title
;
Structure prediction by ZEFSAII (Michael W. Deem and Ramdas Pophale) SiO2 
 PCOD9048606
Probable space group: P -1
;
_chemical_formula_sum "Si O2"
_cell_formula_units_Z 12
_cell_length_a 7.062068
_cell_length_b 10.229194
_cell_length_c 7.722149
_cell_angle_alpha 60.779471
_cell_angle_beta 117.831361
_cell_angle_gamma 94.251687
_cell_volume 421.906253
_symmetry_space_group_name_H-M "P -1"
_symmetry_group_IT_number 2
_symmetry_cell_setting 'triclinic'
loop_
_space_group_symop_operation_xyz
x,y,z
-x,-y,-z
loop_
_atom_site_type_symbol
_atom_site_label
_atom_site_fract_x
_atom_site_fract_y
_atom_site_fract_z
Si Si1 0.881991 0.801953 0.443405
Si Si2 0.672215 0.203112 0.502371
Si Si3 0.697128 0.512937 0.444103
Si Si4 0.760819 0.039945 0.965457
Si Si5 0.079219 0.716046 0.916202
Si Si6 0.279334 0.407247 0.993544
O O1 0.838516 0.629920 0.504241
O O2 0.115584 0.856372 0.482705
O O3 0.889562 0.805203 0.651679
O O4 0.733283 0.903298 0.169447
O O5 0.775273 0.333398 0.560186
O O6 0.340908 0.430631 0.807545
O O7 0.613148 0.093318 0.698678
O O8 0.500000 0.500000 0.500000
O O9 0.472626 0.291811 0.247535
O O10 0.766240 0.180315 0.006026
O O11 0.000000 0.000000 0.000000
O O12 0.938680 0.659819 0.043143
O O13 0.209251 0.568623 0.962681
#
# Coordination Sequence:
#
# PCOD9048606 Si02
#       6
#     2   2   2   2   2   2
#     4  11  24  46  72 105 145 197 239 296 366 430
#     4  11  24  43  74 108 147 187 243 301 355 436
#     4  12  26  45  73 106 146 187 246 303 361 430
#     4  10  24  45  70 104 147 197 237 290 369 439
#     4  11  24  44  77 105 152 187 237 304 364 437
#     4  11  25  44  72 117 141 187 244 303 366 422
#
# _framework density 28.442340000000002
#
# number of rings (size 3 to 8) (size 9 to 14) (size 15 to 20)
#    0.000    1.000    1.667    4.500    7.000    0.000 
#    0.000   10.833    0.000    1.000    0.000    0.000 
#    0.000    0.000    0.000    0.000    0.000    0.000 
#
# Total GULP energy -67127.956487 kJ/mol
# GULP energy per Si atom -5593.996374 kJ/mol
# Density = 2.837760 g / cm^3
# Si number density = 28.442340 Si / 1000 Ang^3
#
#
#
# Elastic Constant Matrix: (Units=GPa)
#
#
# Indices 1 2 3 4 5 6 
#
# 1 141.8537 18.5160 52.2895 10.2895 -33.8451 4.5969
# 2 18.5160 59.0260 13.5855 -5.1289 5.0986 -5.0486
# 3 52.2895 13.5855 244.1387 7.8168 -27.3770 -9.6738
# 4 10.2895 -5.1289 7.8168 44.6577 4.1755 -9.4266
# 5 -33.8451 5.0986 -27.3770 4.1755 58.4191 -0.8558
# 6 4.5969 -5.0486 -9.6738 -9.4266 -0.8558 28.1912
#
#
#
# Elastic Compliance Matrix: (Units=1/GPa)
#
#
# Indices 1 2 3 4 5 6 
#
# 1 0.009774 -0.003918 -0.001275 -0.003815 0.005623 -0.003838
# 2 -0.003918 0.019611 -0.000707 0.004845 -0.004580 0.005389
# 3 -0.001275 -0.000707 0.004659 -0.000414 0.001560 0.001589
# 4 -0.003815 0.004845 -0.000414 0.026450 -0.004570 0.010053
# 5 0.005623 -0.004580 0.001560 -0.004570 0.021803 -0.002068
# 6 -0.003838 0.005389 0.001589 0.010053 -0.002068 0.040907
#
#
# Mechanical properties :
#
#
# Convention : Reuss Voigt Hill
#
# Bulk Modulus (GPa) = 44.95534 68.20006 56.57770
# Shear Modulus (GPa) = 35.10794 50.29540 42.70167
#
# Velocity S-wave (km/s) = 3.51715 4.20971 3.87892
# Velocity P-wave (km/s) = 5.68629 6.90357 6.32429
#
# Compressibility (1/GPa) = 0.02224430
#
# Stress axis : x y z
#
# Youngs Moduli (GPa) = 102.31749 50.99162 214.61543
#
# Poissons Ratio (x) = 0.19978 0.27355
# Poissons Ratio (y) = 0.40087 0.15181
# Poissons Ratio (z) = 0.13041 0.03607
#
# Static dielectric constant tensor:
#      x y z
#    x 2.445450 -0.156230 -0.020790 
#    y -0.156230 2.224760 -0.000600 
#    z -0.020790 -0.000600 2.392440 
# 
# From -- ./inp_files/160845.got.cif
#   From: 2010.05.17/outbox.cif.g08.bks.cpg/sg2_81_cif.got.tgz:160845.got - 2010.06.03 11:33:40.
