data_PCOD9048999
_publ_section_title
;
Structure prediction by ZEFSAII (Michael W. Deem and Ramdas Pophale) SiO2 
 PCOD9048999
Probable space group: P -1
;
_chemical_formula_sum "Si O2"
_cell_formula_units_Z 12
_cell_length_a 11.664952
_cell_length_b 9.183594
_cell_length_c 7.323676
_cell_angle_alpha 55.888984
_cell_angle_beta 49.511217
_cell_angle_gamma 62.444342
_cell_volume 487.944552
_symmetry_space_group_name_H-M "P -1"
_symmetry_group_IT_number 2
_symmetry_cell_setting 'triclinic'
loop_
_space_group_symop_operation_xyz
x,y,z
-x,-y,-z
loop_
_atom_site_type_symbol
_atom_site_label
_atom_site_fract_x
_atom_site_fract_y
_atom_site_fract_z
Si Si1 0.390202 0.774210 0.388873
Si Si2 0.983138 0.317077 0.552996
Si Si3 0.675451 0.841975 0.282267
Si Si4 0.261654 0.789689 0.891993
Si Si5 0.847024 0.912168 0.730685
Si Si6 0.331763 0.536977 0.316891
O O1 0.535679 0.832724 0.295045
O O2 0.282352 0.742501 0.693302
O O3 0.428112 0.609076 0.327369
O O4 0.297059 0.935758 0.257324
O O5 0.843156 0.371228 0.518856
O O6 0.000000 0.500000 0.500000
O O7 0.131741 0.224112 0.363300
O O8 0.910167 0.197795 0.860767
O O9 0.669853 0.671960 0.534889
O O10 0.676201 0.027063 0.256158
O O11 0.822697 0.821805 0.011741
O O12 0.351655 0.630662 0.036540
O O13 0.000000 0.000000 0.500000
#
# Coordination Sequence:
#
# PCOD9048999 Si02
#       6
#     2   2   2   2   2   2
#     4  12  25  46  74 104 141 188 231 288 353 415
#     4  10  24  46  65 107 138 182 235 287 346 410
#     4  12  25  46  74 104 141 188 231 288 353 415
#     4  10  25  47  68 105 141 179 240 285 343 418
#     4  12  23  46  75  99 143 187 231 292 347 417
#     4  10  25  47  68 105 141 179 240 285 343 418
#
# _framework density 24.592959
#
# number of rings (size 3 to 8) (size 9 to 14) (size 15 to 20)
#    1.000    0.000    5.000    1.500    4.667    3.333 
#    0.000    0.000    0.000    0.000    0.000    0.000 
#    0.000    0.000    0.000    0.000    0.000    0.000 
#
# Total GULP energy -67102.535189 kJ/mol
# GULP energy per Si atom -5591.877932 kJ/mol
# Density = 2.453698 g / cm^3
# Si number density = 24.592959 Si / 1000 Ang^3
#
#
#
# Elastic Constant Matrix: (Units=GPa)
#
#
# Indices 1 2 3 4 5 6 
#
# 1 45.4621 10.1706 -1.2606 -12.1493 6.2122 12.0488
# 2 10.1706 110.0507 50.2555 -29.9688 4.6534 28.6598
# 3 -1.2606 50.2555 148.1513 -12.9253 18.7090 10.4202
# 4 -12.1493 -29.9688 -12.9253 47.2673 -3.1231 3.8498
# 5 6.2122 4.6534 18.7090 -3.1231 36.4079 3.4818
# 6 12.0488 28.6598 10.4202 3.8498 3.4818 40.5532
#
#
#
# Elastic Compliance Matrix: (Units=1/GPa)
#
#
# Indices 1 2 3 4 5 6 
#
# 1 0.027470 0.002351 0.001526 0.009588 -0.003918 -0.010789
# 2 0.002351 0.017235 -0.004118 0.011586 0.001756 -0.013071
# 3 0.001526 -0.004118 0.008636 -0.000188 -0.004247 0.000620
# 4 0.009588 0.011586 -0.000188 0.032138 0.001088 -0.014133
# 5 -0.003918 0.001756 -0.004247 0.001088 0.030349 -0.001695
# 6 -0.010789 -0.013071 0.000620 -0.014133 -0.001695 0.038430
#
#
# Mechanical properties :
#
#
# Convention : Reuss Voigt Hill
#
# Bulk Modulus (GPa) = 18.91814 46.88836 32.90325
# Shear Modulus (GPa) = 29.00917 41.14559 35.07738
#
# Velocity S-wave (km/s) = 3.43822 4.09475 3.78076
# Velocity P-wave (km/s) = 4.84469 6.43918 5.69799
#
# Compressibility (1/GPa) = 0.05285932
#
# Stress axis : x y z
#
# Youngs Moduli (GPa) = 36.40342 58.02178 115.79361
#
# Poissons Ratio (x) = -0.13639 -0.17675
# Poissons Ratio (y) = -0.08557 0.47683
# Poissons Ratio (z) = -0.05557 0.23893
#
# Static dielectric constant tensor:
#      x y z
#    x 2.025060 -0.044740 -0.025490 
#    y -0.044740 2.011290 -0.003760 
#    z -0.025490 -0.003760 1.960900 
# 
# From -- ./inp_files/293857.got.cif
#   From: 2010.05.17/outbox.cif.g08.bks.cpg/sg2_147_cif.got.tgz:293857.got - 2010.06.03 11:33:40.
