data_PCOD9048085
_publ_section_title
;
Structure prediction by ZEFSAII (Michael W. Deem and Ramdas Pophale) SiO2 
 PCOD9048085
Probable space group: P -1
;
_chemical_formula_sum "Si O2"
_cell_formula_units_Z 16
_cell_length_a 11.191777
_cell_length_b 17.498118
_cell_length_c 19.374525
_cell_angle_alpha 20.192734
_cell_angle_beta 150.907859
_cell_angle_gamma 149.515204
_cell_volume 616.883477
_symmetry_space_group_name_H-M "P -1"
_symmetry_group_IT_number 2
_symmetry_cell_setting 'triclinic'
loop_
_space_group_symop_operation_xyz
x,y,z
-x,-y,-z
loop_
_atom_site_type_symbol
_atom_site_label
_atom_site_fract_x
_atom_site_fract_y
_atom_site_fract_z
Si Si1 0.856220 0.658150 0.401705
Si Si2 0.811045 0.215814 0.314959
Si Si3 0.349502 0.576469 0.297420
Si Si4 0.534946 0.733125 0.616251
Si Si5 0.349414 0.743237 0.657958
Si Si6 0.268703 0.673368 0.975742
Si Si7 0.351468 0.967751 0.066960
Si Si8 0.836402 0.185343 0.751194
O O1 0.566090 0.606363 0.324205
O O2 0.949425 0.457738 0.580964
O O3 0.052745 0.715140 0.515735
O O4 0.857148 0.883398 0.167733
O O5 0.649001 0.303431 0.219997
O O6 0.090983 0.388785 0.310168
O O7 0.782112 0.949574 0.549043
O O8 0.724298 0.223140 0.185547
O O9 0.500000 0.500000 0.500000
O O10 0.307595 0.811706 0.109056
O O11 0.468491 0.643516 0.736973
O O12 0.551952 0.502067 0.783681
O O13 0.337785 0.841743 0.381885
O O14 0.500000 0.000000 0.500000
O O15 0.367107 0.870739 0.914116
O O16 0.000000 0.500000 0.000000
O O17 0.307464 0.835874 0.229089
O O18 0.000000 0.000000 0.000000
#
# Coordination Sequence:
#
# PCOD9048085 Si02
#       8
#     2   2   2   2   2   2   2   2
#     4  12  25  48  75 109 155 199 261 323 381 469
#     4  11  25  49  75 110 155 201 255 321 382 468
#     4  12  25  47  77 110 154 206 257 318 390 457
#     4  11  26  48  74 111 156 201 257 318 387 463
#     4  10  24  44  73 105 144 206 254 313 381 457
#     4  12  28  45  76 116 152 203 255 316 398 465
#     4  12  26  46  73 111 151 199 255 313 386 462
#     4  12  26  45  74 111 151 202 253 320 392 449
#
# _framework density 25.936827999999998
#
# number of rings (size 3 to 8) (size 9 to 14) (size 15 to 20)
#    0.000    0.500    5.000    1.875    3.500    4.000 
#    0.000    2.500    0.000    0.000    0.000    0.000 
#    0.000    0.000    0.000    0.000    0.000    0.000 
#
# Total GULP energy -89256.353450 kJ/mol
# GULP energy per Si atom -5578.522091 kJ/mol
# Density = 2.587780 g / cm^3
# Si number density = 25.936828 Si / 1000 Ang^3
#
#
#
# Elastic Constant Matrix: (Units=GPa)
#
#
# Indices 1 2 3 4 5 6 
#
# 1 134.8749 24.8521 25.5275 -2.1524 -27.2715 -4.2284
# 2 24.8521 119.6976 23.2144 -16.9566 9.7315 -13.9603
# 3 25.5275 23.2144 115.7489 1.3292 1.0792 -10.2379
# 4 -2.1524 -16.9566 1.3292 28.7070 -11.6931 -7.1172
# 5 -27.2715 9.7315 1.0792 -11.6931 49.8400 2.1621
# 6 -4.2284 -13.9603 -10.2379 -7.1172 2.1621 44.4903
#
#
#
# Elastic Compliance Matrix: (Units=1/GPa)
#
#
# Indices 1 2 3 4 5 6 
#
# 1 0.009325 -0.001773 -0.001784 0.002172 0.005998 -0.000025
# 2 -0.001773 0.010500 -0.001428 0.006432 -0.001650 0.003907
# 3 -0.001784 -0.001428 0.009471 -0.001624 -0.001343 0.001367
# 4 0.002172 0.006432 -0.001624 0.045149 0.010188 0.008579
# 5 0.005998 -0.001650 -0.001343 0.010188 0.026083 0.000106
# 6 -0.000025 0.003907 0.001367 0.008579 0.000106 0.025382
#
#
# Mechanical properties :
#
#
# Convention : Reuss Voigt Hill
#
# Bulk Modulus (GPa) = 51.74067 57.50106 54.62086
# Shear Modulus (GPa) = 35.13131 44.38930 39.76031
#
# Velocity S-wave (km/s) = 3.68434 4.14144 3.91956
# Velocity P-wave (km/s) = 6.17181 6.71465 6.44894
#
# Compressibility (1/GPa) = 0.01932716
#
# Stress axis : x y z
#
# Youngs Moduli (GPa) = 107.23505 95.23429 105.58185
#
# Poissons Ratio (x) = 0.16886 0.18837
# Poissons Ratio (y) = 0.19013 0.15075
# Poissons Ratio (z) = 0.19131 0.13598
#
# Static dielectric constant tensor:
#      x y z
#    x 4.113840 -0.179690 0.790370 
#    y -0.179690 2.162280 -0.128980 
#    z 0.790370 -0.128980 2.428990 
# 
# From -- ./inp_files/595981.got.cif
#   From: 2010.05.17/outbox.cif.g08.bks.cpg/sg2_298_cif.got.tgz:595981.got - 2010.06.03 11:33:40.
