data_PCOD9048068
_publ_section_title
;
Structure prediction by ZEFSAII (Michael W. Deem and Ramdas Pophale) SiO2 
 PCOD9048068
Probable space group: P -1
;
_chemical_formula_sum "Si O2"
_cell_formula_units_Z 16
_cell_length_a 12.389863
_cell_length_b 8.002291
_cell_length_c 8.845930
_cell_angle_alpha 48.129537
_cell_angle_beta 102.890188
_cell_angle_gamma 91.897247
_cell_volume 628.490030
_symmetry_space_group_name_H-M "P -1"
_symmetry_group_IT_number 2
_symmetry_cell_setting 'triclinic'
loop_
_space_group_symop_operation_xyz
x,y,z
-x,-y,-z
loop_
_atom_site_type_symbol
_atom_site_label
_atom_site_fract_x
_atom_site_fract_y
_atom_site_fract_z
Si Si1 0.061964 0.935442 0.402587
Si Si2 0.083997 0.772926 0.030593
Si Si3 0.801961 0.668859 0.771815
Si Si4 0.320515 0.719112 0.296565
Si Si5 0.582645 0.885639 0.726837
Si Si6 0.436861 0.834507 0.979395
Si Si7 0.909057 0.570352 0.299367
Si Si8 0.267891 0.262320 0.630004
O O1 0.122239 0.678313 0.593909
O O2 0.142465 0.118295 0.289237
O O3 0.000000 0.000000 0.500000
O O4 0.968161 0.992940 0.207380
O O5 0.132327 0.584971 0.032835
O O6 0.187603 0.787198 0.169352
O O7 0.979538 0.677891 0.131688
O O8 0.681578 0.713213 0.784845
O O9 0.800650 0.684419 0.578557
O O10 0.337123 0.472935 0.530050
O O11 0.366072 0.912138 0.291995
O O12 0.386776 0.684017 0.178706
O O13 0.516802 0.761564 0.907544
O O14 0.500000 0.000000 0.500000
O O15 0.332975 0.012321 0.776956
O O16 0.500000 0.000000 0.000000
O O17 0.800697 0.719942 0.247280
O O18 0.000000 0.500000 0.500000
#
# Coordination Sequence:
#
# PCOD9048068 Si02
#       8
#     2   2   2   2   2   2   2   2
#     4  12  26  45  71 102 148 192 225 291 359 404
#     4  11  26  45  69 105 147 184 236 285 338 447
#     4  11  23  44  69 104 142 182 234 286 353 408
#     4  10  24  44  73 102 130 189 233 281 356 414
#     4  11  23  45  75 100 137 182 232 300 356 404
#     4  10  24  45  70  99 132 181 236 289 349 409
#     4  12  24  43  68 105 139 191 234 274 352 427
#     4  11  23  46  70 100 144 178 235 288 334 435
#
# _framework density 25.457844000000001
#
# number of rings (size 3 to 8) (size 9 to 14) (size 15 to 20)
#    0.000    1.000    5.000    1.125    3.500    5.500 
#    0.000    2.500    2.750    0.000    0.000    0.000 
#    0.000    0.000    0.000    0.000    0.000    0.000 
#
# Total GULP energy -89557.418965 kJ/mol
# GULP energy per Si atom -5597.338685 kJ/mol
# Density = 2.539990 g / cm^3
# Si number density = 25.457844 Si / 1000 Ang^3
#
#
#
# Elastic Constant Matrix: (Units=GPa)
#
#
# Indices 1 2 3 4 5 6 
#
# 1 149.9038 57.1620 46.9613 -4.2050 -35.2087 -32.6601
# 2 57.1620 127.6656 24.3838 -4.9804 -14.6537 -1.4167
# 3 46.9613 24.3838 93.8926 3.7896 -22.0509 -8.1627
# 4 -4.2050 -4.9804 3.7896 32.2342 6.4219 -0.2411
# 5 -35.2087 -14.6537 -22.0509 6.4219 31.6427 12.3651
# 6 -32.6601 -1.4167 -8.1627 -0.2411 12.3651 50.9361
#
#
#
# Elastic Compliance Matrix: (Units=1/GPa)
#
#
# Indices 1 2 3 4 5 6 
#
# 1 0.011925 -0.003904 -0.002711 -0.000194 0.007552 0.005269
# 2 -0.003904 0.009783 -0.000740 0.000986 0.000427 -0.002449
# 3 -0.002711 -0.000740 0.014036 -0.003665 0.007713 -0.001399
# 4 -0.000194 0.000986 -0.003665 0.033558 -0.009854 0.001867
# 5 0.007552 0.000427 0.007713 -0.009854 0.049956 -0.006083
# 6 0.005269 -0.002449 -0.001399 0.001867 -0.006083 0.024204
#
#
# Mechanical properties :
#
#
# Convention : Reuss Voigt Hill
#
# Bulk Modulus (GPa) = 47.54263 69.83069 58.68666
# Shear Modulus (GPa) = 30.26916 39.15961 34.71439
#
# Velocity S-wave (km/s) = 3.45192 3.92626 3.69671
# Velocity P-wave (km/s) = 5.88245 6.93134 6.42833
#
# Compressibility (1/GPa) = 0.02103376
#
# Stress axis : x y z
#
# Youngs Moduli (GPa) = 83.85458 102.22140 71.24364
#
# Poissons Ratio (x) = 0.39907 0.19315
# Poissons Ratio (y) = 0.32737 0.05274
# Poissons Ratio (z) = 0.22734 0.07567
#
# Static dielectric constant tensor:
#      x y z
#    x 2.806970 -0.048630 0.728340 
#    y -0.048630 2.099570 -0.087460 
#    z 0.728340 -0.087460 2.709010 
# 
# From -- ./inp_files/242155.got.cif
#   From: 2010.05.17/outbox.cif.g08.bks.cpg/sg2_122_cif.got.tgz:242155.got - 2010.06.03 11:33:40.
