data_PCOD9048111
_publ_section_title
;
Structure prediction by ZEFSAII (Michael W. Deem and Ramdas Pophale) SiO2 
 PCOD9048111
Probable space group: P -1
;
_chemical_formula_sum "Si O2"
_cell_formula_units_Z 16
_cell_length_a 11.843598
_cell_length_b 10.911429
_cell_length_c 12.512018
_cell_angle_alpha 78.951659
_cell_angle_beta 72.460443
_cell_angle_gamma 141.837480
_cell_volume 653.671714
_symmetry_space_group_name_H-M "P -1"
_symmetry_group_IT_number 2
_symmetry_cell_setting 'triclinic'
loop_
_space_group_symop_operation_xyz
x,y,z
-x,-y,-z
loop_
_atom_site_type_symbol
_atom_site_label
_atom_site_fract_x
_atom_site_fract_y
_atom_site_fract_z
Si Si1 0.305272 0.873629 0.937248
Si Si2 0.884405 0.123378 0.829642
Si Si3 0.808133 0.228190 0.666340
Si Si4 0.397467 0.454716 0.649959
Si Si5 0.910277 0.261924 0.196651
Si Si6 0.274029 0.981329 0.473023
Si Si7 0.345511 0.483256 0.059487
Si Si8 0.203332 0.311090 0.372512
O O1 0.298514 0.916765 0.810188
O O2 0.615981 0.123306 0.820556
O O3 0.188888 0.874231 0.042571
O O4 0.116900 0.574597 0.067903
O O5 0.997499 0.323436 0.674073
O O6 0.079434 0.189915 0.779787
O O7 0.593510 0.812689 0.912562
O O8 0.611614 0.982946 0.668676
O O9 0.000000 0.500000 0.500000
O O10 0.500000 0.500000 0.500000
O O11 0.511073 0.456118 0.695572
O O12 0.545229 0.725280 0.597230
O O13 0.075510 0.289424 0.119981
O O14 0.793204 0.145787 0.371445
O O15 0.990040 0.756842 0.534136
O O16 0.261557 0.394282 0.220536
O O17 0.500000 0.500000 0.000000
O O18 0.000000 0.000000 0.500000
#
# Coordination Sequence:
#
# PCOD9048111 Si02
#       8
#     2   2   2   2   2   2   2   2
#     4  11  26  46  71 102 146 181 238 300 352 426
#     4  12  28  44  71 106 146 184 240 297 358 424
#     4  12  27  45  74 102 141 188 241 296 357 419
#     4  11  26  43  69 104 144 182 237 292 346 426
#     4  10  24  46  73  98 140 187 239 288 362 421
#     4  10  24  44  73  98 139 187 237 292 355 419
#     4  11  26  43  71  99 140 188 234 284 356 424
#     4   9  22  43  69  93 135 184 232 280 344 416
#
# _framework density 24.477118999999998
#
# number of rings (size 3 to 8) (size 9 to 14) (size 15 to 20)
#    0.000    1.250    1.250    1.875   19.250    2.000 
#    0.000    0.000    0.000    0.000    0.000    0.000 
#    0.000    0.000    0.000    0.000    0.000    0.000 
#
# Total GULP energy -89284.696872 kJ/mol
# GULP energy per Si atom -5580.293555 kJ/mol
# Density = 2.442141 g / cm^3
# Si number density = 24.477119 Si / 1000 Ang^3
#
#
#
# Elastic Constant Matrix: (Units=GPa)
#
#
# Indices 1 2 3 4 5 6 
#
# 1 115.5930 16.9937 9.3825 27.8161 -7.0307 21.8737
# 2 16.9937 53.6828 3.5345 18.1292 -4.7669 1.4130
# 3 9.3825 3.5345 67.3986 17.4828 0.0613 5.1618
# 4 27.8161 18.1292 17.4828 33.9853 -6.0409 -0.5699
# 5 -7.0307 -4.7669 0.0613 -6.0409 50.9524 9.3584
# 6 21.8737 1.4130 5.1618 -0.5699 9.3584 41.4203
#
#
#
# Elastic Compliance Matrix: (Units=1/GPa)
#
#
# Indices 1 2 3 4 5 6 
#
# 1 0.012702 -0.000048 0.001667 -0.011032 0.001811 -0.007475
# 2 -0.000048 0.023121 0.002377 -0.013395 0.000829 -0.001431
# 3 0.001667 0.002377 0.017823 -0.011924 -0.000384 -0.003260
# 4 -0.011032 -0.013395 -0.011924 0.052215 0.001952 0.008046
# 5 0.001811 0.000829 -0.000384 0.001952 0.021234 -0.005708
# 6 -0.007475 -0.001431 -0.003260 0.008046 -0.005708 0.029945
#
#
# Mechanical properties :
#
#
# Convention : Reuss Voigt Hill
#
# Bulk Modulus (GPa) = 16.22333 32.94399 24.58366
# Shear Modulus (GPa) = 29.48217 39.05585 34.26901
#
# Velocity S-wave (km/s) = 3.47432 3.99884 3.74577
# Velocity P-wave (km/s) = 4.76833 5.89994 5.36406
#
# Compressibility (1/GPa) = 0.06163961
#
# Stress axis : x y z
#
# Youngs Moduli (GPa) = 78.72761 43.25030 56.10600
#
# Poissons Ratio (x) = 0.00206 -0.09351
# Poissons Ratio (y) = 0.00375 -0.13339
# Poissons Ratio (z) = -0.13121 -0.10283
#
# Static dielectric constant tensor:
#      x y z
#    x 2.173980 -0.014610 -0.186310 
#    y -0.014610 2.001690 -0.086190 
#    z -0.186310 -0.086190 1.827970 
# 
# From -- ./inp_files/398509.got.cif
#   From: 2010.05.17/outbox.cif.g08.bks.cpg/sg2_200_cif.got.tgz:398509.got - 2010.06.03 11:33:40.
