data_PCOD9048937
_publ_section_title
;
Structure prediction by ZEFSAII (Michael W. Deem and Ramdas Pophale) SiO2 
 PCOD9048937
Probable space group: P -1
;
_chemical_formula_sum "Si O2"
_cell_formula_units_Z 10
_cell_length_a 13.128607
_cell_length_b 10.803498
_cell_length_c 13.091066
_cell_angle_alpha 32.479395
_cell_angle_beta 22.811481
_cell_angle_gamma 34.691518
_cell_volume 377.583424
_symmetry_space_group_name_H-M "P -1"
_symmetry_group_IT_number 2
_symmetry_cell_setting 'triclinic'
loop_
_space_group_symop_operation_xyz
x,y,z
-x,-y,-z
loop_
_atom_site_type_symbol
_atom_site_label
_atom_site_fract_x
_atom_site_fract_y
_atom_site_fract_z
Si Si1 0.131828 0.914472 0.108885
Si Si2 0.584332 0.829375 0.909928
Si Si3 0.388925 0.235361 0.373186
Si Si4 0.951762 0.560798 0.270198
Si Si5 0.352603 0.698648 0.421491
O O1 0.299288 0.920841 0.053244
O O2 0.354729 0.753571 0.941024
O O3 0.056573 0.176820 0.946108
O O4 0.858836 0.820917 0.424598
O O5 0.758249 0.593276 0.864693
O O6 0.731586 0.050864 0.618106
O O7 0.543351 0.755541 0.115358
O O8 0.247395 0.417921 0.463528
O O9 0.500000 0.000000 0.500000
O O10 0.859194 0.413287 0.366381
O O11 0.500000 0.500000 0.500000
#
# Coordination Sequence:
#
# PCOD9048937 Si02
#       5
#     2   2   2   2   2
#     4  11  25  47  76 112 152 194 247 307 370 449
#     4  11  27  45  74 112 140 198 256 304 374 449
#     4  10  24  45  76 112 150 197 244 300 378 446
#     4  11  24  44  76 101 153 194 243 310 373 438
#     4  11  25  50  71 105 148 195 252 313 373 437
#
# _framework density 26.484211999999999
#
# number of rings (size 3 to 8) (size 9 to 14) (size 15 to 20)
#    0.000    1.200    2.000    3.000   11.200    2.400 
#    0.000    0.000    0.000    0.000    0.000    0.000 
#    0.000    0.000    0.000    0.000    0.000    0.000 
#
# Total GULP energy -56052.812616 kJ/mol
# GULP energy per Si atom -5605.281262 kJ/mol
# Density = 2.642393 g / cm^3
# Si number density = 26.484212 Si / 1000 Ang^3
#
#
#
# Elastic Constant Matrix: (Units=GPa)
#
#
# Indices 1 2 3 4 5 6 
#
# 1 147.1614 55.8044 41.2390 -8.4921 -5.9438 -10.6454
# 2 55.8044 190.7346 54.1979 1.0578 -2.6523 -14.2497
# 3 41.2390 54.1979 101.6437 7.8736 -9.2587 -8.2937
# 4 -8.4921 1.0578 7.8736 47.0412 0.8852 2.2213
# 5 -5.9438 -2.6523 -9.2587 0.8852 53.7683 -13.7605
# 6 -10.6454 -14.2497 -8.2937 2.2213 -13.7605 44.1091
#
#
#
# Elastic Compliance Matrix: (Units=1/GPa)
#
#
# Indices 1 2 3 4 5 6 
#
# 1 0.008337 -0.001647 -0.002499 0.001895 0.000666 0.001123
# 2 -0.001647 0.006596 -0.002749 -0.000042 -0.000019 0.001213
# 3 -0.002499 -0.002749 0.012881 -0.002673 0.002307 0.001785
# 4 0.001895 -0.000042 -0.002673 0.022137 -0.000997 -0.001485
# 5 0.000666 -0.000019 0.002307 -0.000997 0.020918 0.007164
# 6 0.001123 0.001213 0.001785 -0.001485 0.007164 0.025979
#
#
# Mechanical properties :
#
#
# Convention : Reuss Voigt Hill
#
# Bulk Modulus (GPa) = 71.29770 82.44692 76.87231
# Shear Modulus (GPa) = 43.36011 48.20364 45.78187
#
# Velocity S-wave (km/s) = 4.05063 4.27088 4.16221
# Velocity P-wave (km/s) = 6.98971 7.45109 7.22408
#
# Compressibility (1/GPa) = 0.01402570
#
# Stress axis : x y z
#
# Youngs Moduli (GPa) = 119.94057 151.60111 77.63532
#
# Poissons Ratio (x) = 0.24962 0.19403
# Poissons Ratio (y) = 0.19749 0.21339
# Poissons Ratio (z) = 0.29976 0.41669
#
# Static dielectric constant tensor:
#      x y z
#    x 2.125300 0.058310 -0.035780 
#    y 0.058310 2.056230 -0.010670 
#    z -0.035780 -0.010670 2.088410 
# 
# From -- ./inp_files/49738.got.cif
#   From: 2010.05.17/outbox.cif.g08.bks.cpg/sg2_25_cif.got.tgz:49738.got - 2010.06.03 11:33:40.
