data_PCOD9048680
_publ_section_title
;
Structure prediction by ZEFSAII (Michael W. Deem and Ramdas Pophale) SiO2 
 PCOD9048680
Probable space group: P -1
;
_chemical_formula_sum "Si O2"
_cell_formula_units_Z 14
_cell_length_a 10.901643
_cell_length_b 8.995698
_cell_length_c 11.276571
_cell_angle_alpha 52.442910
_cell_angle_beta 140.121328
_cell_angle_gamma 114.496162
_cell_volume 559.011458
_symmetry_space_group_name_H-M "P -1"
_symmetry_group_IT_number 2
_symmetry_cell_setting 'triclinic'
loop_
_space_group_symop_operation_xyz
x,y,z
-x,-y,-z
loop_
_atom_site_type_symbol
_atom_site_label
_atom_site_fract_x
_atom_site_fract_y
_atom_site_fract_z
Si Si1 0.468607 0.715726 0.823486
Si Si2 0.966014 0.921049 0.672153
Si Si3 0.319649 0.673586 0.157282
Si Si4 0.933901 0.295860 0.558744
Si Si5 0.728850 0.718044 0.788865
Si Si6 0.917524 0.218092 0.846729
Si Si7 0.603091 0.944299 0.228312
O O1 0.241483 0.729262 0.642783
O O2 0.562388 0.754886 0.746222
O O3 0.505434 0.890341 0.849337
O O4 0.500000 0.500000 0.000000
O O5 0.812974 0.867140 0.688553
O O6 0.827725 0.928193 0.448516
O O7 0.059639 0.105910 0.703410
O O8 0.154771 0.766720 0.895929
O O9 0.319687 0.453884 0.243425
O O10 0.242449 0.748162 0.190336
O O11 0.531907 0.737264 0.282496
O O12 0.860633 0.282440 0.643758
O O13 0.000000 0.500000 0.500000
O O14 0.911639 0.667587 0.034897
O O15 0.000000 0.000000 0.000000
O O16 0.500000 0.000000 0.000000
#
# Coordination Sequence:
#
# PCOD9048680 Si02
#       7
#     2   2   2   2   2   2   2
#     4  11  25  44  69 100 144 179 231 297 347 421
#     4  10  24  45  71 103 136 185 235 288 349 417
#     4  11  24  44  70 102 145 180 230 294 347 418
#     4  11  24  41  70 106 135 183 236 286 357 414
#     4  11  23  44  70 103 142 179 236 286 352 422
#     4  11  20  41  72 100 134 183 232 286 348 412
#     4  11  26  45  68 100 138 184 237 289 356 409
#
# _framework density 25.044211000000001
#
# number of rings (size 3 to 8) (size 9 to 14) (size 15 to 20)
#    0.000    1.143    2.857    4.286    4.000    3.429 
#    7.714    0.000    0.000    0.000    0.000    0.000 
#    0.000    0.000    0.000    0.000    0.000    0.000 
#
# Total GULP energy -78055.117351 kJ/mol
# GULP energy per Si atom -5575.365525 kJ/mol
# Density = 2.498721 g / cm^3
# Si number density = 25.044211 Si / 1000 Ang^3
#
#
#
# Elastic Constant Matrix: (Units=GPa)
#
#
# Indices 1 2 3 4 5 6 
#
# 1 46.7029 24.9810 16.8715 16.7626 -8.0528 -6.2806
# 2 24.9810 194.4647 27.0986 13.6620 -11.2154 9.9583
# 3 16.8715 27.0986 80.8136 21.6596 -8.4945 -1.0711
# 4 16.7626 13.6620 21.6596 33.7281 1.2236 3.1191
# 5 -8.0528 -11.2154 -8.4945 1.2236 29.3186 19.4550
# 6 -6.2806 9.9583 -1.0711 3.1191 19.4550 38.8794
#
#
#
# Elastic Compliance Matrix: (Units=1/GPa)
#
#
# Indices 1 2 3 4 5 6 
#
# 1 0.029363 -0.002632 -0.001143 -0.013345 0.004491 0.004209
# 2 -0.002632 0.006075 -0.001060 -0.000248 0.003930 -0.003957
# 3 -0.001143 -0.001060 0.015999 -0.009343 0.005177 -0.001313
# 4 -0.013345 -0.000248 -0.009343 0.042851 -0.006611 -0.002479
# 5 0.004491 0.003930 0.005177 -0.006611 0.057430 -0.028346
# 6 0.004209 -0.003957 -0.001313 -0.002479 -0.028346 0.041761
#
#
# Mechanical properties :
#
#
# Convention : Reuss Voigt Hill
#
# Bulk Modulus (GPa) = 23.94244 51.09817 37.52031
# Shear Modulus (GPa) = 23.03385 37.25391 30.14388
#
# Velocity S-wave (km/s) = 3.03599 3.86103 3.47310
# Velocity P-wave (km/s) = 4.67659 6.35014 5.57650
#
# Compressibility (1/GPa) = 0.04176684
#
# Stress axis : x y z
#
# Youngs Moduli (GPa) = 34.05672 164.61224 62.50259
#
# Poissons Ratio (x) = 0.43320 0.07144
# Poissons Ratio (y) = 0.08963 0.06628
# Poissons Ratio (z) = 0.03893 0.17456
#
# Static dielectric constant tensor:
#      x y z
#    x 1.918830 0.052310 -0.123660 
#    y 0.052310 2.231100 -0.259400 
#    z -0.123660 -0.259400 2.179950 
# 
# From -- ./inp_files/174584.got.cif
#   From: 2010.05.17/outbox.cif.g08.bks.cpg/sg2_88_cif.got.tgz:174584.got - 2010.06.03 11:33:40.
