data_PCOD9048599
_publ_section_title
;
Structure prediction by ZEFSAII (Michael W. Deem and Ramdas Pophale) SiO2 
 PCOD9048599
Probable space group: P -1
;
_chemical_formula_sum "Si O2"
_cell_formula_units_Z 16
_cell_length_a 24.889586
_cell_length_b 17.473151
_cell_length_c 5.460439
_cell_angle_alpha 70.011342
_cell_angle_beta 78.003233
_cell_angle_gamma 19.724986
_cell_volume 702.947471
_symmetry_space_group_name_H-M "P -1"
_symmetry_group_IT_number 2
_symmetry_cell_setting 'triclinic'
loop_
_space_group_symop_operation_xyz
x,y,z
-x,-y,-z
loop_
_atom_site_type_symbol
_atom_site_label
_atom_site_fract_x
_atom_site_fract_y
_atom_site_fract_z
Si Si1 0.700452 0.244387 0.129199
Si Si2 0.471555 0.781845 0.434833
Si Si3 0.034252 0.684142 0.590262
Si Si4 0.851790 0.732428 0.069363
Si Si5 0.912918 0.478299 0.780872
Si Si6 0.634843 0.386233 0.536254
Si Si7 0.607294 0.993725 0.355914
Si Si8 0.397832 0.228793 0.903556
O O1 0.696457 0.315459 0.277332
O O2 0.842820 0.984727 0.390506
O O3 0.500000 0.500000 0.000000
O O4 0.757131 0.184643 0.862223
O O5 0.570396 0.561486 0.519994
O O6 0.544383 0.766143 0.281210
O O7 0.440963 0.849453 0.671775
O O8 0.290751 0.021589 0.217587
O O9 0.092510 0.572676 0.388627
O O10 0.199174 0.503795 0.723199
O O11 0.023997 0.641525 0.885520
O O12 0.746352 0.808200 0.210999
O O13 0.942101 0.659037 0.270684
O O14 0.000000 0.500000 0.000000
O O15 0.724970 0.780148 0.668128
O O16 0.500000 0.500000 0.500000
O O17 0.444388 0.177599 0.201675
O O18 0.500000 0.000000 0.000000
#
# Coordination Sequence:
#
# PCOD9048599 Si02
#       8
#     2   2   2   2   2   2   2   2
#     4  10  24  45  70 103 139 180 245 309 368 428
#     4  11  26  42  72 104 143 200 238 305 369 427
#     4  12  27  44  73 105 142 198 241 305 363 427
#     4  11  24  39  62 104 152 183 232 297 368 452
#     4  12  25  40  69 107 147 186 237 288 375 450
#     4  10  24  46  72 103 138 181 243 307 369 431
#     4  11  24  43  68 103 152 195 237 296 364 449
#     4  11  25  47  70 105 152 197 251 287 352 452
#
# _framework density 22.761303000000002
#
# number of rings (size 3 to 8) (size 9 to 14) (size 15 to 20)
#    0.000    1.000    2.500    2.625   14.000    1.000 
#    0.000    1.250    0.000    0.000    0.000    0.000 
#    0.000    0.000    0.000    0.000    0.000    0.000 
#
# Total GULP energy -89078.260442 kJ/mol
# GULP energy per Si atom -5567.391278 kJ/mol
# Density = 2.270950 g / cm^3
# Si number density = 22.761303 Si / 1000 Ang^3
#
#
#
# Elastic Constant Matrix: (Units=GPa)
#
#
# Indices 1 2 3 4 5 6 
#
# 1 99.7753 36.2239 39.2169 -11.2283 14.0864 1.6391
# 2 36.2239 70.7510 40.0502 -3.5905 5.2108 11.8043
# 3 39.2169 40.0502 170.2322 -12.4837 21.7955 12.8357
# 4 -11.2283 -3.5905 -12.4837 40.8864 -2.2071 5.9484
# 5 14.0864 5.2108 21.7955 -2.2071 40.2364 0.3549
# 6 1.6391 11.8043 12.8357 5.9484 0.3549 45.1746
#
#
#
# Elastic Compliance Matrix: (Units=1/GPa)
#
#
# Indices 1 2 3 4 5 6 
#
# 1 0.013366 -0.006014 -0.001166 0.002454 -0.003144 0.001119
# 2 -0.006014 0.019520 -0.003086 -0.000231 0.001272 -0.003985
# 3 -0.001166 -0.003086 0.007514 0.001750 -0.003153 -0.001492
# 4 0.002454 -0.000231 0.001750 0.026208 -0.000304 -0.003974
# 5 -0.003144 0.001272 -0.003153 -0.000304 0.027476 0.000502
# 6 0.001119 -0.003985 -0.001492 -0.003974 0.000502 0.024080
#
#
# Mechanical properties :
#
#
# Convention : Reuss Voigt Hill
#
# Bulk Modulus (GPa) = 50.33571 63.52669 56.93120
# Shear Modulus (GPa) = 34.40750 40.27730 37.34240
#
# Velocity S-wave (km/s) = 3.89223 4.21117 4.05484
# Velocity P-wave (km/s) = 6.50860 7.18441 6.85484
#
# Compressibility (1/GPa) = 0.01986661
#
# Stress axis : x y z
#
# Youngs Moduli (GPa) = 74.81761 51.23067 133.09293
#
# Poissons Ratio (x) = 0.30809 0.15521
# Poissons Ratio (y) = 0.44993 0.41076
# Poissons Ratio (z) = 0.08725 0.15811
#
# Static dielectric constant tensor:
#      x y z
#    x 1.952750 -0.053830 -0.068270 
#    y -0.053830 1.988690 0.086740 
#    z -0.068270 0.086740 1.971040 
# 
# From -- ./inp_files/127500.got.cif
#   From: 2010.05.17/outbox.cif.g08.bks.cpg/sg2_64_cif.got.tgz:127500.got - 2010.06.03 11:33:40.
