data_PCOD9048816
_publ_section_title
;
Structure prediction by ZEFSAII (Michael W. Deem and Ramdas Pophale) SiO2 
 PCOD9048816
Probable space group: P -1
;
_chemical_formula_sum "Si O2"
_cell_formula_units_Z 13
_cell_length_a 18.886357
_cell_length_b 19.258961
_cell_length_c 4.895927
_cell_angle_alpha 123.201071
_cell_angle_beta 122.968156
_cell_angle_gamma 19.850421
_cell_volume 503.318945
_symmetry_space_group_name_H-M "P -1"
_symmetry_group_IT_number 2
_symmetry_cell_setting 'triclinic'
loop_
_space_group_symop_operation_xyz
x,y,z
-x,-y,-z
loop_
_atom_site_type_symbol
_atom_site_label
_atom_site_fract_x
_atom_site_fract_y
_atom_site_fract_z
Si Si1 0.875474 0.840544 0.672338
Si Si2 0.708346 0.709219 0.319153
Si Si3 0.248835 0.152001 0.076531
Si Si4 0.722172 0.584886 0.612746
Si Si5 0.062640 0.885440 0.635164
Si Si6 0.500000 0.500000 0.000000
Si Si7 0.325753 0.843582 0.397340
O O1 0.853310 0.824862 0.891280
O O2 0.115278 0.629719 0.620498
O O3 0.756982 0.032044 0.772562
O O4 0.782968 0.850117 0.303507
O O5 0.802502 0.708533 0.638239
O O6 0.670813 0.684468 0.449496
O O7 0.495851 0.923862 0.176739
O O8 0.822790 0.554156 0.986217
O O9 0.522978 0.722017 0.633782
O O10 0.305967 0.645655 0.680395
O O11 0.000000 0.000000 0.500000
O O12 0.885073 0.974339 0.472045
O O13 0.000000 0.000000 0.000000
O O14 0.580727 0.331794 0.832339
#
# Coordination Sequence:
#
# PCOD9048816 Si02
#       7
#     2   2   2   2   2   1   2
#     4  12  25  42  69 102 143 186 238 298 350 417
#     4  11  23  44  70 100 141 191 238 287 356 419
#     4  11  23  44  69 100 142 188 239 297 345 416
#     4  12  25  42  70 103 141 190 233 289 359 425
#     4  10  24  45  73 104 138 177 232 294 354 431
#     4  10  24  48  78 104 138 190 238 292 368 438
#     4  11  24  47  70 105 143 183 235 299 356 433
#
# _framework density 25.828552999999999
#
# number of rings (size 3 to 8) (size 9 to 14) (size 15 to 20)
#    0.000    0.923    3.077    2.769    0.000   13.538 
#    0.000    7.692    0.000    0.000    0.000    0.000 
#    0.000    0.000    0.000    0.000    0.000    0.000 
#
# Total GULP energy -72432.397062 kJ/mol
# GULP energy per Si atom -5571.722851 kJ/mol
# Density = 2.576977 g / cm^3
# Si number density = 25.828553 Si / 1000 Ang^3
#
#
#
# Elastic Constant Matrix: (Units=GPa)
#
#
# Indices 1 2 3 4 5 6 
#
# 1 91.8056 27.0199 15.9406 -2.8801 13.8616 9.3318
# 2 27.0199 132.2990 0.0222 -0.8685 17.6568 15.3899
# 3 15.9406 0.0222 92.5320 -4.2463 8.9566 7.1912
# 4 -2.8801 -0.8685 -4.2463 49.2613 4.1758 17.1127
# 5 13.8616 17.6568 8.9566 4.1758 49.6510 -1.3096
# 6 9.3318 15.3899 7.1912 17.1127 -1.3096 48.2752
#
#
#
# Elastic Compliance Matrix: (Units=1/GPa)
#
#
# Indices 1 2 3 4 5 6 
#
# 1 0.012413 -0.001917 -0.001641 0.001526 -0.002673 -0.002157
# 2 -0.001917 0.008717 0.000924 0.001463 -0.002937 -0.003144
# 3 -0.001641 0.000924 0.011582 0.001957 -0.002189 -0.002456
# 4 0.001526 0.001463 0.001957 0.024278 -0.003599 -0.009757
# 5 -0.002673 -0.002937 -0.002189 -0.003599 0.022726 0.003671
# 6 -0.002157 -0.003144 -0.002456 -0.009757 0.003671 0.026058
#
#
# Mechanical properties :
#
#
# Convention : Reuss Voigt Hill
#
# Bulk Modulus (GPa) = 36.43916 44.73356 40.58636
# Shear Modulus (GPa) = 41.60057 47.68110 44.64083
#
# Velocity S-wave (km/s) = 4.01763 4.30124 4.16186
# Velocity P-wave (km/s) = 5.97165 6.48264 6.23238
#
# Compressibility (1/GPa) = 0.02744300
#
# Stress axis : x y z
#
# Youngs Moduli (GPa) = 80.56360 114.71287 86.33945
#
# Poissons Ratio (x) = 0.21992 0.14172
# Poissons Ratio (y) = 0.15445 -0.07978
# Poissons Ratio (z) = 0.13224 -0.10599
#
# Static dielectric constant tensor:
#      x y z
#    x 2.003590 -0.107980 0.036700 
#    y -0.107980 2.175940 -0.007640 
#    z 0.036700 -0.007640 2.088770 
# 
# From -- ./inp_files/120247.got.cif
#   From: 2010.05.17/outbox.cif.g08.bks.cpg/sg2_61_cif.got.tgz:120247.got - 2010.06.03 11:33:40.
