data_PCOD9048889
_publ_section_title
;
Structure prediction by ZEFSAII (Michael W. Deem and Ramdas Pophale) SiO2 
 PCOD9048889
Probable space group: P -1
;
_chemical_formula_sum "Si O2"
_cell_formula_units_Z 15
_cell_length_a 11.755039
_cell_length_b 20.879724
_cell_length_c 8.060607
_cell_angle_alpha 42.798819
_cell_angle_beta 131.784335
_cell_angle_gamma 153.053702
_cell_volume 608.642106
_symmetry_space_group_name_H-M "P -1"
_symmetry_group_IT_number 2
_symmetry_cell_setting 'triclinic'
loop_
_space_group_symop_operation_xyz
x,y,z
-x,-y,-z
loop_
_atom_site_type_symbol
_atom_site_label
_atom_site_fract_x
_atom_site_fract_y
_atom_site_fract_z
Si Si1 0.263797 0.925764 0.056568
Si Si2 0.946417 0.841214 0.615248
Si Si3 0.548681 0.344909 0.115781
Si Si4 0.020822 0.967004 0.901949
Si Si5 0.500000 0.500000 0.000000
Si Si6 0.928651 0.380957 0.529165
Si Si7 0.874084 0.537799 0.769680
Si Si8 0.283665 0.882875 0.650027
O O1 0.161611 0.769080 0.229748
O O2 0.555362 0.067550 0.122612
O O3 0.158132 0.936814 0.782956
O O4 0.137559 0.920366 0.097336
O O5 0.105248 0.879559 0.541114
O O6 0.717426 0.666732 0.792051
O O7 0.848026 0.893357 0.357466
O O8 0.258274 0.181957 0.152770
O O9 0.694497 0.318568 0.332551
O O10 0.601504 0.451514 0.099049
O O11 0.628286 0.423355 0.862171
O O12 0.000000 0.000000 0.000000
O O13 0.000000 0.500000 0.500000
O O14 0.145724 0.467199 0.438751
O O15 0.083648 0.711114 0.712334
O O16 0.000000 0.500000 0.000000
O O17 0.500000 0.000000 0.500000
#
# Coordination Sequence:
#
# PCOD9048889 Si02
#       8
#     2   2   2   2   1   2   2   2
#     4  12  26  47  77 115 152 208 267 326 402 467
#     4  12  27  52  74 117 155 208 264 327 399 481
#     4  11  25  51  77 112 161 206 264 329 395 484
#     4  12  29  51  78 111 159 214 264 322 403 484
#     4  12  24  50  84 108 164 210 256 330 402 478
#     4  11  25  47  78 116 155 204 270 332 398 471
#     4  10  24  45  74 112 155 204 264 329 395 459
#     4  12  24  47  80 109 154 206 266 329 389 471
#
# _framework density 24.645025
#
# number of rings (size 3 to 8) (size 9 to 14) (size 15 to 20)
#    0.000    0.533    4.000    3.200    7.467    0.000 
#    4.800    1.333    0.000    0.000    0.000    0.000 
#    0.000    0.000    0.000    0.000    0.000    0.000 
#
# Total GULP energy -83556.509180 kJ/mol
# GULP energy per Si atom -5570.433945 kJ/mol
# Density = 2.458893 g / cm^3
# Si number density = 24.645025 Si / 1000 Ang^3
#
#
#
# Elastic Constant Matrix: (Units=GPa)
#
#
# Indices 1 2 3 4 5 6 
#
# 1 153.2360 8.0614 56.7322 -19.5067 8.3204 -11.3043
# 2 8.0614 66.1918 43.5473 -16.3144 4.8390 -11.3769
# 3 56.7322 43.5473 118.3101 -17.3113 0.7545 -15.6662
# 4 -19.5067 -16.3144 -17.3113 33.5369 0.3051 0.9230
# 5 8.3204 4.8390 0.7545 0.3051 49.3685 -10.9112
# 6 -11.3043 -11.3769 -15.6662 0.9230 -10.9112 54.6077
#
#
#
# Elastic Compliance Matrix: (Units=1/GPa)
#
#
# Indices 1 2 3 4 5 6 
#
# 1 0.008778 0.003326 -0.004693 0.004295 -0.001589 0.000774
# 2 0.003326 0.022988 -0.008440 0.008712 -0.002192 0.002471
# 3 -0.004693 -0.008440 0.014070 0.000366 0.001766 0.001654
# 4 0.004295 0.008712 0.000366 0.036703 -0.001388 0.001912
# 5 -0.001589 -0.002192 0.001766 -0.001388 0.021618 0.004064
# 6 0.000774 0.002471 0.001654 0.001912 0.004064 0.020241
#
#
# Mechanical properties :
#
#
# Convention : Reuss Voigt Hill
#
# Bulk Modulus (GPa) = 38.13484 61.60219 49.86851
# Shear Modulus (GPa) = 32.73244 42.79576 37.76410
#
# Velocity S-wave (km/s) = 3.64834 4.17164 3.91873
# Velocity P-wave (km/s) = 5.76667 6.94647 6.38388
#
# Compressibility (1/GPa) = 0.02622274
#
# Stress axis : x y z
#
# Youngs Moduli (GPa) = 113.91723 43.50178 71.07128
#
# Poissons Ratio (x) = -0.14468 0.33350
# Poissons Ratio (y) = -0.37887 0.59984
# Poissons Ratio (z) = 0.53456 0.36716
#
# Static dielectric constant tensor:
#      x y z
#    x 2.051450 -0.045250 -0.057280 
#    y -0.045250 1.936440 0.044940 
#    z -0.057280 0.044940 2.011920 
# 
# From -- ./inp_files/281527.got.cif
#   From: 2010.05.17/outbox.cif.g08.bks.cpg/sg2_141_cif.got.tgz:281527.got - 2010.06.03 11:33:40.
