data_PCOD9048914
_publ_section_title
;
Structure prediction by ZEFSAII (Michael W. Deem and Ramdas Pophale) SiO2 
 PCOD9048914
Probable space group: P -1
;
_chemical_formula_sum "Si O2"
_cell_formula_units_Z 16
_cell_length_a 5.015029
_cell_length_b 23.818791
_cell_length_c 14.310319
_cell_angle_alpha 158.286820
_cell_angle_beta 78.474149
_cell_angle_gamma 104.478062
_cell_volume 609.806260
_symmetry_space_group_name_H-M "P -1"
_symmetry_group_IT_number 2
_symmetry_cell_setting 'triclinic'
loop_
_space_group_symop_operation_xyz
x,y,z
-x,-y,-z
loop_
_atom_site_type_symbol
_atom_site_label
_atom_site_fract_x
_atom_site_fract_y
_atom_site_fract_z
Si Si1 0.220374 0.581708 0.033506
Si Si2 0.793308 0.786517 0.360297
Si Si3 0.055019 0.622672 0.415409
Si Si4 0.016009 0.626858 0.818704
Si Si5 0.492970 0.843712 0.648758
Si Si6 0.339520 0.938170 0.323592
Si Si7 0.714607 0.850338 0.854298
Si Si8 0.415565 0.294077 0.169442
O O1 0.080868 0.728573 0.244715
O O2 0.534923 0.647702 0.141593
O O3 0.000000 0.500000 0.000000
O O4 0.195905 0.471184 0.773133
O O5 0.730908 0.842412 0.555071
O O6 0.775037 0.926517 0.510052
O O7 0.124375 0.507210 0.310902
O O8 0.992807 0.778810 0.710533
O O9 0.286646 0.681909 0.414975
O O10 0.313281 0.592524 0.711793
O O11 0.849950 0.661523 0.792885
O O12 0.098179 0.787847 0.117678
O O13 0.607415 0.851135 0.757318
O O14 0.321087 0.979417 0.848291
O O15 0.500000 0.000000 0.500000
O O16 0.547367 0.868389 0.132128
O O17 0.571286 0.736824 0.769501
#
# Coordination Sequence:
#
# PCOD9048914 Si02
#       8
#     2   2   2   2   2   2   2   2
#     4  12  27  45  72 110 149 188 238 295 374 431
#     4  12  26  47  77 107 150 191 241 303 362 436
#     4  12  27  44  74 103 151 190 242 303 363 443
#     4  10  26  45  71 104 145 188 243 293 369 419
#     4  11  25  47  74 108 140 197 242 305 364 432
#     4  10  24  45  75 107 144 189 244 299 354 431
#     4  11  26  48  74 105 144 192 253 297 364 432
#     4  10  25  48  70 103 143 185 248 294 360 416
#
# _framework density 26.237842000000001
#
# number of rings (size 3 to 8) (size 9 to 14) (size 15 to 20)
#    0.750    0.250    2.500    2.250    8.750    1.500 
#    0.000    0.000    0.000    0.000    0.000    0.000 
#    0.000    0.000    0.000    0.000    0.000    0.000 
#
# Total GULP energy -89587.127485 kJ/mol
# GULP energy per Si atom -5599.195468 kJ/mol
# Density = 2.617812 g / cm^3
# Si number density = 26.237842 Si / 1000 Ang^3
#
#
#
# Elastic Constant Matrix: (Units=GPa)
#
#
# Indices 1 2 3 4 5 6 
#
# 1 74.9608 16.7582 30.5143 2.4171 -9.5947 -12.4017
# 2 16.7582 152.1497 53.3574 13.5151 -4.6033 -13.3272
# 3 30.5143 53.3574 92.0800 23.3684 3.3384 -10.5724
# 4 2.4171 13.5151 23.3684 55.1090 -9.6800 -3.4536
# 5 -9.5947 -4.6033 3.3384 -9.6800 29.5866 -5.2653
# 6 -12.4017 -13.3272 -10.5724 -3.4536 -5.2653 36.4470
#
#
#
# Elastic Compliance Matrix: (Units=1/GPa)
#
#
# Indices 1 2 3 4 5 6 
#
# 1 0.018144 0.001006 -0.007252 0.004049 0.009280 0.006162
# 2 0.001006 0.008560 -0.005320 0.000782 0.002946 0.002429
# 3 -0.007252 -0.005320 0.018472 -0.007662 -0.007936 -0.000927
# 4 0.004049 0.000782 -0.007662 0.023048 0.010396 0.003127
# 5 0.009280 0.002946 -0.007936 0.010396 0.043194 0.009158
# 6 0.006162 0.002429 -0.000927 0.003127 0.009158 0.031772
#
#
# Mechanical properties :
#
#
# Convention : Reuss Voigt Hill
#
# Bulk Modulus (GPa) = 45.36500 57.82779 51.59640
# Shear Modulus (GPa) = 28.79026 38.79922 33.79474
#
# Velocity S-wave (km/s) = 3.31612 3.84962 3.59279
# Velocity P-wave (km/s) = 5.65594 6.46894 6.07605
#
# Compressibility (1/GPa) = 0.02204342
#
# Stress axis : x y z
#
# Youngs Moduli (GPa) = 55.11354 116.82639 54.13658
#
# Poissons Ratio (x) = -0.11748 0.39260
# Poissons Ratio (y) = -0.05542 0.28800
# Poissons Ratio (z) = 0.39969 0.62149
#
# Static dielectric constant tensor:
#      x y z
#    x 2.048720 0.037310 0.015220 
#    y 0.037310 1.986800 -0.029270 
#    z 0.015220 -0.029270 2.128550 
# 
# From -- ./inp_files/486017.got.cif
#   From: 2010.05.17/outbox.cif.g08.bks.cpg/sg2_244_cif.got.tgz:486017.got - 2010.06.03 11:33:40.
