data_PCOD9048174
_publ_section_title
;
Structure prediction by ZEFSAII (Michael W. Deem and Ramdas Pophale) SiO2 
 PCOD9048174
Probable space group: P -1
;
_chemical_formula_sum "Si O2"
_cell_formula_units_Z 14
_cell_length_a 11.921177
_cell_length_b 7.982266
_cell_length_c 8.627327
_cell_angle_alpha 48.024906
_cell_angle_beta 103.193463
_cell_angle_gamma 107.249475
_cell_volume 582.361641
_symmetry_space_group_name_H-M "P -1"
_symmetry_group_IT_number 2
_symmetry_cell_setting 'triclinic'
loop_
_space_group_symop_operation_xyz
x,y,z
-x,-y,-z
loop_
_atom_site_type_symbol
_atom_site_label
_atom_site_fract_x
_atom_site_fract_y
_atom_site_fract_z
Si Si1 0.274701 0.503267 0.080846
Si Si2 0.223726 0.956958 0.673386
Si Si3 0.158110 0.350633 0.575409
Si Si4 0.968690 0.676249 0.751636
Si Si5 0.485112 0.530136 0.658626
Si Si6 0.727374 0.768483 0.050358
Si Si7 0.306697 0.834827 0.438036
O O1 0.162620 0.330757 0.223801
O O2 0.394702 0.468643 0.214674
O O3 0.263389 0.770431 0.917349
O O4 0.270063 0.437912 0.940317
O O5 0.275464 0.920832 0.543718
O O6 0.081269 0.880437 0.669070
O O7 0.242013 0.209956 0.593464
O O8 0.054219 0.375885 0.407669
O O9 0.154140 0.204202 0.824787
O O10 0.220020 0.602042 0.495715
O O11 0.000000 0.500000 0.000000
O O12 0.500000 0.500000 0.500000
O O13 0.388615 0.322943 0.828422
O O14 0.432891 0.760469 0.525440
O O15 0.708585 0.978906 0.810298
#
# Coordination Sequence:
#
# PCOD9048174 Si02
#       7
#     2   2   2   2   2   2   2
#     4  11  22  48  73 107 146 190 243 297 361 426
#     4  11  24  47  75 102 149 191 234 304 358 426
#     4  11  24  46  73 104 147 185 240 293 357 430
#     4  10  24  44  75 107 141 192 241 293 363 426
#     4  11  25  46  74 107 147 190 242 296 360 434
#     4  11  25  45  74 110 145 188 240 298 361 432
#     4  11  26  48  70 112 142 189 243 289 367 427
#
# _framework density 24.040044999999999
#
# number of rings (size 3 to 8) (size 9 to 14) (size 15 to 20)
#    0.000    1.143    2.857    3.429    6.000    1.714 
#    5.143    1.429    0.000    0.000    0.000    0.000 
#    0.000    0.000    0.000    0.000    0.000    0.000 
#
# Total GULP energy -78146.780410 kJ/mol
# GULP energy per Si atom -5581.912886 kJ/mol
# Density = 2.398533 g / cm^3
# Si number density = 24.040045 Si / 1000 Ang^3
#
#
#
# Elastic Constant Matrix: (Units=GPa)
#
#
# Indices 1 2 3 4 5 6 
#
# 1 73.1214 1.7887 28.6893 10.8370 6.5548 16.4505
# 2 1.7887 79.4690 16.7792 11.0778 1.6045 -5.7332
# 3 28.6893 16.7792 151.5226 9.1734 18.8265 1.5389
# 4 10.8370 11.0778 9.1734 54.0321 1.7607 13.2606
# 5 6.5548 1.6045 18.8265 1.7607 63.3933 4.7916
# 6 16.4505 -5.7332 1.5389 13.2606 4.7916 36.5045
#
#
#
# Elastic Compliance Matrix: (Units=1/GPa)
#
#
# Indices 1 2 3 4 5 6 
#
# 1 0.016585 -0.000090 -0.002959 -0.001096 -0.000280 -0.006928
# 2 -0.000090 0.013587 -0.001303 -0.003396 -0.000116 0.003478
# 3 -0.002959 -0.001303 0.007580 -0.000685 -0.001993 0.001320
# 4 -0.001096 -0.003396 -0.000685 0.021455 0.000401 -0.007857
# 5 -0.000280 -0.000116 -0.001993 0.000401 0.016548 -0.002126
# 6 -0.006928 0.003478 0.001320 -0.007857 -0.002126 0.034140
#
#
# Mechanical properties :
#
#
# Convention : Reuss Voigt Hill
#
# Bulk Modulus (GPa) = 34.42432 44.29194 39.35813
# Shear Modulus (GPa) = 38.97668 47.90971 43.44319
#
# Velocity S-wave (km/s) = 4.03093 4.46905 4.25563
# Velocity P-wave (km/s) = 6.00127 6.71521 6.36825
#
# Compressibility (1/GPa) = 0.02904923
#
# Stress axis : x y z
#
# Youngs Moduli (GPa) = 60.29453 73.59776 131.92839
#
# Poissons Ratio (x) = 0.00662 0.39035
# Poissons Ratio (y) = 0.00542 0.17188
# Poissons Ratio (z) = 0.17840 0.09589
#
# Static dielectric constant tensor:
#      x y z
#    x 1.979720 -0.000710 0.026520 
#    y -0.000710 1.957610 0.003450 
#    z 0.026520 0.003450 2.058000 
# 
# From -- ./inp_files/242158.got.cif
#   From: 2010.05.17/outbox.cif.g08.bks.cpg/sg2_122_cif.got.tgz:242158.got - 2010.06.03 11:33:40.
