data_PCOD9048689
_publ_section_title
;
Structure prediction by ZEFSAII (Michael W. Deem and Ramdas Pophale) SiO2 
 PCOD9048689
Probable space group: P -1
;
_chemical_formula_sum "Si O2"
_cell_formula_units_Z 12
_cell_length_a 5.624524
_cell_length_b 7.404682
_cell_length_c 14.717076
_cell_angle_alpha 107.197468
_cell_angle_beta 131.633499
_cell_angle_gamma 81.438609
_cell_volume 436.659309
_symmetry_space_group_name_H-M "P -1"
_symmetry_group_IT_number 2
_symmetry_cell_setting 'triclinic'
loop_
_space_group_symop_operation_xyz
x,y,z
-x,-y,-z
loop_
_atom_site_type_symbol
_atom_site_label
_atom_site_fract_x
_atom_site_fract_y
_atom_site_fract_z
Si Si1 0.638539 0.237751 0.619973
Si Si2 0.700567 0.951178 0.229266
Si Si3 0.330364 0.853047 0.563136
Si Si4 0.070253 0.779568 0.002031
Si Si5 0.363569 0.717391 0.872481
Si Si6 0.194399 0.443916 0.629658
O O1 0.494519 0.272569 0.485954
O O2 0.550674 0.416885 0.682448
O O3 0.986122 0.163842 0.716273
O O4 0.429135 0.053842 0.574893
O O5 0.666650 0.110795 0.323861
O O6 0.684726 0.073507 0.150733
O O7 0.396900 0.803292 0.145639
O O8 0.988724 0.760344 0.432496
O O9 0.195947 0.700996 0.925739
O O10 0.747323 0.692840 0.955592
O O11 0.000000 0.000000 0.000000
O O12 0.192471 0.570372 0.736368
O O13 0.000000 0.500000 0.500000
#
# Coordination Sequence:
#
# PCOD9048689 Si02
#       6
#     2   2   2   2   2   2
#     4  11  25  42  69 102 141 189 237 287 353 439
#     4  11  22  42  73  98 134 189 243 288 344 430
#     4  11  24  44  68 105 138 185 239 287 359 430
#     4  10  24  45  71 105 140 188 241 292 345 425
#     4  11  26  44  71 110 143 181 238 300 357 413
#     4  12  26  43  67 106 146 182 225 305 366 420
#
# _framework density 27.481382
#
# number of rings (size 3 to 8) (size 9 to 14) (size 15 to 20)
#    0.000    1.000    1.667    6.000    9.333    0.667 
#    0.000    1.667    0.000    0.000    0.000    0.000 
#    0.000    0.000    0.000    0.000    0.000    0.000 
#
# Total GULP energy -66874.054436 kJ/mol
# GULP energy per Si atom -5572.837870 kJ/mol
# Density = 2.741883 g / cm^3
# Si number density = 27.481382 Si / 1000 Ang^3
#
#
#
# Elastic Constant Matrix: (Units=GPa)
#
#
# Indices 1 2 3 4 5 6 
#
# 1 208.7209 -18.8487 100.0508 -80.8126 22.5094 -85.3526
# 2 -18.8487 126.1666 8.8545 100.9608 -8.8355 47.8790
# 3 100.0508 8.8545 164.3247 -1.3797 4.3827 -50.1032
# 4 -80.8126 100.9608 -1.3797 176.4969 -33.3887 96.4900
# 5 22.5094 -8.8355 4.3827 -33.3887 73.1658 -11.7457
# 6 -85.3526 47.8790 -50.1032 96.4900 -11.7457 107.3707
#
#
#
# Elastic Compliance Matrix: (Units=1/GPa)
#
#
# Indices 1 2 3 4 5 6 
#
# 1 0.009801 -0.002861 -0.004974 0.004569 -0.000564 0.002578
# 2 -0.002861 0.016092 0.001278 -0.011741 -0.002380 0.001437
# 3 -0.004974 0.001278 0.010985 -0.006638 -0.000965 0.006462
# 4 0.004569 -0.011741 -0.006638 0.023674 0.005994 -0.014849
# 5 -0.000564 -0.002380 -0.000965 0.005994 0.015785 -0.003497
# 6 0.002578 0.001437 0.006462 -0.014849 -0.003497 0.026699
#
#
# Mechanical properties :
#
#
# Convention : Reuss Voigt Hill
#
# Bulk Modulus (GPa) = 42.07871 75.48061 58.77966
# Shear Modulus (GPa) = 40.29898 98.68372 69.49135
#
# Velocity S-wave (km/s) = 3.83353 5.99894 5.03404
# Velocity P-wave (km/s) = 5.91097 8.68958 7.43129
#
# Compressibility (1/GPa) = 0.02376499
#
# Stress axis : x y z
#
# Youngs Moduli (GPa) = 102.02870 62.14147 91.03021
#
# Poissons Ratio (x) = 0.17778 0.45277
# Poissons Ratio (y) = 0.29189 -0.11631
# Poissons Ratio (z) = 0.50748 -0.07940
#
# Static dielectric constant tensor:
#      x y z
#    x 1.125040 -0.780460 0.057710 
#    y -0.780460 1.924960 0.028810 
#    z 0.057710 0.028810 2.233250 
# 
# From -- ./inp_files/360784.got.cif
#   From: 2010.05.17/outbox.cif.g08.bks.cpg/sg2_181_cif.got.tgz:360784.got - 2010.06.03 11:33:40.
