data_PCOD9048569
_publ_section_title
;
Structure prediction by ZEFSAII (Michael W. Deem and Ramdas Pophale) SiO2 
 PCOD9048569
Probable space group: P -1
;
_chemical_formula_sum "Si O2"
_cell_formula_units_Z 16
_cell_length_a 12.188273
_cell_length_b 9.149341
_cell_length_c 8.507538
_cell_angle_alpha 73.134855
_cell_angle_beta 117.043062
_cell_angle_gamma 117.265980
_cell_volume 747.077584
_symmetry_space_group_name_H-M "P -1"
_symmetry_group_IT_number 2
_symmetry_cell_setting 'triclinic'
loop_
_space_group_symop_operation_xyz
x,y,z
-x,-y,-z
loop_
_atom_site_type_symbol
_atom_site_label
_atom_site_fract_x
_atom_site_fract_y
_atom_site_fract_z
Si Si1 0.361828 0.432235 0.223056
Si Si2 0.142728 0.045476 0.743202
Si Si3 0.368213 0.285254 0.615505
Si Si4 0.930328 0.151761 0.738323
Si Si5 0.550594 0.022958 0.206711
Si Si6 0.152786 0.742661 0.655629
Si Si7 0.089750 0.455595 0.944941
Si Si8 0.310676 0.088610 0.148843
O O1 0.350252 0.363142 0.415169
O O2 0.507499 0.577217 0.257313
O O3 0.348506 0.280701 0.148176
O O4 0.237709 0.485401 0.093160
O O5 0.229936 0.204354 0.645520
O O6 0.016882 0.064794 0.734499
O O7 0.110207 0.879113 0.674798
O O8 0.239780 0.043051 0.948386
O O9 0.414298 0.132045 0.670264
O O10 0.894678 0.261776 0.551611
O O11 0.016755 0.267124 0.898044
O O12 0.795413 0.017306 0.759483
O O13 0.687137 0.181150 0.256907
O O14 0.439340 0.043756 0.237412
O O15 0.500000 0.000000 0.000000
O O16 0.101527 0.573461 0.767969
O O17 0.000000 0.500000 0.000000
#
# Coordination Sequence:
#
# PCOD9048569 Si02
#       8
#     2   2   2   2   2   2   2   2
#     4  11  26  45  67 101 136 175 230 274 334 398
#     4  11  23  44  73  98 136 177 222 277 337 405
#     4  10  24  45  70 101 133 178 220 279 335 393
#     4  12  27  45  68 102 136 175 232 275 336 405
#     4  11  22  45  73  99 132 173 225 276 337 399
#     4  11  25  45  71 101 133 179 223 281 334 397
#     4  12  28  45  68  96 140 184 221 278 336 399
#     4  12  24  43  72 100 132 178 224 276 334 401
#
# _framework density 21.416785000000001
#
# number of rings (size 3 to 8) (size 9 to 14) (size 15 to 20)
#    0.000    0.750    3.750    4.125    5.250    3.500 
#    2.250    0.000    0.000    0.000    0.000    0.000 
#    0.000    0.000    0.000    0.000    0.000    0.000 
#
# Total GULP energy -89582.310700 kJ/mol
# GULP energy per Si atom -5598.894419 kJ/mol
# Density = 2.136804 g / cm^3
# Si number density = 21.416785 Si / 1000 Ang^3
#
#
#
# Elastic Constant Matrix: (Units=GPa)
#
#
# Indices 1 2 3 4 5 6 
#
# 1 146.2380 28.5569 -5.2899 3.1391 1.4748 5.4987
# 2 28.5569 81.4299 -4.6227 4.6280 -3.2903 10.0395
# 3 -5.2899 -4.6227 61.8718 7.9433 5.9054 -3.5655
# 4 3.1391 4.6280 7.9433 35.1094 5.7292 -5.4373
# 5 1.4748 -3.2903 5.9054 5.7292 18.6329 -0.3464
# 6 5.4987 10.0395 -3.5655 -5.4373 -0.3464 17.4672
#
#
#
# Elastic Compliance Matrix: (Units=1/GPa)
#
#
# Indices 1 2 3 4 5 6 
#
# 1 0.007395 -0.002463 0.000552 -0.000433 -0.001080 -0.000956
# 2 -0.002463 0.014592 0.000521 -0.003739 0.003597 -0.008598
# 3 0.000552 0.000521 0.017170 -0.002964 -0.004444 0.002021
# 4 -0.000433 -0.003739 -0.002964 0.033083 -0.009640 0.011788
# 5 -0.001080 0.003597 -0.004444 -0.009640 0.058679 -0.004471
# 6 -0.000956 -0.008598 0.002021 0.011788 -0.004471 0.066486
#
#
# Mechanical properties :
#
#
# Convention : Reuss Voigt Hill
#
# Bulk Modulus (GPa) = 27.49082 36.31427 31.90255
# Shear Modulus (GPa) = 23.55037 32.30159 27.92598
#
# Velocity S-wave (km/s) = 3.31965 3.88782 3.61491
# Velocity P-wave (km/s) = 5.24952 6.09478 5.68787
#
# Compressibility (1/GPa) = 0.03637578
#
# Stress axis : x y z
#
# Youngs Moduli (GPa) = 135.22132 68.53160 58.24186
#
# Poissons Ratio (x) = 0.16881 -0.03214
# Poissons Ratio (y) = 0.33309 -0.03034
# Poissons Ratio (z) = -0.07462 -0.03570
#
# Static dielectric constant tensor:
#      x y z
#    x 1.746090 0.005250 0.001040 
#    y 0.005250 1.746010 0.004110 
#    z 0.001040 0.004110 1.779310 
# 
# From -- ./inp_files/185046.got.cif
#   From: 2010.05.17/outbox.cif.g08.bks.cpg/sg2_93_cif.got.tgz:185046.got - 2010.06.03 11:33:40.
