data_PCOD9048378
_publ_section_title
;
Structure prediction by ZEFSAII (Michael W. Deem and Ramdas Pophale) SiO2 
 PCOD9048378
Probable space group: P -1
;
_chemical_formula_sum "Si O2"
_cell_formula_units_Z 16
_cell_length_a 14.530529
_cell_length_b 12.299031
_cell_length_c 9.046869
_cell_angle_alpha 44.924404
_cell_angle_beta 41.891880
_cell_angle_gamma 44.037057
_cell_volume 696.428127
_symmetry_space_group_name_H-M "P -1"
_symmetry_group_IT_number 2
_symmetry_cell_setting 'triclinic'
loop_
_space_group_symop_operation_xyz
x,y,z
-x,-y,-z
loop_
_atom_site_type_symbol
_atom_site_label
_atom_site_fract_x
_atom_site_fract_y
_atom_site_fract_z
Si Si1 0.223192 0.622372 0.363191
Si Si2 0.665477 0.939831 0.430495
Si Si3 0.465193 0.480433 0.729098
Si Si4 0.073677 0.804911 0.804216
Si Si5 0.063964 0.403702 0.672809
Si Si6 0.772030 0.221090 0.093596
Si Si7 0.193348 0.926919 0.277976
Si Si8 0.525525 0.880677 0.940418
O O1 0.387202 0.555487 0.309793
O O2 0.132847 0.506134 0.595255
O O3 0.145110 0.806580 0.348226
O O4 0.225654 0.652938 0.156925
O O5 0.794468 0.771523 0.371238
O O6 0.500000 0.000000 0.500000
O O7 0.713800 0.093577 0.212693
O O8 0.634602 0.916507 0.661814
O O9 0.500000 0.500000 0.500000
O O10 0.341438 0.652779 0.773247
O O11 0.417192 0.322759 0.931048
O O12 0.082607 0.880904 0.881553
O O13 0.190569 0.847202 0.518871
O O14 0.928097 0.890236 0.792158
O O15 0.059105 0.636102 0.045613
O O16 0.000000 0.500000 0.500000
O O17 0.354331 0.924911 0.049584
O O18 0.500000 0.000000 0.000000
#
# Coordination Sequence:
#
# PCOD9048378 Si02
#       8
#     2   2   2   2   2   2   2   2
#     4  11  23  43  66  95 136 177 234 284 348 410
#     4  12  25  43  70 100 136 182 236 290 348 409
#     4  11  23  41  66  97 135 177 229 284 353 414
#     4  11  24  44  68  95 142 180 235 279 354 422
#     4  12  26  44  68 106 144 182 238 296 353 422
#     4  12  23  41  69  96 135 185 229 286 348 415
#     4  10  24  45  68 101 134 189 230 285 347 427
#     4  11  23  44  69 101 135 174 231 288 344 414
#
# _framework density 22.974374000000001
#
# number of rings (size 3 to 8) (size 9 to 14) (size 15 to 20)
#    0.000    0.750    1.250    7.875    1.750    2.500 
#    0.000    0.000    0.000    0.000    0.000    0.000 
#    0.000    0.000    0.000    0.000    0.000    0.000 
#
# Total GULP energy -89233.329071 kJ/mol
# GULP energy per Si atom -5577.083067 kJ/mol
# Density = 2.292208 g / cm^3
# Si number density = 22.974374 Si / 1000 Ang^3
#
#
#
# Elastic Constant Matrix: (Units=GPa)
#
#
# Indices 1 2 3 4 5 6 
#
# 1 107.4446 18.2871 33.7090 -12.1700 1.2256 9.8524
# 2 18.2871 56.6907 -7.5415 -8.2714 -0.1918 0.1393
# 3 33.7090 -7.5415 99.2930 -2.1414 7.3846 -2.9583
# 4 -12.1700 -8.2714 -2.1414 34.2078 11.4636 -0.0973
# 5 1.2256 -0.1918 7.3846 11.4636 54.8369 -6.6964
# 6 9.8524 0.1393 -2.9583 -0.0973 -6.6964 41.5881
#
#
#
# Elastic Compliance Matrix: (Units=1/GPa)
#
#
# Indices 1 2 3 4 5 6 
#
# 1 0.012032 -0.003973 -0.004354 0.003301 -0.000785 -0.003266
# 2 -0.003973 0.019891 0.003043 0.003908 -0.000953 0.000947
# 3 -0.004354 0.003043 0.011941 0.000402 -0.001383 0.001649
# 4 0.003301 0.003908 0.000402 0.033860 -0.007423 -0.001882
# 5 -0.000785 -0.000953 -0.001383 -0.007423 0.020398 0.003358
# 6 -0.003266 0.000947 0.001649 -0.001882 0.003358 0.025469
#
#
# Mechanical properties :
#
#
# Convention : Reuss Voigt Hill
#
# Bulk Modulus (GPa) = 30.03474 39.14862 34.59168
# Shear Modulus (GPa) = 34.42147 40.72482 37.57314
#
# Velocity S-wave (km/s) = 3.87493 4.21482 4.04844
# Velocity P-wave (km/s) = 5.75514 6.38462 6.07803
#
# Compressibility (1/GPa) = 0.03329478
#
# Stress axis : x y z
#
# Youngs Moduli (GPa) = 83.11353 50.27445 83.74387
#
# Poissons Ratio (x) = 0.19976 0.36463
# Poissons Ratio (y) = 0.33024 -0.25484
# Poissons Ratio (z) = 0.36189 -0.15299
#
# Static dielectric constant tensor:
#      x y z
#    x 1.939760 -0.081080 0.024160 
#    y -0.081080 1.949620 -0.014820 
#    z 0.024160 -0.014820 1.961870 
# 
# From -- ./inp_files/306136.got.cif
#   From: 2010.05.17/outbox.cif.g08.bks.cpg/sg2_154_cif.got.tgz:306136.got - 2010.06.03 11:33:40.
