data_PCOD9048363
_publ_section_title
;
Structure prediction by ZEFSAII (Michael W. Deem and Ramdas Pophale) SiO2 
 PCOD9048363
Probable space group: P -1
;
_chemical_formula_sum "Si O2"
_cell_formula_units_Z 16
_cell_length_a 6.680557
_cell_length_b 14.495174
_cell_length_c 11.102665
_cell_angle_alpha 64.095180
_cell_angle_beta 97.429391
_cell_angle_gamma 133.435563
_cell_volume 677.751645
_symmetry_space_group_name_H-M "P -1"
_symmetry_group_IT_number 2
_symmetry_cell_setting 'triclinic'
loop_
_space_group_symop_operation_xyz
x,y,z
-x,-y,-z
loop_
_atom_site_type_symbol
_atom_site_label
_atom_site_fract_x
_atom_site_fract_y
_atom_site_fract_z
Si Si1 0.290367 0.409915 0.927233
Si Si2 0.716434 0.765463 0.154410
Si Si3 0.829067 0.100809 0.426200
Si Si4 0.372073 0.039733 0.057719
Si Si5 0.683425 0.844457 0.445697
Si Si6 0.244956 0.597945 0.735757
Si Si7 0.260789 0.604907 0.365456
Si Si8 0.208523 0.740915 0.848275
O O1 0.299341 0.303587 0.929802
O O2 0.362818 0.525565 0.774585
O O3 0.500000 0.500000 0.000000
O O4 0.987647 0.326779 0.010742
O O5 0.532409 0.639749 0.312984
O O6 0.611548 0.843475 0.073949
O O7 0.045517 0.893175 0.139316
O O8 0.915283 0.233055 0.283659
O O9 0.059680 0.146043 0.518630
O O10 0.500000 0.000000 0.500000
O O11 0.822697 0.005154 0.383855
O O12 0.511737 0.105803 0.161999
O O13 0.500000 0.000000 0.000000
O O14 0.460445 0.746095 0.593563
O O15 0.471894 0.761851 0.361514
O O16 0.243785 0.643589 0.843978
O O17 0.932131 0.472289 0.726195
O O18 0.000000 0.500000 0.500000
#
# Coordination Sequence:
#
# PCOD9048363 Si02
#       8
#     2   2   2   2   2   2   2   2
#     4  12  24  41  68 103 138 185 227 288 343 421
#     4  11  25  44  70 103 140 177 242 278 356 417
#     4  11  24  43  69 100 135 176 232 291 345 412
#     4  11  25  45  69 106 140 182 225 299 348 415
#     4  10  24  45  67  99 134 181 231 284 348 412
#     4  11  23  45  67 100 142 181 236 282 345 420
#     4  10  24  45  70  96 140 189 228 290 342 417
#     4  12  24  42  72 100 139 180 229 285 355 407
#
# _framework density 23.607465999999999
#
# number of rings (size 3 to 8) (size 9 to 14) (size 15 to 20)
#    0.000    1.000    2.500    3.375    3.500    0.000 
#    0.000    1.875    0.000    0.000    0.000    0.000 
#    0.000    0.000    0.000    0.000    0.000    0.000 
#
# Total GULP energy -89120.421956 kJ/mol
# GULP energy per Si atom -5570.026372 kJ/mol
# Density = 2.355373 g / cm^3
# Si number density = 23.607466 Si / 1000 Ang^3
#
#
#
# Elastic Constant Matrix: (Units=GPa)
#
#
# Indices 1 2 3 4 5 6 
#
# 1 108.4539 55.5895 25.4825 2.6843 -10.8088 -7.0322
# 2 55.5895 166.0784 13.5970 25.9104 -6.5236 9.1126
# 3 25.4825 13.5970 67.8695 -1.9182 -24.9045 -3.3358
# 4 2.6843 25.9104 -1.9182 34.6042 -4.5754 -6.9810
# 5 -10.8088 -6.5236 -24.9045 -4.5754 34.2805 -4.6449
# 6 -7.0322 9.1126 -3.3358 -6.9810 -4.6449 44.4407
#
#
#
# Elastic Compliance Matrix: (Units=1/GPa)
#
#
# Indices 1 2 3 4 5 6 
#
# 1 0.012578 -0.004600 -0.002830 0.003260 0.001935 0.003435
# 2 -0.004600 0.008986 -0.001319 -0.007570 -0.002264 -0.004095
# 3 -0.002830 -0.001319 0.022451 0.005450 0.016448 0.004083
# 4 0.003260 -0.007570 0.005450 0.037828 0.009877 0.009452
# 5 0.001935 -0.002264 0.016448 0.009877 0.043719 0.008126
# 6 0.003435 -0.004095 0.004083 0.009452 0.008126 0.026526
#
#
# Mechanical properties :
#
#
# Convention : Reuss Voigt Hill
#
# Bulk Modulus (GPa) = 37.71089 59.08221 48.39655
# Shear Modulus (GPa) = 28.02314 39.18061 33.60187
#
# Velocity S-wave (km/s) = 3.44909 4.07832 3.77683
# Velocity P-wave (km/s) = 5.64539 6.87446 6.29002
#
# Compressibility (1/GPa) = 0.02651754
#
# Stress axis : x y z
#
# Youngs Moduli (GPa) = 79.50448 111.28974 44.54099
#
# Poissons Ratio (x) = 0.51188 0.12605
# Poissons Ratio (y) = 0.36568 0.05876
# Poissons Ratio (z) = 0.22499 0.14681
#
# Static dielectric constant tensor:
#      x y z
#    x 1.931630 0.100700 -0.054620 
#    y 0.100700 2.080980 -0.182010 
#    z -0.054620 -0.182010 2.163690 
# 
# From -- ./inp_files/367687.got.cif
#   From: 2010.05.17/outbox.cif.g08.bks.cpg/sg2_184_cif.got.tgz:367687.got - 2010.06.03 11:33:40.
