data_PCOD9048418
_publ_section_title
;
Structure prediction by ZEFSAII (Michael W. Deem and Ramdas Pophale) SiO2 
 PCOD9048418
Probable space group: P -1
;
_chemical_formula_sum "Si O2"
_cell_formula_units_Z 12
_cell_length_a 12.428812
_cell_length_b 9.362419
_cell_length_c 5.950585
_cell_angle_alpha 77.581972
_cell_angle_beta 137.185029
_cell_angle_gamma 105.669857
_cell_volume 452.958157
_symmetry_space_group_name_H-M "P -1"
_symmetry_group_IT_number 2
_symmetry_cell_setting 'triclinic'
loop_
_space_group_symop_operation_xyz
x,y,z
-x,-y,-z
loop_
_atom_site_type_symbol
_atom_site_label
_atom_site_fract_x
_atom_site_fract_y
_atom_site_fract_z
Si Si1 0.662718 0.602879 0.137061
Si Si2 0.134559 0.897507 0.722024
Si Si3 0.177960 0.309171 0.216684
Si Si4 0.241463 0.003765 0.349391
Si Si5 0.482139 0.252822 0.493115
Si Si6 0.175847 0.585179 0.898259
O O1 0.791794 0.681565 0.481091
O O2 0.755877 0.490163 0.185055
O O3 0.500000 0.500000 0.000000
O O4 0.593680 0.739906 0.869739
O O5 0.083806 0.720414 0.672282
O O6 0.222072 0.939067 0.595717
O O7 0.000000 0.000000 0.500000
O O8 0.207545 0.918222 0.087203
O O9 0.134666 0.139464 0.132090
O O10 0.364233 0.351417 0.401814
O O11 0.092420 0.440680 0.956380
O O12 0.424580 0.093858 0.570806
O O13 0.662613 0.330027 0.760972
#
# Coordination Sequence:
#
# PCOD9048418 Si02
#       6
#     2   2   2   2   2   2
#     4  11  15  31  62  98 136 161 199 257 322 391
#     4  12  28  49  64  87 131 181 225 267 316 376
#     4   9  19  36  63  97 126 163 201 263 324 387
#     4  10  24  45  68  91 130 170 211 276 330 371
#     4   9  19  34  61 102 127 161 202 261 330 387
#     4  11  22  35  65 100 128 172 211 254 325 396
#
# _framework density 26.492512000000001
#
# number of rings (size 3 to 8) (size 9 to 14) (size 15 to 20)
#    1.000    0.667    3.333    2.500    2.333    1.333 
#    0.000    1.667    0.000    0.000    0.000    0.000 
#    0.000    0.000    0.000    0.000    0.000    0.000 
#
# Total GULP energy -66821.714546 kJ/mol
# GULP energy per Si atom -5568.476212 kJ/mol
# Density = 2.643221 g / cm^3
# Si number density = 26.492512 Si / 1000 Ang^3
#
#
#
# Elastic Constant Matrix: (Units=GPa)
#
#
# Indices 1 2 3 4 5 6 
#
# 1 83.0855 43.7787 42.5599 -3.9674 -21.7655 6.3589
# 2 43.7787 151.7503 63.3424 5.1177 -10.8582 -22.6960
# 3 42.5599 63.3424 90.5418 9.3174 -21.5382 2.6847
# 4 -3.9674 5.1177 9.3174 40.5392 -9.4512 -9.2779
# 5 -21.7655 -10.8582 -21.5382 -9.4512 36.1332 -6.1174
# 6 6.3589 -22.6960 2.6847 -9.2779 -6.1174 41.4234
#
#
#
# Elastic Compliance Matrix: (Units=1/GPa)
#
#
# Indices 1 2 3 4 5 6 
#
# 1 0.018906 -0.003180 -0.005129 0.004919 0.008327 -0.001981
# 2 -0.003180 0.011467 -0.007152 0.001301 -0.001147 0.007356
# 3 -0.005129 -0.007152 0.020197 -0.004155 0.004927 -0.004643
# 4 0.004919 0.001301 -0.004155 0.030277 0.010239 0.008521
# 5 0.008327 -0.001147 0.004927 0.010239 0.038947 0.005819
# 6 -0.001981 0.007356 -0.004643 0.008521 0.005819 0.031544
#
#
# Mechanical properties :
#
#
# Convention : Reuss Voigt Hill
#
# Bulk Modulus (GPa) = 50.89743 69.41553 60.15648
# Shear Modulus (GPa) = 26.48171 35.33226 30.90698
#
# Velocity S-wave (km/s) = 3.16506 3.65591 3.41930
# Velocity P-wave (km/s) = 5.71056 6.63925 6.19234
#
# Compressibility (1/GPa) = 0.01964736
#
# Stress axis : x y z
#
# Youngs Moduli (GPa) = 52.89201 87.20789 49.51297
#
# Poissons Ratio (x) = 0.27729 0.25397
# Poissons Ratio (y) = 0.16818 0.35414
# Poissons Ratio (z) = 0.27130 0.62375
#
# Static dielectric constant tensor:
#      x y z
#    x 2.276280 0.059650 -0.164020 
#    y 0.059650 2.065990 -0.045740 
#    z -0.164020 -0.045740 2.342890 
# 
# From -- ./inp_files/49936.got.cif
#   From: 2010.05.17/outbox.cif.g08.bks.cpg/sg2_25_cif.got.tgz:49936.got - 2010.06.03 11:33:40.
