data_PCOD9048807
_publ_section_title
;
Structure prediction by ZEFSAII (Michael W. Deem and Ramdas Pophale) SiO2 
 PCOD9048807
Probable space group: P -1
;
_chemical_formula_sum "Si O2"
_cell_formula_units_Z 13
_cell_length_a 5.178811
_cell_length_b 21.218947
_cell_length_c 4.753946
_cell_angle_alpha 56.569101
_cell_angle_beta 92.809902
_cell_angle_gamma 89.535688
_cell_volume 435.063687
_symmetry_space_group_name_H-M "P -1"
_symmetry_group_IT_number 2
_symmetry_cell_setting 'triclinic'
loop_
_space_group_symop_operation_xyz
x,y,z
-x,-y,-z
loop_
_atom_site_type_symbol
_atom_site_label
_atom_site_fract_x
_atom_site_fract_y
_atom_site_fract_z
Si Si1 0.705988 0.115989 0.526949
Si Si2 0.157714 0.256641 0.613169
Si Si3 0.788645 0.907910 0.769880
Si Si4 0.196070 0.562432 0.102386
Si Si5 0.187032 0.720936 0.968176
Si Si6 0.500000 0.000000 0.000000
Si Si7 0.666740 0.587998 0.670871
O O1 0.436419 0.075805 0.519580
O O2 0.659769 0.206752 0.305898
O O3 0.954659 0.102135 0.380656
O O4 0.702597 0.071990 0.927915
O O5 0.326282 0.322308 0.587412
O O6 0.079455 0.266350 0.261584
O O7 0.256499 0.173594 0.896029
O O8 0.887767 0.268511 0.738914
O O9 0.733246 0.965827 0.872798
O O10 0.260656 0.633281 0.126237
O O11 0.397596 0.570646 0.838831
O O12 0.910348 0.574613 0.930804
O O13 0.252953 0.474672 0.407154
#
# Coordination Sequence:
#
# PCOD9048807 Si02
#       7
#     2   2   2   2   2   1   2
#     4  11  28  48  72 108 142 185 243 294 361 435
#     4  10  24  45  73 103 143 186 235 290 350 421
#     4  11  28  48  72 108 142 185 243 294 361 435
#     4   9  19  37  64  98 137 181 231 284 341 409
#     4  10  24  45  73 103 143 186 235 290 350 421
#     4  12  28  46  84  96 148 188 232 308 360 434
#     4   9  19  37  64  98 137 181 231 284 341 409
#
# _framework density 29.880680999999999
#
# number of rings (size 3 to 8) (size 9 to 14) (size 15 to 20)
#    0.000    1.846    0.000    0.923   10.769    6.769 
#    0.000    0.000    0.000   17.538    0.000    0.000 
#    0.000    0.000    0.000    0.000    0.000    0.000 
#
# Total GULP energy -72715.462090 kJ/mol
# GULP energy per Si atom -5593.497084 kJ/mol
# Density = 2.981267 g / cm^3
# Si number density = 29.880681 Si / 1000 Ang^3
#
#
#
# Elastic Constant Matrix: (Units=GPa)
#
#
# Indices 1 2 3 4 5 6 
#
# 1 128.5028 45.9706 49.0455 4.8364 -11.0516 -11.2522
# 2 45.9706 194.9371 59.8653 -41.4794 2.3606 -21.9934
# 3 49.0455 59.8653 131.1019 -22.3495 -16.2782 -3.6200
# 4 4.8364 -41.4794 -22.3495 72.3892 7.0481 4.2205
# 5 -11.0516 2.3606 -16.2782 7.0481 40.4595 -14.2136
# 6 -11.2522 -21.9934 -3.6200 4.2205 -14.2136 54.2049
#
#
#
# Elastic Compliance Matrix: (Units=1/GPa)
#
#
# Indices 1 2 3 4 5 6 
#
# 1 0.010196 -0.001933 -0.003038 -0.003143 0.002980 0.002156
# 2 -0.001933 0.007235 -0.002140 0.003705 -0.001892 0.001607
# 3 -0.003038 -0.002140 0.010450 0.001907 0.003121 -0.000131
# 4 -0.003143 0.003705 0.001907 0.017182 -0.003775 -0.001349
# 5 0.002980 -0.001892 0.003121 -0.003775 0.030486 0.008348
# 6 0.002156 0.001607 -0.000131 -0.001349 0.008348 0.021833
#
#
# Mechanical properties :
#
#
# Convention : Reuss Voigt Hill
#
# Bulk Modulus (GPa) = 73.20369 84.92274 79.06322
# Shear Modulus (GPa) = 43.04453 53.38806 48.21630
#
# Velocity S-wave (km/s) = 3.79957 4.23153 4.02136
# Velocity P-wave (km/s) = 6.61822 7.23580 6.93389
#
# Compressibility (1/GPa) = 0.01366051
#
# Stress axis : x y z
#
# Youngs Moduli (GPa) = 98.07442 138.20897 95.69187
#
# Poissons Ratio (x) = 0.26719 0.29070
# Poissons Ratio (y) = 0.18960 0.20475
# Poissons Ratio (z) = 0.29794 0.29572
#
# Static dielectric constant tensor:
#      x y z
#    x 2.348950 0.103830 0.105220 
#    y 0.103830 2.349380 -0.108720 
#    z 0.105220 -0.108720 2.551380 
# 
# From -- ./inp_files/8334.got.cif
#   From: 2010.05.17/outbox.cif.g08.bks.cpg/sg2_5_cif.got.tgz:8334.got - 2010.06.03 11:33:40.
