data_PCOD9048446
_publ_section_title
;
Structure prediction by ZEFSAII (Michael W. Deem and Ramdas Pophale) SiO2 
 PCOD9048446
Probable space group: P -1
;
_chemical_formula_sum "Si O2"
_cell_formula_units_Z 16
_cell_length_a 20.765091
_cell_length_b 15.076019
_cell_length_c 11.924080
_cell_angle_alpha 29.571770
_cell_angle_beta 150.081568
_cell_angle_gamma 151.024899
_cell_volume 800.169160
_symmetry_space_group_name_H-M "P -1"
_symmetry_group_IT_number 2
_symmetry_cell_setting 'triclinic'
loop_
_space_group_symop_operation_xyz
x,y,z
-x,-y,-z
loop_
_atom_site_type_symbol
_atom_site_label
_atom_site_fract_x
_atom_site_fract_y
_atom_site_fract_z
Si Si1 0.561788 0.034788 0.428634
Si Si2 0.349506 0.792106 0.012596
Si Si3 0.335400 0.417041 0.522354
Si Si4 0.189604 0.487873 0.740431
Si Si5 0.706105 0.011706 0.080089
Si Si6 0.912130 0.468935 0.229580
Si Si7 0.983929 0.661988 0.878263
Si Si8 0.433408 0.379371 0.149151
O O1 0.700292 0.264047 0.372963
O O2 0.500000 0.000000 0.500000
O O3 0.597999 0.853475 0.654302
O O4 0.426631 0.006360 0.177255
O O5 0.374523 0.601176 0.291344
O O6 0.241491 0.735635 0.806658
O O7 0.500000 0.000000 0.000000
O O8 0.274214 0.838053 0.953463
O O9 0.339125 0.218962 0.697959
O O10 0.164751 0.338647 0.384195
O O11 0.444134 0.506782 0.693861
O O12 0.128988 0.430154 0.839568
O O13 0.045659 0.433356 0.508828
O O14 0.287546 0.390181 0.952139
O O15 0.864563 0.122220 0.136781
O O16 0.957245 0.590683 0.046354
O O17 0.000000 0.500000 0.000000
O O18 0.500000 0.500000 0.000000
#
# Coordination Sequence:
#
# PCOD9048446 Si02
#       8
#     2   2   2   2   2   2   2   2
#     4  12  22  41  68 101 135 180 228 278 345 403
#     4  11  24  44  69  97 136 177 223 279 344 403
#     4  11  24  41  65 105 131 171 232 277 342 406
#     4  11  24  45  68  95 145 173 232 278 343 414
#     4  12  22  41  68  98 134 178 224 285 339 400
#     4  10  24  45  68  98 135 190 218 287 346 401
#     4  11  21  42  67  94 138 177 229 283 342 401
#     4  12  24  40  69 102 132 178 228 282 336 408
#
# _framework density 19.995773
#
# number of rings (size 3 to 8) (size 9 to 14) (size 15 to 20)
#    0.000    0.750    6.250    1.875    1.750    0.500 
#    2.250    5.000    0.000    0.000    0.000    0.000 
#    0.000    0.000    0.000    0.000    0.000    0.000 
#
# Total GULP energy -89393.095384 kJ/mol
# GULP energy per Si atom -5587.068461 kJ/mol
# Density = 1.995026 g / cm^3
# Si number density = 19.995773 Si / 1000 Ang^3
#
#
#
# Elastic Constant Matrix: (Units=GPa)
#
#
# Indices 1 2 3 4 5 6 
#
# 1 105.0500 18.1760 54.1218 4.4111 6.4414 4.0750
# 2 18.1760 110.7569 60.4934 4.0135 4.3962 10.2777
# 3 54.1218 60.4934 122.7281 4.4708 28.0313 -6.5860
# 4 4.4111 4.0135 4.4708 56.9168 -3.5403 0.3692
# 5 6.4414 4.3962 28.0313 -3.5403 31.8043 1.9869
# 6 4.0750 10.2777 -6.5860 0.3692 1.9869 36.2805
#
#
#
# Elastic Compliance Matrix: (Units=1/GPa)
#
#
# Indices 1 2 3 4 5 6 
#
# 1 0.013274 0.002598 -0.008382 -0.000244 0.004562 -0.003996
# 2 0.002598 0.014544 -0.010255 0.000052 0.006923 -0.006653
# 3 -0.008382 -0.010255 0.021101 -0.001346 -0.016169 0.008576
# 4 -0.000244 0.000052 -0.001346 0.017897 0.003258 -0.000592
# 5 0.004562 0.006923 -0.016169 0.003258 0.044667 -0.007888
# 6 -0.003996 -0.006653 0.008576 -0.000592 -0.007888 0.031891
#
#
# Mechanical properties :
#
#
# Convention : Reuss Voigt Hill
#
# Bulk Modulus (GPa) = 59.37537 67.12413 63.24975
# Shear Modulus (GPa) = 27.61434 38.71657 33.16546
#
# Velocity S-wave (km/s) = 3.72022 4.40504 4.07704
# Velocity P-wave (km/s) = 6.94348 7.71457 7.33916
#
# Compressibility (1/GPa) = 0.01684200
#
# Stress axis : x y z
#
# Youngs Moduli (GPa) = 75.33803 68.75626 47.39052
#
# Poissons Ratio (x) = -0.17865 0.39722
# Poissons Ratio (y) = -0.19575 0.48599
# Poissons Ratio (z) = 0.63147 0.70509
#
# Static dielectric constant tensor:
#      x y z
#    x 1.743870 0.009550 -0.011970 
#    y 0.009550 1.567030 -0.064310 
#    z -0.011970 -0.064310 1.662120 
# 
# From -- ./inp_files/471694.got.cif
#   From: 2010.05.17/outbox.cif.g08.bks.cpg/sg2_236_cif.got.tgz:471694.got - 2010.06.03 11:33:40.
