data_PCOD9048420
_publ_section_title
;
Structure prediction by ZEFSAII (Michael W. Deem and Ramdas Pophale) SiO2 
 PCOD9048420
Probable space group: P -1
;
_chemical_formula_sum "Si O2"
_cell_formula_units_Z 16
_cell_length_a 7.030427
_cell_length_b 21.436473
_cell_length_c 12.022872
_cell_angle_alpha 35.593182
_cell_angle_beta 48.294344
_cell_angle_gamma 41.880999
_cell_volume 695.624247
_symmetry_space_group_name_H-M "P -1"
_symmetry_group_IT_number 2
_symmetry_cell_setting 'triclinic'
loop_
_space_group_symop_operation_xyz
x,y,z
-x,-y,-z
loop_
_atom_site_type_symbol
_atom_site_label
_atom_site_fract_x
_atom_site_fract_y
_atom_site_fract_z
Si Si1 0.246995 0.542275 0.811042
Si Si2 0.367144 0.643971 0.814690
Si Si3 0.980489 0.607201 0.591422
Si Si4 0.582046 0.992484 0.346749
Si Si5 0.058712 0.578889 0.272060
Si Si6 0.877189 0.820812 0.907868
Si Si7 0.314064 0.149463 0.707883
Si Si8 0.832129 0.009047 0.837305
O O1 0.202035 0.649352 0.757817
O O2 0.599163 0.454983 0.804157
O O3 0.177675 0.587487 0.647636
O O4 0.000000 0.500000 0.000000
O O5 0.641098 0.664823 0.666600
O O6 0.160880 0.735031 0.852830
O O7 0.500000 0.500000 0.000000
O O8 0.029830 0.477210 0.718001
O O9 0.961853 0.717785 0.364114
O O10 0.360798 0.111507 0.191827
O O11 0.896686 0.979415 0.246643
O O12 0.500000 0.000000 0.500000
O O13 0.610644 0.889324 0.395075
O O14 0.000000 0.500000 0.500000
O O15 0.852435 0.721612 0.139923
O O16 0.908961 0.915145 0.840169
O O17 0.587996 0.132456 0.699139
O O18 0.262337 0.045697 0.941976
#
# Coordination Sequence:
#
# PCOD9048420 Si02
#       8
#     2   2   2   2   2   2   2   2
#     4  11  21  38  60  89 128 173 215 258 325 389
#     4  11  21  40  61  94 133 172 210 267 326 390
#     4  11  23  38  65  96 127 171 219 261 328 397
#     4  11  27  42  66 101 127 169 224 277 324 390
#     4  11  24  42  63  98 136 172 219 271 327 403
#     4  11  23  41  66  95 134 173 212 270 333 385
#     4  10  24  45  68  92 127 176 219 268 332 387
#     4  10  24  46  67  90 130 173 219 274 327 384
#
# _framework density 23.000924999999999
#
# number of rings (size 3 to 8) (size 9 to 14) (size 15 to 20)
#    0.000    1.250    3.750    1.125    5.250    5.500 
#    0.000    0.000    0.000    0.000    0.000    0.000 
#    0.000    0.000    0.000    0.000    0.000    0.000 
#
# Total GULP energy -89118.551929 kJ/mol
# GULP energy per Si atom -5569.909496 kJ/mol
# Density = 2.294857 g / cm^3
# Si number density = 23.000925 Si / 1000 Ang^3
#
#
#
# Elastic Constant Matrix: (Units=GPa)
#
#
# Indices 1 2 3 4 5 6 
#
# 1 124.5107 14.6359 37.8253 0.4639 21.5489 9.9056
# 2 14.6359 46.1220 -6.1889 -2.5513 0.1641 15.8304
# 3 37.8253 -6.1889 64.0247 -15.4378 16.4194 -3.0530
# 4 0.4639 -2.5513 -15.4378 38.2452 -3.8787 2.4813
# 5 21.5489 0.1641 16.4194 -3.8787 32.9976 6.6135
# 6 9.9056 15.8304 -3.0530 2.4813 6.6135 30.1301
#
#
#
# Elastic Compliance Matrix: (Units=1/GPa)
#
#
# Indices 1 2 3 4 5 6 
#
# 1 0.011531 -0.004481 -0.007091 -0.003669 -0.004225 -0.000925
# 2 -0.004481 0.029067 0.005084 0.005376 0.003802 -0.014561
# 3 -0.007091 0.005084 0.024525 0.009417 -0.007077 0.002923
# 4 -0.003669 0.005376 0.009417 0.030794 0.002034 -0.003646
# 5 -0.004225 0.003802 -0.007077 0.002034 0.038813 -0.010013
# 6 -0.000925 -0.014561 0.002923 -0.003646 -0.010013 0.043938
#
#
# Mechanical properties :
#
#
# Convention : Reuss Voigt Hill
#
# Bulk Modulus (GPa) = 19.17654 36.35579 27.76617
# Shear Modulus (GPa) = 23.92045 32.83360 28.37703
#
# Velocity S-wave (km/s) = 3.22837 3.78231 3.51627
# Velocity P-wave (km/s) = 4.71719 5.90890 5.34635
#
# Compressibility (1/GPa) = 0.05214704
#
# Stress axis : x y z
#
# Youngs Moduli (GPa) = 86.72394 34.40291 40.77552
#
# Poissons Ratio (x) = 0.15415 0.28913
# Poissons Ratio (y) = 0.38860 -0.20729
# Poissons Ratio (z) = 0.61494 -0.17490
#
# Static dielectric constant tensor:
#      x y z
#    x 1.704920 -0.009720 0.058520 
#    y -0.009720 2.006380 0.027800 
#    z 0.058520 0.027800 2.063530 
# 
# From -- ./inp_files/370328.got.cif
#   From: 2010.05.17/outbox.cif.g08.bks.cpg/sg2_186_cif.got.tgz:370328.got - 2010.06.03 11:33:40.
