data_PCOD9048472
_publ_section_title
;
Structure prediction by ZEFSAII (Michael W. Deem and Ramdas Pophale) SiO2 
 PCOD9048472
Probable space group: P -1
;
_chemical_formula_sum "Si O2"
_cell_formula_units_Z 16
_cell_length_a 5.398636
_cell_length_b 10.498058
_cell_length_c 22.077484
_cell_angle_alpha 32.628401
_cell_angle_beta 88.441723
_cell_angle_gamma 90.136326
_cell_volume 673.665257
_symmetry_space_group_name_H-M "P -1"
_symmetry_group_IT_number 2
_symmetry_cell_setting 'triclinic'
loop_
_space_group_symop_operation_xyz
x,y,z
-x,-y,-z
loop_
_atom_site_type_symbol
_atom_site_label
_atom_site_fract_x
_atom_site_fract_y
_atom_site_fract_z
Si Si1 0.716234 0.854463 0.776705
Si Si2 0.837327 0.728373 0.181422
Si Si3 0.649149 0.741576 0.413316
Si Si4 0.719005 0.296682 0.003407
Si Si5 0.716877 0.202983 0.418724
Si Si6 0.773988 0.905372 0.978617
Si Si7 0.997017 0.938628 0.421078
Si Si8 0.102070 0.042290 0.781973
O O1 0.679429 0.574393 0.890662
O O2 0.501266 0.022479 0.690442
O O3 0.912466 0.913283 0.697121
O O4 0.826981 0.947958 0.802768
O O5 0.705043 0.470340 0.289967
O O6 0.740051 0.837924 0.076035
O O7 0.811930 0.828774 0.208926
O O8 0.133157 0.816081 0.137528
O O9 0.500000 0.500000 0.500000
O O10 0.780378 0.761957 0.468753
O O11 0.844113 0.771370 0.345892
O O12 0.475144 0.171537 0.024367
O O13 0.982802 0.232288 0.994044
O O14 0.756168 0.200992 0.110203
O O15 0.803673 0.207546 0.486119
O O16 0.500000 0.000000 0.500000
O O17 0.910470 0.111093 0.404758
#
# Coordination Sequence:
#
# PCOD9048472 Si02
#       8
#     2   2   2   2   2   2   2   2
#     4  11  25  45  71  98 147 187 236 304 360 433
#     4  10  24  45  69 101 148 182 244 292 371 431
#     4  11  27  44  71  99 141 193 240 297 365 434
#     4  11  25  46  78 107 145 182 252 296 372 430
#     4  11  24  43  72 103 137 187 236 305 355 436
#     4  10  25  47  73 110 141 195 229 311 369 435
#     4  10  25  44  65 105 134 182 243 290 372 421
#     4  10  26  43  66 108 134 197 233 296 357 438
#
# _framework density 23.750667
#
# number of rings (size 3 to 8) (size 9 to 14) (size 15 to 20)
#    0.000    1.500    0.000    1.875   15.750    6.000 
#    6.750    0.000    0.000    0.000    0.000    0.000 
#    0.000    0.000    0.000    0.000    0.000    0.000 
#
# Total GULP energy -89146.358780 kJ/mol
# GULP energy per Si atom -5571.647424 kJ/mol
# Density = 2.369661 g / cm^3
# Si number density = 23.750667 Si / 1000 Ang^3
#
#
#
# Elastic Constant Matrix: (Units=GPa)
#
#
# Indices 1 2 3 4 5 6 
#
# 1 89.1310 30.5422 23.2475 -1.5926 6.3674 31.5981
# 2 30.5422 92.2295 34.7456 11.7527 4.7710 24.9147
# 3 23.2475 34.7456 127.2955 -10.3388 -17.6148 22.1280
# 4 -1.5926 11.7527 -10.3388 34.0629 12.3696 4.2925
# 5 6.3674 4.7710 -17.6148 12.3696 27.4509 3.6448
# 6 31.5981 24.9147 22.1280 4.2925 3.6448 47.2367
#
#
#
# Elastic Compliance Matrix: (Units=1/GPa)
#
#
# Indices 1 2 3 4 5 6 
#
# 1 0.015941 -0.002883 -0.000881 0.004210 -0.004495 -0.008766
# 2 -0.002883 0.014865 -0.003501 -0.005414 -0.001232 -0.003685
# 3 -0.000881 -0.003501 0.010721 0.002257 0.007119 -0.003341
# 4 0.004210 -0.005414 0.002257 0.038082 -0.015310 -0.003297
# 5 -0.004495 -0.001232 0.007119 -0.015310 0.049432 -0.002101
# 6 -0.008766 -0.003685 -0.003341 -0.003297 -0.002101 0.031004
#
#
# Mechanical properties :
#
#
# Convention : Reuss Voigt Hill
#
# Bulk Modulus (GPa) = 37.03844 53.96962 45.50403
# Shear Modulus (GPa) = 27.23692 36.42480 31.83086
#
# Velocity S-wave (km/s) = 3.39010 3.92041 3.66486
# Velocity P-wave (km/s) = 5.56347 6.57766 6.09171
#
# Compressibility (1/GPa) = 0.02699898
#
# Stress axis : x y z
#
# Youngs Moduli (GPa) = 62.73116 67.27109 93.27220
#
# Poissons Ratio (x) = 0.19395 0.08213
# Poissons Ratio (y) = 0.18086 0.32651
# Poissons Ratio (z) = 0.05524 0.23549
#
# Static dielectric constant tensor:
#      x y z
#    x 2.078370 -0.085310 0.020350 
#    y -0.085310 1.946920 -0.015550 
#    z 0.020350 -0.015550 2.055260 
# 
# From -- ./inp_files/604403.got.cif
#   From: 2010.05.17/outbox.cif.g08.bks.cpg/sg2_303_cif.got.tgz:604403.got - 2010.06.03 11:33:40.
