data_PCOD9048532
_publ_section_title
;
Structure prediction by ZEFSAII (Michael W. Deem and Ramdas Pophale) SiO2 
 PCOD9048532
Probable space group: P -1
;
_chemical_formula_sum "Si O2"
_cell_formula_units_Z 14
_cell_length_a 7.738564
_cell_length_b 8.026901
_cell_length_c 16.737513
_cell_angle_alpha 31.215461
_cell_angle_beta 87.121633
_cell_angle_gamma 92.848868
_cell_volume 529.451100
_symmetry_space_group_name_H-M "P -1"
_symmetry_group_IT_number 2
_symmetry_cell_setting 'triclinic'
loop_
_space_group_symop_operation_xyz
x,y,z
-x,-y,-z
loop_
_atom_site_type_symbol
_atom_site_label
_atom_site_fract_x
_atom_site_fract_y
_atom_site_fract_z
Si Si1 0.618450 0.229436 0.628459
Si Si2 0.653562 0.126686 0.122445
Si Si3 0.195567 0.850388 0.713110
Si Si4 0.519662 0.764451 0.669352
Si Si5 0.969260 0.934357 0.121059
Si Si6 0.854526 0.684150 0.609492
Si Si7 0.857746 0.817850 0.821400
O O1 0.500000 0.500000 0.500000
O O2 0.542541 0.059960 0.783682
O O3 0.582729 0.994174 0.648502
O O4 0.819974 0.180521 0.654699
O O5 0.731457 0.092229 0.223061
O O6 0.695043 0.511646 0.946210
O O7 0.764578 0.938864 0.139527
O O8 0.317082 0.625889 0.757798
O O9 0.990647 0.736816 0.782846
O O10 0.214507 0.190627 0.524257
O O11 0.681979 0.596946 0.706466
O O12 0.500000 0.000000 0.500000
O O13 0.035580 0.601634 0.274909
O O14 0.065594 0.169416 0.094790
O O15 0.000000 0.000000 0.000000
O O16 0.000000 0.000000 0.500000
#
# Coordination Sequence:
#
# PCOD9048532 Si02
#       7
#     2   2   2   2   2   2   2
#     4  11  25  42  71 105 137 174 237 287 335 418
#     4  10  24  45  69  97 139 178 229 286 342 413
#     4   9  20  40  71  94 126 177 236 273 339 402
#     4   9  21  41  63  99 140 168 220 289 348 392
#     4  11  27  44  68 102 139 178 237 280 346 421
#     4  11  24  38  69 101 140 180 225 289 355 403
#     4  11  24  45  75  93 138 189 229 282 355 404
#
# _framework density 26.442478000000001
#
# number of rings (size 3 to 8) (size 9 to 14) (size 15 to 20)
#    0.000    1.714    0.000    3.000   16.000    1.143 
#    0.000    0.714    0.000    0.000    0.000    0.000 
#    0.000    0.000    0.000    0.000    0.000    0.000 
#
# Total GULP energy -78089.709213 kJ/mol
# GULP energy per Si atom -5577.836372 kJ/mol
# Density = 2.638229 g / cm^3
# Si number density = 26.442478 Si / 1000 Ang^3
#
#
#
# Elastic Constant Matrix: (Units=GPa)
#
#
# Indices 1 2 3 4 5 6 
#
# 1 90.9299 31.4150 33.4544 -0.8337 2.6813 -38.8904
# 2 31.4150 130.7096 56.6767 11.4946 5.0005 -33.1899
# 3 33.4544 56.6767 123.8503 -2.8291 21.1305 -21.0967
# 4 -0.8337 11.4946 -2.8291 54.4141 -6.4977 8.4963
# 5 2.6813 5.0005 21.1305 -6.4977 50.3446 8.1890
# 6 -38.8904 -33.1899 -21.0967 8.4963 8.1890 54.7273
#
#
#
# Elastic Compliance Matrix: (Units=1/GPa)
#
#
# Indices 1 2 3 4 5 6 
#
# 1 0.016903 0.000223 -0.002324 -0.002020 -0.002141 0.011885
# 2 0.000223 0.011291 -0.004121 -0.003655 -0.000870 0.006115
# 3 -0.002324 -0.004121 0.011477 0.000793 -0.004311 0.000796
# 4 -0.002020 -0.003655 0.000793 0.020754 0.003982 -0.007164
# 5 -0.002141 -0.000870 -0.004311 0.003982 0.023667 -0.007871
# 6 0.011885 0.006115 0.000796 -0.007164 -0.007871 0.033023
#
#
# Mechanical properties :
#
#
# Convention : Reuss Voigt Hill
#
# Bulk Modulus (GPa) = 36.72812 65.39802 51.06307
# Shear Modulus (GPa) = 36.06559 46.82678 41.44619
#
# Velocity S-wave (km/s) = 3.69714 4.21276 3.96335
# Velocity P-wave (km/s) = 5.66967 6.96053 6.34800
#
# Compressibility (1/GPa) = 0.02722710
#
# Stress axis : x y z
#
# Youngs Moduli (GPa) = 59.15945 88.56465 87.13116
#
# Poissons Ratio (x) = -0.01971 0.20251
# Poissons Ratio (y) = -0.01317 0.35903
# Poissons Ratio (z) = 0.13750 0.36494
#
# Static dielectric constant tensor:
#      x y z
#    x 2.431540 0.098860 -0.048400 
#    y 0.098860 2.123380 -0.050700 
#    z -0.048400 -0.050700 2.153650 
# 
# From -- ./inp_files/555795.got.cif
#   From: 2010.05.17/outbox.cif.g08.bks.cpg/sg2_278_cif.got.tgz:555795.got - 2010.06.03 11:33:40.
