data_PCOD9048177
_publ_section_title
;
Structure prediction by ZEFSAII (Michael W. Deem and Ramdas Pophale) SiO2 
 PCOD9048177
Probable space group: P -1
;
_chemical_formula_sum "Si O2"
_cell_formula_units_Z 14
_cell_length_a 15.113948
_cell_length_b 8.600268
_cell_length_c 11.167236
_cell_angle_alpha 53.199166
_cell_angle_beta 130.902398
_cell_angle_gamma 147.967489
_cell_volume 578.409157
_symmetry_space_group_name_H-M "P -1"
_symmetry_group_IT_number 2
_symmetry_cell_setting 'triclinic'
loop_
_space_group_symop_operation_xyz
x,y,z
-x,-y,-z
loop_
_atom_site_type_symbol
_atom_site_label
_atom_site_fract_x
_atom_site_fract_y
_atom_site_fract_z
Si Si1 0.864329 0.671423 0.488012
Si Si2 0.381309 0.504808 0.321952
Si Si3 0.949719 0.468521 0.330509
Si Si4 0.602995 0.926610 0.138293
Si Si5 0.325881 0.145139 0.022585
Si Si6 0.960028 0.899212 0.205030
Si Si7 0.393276 0.832390 0.360787
O O1 0.710812 0.488106 0.532047
O O2 0.915111 0.507738 0.626468
O O3 0.855396 0.698025 0.326746
O O4 0.000000 0.000000 0.500000
O O5 0.500000 0.500000 0.500000
O O6 0.455051 0.594349 0.209977
O O7 0.440173 0.788233 0.296726
O O8 0.168256 0.204492 0.271511
O O9 0.000000 0.500000 0.500000
O O10 0.953956 0.703517 0.204370
O O11 0.761202 0.148929 0.271631
O O12 0.692589 0.966183 0.076632
O O13 0.500000 0.000000 0.000000
O O14 0.346785 0.990381 0.201678
O O15 0.500000 0.500000 0.000000
O O16 0.154785 0.057434 0.949990
O O17 0.500000 0.000000 0.500000
#
# Coordination Sequence:
#
# PCOD9048177 Si02
#       7
#     2   2   2   2   2   2   2
#     4  11  22  44  73 111 147 201 254 319 380 467
#     4  12  28  48  77 116 156 205 264 322 396 477
#     4  10  24  44  75 109 151 200 261 314 388 469
#     4  12  26  48  77 108 157 205 257 328 396 462
#     4  12  28  52  80 115 159 206 266 333 400 472
#     4  11  25  47  78 114 155 202 261 323 400 464
#     4  12  29  47  78 111 156 206 269 322 397 470
#
# _framework density 24.204319999999999
#
# number of rings (size 3 to 8) (size 9 to 14) (size 15 to 20)
#    0.000    0.571    2.857    4.286   10.000    1.714 
#    0.000    2.143    0.000    0.000    0.000    0.000 
#    0.000    0.000    0.000    0.000    0.000    0.000 
#
# Total GULP energy -78076.015570 kJ/mol
# GULP energy per Si atom -5576.858255 kJ/mol
# Density = 2.414923 g / cm^3
# Si number density = 24.204320 Si / 1000 Ang^3
#
#
#
# Elastic Constant Matrix: (Units=GPa)
#
#
# Indices 1 2 3 4 5 6 
#
# 1 71.7022 33.2949 48.0606 -7.4523 15.6211 -17.8917
# 2 33.2949 122.8750 59.3079 4.3294 1.2202 -3.5315
# 3 48.0606 59.3079 131.8324 -20.3382 20.3842 11.1145
# 4 -7.4523 4.3294 -20.3382 46.0388 -3.4732 1.5705
# 5 15.6211 1.2202 20.3842 -3.4732 54.9168 -14.4427
# 6 -17.8917 -3.5315 11.1145 1.5705 -14.4427 50.1587
#
#
#
# Elastic Compliance Matrix: (Units=1/GPa)
#
#
# Indices 1 2 3 4 5 6 
#
# 1 0.022901 -0.001997 -0.008124 -0.000092 -0.000946 0.009559
# 2 -0.001997 0.011604 -0.005703 -0.003802 0.002789 0.002291
# 3 -0.008124 -0.005703 0.015545 0.005986 -0.005168 -0.008420
# 4 -0.000092 -0.003802 0.005986 0.024706 -0.001277 -0.002768
# 5 -0.000946 0.002789 -0.005168 -0.001277 0.022211 0.007439
# 6 0.009559 0.002291 -0.008420 -0.002768 0.007439 0.027602
#
#
# Mechanical properties :
#
#
# Convention : Reuss Voigt Hill
#
# Bulk Modulus (GPa) = 54.34190 67.52626 60.93408
# Shear Modulus (GPa) = 30.79715 42.60594 36.70155
#
# Velocity S-wave (km/s) = 3.57092 4.20010 3.89822
# Velocity P-wave (km/s) = 6.28506 7.17496 6.74471
#
# Compressibility (1/GPa) = 0.01840201
#
# Stress axis : x y z
#
# Youngs Moduli (GPa) = 43.66600 86.17434 64.32746
#
# Poissons Ratio (x) = 0.17207 0.52261
# Poissons Ratio (y) = 0.08719 0.36689
# Poissons Ratio (z) = 0.35475 0.49149
#
# Static dielectric constant tensor:
#      x y z
#    x 1.866760 -0.004480 0.110500 
#    y -0.004480 1.747860 0.086590 
#    z 0.110500 0.086590 1.893750 
# 
# From -- ./inp_files/461924.got.cif
#   From: 2010.05.17/outbox.cif.g08.bks.cpg/sg2_231_cif.got.tgz:461924.got - 2010.06.03 11:33:40.
