data_PCOD9048272
_publ_section_title
;
Structure prediction by ZEFSAII (Michael W. Deem and Ramdas Pophale) SiO2 
 PCOD9048272
Probable space group: P -1
;
_chemical_formula_sum "Si O2"
_cell_formula_units_Z 14
_cell_length_a 5.501846
_cell_length_b 12.331297
_cell_length_c 13.550959
_cell_angle_alpha 130.498884
_cell_angle_beta 123.078455
_cell_angle_gamma 78.325613
_cell_volume 568.858105
_symmetry_space_group_name_H-M "P -1"
_symmetry_group_IT_number 2
_symmetry_cell_setting 'triclinic'
loop_
_space_group_symop_operation_xyz
x,y,z
-x,-y,-z
loop_
_atom_site_type_symbol
_atom_site_label
_atom_site_fract_x
_atom_site_fract_y
_atom_site_fract_z
Si Si1 0.747990 0.510026 0.701917
Si Si2 0.730979 0.262384 0.776022
Si Si3 0.616146 0.565599 0.921222
Si Si4 0.278495 0.873796 0.704151
Si Si5 0.951056 0.224832 0.617664
Si Si6 0.530993 0.826852 0.158020
Si Si7 0.212904 0.285633 0.344241
O O1 0.671207 0.585053 0.828720
O O2 0.951522 0.396303 0.702209
O O3 0.434671 0.405606 0.532748
O O4 0.879289 0.620908 0.709554
O O5 0.550939 0.390736 0.819860
O O6 0.676665 0.184764 0.612797
O O7 0.710925 0.158935 0.805072
O O8 0.068095 0.361239 0.913164
O O9 0.426809 0.667642 0.990415
O O10 0.102069 0.841232 0.541396
O O11 0.568148 0.807102 0.711324
O O12 0.061546 0.803489 0.703587
O O13 0.390396 0.049401 0.832885
O O14 0.198055 0.167614 0.700452
#
# Coordination Sequence:
#
# PCOD9048272 Si02
#       7
#     2   2   2   2   2   2   2
#     4   9  20  43  67  87 122 154 216 265 306 346
#     4   9  19  36  56  90 125 156 207 248 312 364
#     4   9  19  37  57  92 118 161 203 257 306 365
#     4  11  25  41  64  91 131 164 206 247 313 374
#     4   9  21  36  60  93 118 160 200 257 308 363
#     4  11  22  36  61  91 129 164 195 253 311 388
#     4  10  24  45  65  93 118 167 211 262 300 359
#
# _framework density 24.610707000000001
#
# number of rings (size 3 to 8) (size 9 to 14) (size 15 to 20)
#    0.000    2.286    0.000    1.714   10.000    5.714 
#    5.143    1.429    0.000    0.000    0.000    0.000 
#    0.000    0.000    0.000    0.000    0.000    0.000 
#
# Total GULP energy -78111.872224 kJ/mol
# GULP energy per Si atom -5579.419445 kJ/mol
# Density = 2.455469 g / cm^3
# Si number density = 24.610707 Si / 1000 Ang^3
#
#
#
# Elastic Constant Matrix: (Units=GPa)
#
#
# Indices 1 2 3 4 5 6 
#
# 1 112.1798 57.3000 9.4937 5.5908 -2.3333 34.8445
# 2 57.3000 129.3636 22.6383 2.9107 7.2385 41.0148
# 3 9.4937 22.6383 29.4382 -1.9915 -6.2743 5.2834
# 4 5.5908 2.9107 -1.9915 32.3446 3.5951 11.6632
# 5 -2.3333 7.2385 -6.2743 3.5951 18.0178 -6.1695
# 6 34.8445 41.0148 5.2834 11.6632 -6.1695 50.5148
#
#
#
# Elastic Compliance Matrix: (Units=1/GPa)
#
#
# Indices 1 2 3 4 5 6 
#
# 1 0.012632 -0.004099 0.000356 -0.000102 0.001647 -0.005197
# 2 -0.004099 0.016447 -0.012325 0.004777 -0.016619 -0.012370
# 3 0.000356 -0.012325 0.046960 -0.001763 0.024528 0.008253
# 4 -0.000102 0.004777 -0.001763 0.037076 -0.014733 -0.013984
# 5 0.001647 -0.016619 0.024528 -0.014733 0.081810 0.023185
# 6 -0.005197 -0.012370 0.008253 -0.013984 0.023185 0.038622
#
#
# Mechanical properties :
#
#
# Convention : Reuss Voigt Hill
#
# Bulk Modulus (GPa) = 22.77801 49.98285 36.38043
# Shear Modulus (GPa) = 17.83685 32.27875 25.05780
#
# Velocity S-wave (km/s) = 2.69506 3.62549 3.19433
# Velocity P-wave (km/s) = 4.35429 6.15460 5.33099
#
# Compressibility (1/GPa) = 0.04390199
#
# Stress axis : x y z
#
# Youngs Moduli (GPa) = 79.16545 60.80114 21.29471
#
# Poissons Ratio (x) = 0.24925 -0.00758
# Poissons Ratio (y) = 0.32453 0.26245
# Poissons Ratio (z) = -0.02817 0.74936
#
# Static dielectric constant tensor:
#      x y z
#    x 2.237140 -0.029280 0.009100 
#    y -0.029280 1.965700 0.017460 
#    z 0.009100 0.017460 1.947610 
# 
# From -- ./inp_files/63863.got.cif
#   From: 2010.05.17/outbox.cif.g08.bks.cpg/sg2_32_cif.got.tgz:63863.got - 2010.06.03 11:33:40.
