data_PCOD9048738
_publ_section_title
;
Structure prediction by ZEFSAII (Michael W. Deem and Ramdas Pophale) SiO2 
 PCOD9048738
Probable space group: P -1
;
_chemical_formula_sum "Si O2"
_cell_formula_units_Z 14
_cell_length_a 15.143829
_cell_length_b 14.072910
_cell_length_c 12.110125
_cell_angle_alpha 126.210697
_cell_angle_beta 27.774797
_cell_angle_gamma 143.255714
_cell_volume 651.585405
_symmetry_space_group_name_H-M "P -1"
_symmetry_group_IT_number 2
_symmetry_cell_setting 'triclinic'
loop_
_space_group_symop_operation_xyz
x,y,z
-x,-y,-z
loop_
_atom_site_type_symbol
_atom_site_label
_atom_site_fract_x
_atom_site_fract_y
_atom_site_fract_z
Si Si1 0.378412 0.573683 0.705595
Si Si2 0.037873 0.330730 0.398937
Si Si3 0.525338 0.070769 0.640172
Si Si4 0.753093 0.794062 0.651053
Si Si5 0.263892 0.737881 0.836856
Si Si6 0.803204 0.203867 0.806046
Si Si7 0.395082 0.262709 0.978038
O O1 0.500000 0.500000 0.500000
O O2 0.543265 0.695066 0.713477
O O3 0.418555 0.682341 0.631995
O O4 0.041949 0.408275 0.981167
O O5 0.152725 0.248485 0.214446
O O6 0.838443 0.250563 0.458168
O O7 0.860901 0.275844 0.668224
O O8 0.310096 0.539726 0.243158
O O9 0.500000 0.000000 0.500000
O O10 0.423280 0.923206 0.738053
O O11 0.357266 0.117106 0.865627
O O12 0.605068 0.754500 0.902187
O O13 0.922734 0.751108 0.446188
O O14 0.000000 0.000000 0.500000
O O15 0.209411 0.728596 0.021484
O O16 0.500000 0.000000 0.000000
#
# Coordination Sequence:
#
# PCOD9048738 Si02
#       7
#     2   2   2   2   2   2   2
#     4  11  25  43  65 102 140 173 226 286 351 406
#     4  10  24  45  72 101 136 185 229 290 346 409
#     4  12  27  45  69  99 140 187 231 282 350 414
#     4  11  23  40  72 100 135 183 224 286 345 415
#     4  11  25  43  66 102 138 180 225 289 349 404
#     4  11  20  40  70 103 134 170 233 285 337 414
#     4  10  25  46  67 103 137 181 241 279 346 413
#
# _framework density 21.486052999999998
#
# number of rings (size 3 to 8) (size 9 to 14) (size 15 to 20)
#    0.000    1.143    2.857    2.143    6.000    2.857 
#    2.571    0.000    0.000    0.000    0.000    0.000 
#    0.000    0.000    0.000    0.000    0.000    0.000 
#
# Total GULP energy -78193.973994 kJ/mol
# GULP energy per Si atom -5585.283857 kJ/mol
# Density = 2.143715 g / cm^3
# Si number density = 21.486053 Si / 1000 Ang^3
#
#
#
# Elastic Constant Matrix: (Units=GPa)
#
#
# Indices 1 2 3 4 5 6 
#
# 1 100.3437 33.5532 44.7314 18.4158 -9.5876 12.3575
# 2 33.5532 96.4092 30.8637 21.0155 4.5907 -5.1331
# 3 44.7314 30.8637 82.0337 8.1361 8.8618 -3.1428
# 4 18.4158 21.0155 8.1361 39.6380 -5.9379 -12.3328
# 5 -9.5876 4.5907 8.8618 -5.9379 44.4293 0.5271
# 6 12.3575 -5.1331 -3.1428 -12.3328 0.5271 52.1269
#
#
#
# Elastic Compliance Matrix: (Units=1/GPa)
#
#
# Indices 1 2 3 4 5 6 
#
# 1 0.016883 -0.002413 -0.008461 -0.006039 0.004847 -0.006228
# 2 -0.002413 0.013507 -0.002969 -0.005613 -0.002079 0.000416
# 3 -0.008461 -0.002969 0.018383 0.002033 -0.004954 0.003353
# 4 -0.006039 -0.005613 0.002033 0.033881 0.003293 0.008984
# 5 0.004847 -0.002079 -0.004954 0.003293 0.025210 -0.001128
# 6 -0.006228 0.000416 0.003353 0.008984 -0.001128 0.023041
#
#
# Mechanical properties :
#
#
# Convention : Reuss Voigt Hill
#
# Bulk Modulus (GPa) = 47.42298 55.23146 51.32722
# Shear Modulus (GPa) = 30.18945 38.54807 34.36876
#
# Velocity S-wave (km/s) = 3.75250 4.24027 4.00382
# Velocity P-wave (km/s) = 6.39487 7.05229 6.73161
#
# Compressibility (1/GPa) = 0.02108682
#
# Stress axis : x y z
#
# Youngs Moduli (GPa) = 59.23105 74.03371 54.39834
#
# Poissons Ratio (x) = 0.17864 0.46029
# Poissons Ratio (y) = 0.14292 0.16150
# Poissons Ratio (z) = 0.50118 0.21980
#
# Static dielectric constant tensor:
#      x y z
#    x 1.806540 -0.064310 -0.035910 
#    y -0.064310 1.855600 0.069330 
#    z -0.035910 0.069330 1.795730 
# 
# From -- ./inp_files/455771.got.cif
#   From: 2010.05.17/outbox.cif.g08.bks.cpg/sg2_228_cif.got.tgz:455771.got - 2010.06.03 11:33:40.
