data_PCOD9048748
_publ_section_title
;
Structure prediction by ZEFSAII (Michael W. Deem and Ramdas Pophale) SiO2 
 PCOD9048748
Probable space group: P -1
;
_chemical_formula_sum "Si O2"
_cell_formula_units_Z 16
_cell_length_a 28.574445
_cell_length_b 12.660265
_cell_length_c 6.585429
_cell_angle_alpha 45.710245
_cell_angle_beta 133.915868
_cell_angle_gamma 155.906930
_cell_volume 683.176293
_symmetry_space_group_name_H-M "P -1"
_symmetry_group_IT_number 2
_symmetry_cell_setting 'triclinic'
loop_
_space_group_symop_operation_xyz
x,y,z
-x,-y,-z
loop_
_atom_site_type_symbol
_atom_site_label
_atom_site_fract_x
_atom_site_fract_y
_atom_site_fract_z
Si Si1 0.165379 0.597157 0.841577
Si Si2 0.747987 0.066023 0.023548
Si Si3 0.024919 0.877325 0.770821
Si Si4 0.716714 0.608792 0.990813
Si Si5 0.023096 0.665299 0.680168
Si Si6 0.567833 0.523028 0.966220
Si Si7 0.470789 0.649079 0.500821
Si Si8 0.703640 0.250044 0.342725
O O1 0.226289 0.603514 0.854860
O O2 0.078207 0.523996 0.534365
O O3 0.267717 0.880253 0.882035
O O4 0.078561 0.376188 0.053681
O O5 0.758768 0.220749 0.683415
O O6 0.663442 0.794330 0.020221
O O7 0.856571 0.165744 0.272896
O O8 0.030563 0.822976 0.632278
O O9 0.150410 0.092518 0.968559
O O10 0.000000 0.000000 0.500000
O O11 0.708732 0.416477 0.246902
O O12 0.631982 0.540678 0.976902
O O13 0.656803 0.534473 0.695216
O O14 0.000000 0.500000 0.000000
O O15 0.489446 0.513568 0.670572
O O16 0.508060 0.312626 0.244124
O O17 0.571514 0.944045 0.317373
#
# Coordination Sequence:
#
# PCOD9048748 Si02
#       8
#     2   2   2   2   2   2   2   2
#     4  12  25  43  73  97 143 191 229 278 349 408
#     4  11  23  43  68  99 138 179 232 282 340 406
#     4  12  28  45  68 104 147 184 227 287 344 414
#     4  12  25  44  71 100 137 182 229 285 348 411
#     4  12  23  42  65 102 136 179 239 280 334 410
#     4  10  24  45  72 103 136 173 229 296 350 398
#     4  10  25  46  70 102 134 179 234 286 346 412
#     4  11  26  46  68 101 141 181 231 287 338 419
#
# _framework density 23.420016
#
# number of rings (size 3 to 8) (size 9 to 14) (size 15 to 20)
#    0.000    0.750    3.750    2.625    1.750    9.500 
#    0.000    0.000    0.000    0.000    0.000    0.000 
#    0.000    0.000    0.000    0.000    0.000    0.000 
#
# Total GULP energy -89332.302956 kJ/mol
# GULP energy per Si atom -5583.268935 kJ/mol
# Density = 2.336671 g / cm^3
# Si number density = 23.420016 Si / 1000 Ang^3
#
#
#
# Elastic Constant Matrix: (Units=GPa)
#
#
# Indices 1 2 3 4 5 6 
#
# 1 121.4150 21.6207 21.2612 -10.0683 13.2753 -19.8755
# 2 21.6207 84.5147 31.5289 12.1431 -1.0425 -4.1387
# 3 21.2612 31.5289 76.5634 15.1246 0.9378 -7.7398
# 4 -10.0683 12.1431 15.1246 39.7297 -0.9599 -1.8037
# 5 13.2753 -1.0425 0.9378 -0.9599 29.8440 0.3807
# 6 -19.8755 -4.1387 -7.7398 -1.8037 0.3807 34.5787
#
#
#
# Elastic Compliance Matrix: (Units=1/GPa)
#
#
# Indices 1 2 3 4 5 6 
#
# 1 0.010898 -0.002352 -0.002307 0.004504 -0.004786 0.005754
# 2 -0.002352 0.014691 -0.004866 -0.003234 0.001619 -0.000869
# 3 -0.002307 -0.004866 0.016947 -0.005473 0.000128 0.001598
# 4 0.004504 -0.003234 -0.005473 0.029474 -0.001029 0.002526
# 5 -0.004786 0.001619 0.000128 -0.001029 0.035694 -0.002975
# 6 0.005754 -0.000869 0.001598 0.002526 -0.002975 0.032645
#
#
# Mechanical properties :
#
#
# Convention : Reuss Voigt Hill
#
# Bulk Modulus (GPa) = 42.57791 47.92387 45.25089
# Shear Modulus (GPa) = 29.89978 34.70263 32.30121
#
# Velocity S-wave (km/s) = 3.57694 3.85353 3.71781
# Velocity P-wave (km/s) = 5.93961 6.34876 6.14759
#
# Compressibility (1/GPa) = 0.02348636
#
# Stress axis : x y z
#
# Youngs Moduli (GPa) = 91.76291 68.06849 59.00872
#
# Poissons Ratio (x) = 0.16006 0.13616
# Poissons Ratio (y) = 0.21578 0.28711
# Poissons Ratio (z) = 0.21174 0.33119
#
# Static dielectric constant tensor:
#      x y z
#    x 25.521710 6.083980 -5.609850 
#    y 6.083980 3.501400 -1.425480 
#    z -5.609850 -1.425480 3.212270 
# 
# From -- ./inp_files/126832.got.cif
#   From: 2010.05.17/outbox.cif.g08.bks.cpg/sg2_64_cif.got.tgz:126832.got - 2010.06.03 11:33:40.
