data_PCOD9048028
_publ_section_title
;
Structure prediction by ZEFSAII (Michael W. Deem and Ramdas Pophale) SiO2 
 PCOD9048028
Probable space group: P -1
;
_chemical_formula_sum "Si O2"
_cell_formula_units_Z 13
_cell_length_a 15.329023
_cell_length_b 9.846323
_cell_length_c 9.321536
_cell_angle_alpha 146.755983
_cell_angle_beta 132.901794
_cell_angle_gamma 48.604408
_cell_volume 549.989198
_symmetry_space_group_name_H-M "P -1"
_symmetry_group_IT_number 2
_symmetry_cell_setting 'triclinic'
loop_
_space_group_symop_operation_xyz
x,y,z
-x,-y,-z
loop_
_atom_site_type_symbol
_atom_site_label
_atom_site_fract_x
_atom_site_fract_y
_atom_site_fract_z
Si Si1 0.331080 0.935056 0.856984
Si Si2 0.095338 0.922572 0.906270
Si Si3 0.937950 0.794536 0.169554
Si Si4 0.414832 0.491632 0.760292
Si Si5 0.000000 0.500000 0.500000
Si Si6 0.559522 0.163618 0.398257
Si Si7 0.265334 0.160856 0.467576
O O1 0.328705 0.741618 0.814398
O O2 0.364676 0.792068 0.616825
O O3 0.203217 0.135538 0.879303
O O4 0.439612 0.072772 0.134269
O O5 0.061072 0.663917 0.594056
O O6 0.064268 0.135136 0.939429
O O7 0.221344 0.931870 0.133886
O O8 0.000000 0.000000 0.000000
O O9 0.000000 0.000000 0.500000
O O10 0.000000 0.500000 0.000000
O O11 0.510031 0.395560 0.653453
O O12 0.332975 0.298630 0.547703
O O13 0.500000 0.500000 0.000000
O O14 0.858333 0.659904 0.449171
O O15 0.642656 0.946995 0.397914
#
# Coordination Sequence:
#
# PCOD9048028 Si02
#       7
#     2   2   2   2   1   2   2
#     4  11  27  49  74 108 154 209 263 328 399 480
#     4  10  25  45  74 107 150 201 260 327 386 477
#     4  12  31  52  79 118 163 215 268 331 413 486
#     4  12  25  45  77 113 151 205 262 332 397 481
#     4  10  24  44  72 110 148 192 264 318 402 466
#     4  11  26  47  72 107 153 204 264 328 399 471
#     4  11  24  42  74 106 150 195 260 324 393 467
#
# _framework density 23.63683
#
# number of rings (size 3 to 8) (size 9 to 14) (size 15 to 20)
#    0.000    0.923    1.538    2.769   17.231    0.000 
#    0.000    0.000    0.000    0.000    0.000    0.000 
#    0.000    0.000    0.000    0.000    0.000    0.000 
#
# Total GULP energy -72435.463231 kJ/mol
# GULP energy per Si atom -5571.958710 kJ/mol
# Density = 2.358303 g / cm^3
# Si number density = 23.636830 Si / 1000 Ang^3
#
#
#
# Elastic Constant Matrix: (Units=GPa)
#
#
# Indices 1 2 3 4 5 6 
#
# 1 129.6472 50.7527 44.9308 -15.2226 0.1161 -5.2552
# 2 50.7527 152.4665 39.1939 -5.4315 6.5806 -23.7012
# 3 44.9308 39.1939 88.4996 -9.9464 4.5281 0.5252
# 4 -15.2226 -5.4315 -9.9464 24.2518 8.1614 2.3680
# 5 0.1161 6.5806 4.5281 8.1614 47.9255 1.6496
# 6 -5.2552 -23.7012 0.5252 2.3680 1.6496 54.1371
#
#
#
# Elastic Compliance Matrix: (Units=1/GPa)
#
#
# Indices 1 2 3 4 5 6 
#
# 1 0.010472 -0.002386 -0.003740 0.004562 -0.000115 -0.000188
# 2 -0.002386 0.008615 -0.002656 -0.000698 -0.000932 0.003625
# 3 -0.003740 -0.002656 0.014907 0.003897 -0.001637 -0.001791
# 4 0.004562 -0.000698 0.003897 0.048570 -0.008494 -0.001766
# 5 -0.000115 -0.000932 -0.001637 -0.008494 0.022620 -0.000721
# 6 -0.000188 0.003625 -0.001791 -0.001766 -0.000721 0.020157
#
#
# Mechanical properties :
#
#
# Convention : Reuss Voigt Hill
#
# Bulk Modulus (GPa) = 60.86832 71.15203 66.01017
# Shear Modulus (GPa) = 33.69718 40.97860 37.33789
#
# Velocity S-wave (km/s) = 3.77984 4.16826 3.97879
# Velocity P-wave (km/s) = 6.69753 7.30297 7.00679
#
# Compressibility (1/GPa) = 0.01642891
#
# Stress axis : x y z
#
# Youngs Moduli (GPa) = 95.49706 116.08093 67.08302
#
# Poissons Ratio (x) = 0.27698 0.25089
# Poissons Ratio (y) = 0.22786 0.17818
# Poissons Ratio (z) = 0.35716 0.30832
#
# Static dielectric constant tensor:
#      x y z
#    x 1.915980 -0.062170 -0.091630 
#    y -0.062170 1.973850 0.144580 
#    z -0.091630 0.144580 2.054470 
# 
# From -- ./inp_files/297127.got.cif
#   From: 2010.05.17/outbox.cif.g08.bks.cpg/sg2_149_cif.got.tgz:297127.got - 2010.06.03 11:33:40.
