data_PCOD9048756
_publ_section_title
;
Structure prediction by ZEFSAII (Michael W. Deem and Ramdas Pophale) SiO2 
 PCOD9048756
Probable space group: P -1
;
_chemical_formula_sum "Si O2"
_cell_formula_units_Z 16
_cell_length_a 5.126667
_cell_length_b 10.234770
_cell_length_c 12.621414
_cell_angle_alpha 65.850978
_cell_angle_beta 88.329714
_cell_angle_gamma 83.087247
_cell_volume 599.751357
_symmetry_space_group_name_H-M "P -1"
_symmetry_group_IT_number 2
_symmetry_cell_setting 'triclinic'
loop_
_space_group_symop_operation_xyz
x,y,z
-x,-y,-z
loop_
_atom_site_type_symbol
_atom_site_label
_atom_site_fract_x
_atom_site_fract_y
_atom_site_fract_z
Si Si1 0.329698 0.402786 0.605083
Si Si2 0.822061 0.089473 0.201366
Si Si3 0.991065 0.334310 0.439175
Si Si4 0.178173 0.943788 0.417267
Si Si5 0.528314 0.860802 0.167466
Si Si6 0.069345 0.781439 0.063778
Si Si7 0.574549 0.780590 0.694677
Si Si8 0.246628 0.481608 0.079215
O O1 0.500000 0.500000 0.500000
O O2 0.109993 0.350857 0.548589
O O3 0.484856 0.267004 0.704927
O O4 0.168707 0.517730 0.647775
O O5 0.720029 0.203125 0.258206
O O6 0.021206 0.972656 0.299805
O O7 0.597577 0.004254 0.178284
O O8 0.935938 0.167882 0.074855
O O9 0.778248 0.221853 0.495418
O O10 0.248041 0.282507 0.384888
O O11 0.000000 0.000000 0.500000
O O12 0.399829 0.048596 0.372744
O O13 0.267533 0.871437 0.096595
O O14 0.783325 0.807282 0.110422
O O15 0.198346 0.614601 0.118198
O O16 0.715284 0.675725 0.817411
O O17 0.500000 0.500000 0.000000
O O18 0.000000 0.500000 0.000000
#
# Coordination Sequence:
#
# PCOD9048756 Si02
#       8
#     2   2   2   2   2   2   2   2
#     4  11  26  44  76 104 149 197 254 314 384 449
#     4  12  26  46  75 109 152 198 253 316 380 459
#     4  10  24  47  69 108 142 195 254 312 386 456
#     4  10  24  45  72 105 147 194 248 313 383 454
#     4  12  29  49  78 111 155 202 259 315 378 459
#     4  12  28  50  78 113 152 204 259 310 385 447
#     4  11  26  43  74 105 147 196 248 313 384 454
#     4  12  25  48  76 108 150 195 249 309 375 444
#
# _framework density 26.677724000000001
#
# number of rings (size 3 to 8) (size 9 to 14) (size 15 to 20)
#    0.000    0.750    2.500    3.000   10.500    4.000 
#    0.000    0.000    0.000    0.000    0.000    0.000 
#    0.000    0.000    0.000    0.000    0.000    0.000 
#
# Total GULP energy -89593.444651 kJ/mol
# GULP energy per Si atom -5599.590291 kJ/mol
# Density = 2.661700 g / cm^3
# Si number density = 26.677724 Si / 1000 Ang^3
#
#
#
# Elastic Constant Matrix: (Units=GPa)
#
#
# Indices 1 2 3 4 5 6 
#
# 1 105.2082 10.3295 31.5790 0.7059 -19.7740 -8.6336
# 2 10.3295 92.1170 23.8224 -1.3692 -13.9862 -18.4791
# 3 31.5790 23.8224 153.5377 -14.4899 -18.6918 -12.1541
# 4 0.7059 -1.3692 -14.4899 44.8742 -13.0625 -6.6869
# 5 -19.7740 -13.9862 -18.6918 -13.0625 51.1440 6.0191
# 6 -8.6336 -18.4791 -12.1541 -6.6869 6.0191 39.0224
#
#
#
# Elastic Compliance Matrix: (Units=1/GPa)
#
#
# Indices 1 2 3 4 5 6 
#
# 1 0.010771 0.000051 -0.001623 0.000560 0.003558 0.001449
# 2 0.000051 0.012696 -0.001024 0.001729 0.002905 0.005553
# 3 -0.001623 -0.001024 0.007804 0.003549 0.002641 0.001788
# 4 0.000560 0.001729 0.003549 0.026649 0.008162 0.005356
# 5 0.003558 0.002905 0.002641 0.008162 0.024705 0.000574
# 6 0.001449 0.005553 0.001788 0.005356 0.000574 0.029962
#
#
# Mechanical properties :
#
#
# Convention : Reuss Voigt Hill
#
# Bulk Modulus (GPa) = 38.34492 53.59163 45.96827
# Shear Modulus (GPa) = 39.53517 46.01693 42.77605
#
# Velocity S-wave (km/s) = 3.85379 4.15772 4.00864
# Velocity P-wave (km/s) = 5.84866 6.57123 6.22044
#
# Compressibility (1/GPa) = 0.02607908
#
# Stress axis : x y z
#
# Youngs Moduli (GPa) = 92.84358 78.76792 128.14637
#
# Poissons Ratio (x) = -0.00402 0.20793
# Poissons Ratio (y) = -0.00473 0.13120
# Poissons Ratio (z) = 0.15064 0.08065
#
# Static dielectric constant tensor:
#      x y z
#    x 2.104270 0.072350 0.000980 
#    y 0.072350 2.209420 0.048060 
#    z 0.000980 0.048060 2.032910 
# 
# From -- ./inp_files/363831.got.cif
#   From: 2010.05.17/outbox.cif.g08.bks.cpg/sg2_182_cif.got.tgz:363831.got - 2010.06.03 11:33:40.
