data_PCOD9048118
_publ_section_title
;
Structure prediction by ZEFSAII (Michael W. Deem and Ramdas Pophale) SiO2 
 PCOD9048118
Probable space group: P -1
;
_chemical_formula_sum "Si O2"
_cell_formula_units_Z 15
_cell_length_a 6.095945
_cell_length_b 11.302950
_cell_length_c 17.347441
_cell_angle_alpha 144.753646
_cell_angle_beta 122.083988
_cell_angle_gamma 65.133906
_cell_volume 584.219170
_symmetry_space_group_name_H-M "P -1"
_symmetry_group_IT_number 2
_symmetry_cell_setting 'triclinic'
loop_
_space_group_symop_operation_xyz
x,y,z
-x,-y,-z
loop_
_atom_site_type_symbol
_atom_site_label
_atom_site_fract_x
_atom_site_fract_y
_atom_site_fract_z
Si Si1 0.557226 0.706044 0.313385
Si Si2 0.214366 0.813629 0.033404
Si Si3 0.677177 0.898101 0.275587
Si Si4 0.000000 0.500000 0.500000
Si Si5 0.935492 0.467977 0.621810
Si Si6 0.038884 0.553839 0.124195
Si Si7 0.471829 0.705365 0.466687
Si Si8 0.224340 0.877634 0.887115
O O1 0.544877 0.796976 0.274097
O O2 0.479465 0.797436 0.430764
O O3 0.846976 0.643978 0.349849
O O4 0.342192 0.522510 0.177182
O O5 0.487991 0.871308 0.153317
O O6 0.135577 0.592301 0.933363
O O7 0.203060 0.823178 0.944567
O O8 0.992969 0.968583 0.099696
O O9 0.942140 0.783263 0.245829
O O10 0.686306 0.132308 0.427156
O O11 0.175957 0.605858 0.519442
O O12 0.239773 0.333438 0.474820
O O13 0.706517 0.499707 0.657386
O O14 0.117456 0.657171 0.713736
O O15 0.000000 0.500000 0.000000
O O16 0.500000 0.000000 0.000000
#
# Coordination Sequence:
#
# PCOD9048118 Si02
#       8
#     2   2   2   1   2   2   2   2
#     4  11  24  43  71 103 147 191 240 302 375 434
#     4  11  25  43  67 105 137 186 243 300 372 434
#     4  12  26  43  70 105 146 188 248 298 366 449
#     4  10  24  44  74 100 140 194 242 296 366 434
#     4  11  24  45  70 102 147 189 244 307 368 435
#     4  12  26  45  74 105 146 194 242 311 369 438
#     4  11  25  46  72 108 146 193 245 302 372 438
#     4  11  25  43  70 101 142 187 243 303 368 436
#
# _framework density 25.675298000000002
#
# number of rings (size 3 to 8) (size 9 to 14) (size 15 to 20)
#    0.000    0.800    1.333    5.200    3.733    8.533 
#    0.000    0.000    0.000    0.000    0.000    0.000 
#    0.000    0.000    0.000    0.000    0.000    0.000 
#
# Total GULP energy -83509.929349 kJ/mol
# GULP energy per Si atom -5567.328623 kJ/mol
# Density = 2.561686 g / cm^3
# Si number density = 25.675298 Si / 1000 Ang^3
#
#
#
# Elastic Constant Matrix: (Units=GPa)
#
#
# Indices 1 2 3 4 5 6 
#
# 1 92.8927 23.6524 15.8149 -3.7114 0.6440 11.7062
# 2 23.6524 95.1972 18.4195 -19.5715 -8.8704 -0.3113
# 3 15.8149 18.4195 40.8262 -13.8023 2.1157 -12.5926
# 4 -3.7114 -19.5715 -13.8023 40.1712 -6.2968 -1.6945
# 5 0.6440 -8.8704 2.1157 -6.2968 47.8452 -9.5980
# 6 11.7062 -0.3113 -12.5926 -1.6945 -9.5980 57.9441
#
#
#
# Elastic Compliance Matrix: (Units=1/GPa)
#
#
# Indices 1 2 3 4 5 6 
#
# 1 0.012910 -0.002775 -0.005853 -0.002604 -0.001623 -0.004240
# 2 -0.002775 0.013282 -0.002905 0.005804 0.003544 0.000757
# 3 -0.005853 -0.002905 0.034352 0.010425 0.001227 0.009140
# 4 -0.002604 0.005804 0.010425 0.032176 0.005834 0.004730
# 5 -0.001623 0.003544 0.001227 0.005834 0.023222 0.004631
# 6 -0.004240 0.000757 0.009140 0.004730 0.004631 0.021010
#
#
# Mechanical properties :
#
#
# Convention : Reuss Voigt Hill
#
# Bulk Modulus (GPa) = 26.68275 38.29887 32.49081
# Shear Modulus (GPa) = 28.98361 40.59407 34.78884
#
# Velocity S-wave (km/s) = 3.36348 3.98056 3.68496
# Velocity P-wave (km/s) = 5.04965 6.00629 5.54863
#
# Compressibility (1/GPa) = 0.03747740
#
# Stress axis : x y z
#
# Youngs Moduli (GPa) = 77.46113 75.28901 29.11047
#
# Poissons Ratio (x) = 0.20896 0.17037
# Poissons Ratio (y) = 0.21499 0.08457
# Poissons Ratio (z) = 0.45334 0.21873
#
# Static dielectric constant tensor:
#      x y z
#    x 2.024640 0.048970 0.155630 
#    y 0.048970 1.996960 0.319390 
#    z 0.155630 0.319390 1.882500 
# 
# From -- ./inp_files/549615.got.cif
#   From: 2010.05.17/outbox.cif.g08.bks.cpg/sg2_275_cif.got.tgz:549615.got - 2010.06.03 11:33:40.
