data_PCOD9048431
_publ_section_title
;
Structure prediction by ZEFSAII (Michael W. Deem and Ramdas Pophale) SiO2 
 PCOD9048431
Probable space group: P -1
;
_chemical_formula_sum "Si O2"
_cell_formula_units_Z 16
_cell_length_a 15.533021
_cell_length_b 23.647439
_cell_length_c 20.483337
_cell_angle_alpha 163.664307
_cell_angle_beta 159.619661
_cell_angle_gamma 27.552813
_cell_volume 730.472519
_symmetry_space_group_name_H-M "P -1"
_symmetry_group_IT_number 2
_symmetry_cell_setting 'triclinic'
loop_
_space_group_symop_operation_xyz
x,y,z
-x,-y,-z
loop_
_atom_site_type_symbol
_atom_site_label
_atom_site_fract_x
_atom_site_fract_y
_atom_site_fract_z
Si Si1 0.995286 0.685114 0.313337
Si Si2 0.705111 0.462576 0.051955
Si Si3 0.551141 0.384216 0.706571
Si Si4 0.873727 0.777486 0.872780
Si Si5 0.851840 0.250496 0.363105
Si Si6 0.460863 0.816235 0.715126
Si Si7 0.690040 0.838423 0.093682
Si Si8 0.926863 0.069379 0.628623
O O1 0.084316 0.653442 0.414435
O O2 0.230298 0.662343 0.407918
O O3 0.965776 0.926469 0.558354
O O4 0.734756 0.540080 0.964227
O O5 0.853357 0.277498 0.975408
O O6 0.942847 0.637998 0.414921
O O7 0.500000 0.500000 0.000000
O O8 0.575793 0.454217 0.878194
O O9 0.286594 0.339136 0.430644
O O10 0.689472 0.183657 0.588992
O O11 0.704381 0.733329 0.769490
O O12 0.883832 0.014003 0.124505
O O13 0.560489 0.273381 0.177555
O O14 0.385177 0.943726 0.740832
O O15 0.500000 0.000000 0.000000
O O16 0.841818 0.783555 0.076494
O O17 0.878007 0.884612 0.337187
#
# Coordination Sequence:
#
# PCOD9048431 Si02
#       8
#     2   2   2   2   2   2   2   2
#     4  10  21  33  59  89 133 171 194 246 298 360
#     4  11  28  47  65  91 120 157 215 278 325 364
#     4  11  24  40  63  97 120 160 218 251 305 381
#     4  11  23  42  68  91 126 169 201 258 308 370
#     4  10  20  42  63  89 124 163 209 251 315 374
#     4  10  17  34  58  92 131 171 205 234 297 374
#     4   9  18  31  57  87 125 169 193 240 289 364
#     4  10  19  35  55  89 135 162 198 241 292 364
#
# _framework density 21.903631000000001
#
# number of rings (size 3 to 8) (size 9 to 14) (size 15 to 20)
#    0.000    1.750    5.000    0.750    3.500    2.500 
#    0.000    3.125    0.000    0.000    0.000    0.000 
#    0.000    0.000    0.000    0.000    0.000    0.000 
#
# Total GULP energy -89069.456960 kJ/mol
# GULP energy per Si atom -5566.841060 kJ/mol
# Density = 2.185378 g / cm^3
# Si number density = 21.903631 Si / 1000 Ang^3
#
#
#
# Elastic Constant Matrix: (Units=GPa)
#
#
# Indices 1 2 3 4 5 6 
#
# 1 102.5753 21.5454 22.1061 -16.6844 7.8271 -11.7708
# 2 21.5454 68.3555 8.2883 -10.7242 5.7982 -8.6678
# 3 22.1061 8.2883 68.4978 -4.1778 -1.3006 2.0866
# 4 -16.6844 -10.7242 -4.1778 33.4744 2.2253 6.1153
# 5 7.8271 5.7982 -1.3006 2.2253 28.8500 -5.8660
# 6 -11.7708 -8.6678 2.0866 6.1153 -5.8660 24.0214
#
#
#
# Elastic Compliance Matrix: (Units=1/GPa)
#
#
# Indices 1 2 3 4 5 6 
#
# 1 0.012335 -0.002027 -0.003627 0.004526 -0.002675 0.003823
# 2 -0.002027 0.016662 -0.001294 0.003667 -0.002406 0.003611
# 3 -0.003627 -0.001294 0.016074 0.000325 0.001249 -0.003418
# 4 0.004526 0.003667 0.000325 0.035003 -0.006048 -0.006875
# 5 -0.002675 -0.002406 0.001249 -0.006048 0.038136 0.008565
# 6 0.003823 0.003611 -0.003418 -0.006875 0.008565 0.048945
#
#
# Mechanical properties :
#
#
# Convention : Reuss Voigt Hill
#
# Bulk Modulus (GPa) = 32.07595 38.14535 35.11065
# Shear Modulus (GPa) = 26.11768 29.76841 27.94305
#
# Velocity S-wave (km/s) = 3.45685 3.69055 3.57561
# Velocity P-wave (km/s) = 5.53254 5.96767 5.75422
#
# Compressibility (1/GPa) = 0.03117600
#
# Stress axis : x y z
#
# Youngs Moduli (GPa) = 81.06923 60.01565 62.21317
#
# Poissons Ratio (x) = 0.12163 0.22564
# Poissons Ratio (y) = 0.16429 0.08051
# Poissons Ratio (z) = 0.29403 0.07767
#
# Static dielectric constant tensor:
#      x y z
#    x 1.878360 0.059220 -0.014170 
#    y 0.059220 1.903560 0.017080 
#    z -0.014170 0.017080 1.950170 
# 
# From -- ./inp_files/342981.got.cif
#   From: 2010.05.17/outbox.cif.g08.bks.cpg/sg2_172_cif.got.tgz:342981.got - 2010.06.03 11:33:40.
