data_PCOD9048392
_publ_section_title
;
Structure prediction by ZEFSAII (Michael W. Deem and Ramdas Pophale) SiO2 
 PCOD9048392
Probable space group: P -1
;
_chemical_formula_sum "Si O2"
_cell_formula_units_Z 16
_cell_length_a 9.222999
_cell_length_b 9.336856
_cell_length_c 10.930557
_cell_angle_alpha 53.618909
_cell_angle_beta 88.888317
_cell_angle_gamma 78.123272
_cell_volume 735.261293
_symmetry_space_group_name_H-M "P -1"
_symmetry_group_IT_number 2
_symmetry_cell_setting 'triclinic'
loop_
_space_group_symop_operation_xyz
x,y,z
-x,-y,-z
loop_
_atom_site_type_symbol
_atom_site_label
_atom_site_fract_x
_atom_site_fract_y
_atom_site_fract_z
Si Si1 0.216962 0.675659 0.116354
Si Si2 0.536334 0.173179 0.840991
Si Si3 0.300576 0.032852 0.288839
Si Si4 0.164058 0.862901 0.586201
Si Si5 0.242590 0.437933 0.765415
Si Si6 0.033796 0.929202 0.803955
Si Si7 0.362755 0.401228 0.056752
Si Si8 0.991255 0.340896 0.672890
O O1 0.360555 0.749617 0.105998
O O2 0.248963 0.515302 0.099062
O O3 0.163852 0.613340 0.276633
O O4 0.091591 0.838097 0.977197
O O5 0.389134 0.335119 0.740773
O O6 0.622044 0.107786 0.746568
O O7 0.500000 0.000000 0.000000
O O8 0.389949 0.191697 0.206717
O O9 0.281536 0.946202 0.465665
O O10 0.126080 0.108211 0.211241
O O11 0.184517 0.656847 0.640292
O O12 0.162313 0.854294 0.738068
O O13 0.000000 0.000000 0.500000
O O14 0.115656 0.340904 0.773741
O O15 0.290008 0.406820 0.921541
O O16 0.012042 0.146494 0.705932
O O17 0.500000 0.500000 0.000000
O O18 0.000000 0.500000 0.500000
#
# Coordination Sequence:
#
# PCOD9048392 Si02
#       8
#     2   2   2   2   2   2   2   2
#     4  12  25  42  73  99 141 186 236 288 354 417
#     4  12  24  45  71 103 143 185 237 293 343 423
#     4  11  24  44  71 101 141 188 231 290 356 412
#     4  10  24  45  68 102 140 177 231 294 349 414
#     4  12  25  46  73 101 146 188 232 291 353 411
#     4  11  23  43  71 103 137 182 236 290 350 419
#     4  12  25  45  70 105 140 184 240 291 342 423
#     4  12  27  44  69 107 142 179 237 294 349 418
#
# _framework density 21.760973
#
# number of rings (size 3 to 8) (size 9 to 14) (size 15 to 20)
#    0.000    0.500    5.000    3.375    5.250    1.500 
#    0.000    0.625    0.000    0.000    0.000    0.000 
#    0.000    0.000    0.000    0.000    0.000    0.000 
#
# Total GULP energy -89435.629223 kJ/mol
# GULP energy per Si atom -5589.726826 kJ/mol
# Density = 2.171144 g / cm^3
# Si number density = 21.760973 Si / 1000 Ang^3
#
#
#
# Elastic Constant Matrix: (Units=GPa)
#
#
# Indices 1 2 3 4 5 6 
#
# 1 76.2139 30.3285 17.5811 -5.0532 -14.7175 10.8290
# 2 30.3285 113.5356 25.8209 4.1790 -16.0757 -19.0110
# 3 17.5811 25.8209 78.2256 -6.4020 -26.1147 -5.7227
# 4 -5.0532 4.1790 -6.4020 23.6579 -4.3077 4.0154
# 5 -14.7175 -16.0757 -26.1147 -4.3077 31.4504 0.5223
# 6 10.8290 -19.0110 -5.7227 4.0154 0.5223 45.1027
#
#
#
# Elastic Compliance Matrix: (Units=1/GPa)
#
#
# Indices 1 2 3 4 5 6 
#
# 1 0.018107 -0.005374 0.000078 0.007343 0.006919 -0.007336
# 2 -0.005374 0.012205 -0.002436 -0.004907 0.000920 0.006552
# 3 0.000078 -0.002436 0.019800 0.008709 0.016417 0.000501
# 4 0.007343 -0.004907 0.008709 0.051109 0.015284 -0.007454
# 5 0.006919 0.000920 0.016417 0.015284 0.051249 -0.001145
# 6 -0.007336 0.006552 0.000501 -0.007454 -0.001145 0.027435
#
#
# Mechanical properties :
#
#
# Convention : Reuss Voigt Hill
#
# Bulk Modulus (GPa) = 28.86050 46.15954 37.51002
# Shear Modulus (GPa) = 24.16423 32.99184 28.57804
#
# Velocity S-wave (km/s) = 3.33594 3.89794 3.62784
# Velocity P-wave (km/s) = 5.30371 6.44335 5.90110
#
# Compressibility (1/GPa) = 0.03464943
#
# Stress axis : x y z
#
# Youngs Moduli (GPa) = 55.22833 81.93149 50.50479
#
# Poissons Ratio (x) = 0.44027 -0.00396
# Poissons Ratio (y) = 0.29678 0.12304
# Poissons Ratio (z) = -0.00433 0.19960
#
# Static dielectric constant tensor:
#      x y z
#    x 1.812710 -0.011880 -0.001330 
#    y -0.011880 1.802530 0.019410 
#    z -0.001330 0.019410 1.835730 
# 
# From -- ./inp_files/187493.got.cif
#   From: 2010.05.17/outbox.cif.g08.bks.cpg/sg2_94_cif.got.tgz:187493.got - 2010.06.03 11:33:40.
