data_PCOD9048653
_publ_section_title
;
Structure prediction by ZEFSAII (Michael W. Deem and Ramdas Pophale) SiO2 
 PCOD9048653
Probable space group: P -1
;
_chemical_formula_sum "Si O2"
_cell_formula_units_Z 16
_cell_length_a 14.819356
_cell_length_b 12.053634
_cell_length_c 9.512134
_cell_angle_alpha 141.510705
_cell_angle_beta 76.864485
_cell_angle_gamma 128.359637
_cell_volume 703.321548
_symmetry_space_group_name_H-M "P -1"
_symmetry_group_IT_number 2
_symmetry_cell_setting 'triclinic'
loop_
_space_group_symop_operation_xyz
x,y,z
-x,-y,-z
loop_
_atom_site_type_symbol
_atom_site_label
_atom_site_fract_x
_atom_site_fract_y
_atom_site_fract_z
Si Si1 0.015680 0.931272 0.077648
Si Si2 0.501179 0.553220 0.389242
Si Si3 0.159240 0.836882 0.484951
Si Si4 0.231784 0.000026 0.935822
Si Si5 0.375317 0.422430 0.891152
Si Si6 0.113267 0.376617 0.693526
Si Si7 0.781503 0.474145 0.893865
Si Si8 0.373653 0.935652 0.033963
O O1 0.068643 0.150193 0.387121
O O2 0.125099 0.930238 0.013779
O O3 0.000000 0.000000 0.000000
O O4 0.873729 0.656244 0.909557
O O5 0.500000 0.500000 0.500000
O O6 0.589359 0.545945 0.254468
O O7 0.568761 0.841591 0.651937
O O8 0.344176 0.307893 0.160178
O O9 0.230469 0.755162 0.330194
O O10 0.004982 0.641698 0.296135
O O11 0.163116 0.847893 0.663900
O O12 0.242364 0.121500 0.677692
O O13 0.310191 0.952246 0.939713
O O14 0.500000 0.500000 0.000000
O O15 0.351357 0.590321 0.115132
O O16 0.134968 0.357063 0.827962
O O17 0.254932 0.652289 0.861069
O O18 0.500000 0.000000 0.000000
#
# Coordination Sequence:
#
# PCOD9048653 Si02
#       8
#     2   2   2   2   2   2   2   2
#     4  12  25  46  75 107 146 194 244 305 374 433
#     4  10  24  45  70  99 144 188 240 299 366 424
#     4  12  26  49  75 112 149 194 252 302 377 438
#     4  11  24  45  74 108 146 191 247 313 364 436
#     4  12  26  48  72 107 148 195 247 300 367 443
#     4  12  26  47  74 110 150 189 253 304 371 446
#     4  12  29  45  77 108 153 200 241 310 372 437
#     4  11  26  43  72 109 144 192 245 303 366 441
#
# _framework density 22.749196000000001
#
# number of rings (size 3 to 8) (size 9 to 14) (size 15 to 20)
#    0.000    0.500    3.750    3.000    8.750    2.500 
#    0.000    0.000    0.000    0.000    0.000    0.000 
#    0.000    0.000    0.000    0.000    0.000    0.000 
#
# Total GULP energy -89599.118484 kJ/mol
# GULP energy per Si atom -5599.944905 kJ/mol
# Density = 2.269742 g / cm^3
# Si number density = 22.749196 Si / 1000 Ang^3
#
#
#
# Elastic Constant Matrix: (Units=GPa)
#
#
# Indices 1 2 3 4 5 6 
#
# 1 153.7334 25.6407 13.6296 -10.1522 -15.7942 18.3580
# 2 25.6407 104.0551 0.5529 -9.1727 -1.9258 10.3560
# 3 13.6296 0.5529 51.8348 -9.2990 -13.5080 2.0902
# 4 -10.1522 -9.1727 -9.2990 36.2052 4.0247 4.0938
# 5 -15.7942 -1.9258 -13.5080 4.0247 39.6716 -12.5456
# 6 18.3580 10.3560 2.0902 4.0938 -12.5456 42.2431
#
#
#
# Elastic Compliance Matrix: (Units=1/GPa)
#
#
# Indices 1 2 3 4 5 6 
#
# 1 0.007400 -0.001404 -0.001154 0.001536 0.001536 -0.002507
# 2 -0.001404 0.010434 0.000621 0.002797 -0.000923 -0.002524
# 3 -0.001154 0.000621 0.022197 0.004668 0.006925 0.000855
# 4 0.001536 0.002797 0.004668 0.030833 -0.002469 -0.005305
# 5 0.001536 -0.000923 0.006925 -0.002469 0.031134 0.008702
# 6 -0.002507 -0.002524 0.000855 -0.005305 0.008702 0.028437
#
#
# Mechanical properties :
#
#
# Convention : Reuss Voigt Hill
#
# Bulk Modulus (GPa) = 27.65768 43.25220 35.45494
# Shear Modulus (GPa) = 34.16240 41.61065 37.88652
#
# Velocity S-wave (km/s) = 3.87938 4.28144 4.08536
# Velocity P-wave (km/s) = 5.67892 6.59507 6.15407
#
# Compressibility (1/GPa) = 0.03615633
#
# Stress axis : x y z
#
# Youngs Moduli (GPa) = 135.13762 95.84414 45.05204
#
# Poissons Ratio (x) = 0.13456 0.05198
# Poissons Ratio (y) = 0.18973 -0.02797
# Poissons Ratio (z) = 0.15592 -0.05951
#
# Static dielectric constant tensor:
#      x y z
#    x 1.870240 -0.013060 -0.001330 
#    y -0.013060 1.841580 0.008450 
#    z -0.001330 0.008450 1.860600 
# 
# From -- ./inp_files/308751.got.cif
#   From: 2010.05.17/outbox.cif.g08.bks.cpg/sg2_155_cif.got.tgz:308751.got - 2010.06.03 11:33:40.
