data_PCOD9048376
_publ_section_title
;
Structure prediction by ZEFSAII (Michael W. Deem and Ramdas Pophale) SiO2 
 PCOD9048376
Probable space group: P -1
;
_chemical_formula_sum "Si O2"
_cell_formula_units_Z 13
_cell_length_a 18.064387
_cell_length_b 5.396412
_cell_length_c 7.376800
_cell_angle_alpha 118.558101
_cell_angle_beta 122.219354
_cell_angle_gamma 54.602480
_cell_volume 480.759858
_symmetry_space_group_name_H-M "P -1"
_symmetry_group_IT_number 2
_symmetry_cell_setting 'triclinic'
loop_
_space_group_symop_operation_xyz
x,y,z
-x,-y,-z
loop_
_atom_site_type_symbol
_atom_site_label
_atom_site_fract_x
_atom_site_fract_y
_atom_site_fract_z
Si Si1 0.183291 0.462060 0.479675
Si Si2 0.471710 0.942173 0.141009
Si Si3 0.500000 0.500000 0.500000
Si Si4 0.149772 0.506466 0.862146
Si Si5 0.339210 0.664197 0.840436
Si Si6 0.969287 0.793728 0.196353
Si Si7 0.717122 0.222760 0.769869
O O1 0.191879 0.371410 0.672022
O O2 0.256568 0.621021 0.609452
O O3 0.072697 0.714794 0.395743
O O4 0.212990 0.146021 0.292854
O O5 0.558241 0.610012 0.192685
O O6 0.473230 0.206148 0.360815
O O7 0.367327 0.950271 0.979456
O O8 0.500000 0.000000 0.000000
O O9 0.618739 0.267283 0.557101
O O10 0.106408 0.276942 0.802959
O O11 0.072738 0.868467 0.838172
O O12 0.220582 0.581260 0.116834
O O13 0.318593 0.665059 0.029992
O O14 0.000000 0.500000 0.000000
#
# Coordination Sequence:
#
# PCOD9048376 Si02
#       7
#     2   2   1   2   2   2   2
#     4  11  24  47  75 109 147 202 250 311 389 455
#     4  11  23  44  66  98 141 195 243 304 368 443
#     4  12  24  42  72 106 144 192 244 310 374 438
#     4  11  27  51  75 112 156 198 253 319 386 460
#     4  10  24  45  68 100 148 189 251 308 371 449
#     4  12  25  51  80 112 155 197 255 320 385 460
#     4  11  24  45  70 111 144 193 256 310 377 458
#
# _framework density 27.04053
#
# number of rings (size 3 to 8) (size 9 to 14) (size 15 to 20)
#    0.000    0.923    4.615    1.385    0.000    4.308 
#    5.538    0.000    0.000    0.000    0.000    0.000 
#    0.000    0.000    0.000    0.000    0.000    0.000 
#
# Total GULP energy -72501.064943 kJ/mol
# GULP energy per Si atom -5577.004996 kJ/mol
# Density = 2.697898 g / cm^3
# Si number density = 27.040530 Si / 1000 Ang^3
#
#
#
# Elastic Constant Matrix: (Units=GPa)
#
#
# Indices 1 2 3 4 5 6 
#
# 1 75.0381 -0.7379 35.6450 -0.5828 40.7123 15.2492
# 2 -0.7379 142.7957 21.8279 23.3335 9.7162 -15.3267
# 3 35.6450 21.8279 116.6414 12.4185 37.7607 8.4169
# 4 -0.5828 23.3335 12.4185 51.7625 -5.0802 3.4146
# 5 40.7123 9.7162 37.7607 -5.0802 70.6462 9.8677
# 6 15.2492 -15.3267 8.4169 3.4146 9.8677 42.6754
#
#
#
# Elastic Compliance Matrix: (Units=1/GPa)
#
#
# Indices 1 2 3 4 5 6 
#
# 1 0.021107 0.000809 -0.003020 -0.000105 -0.010065 -0.004320
# 2 0.000809 0.008324 -0.001057 -0.003910 -0.001837 0.003647
# 3 -0.003020 -0.001057 0.011419 -0.002704 -0.004366 -0.000327
# 4 -0.000105 -0.003910 -0.002704 0.022373 0.004153 -0.003584
# 5 -0.010065 -0.001837 -0.004366 0.004153 0.023102 -0.001876
# 6 -0.004320 0.003647 -0.000327 -0.003584 -0.001876 0.027071
#
#
# Mechanical properties :
#
#
# Convention : Reuss Voigt Hill
#
# Bulk Modulus (GPa) = 29.14330 49.77168 39.45749
# Shear Modulus (GPa) = 38.05989 51.53283 44.79636
#
# Velocity S-wave (km/s) = 3.75575 4.37024 4.07460
# Velocity P-wave (km/s) = 5.44138 6.62658 6.06301
#
# Compressibility (1/GPa) = 0.03431320
#
# Stress axis : x y z
#
# Youngs Moduli (GPa) = 47.37759 120.13258 87.57215
#
# Poissons Ratio (x) = -0.09720 0.26450
# Poissons Ratio (y) = -0.03833 0.09259
# Poissons Ratio (z) = 0.14310 0.12701
#
# Static dielectric constant tensor:
#      x y z
#    x 2.195710 -0.008640 -0.001600 
#    y -0.008640 2.198230 -0.075720 
#    z -0.001600 -0.075720 2.184770 
# 
# From -- ./inp_files/339527.got.cif
#   From: 2010.05.17/outbox.cif.g08.bks.cpg/sg2_170_cif.got.tgz:339527.got - 2010.06.03 11:33:40.
