data_PCOD9048752
_publ_section_title
;
Structure prediction by ZEFSAII (Michael W. Deem and Ramdas Pophale) SiO2 
 PCOD9048752
Probable space group: P -1
;
_chemical_formula_sum "Si O2"
_cell_formula_units_Z 14
_cell_length_a 29.009555
_cell_length_b 29.359652
_cell_length_c 11.698266
_cell_angle_alpha 20.360079
_cell_angle_beta 159.423332
_cell_angle_gamma 170.278349
_cell_volume 572.723944
_symmetry_space_group_name_H-M "P -1"
_symmetry_group_IT_number 2
_symmetry_cell_setting 'triclinic'
loop_
_space_group_symop_operation_xyz
x,y,z
-x,-y,-z
loop_
_atom_site_type_symbol
_atom_site_label
_atom_site_fract_x
_atom_site_fract_y
_atom_site_fract_z
Si Si1 0.269313 0.397058 0.654514
Si Si2 0.888837 0.265788 0.523614
Si Si3 0.217732 0.056918 0.570692
Si Si4 0.461000 0.726719 0.679178
Si Si5 0.801878 0.205485 0.718999
Si Si6 0.793496 0.408954 0.813521
Si Si7 0.738640 0.724247 0.621977
O O1 0.479685 0.668608 0.428201
O O2 0.123189 0.374900 0.451503
O O3 0.500000 0.500000 0.000000
O O4 0.031779 0.119382 0.678807
O O5 0.852931 0.193126 0.741112
O O6 0.213907 0.584590 0.508093
O O7 0.759300 0.030653 0.704835
O O8 0.728852 0.252325 0.135339
O O9 0.245089 0.157925 0.515001
O O10 0.148327 0.849572 0.934170
O O11 0.444001 0.758495 0.434194
O O12 0.349491 0.483341 0.018750
O O13 0.000000 0.500000 0.500000
O O14 0.500000 0.000000 0.500000
O O15 0.000000 0.500000 0.000000
O O16 0.500000 0.500000 0.500000
O O17 0.000000 0.000000 0.500000
#
# Coordination Sequence:
#
# PCOD9048752 Si02
#       7
#     2   2   2   2   2   2   2
#     4  12  27  48  73 105 148 196 245 304 371 439
#     4  11  23  41  64  96 131 170 221 286 348 412
#     4  12  26  46  71 105 145 193 242 301 372 443
#     4  11  23  41  65  94 129 173 225 286 345 406
#     4  12  24  41  66  97 134 178 227 286 358 439
#     4  10  24  45  72 104 140 186 243 301 360 432
#     4  12  25  44  69 101 140 186 239 294 353 433
#
# _framework density 24.444588
#
# number of rings (size 3 to 8) (size 9 to 14) (size 15 to 20)
#    0.000    0.571    0.000    8.571    0.000    6.857 
#    0.000    0.000    0.000    0.000    0.000    0.000 
#    0.000    0.000    0.000    0.000    0.000    0.000 
#
# Total GULP energy -78112.814480 kJ/mol
# GULP energy per Si atom -5579.486749 kJ/mol
# Density = 2.438895 g / cm^3
# Si number density = 24.444588 Si / 1000 Ang^3
#
#
#
# Elastic Constant Matrix: (Units=GPa)
#
#
# Indices 1 2 3 4 5 6 
#
# 1 88.2308 27.8359 11.0675 8.2825 9.6126 -8.5618
# 2 27.8359 161.5070 15.3844 2.7134 6.5780 -17.0292
# 3 11.0675 15.3844 108.2461 -12.2361 -2.1985 2.1329
# 4 8.2825 2.7134 -12.2361 31.2416 -7.6828 -4.1668
# 5 9.6126 6.5780 -2.1985 -7.6828 38.5010 -6.1243
# 6 -8.5618 -17.0292 2.1329 -4.1668 -6.1243 32.6814
#
#
#
# Elastic Compliance Matrix: (Units=1/GPa)
#
#
# Indices 1 2 3 4 5 6 
#
# 1 0.013083 -0.001715 -0.001736 -0.004760 -0.003812 0.001326
# 2 -0.001715 0.006919 -0.000895 -0.000163 -0.000340 0.003130
# 3 -0.001736 -0.000895 0.010155 0.004947 0.002063 -0.000566
# 4 -0.004760 -0.000163 0.004947 0.038353 0.009964 0.005102
# 5 -0.003812 -0.000340 0.002063 0.009964 0.029976 0.005577
# 6 0.001326 0.003130 -0.000566 0.005102 0.005577 0.034310
#
#
# Mechanical properties :
#
#
# Convention : Reuss Voigt Hill
#
# Bulk Modulus (GPa) = 46.58293 51.83993 49.21143
# Shear Modulus (GPa) = 33.63775 40.73121 37.18448
#
# Velocity S-wave (km/s) = 3.71358 4.08642 3.90445
# Velocity P-wave (km/s) = 6.12254 6.59684 6.36411
#
# Compressibility (1/GPa) = 0.02146709
#
# Stress axis : x y z
#
# Youngs Moduli (GPa) = 76.43314 144.52836 98.47216
#
# Poissons Ratio (x) = 0.24780 0.17091
# Poissons Ratio (y) = 0.13105 0.08814
# Poissons Ratio (z) = 0.13266 0.12936
#
# Static dielectric constant tensor:
#      x y z
#    x 2.033200 0.003910 0.026630 
#    y 0.003910 1.872980 0.017730 
#    z 0.026630 0.017730 2.040540 
# 
# From -- ./inp_files/477836.got.cif
#   From: 2010.05.17/outbox.cif.g08.bks.cpg/sg2_239_cif.got.tgz:477836.got - 2010.06.03 11:33:40.
