data_PCOD9048958
_publ_section_title
;
Structure prediction by ZEFSAII (Michael W. Deem and Ramdas Pophale) SiO2 
 PCOD9048958
Probable space group: P -1
;
_chemical_formula_sum "Si O2"
_cell_formula_units_Z 15
_cell_length_a 14.613529
_cell_length_b 7.683071
_cell_length_c 6.868473
_cell_angle_alpha 108.548302
_cell_angle_beta 124.461400
_cell_angle_gamma 92.193531
_cell_volume 578.829091
_symmetry_space_group_name_H-M "P -1"
_symmetry_group_IT_number 2
_symmetry_cell_setting 'triclinic'
loop_
_space_group_symop_operation_xyz
x,y,z
-x,-y,-z
loop_
_atom_site_type_symbol
_atom_site_label
_atom_site_fract_x
_atom_site_fract_y
_atom_site_fract_z
Si Si1 0.887226 0.815128 0.619335
Si Si2 0.138393 0.413946 0.097351
Si Si3 0.463531 0.095045 0.686513
Si Si4 0.500000 0.500000 0.000000
Si Si5 0.695509 0.690800 0.019035
Si Si6 0.291984 0.883073 0.929202
Si Si7 0.777042 0.147682 0.709539
Si Si8 0.959636 0.301927 0.500858
O O1 0.885481 0.683399 0.757105
O O2 0.792219 0.707036 0.308658
O O3 0.852108 0.002287 0.706054
O O4 0.007160 0.850485 0.658631
O O5 0.156572 0.638711 0.187436
O O6 0.256928 0.389850 0.141348
O O7 0.036636 0.319824 0.790786
O O8 0.350391 0.936498 0.570619
O O9 0.500000 0.000000 0.500000
O O10 0.586487 0.163336 0.972570
O O11 0.429584 0.292828 0.726548
O O12 0.577608 0.567326 0.923187
O O13 0.688194 0.898815 0.026862
O O14 0.255876 0.855783 0.102980
O O15 0.176232 0.758081 0.644591
O O16 0.000000 0.500000 0.500000
#
# Coordination Sequence:
#
# PCOD9048958 Si02
#       8
#     2   2   2   1   2   2   2   2
#     4  11  26  48  74 115 151 206 265 316 396 468
#     4  11  25  50  80 112 158 208 257 334 397 470
#     4  10  24  45  77 109 155 204 258 327 401 477
#     4  12  24  46  76 114 156 206 268 328 400 482
#     4  11  25  47  75 112 155 203 262 324 396 480
#     4  11  24  48  75 107 164 203 256 330 393 468
#     4  11  22  50  75 117 150 199 267 324 395 474
#     4  11  26  49  76 113 155 210 264 321 389 477
#
# _framework density 25.914383999999998
#
# number of rings (size 3 to 8) (size 9 to 14) (size 15 to 20)
#    0.000    1.067    4.000    1.600    1.867    5.867 
#    2.400    2.667    0.000    0.000    0.000    0.000 
#    0.000    0.000    0.000    0.000    0.000    0.000 
#
# Total GULP energy -83860.835472 kJ/mol
# GULP energy per Si atom -5590.722365 kJ/mol
# Density = 2.585540 g / cm^3
# Si number density = 25.914384 Si / 1000 Ang^3
#
#
#
# Elastic Constant Matrix: (Units=GPa)
#
#
# Indices 1 2 3 4 5 6 
#
# 1 142.0437 20.8022 26.7572 4.1223 7.4797 17.0445
# 2 20.8022 96.4272 26.9083 -3.6430 7.3289 21.0402
# 3 26.7572 26.9083 94.7272 -9.1378 -18.9342 11.0264
# 4 4.1223 -3.6430 -9.1378 43.5075 -0.2504 -6.7469
# 5 7.4797 7.3289 -18.9342 -0.2504 39.9164 7.6643
# 6 17.0445 21.0402 11.0264 -6.7469 7.6643 37.6283
#
#
#
# Elastic Compliance Matrix: (Units=1/GPa)
#
#
# Indices 1 2 3 4 5 6 
#
# 1 0.008028 -0.000392 -0.002443 -0.001719 -0.002106 -0.002581
# 2 -0.000392 0.012834 -0.003529 -0.000493 -0.002912 -0.005460
# 3 -0.002443 -0.003529 0.014474 0.002651 0.008450 -0.002408
# 4 -0.001719 -0.000493 0.002651 0.024358 0.000969 0.004447
# 5 -0.002106 -0.002912 0.008450 0.000969 0.031161 -0.006067
# 6 -0.002581 -0.005460 -0.002408 0.004447 -0.006067 0.033536
#
#
# Mechanical properties :
#
#
# Convention : Reuss Voigt Hill
#
# Bulk Modulus (GPa) = 44.23048 53.57037 48.90042
# Shear Modulus (GPa) = 34.56499 41.45914 38.01207
#
# Velocity S-wave (km/s) = 3.65611 4.00415 3.83408
# Velocity P-wave (km/s) = 5.90997 6.48803 6.20574
#
# Compressibility (1/GPa) = 0.02260885
#
# Stress axis : x y z
#
# Youngs Moduli (GPa) = 124.56239 77.91920 69.08914
#
# Poissons Ratio (x) = 0.03054 0.16877
# Poissons Ratio (y) = 0.04883 0.24380
# Poissons Ratio (z) = 0.30427 0.27496
#
# Static dielectric constant tensor:
#      x y z
#    x 2.027290 -0.112100 0.002380 
#    y -0.112100 2.140950 0.026390 
#    z 0.002380 0.026390 2.126410 
# 
# From -- ./inp_files/90570.got.cif
#   From: 2010.05.17/outbox.cif.g08.bks.cpg/sg2_46_cif.got.tgz:90570.got - 2010.06.03 11:33:40.
