data_PCOD9048248
_publ_section_title
;
Structure prediction by ZEFSAII (Michael W. Deem and Ramdas Pophale) SiO2 
 PCOD9048248
Probable space group: P -1
;
_chemical_formula_sum "Si O2"
_cell_formula_units_Z 16
_cell_length_a 8.891147
_cell_length_b 8.512751
_cell_length_c 12.113697
_cell_angle_alpha 108.475021
_cell_angle_beta 50.668207
_cell_angle_gamma 97.557245
_cell_volume 669.622596
_symmetry_space_group_name_H-M "P -1"
_symmetry_group_IT_number 2
_symmetry_cell_setting 'triclinic'
loop_
_space_group_symop_operation_xyz
x,y,z
-x,-y,-z
loop_
_atom_site_type_symbol
_atom_site_label
_atom_site_fract_x
_atom_site_fract_y
_atom_site_fract_z
Si Si1 0.702099 0.389967 0.860293
Si Si2 0.573156 0.980707 0.610254
Si Si3 0.778656 0.071311 0.913623
Si Si4 0.377968 0.166637 0.227530
Si Si5 0.056472 0.500267 0.844964
Si Si6 0.344189 0.659427 0.604535
Si Si7 0.789595 0.866212 0.277409
Si Si8 0.778936 0.455602 0.595483
O O1 0.728067 0.219302 0.879874
O O2 0.734996 0.363700 0.708929
O O3 0.867789 0.497382 0.855975
O O4 0.500000 0.500000 0.000000
O O5 0.683791 0.937423 0.661805
O O6 0.453376 0.820172 0.610302
O O7 0.720211 0.979531 0.439642
O O8 0.394024 0.124125 0.718511
O O9 0.001353 0.083398 0.849983
O O10 0.740413 0.897247 0.835417
O O11 0.606953 0.109068 0.090177
O O12 0.346280 0.363681 0.303437
O O13 0.185791 0.637791 0.768896
O O14 0.175547 0.320411 0.735151
O O15 0.000000 0.500000 0.000000
O O16 0.500000 0.500000 0.500000
O O17 0.256060 0.646543 0.520639
O O18 0.000000 0.500000 0.500000
#
# Coordination Sequence:
#
# PCOD9048248 Si02
#       8
#     2   2   2   2   2   2   2   2
#     4  11  24  43  67  98 129 172 217 269 327 385
#     4  11  25  43  67  95 132 171 221 269 326 389
#     4  10  25  44  66  94 133 171 217 267 328 389
#     4  11  24  45  65  96 132 173 215 272 324 388
#     4  11  25  43  67  99 133 171 219 271 326 393
#     4  12  24  43  67  98 130 175 219 271 330 379
#     4  10  24  45  63  96 130 171 219 266 327 388
#     4  12  25  44  68  98 134 170 224 272 321 393
#
# _framework density 23.894057
#
# number of rings (size 3 to 8) (size 9 to 14) (size 15 to 20)
#    0.000    1.000    5.000    0.000    8.750    4.000 
#    0.000    0.000    0.000    0.000    0.000    0.000 
#    0.000    0.000    0.000    0.000    0.000    0.000 
#
# Total GULP energy -89554.837117 kJ/mol
# GULP energy per Si atom -5597.177320 kJ/mol
# Density = 2.383967 g / cm^3
# Si number density = 23.894057 Si / 1000 Ang^3
#
#
#
# Elastic Constant Matrix: (Units=GPa)
#
#
# Indices 1 2 3 4 5 6 
#
# 1 59.3068 -0.0403 12.2307 10.9682 4.8849 0.8657
# 2 -0.0403 53.7475 9.7730 5.1486 -7.9325 0.1784
# 3 12.2307 9.7730 95.8720 -13.0846 7.7151 -1.3678
# 4 10.9682 5.1486 -13.0846 30.2187 -7.1183 1.9710
# 5 4.8849 -7.9325 7.7151 -7.1183 40.1452 -3.9671
# 6 0.8657 0.1784 -1.3678 1.9710 -3.9671 42.3274
#
#
#
# Elastic Compliance Matrix: (Units=1/GPa)
#
#
# Indices 1 2 3 4 5 6 
#
# 1 0.019682 0.001140 -0.003694 -0.009669 -0.003212 -0.000377
# 2 0.001140 0.020125 -0.003080 -0.004328 0.003696 0.000340
# 3 -0.003694 -0.003080 0.012257 0.006865 -0.001293 0.000044
# 4 -0.009669 -0.004328 0.006865 0.041864 0.006334 -0.000918
# 5 -0.003212 0.003696 -0.001293 0.006334 0.027630 0.002303
# 6 -0.000377 0.000340 0.000044 -0.000918 0.002303 0.023892
#
#
# Mechanical properties :
#
#
# Convention : Reuss Voigt Hill
#
# Bulk Modulus (GPa) = 24.51157 28.09479 26.30318
# Shear Modulus (GPa) = 29.35689 35.00246 32.17967
#
# Velocity S-wave (km/s) = 3.50898 3.83156 3.67381
# Velocity P-wave (km/s) = 5.16701 5.59982 5.38776
#
# Compressibility (1/GPa) = 0.04079706
#
# Stress axis : x y z
#
# Youngs Moduli (GPa) = 50.80702 49.68841 81.58287
#
# Poissons Ratio (x) = -0.05664 0.30135
# Poissons Ratio (y) = -0.05792 0.25129
# Poissons Ratio (z) = 0.18767 0.15305
#
# Static dielectric constant tensor:
#      x y z
#    x 1.942570 -0.042230 0.015620 
#    y -0.042230 1.950780 -0.008310 
#    z 0.015620 -0.008310 1.891600 
# 
# From -- ./inp_files/190704.got.cif
#   From: 2010.05.17/outbox.cif.g08.bks.cpg/sg2_96_cif.got.tgz:190704.got - 2010.06.03 11:33:40.
