data_PCOD9048109
_publ_section_title
;
Structure prediction by ZEFSAII (Michael W. Deem and Ramdas Pophale) SiO2 
 PCOD9048109
Probable space group: P -1
;
_chemical_formula_sum "Si O2"
_cell_formula_units_Z 16
_cell_length_a 23.056529
_cell_length_b 9.366165
_cell_length_c 9.038889
_cell_angle_alpha 149.217635
_cell_angle_beta 47.226784
_cell_angle_gamma 132.713619
_cell_volume 709.504177
_symmetry_space_group_name_H-M "P -1"
_symmetry_group_IT_number 2
_symmetry_cell_setting 'triclinic'
loop_
_space_group_symop_operation_xyz
x,y,z
-x,-y,-z
loop_
_atom_site_type_symbol
_atom_site_label
_atom_site_fract_x
_atom_site_fract_y
_atom_site_fract_z
Si Si1 0.155479 0.352822 0.959424
Si Si2 0.579917 0.555569 0.813224
Si Si3 0.313067 0.870622 0.814471
Si Si4 0.167909 0.467847 0.525475
Si Si5 0.896070 0.003782 0.987423
Si Si6 0.553334 0.778725 0.736299
Si Si7 0.264445 0.944083 0.303836
Si Si8 0.047695 0.312053 0.845877
O O1 0.096012 0.449847 0.031356
O O2 0.211774 0.177063 0.620366
O O3 0.105057 0.130984 0.969272
O O4 0.213516 0.639480 0.185132
O O5 0.612505 0.282142 0.466066
O O6 0.561143 0.700915 0.824019
O O7 0.500000 0.500000 0.000000
O O8 0.651593 0.792857 0.981111
O O9 0.244591 0.683568 0.660419
O O10 0.279851 0.869611 0.039424
O O11 0.174380 0.225686 0.182274
O O12 0.116772 0.283944 0.585581
O O13 0.120837 0.681367 0.714862
O O14 0.980928 0.038139 0.781463
O O15 0.500000 0.500000 0.500000
O O16 0.647545 0.918567 0.652341
O O17 0.500000 0.000000 0.000000
O O18 0.000000 0.500000 0.000000
#
# Coordination Sequence:
#
# PCOD9048109 Si02
#       8
#     2   2   2   2   2   2   2   2
#     4  12  24  44  69  98 143 174 228 282 339 404
#     4  11  24  44  68 101 135 173 225 271 347 395
#     4  11  22  43  71  96 133 180 227 276 323 410
#     4  11  23  43  68  95 135 174 233 271 334 400
#     4  11  25  43  61 105 135 174 218 287 344 387
#     4  11  23  44  68  97 133 173 223 272 321 407
#     4  11  24  43  72 100 130 188 227 268 341 402
#     4  10  24  44  73  98 132 183 232 278 335 408
#
# _framework density 22.550958000000001
#
# number of rings (size 3 to 8) (size 9 to 14) (size 15 to 20)
#    0.000    1.000    1.250    6.375    1.750    2.000 
#   13.500    4.375    0.000    0.000    0.000    0.000 
#    0.000    0.000    0.000    0.000    0.000    0.000 
#
# Total GULP energy -89391.717795 kJ/mol
# GULP energy per Si atom -5586.982362 kJ/mol
# Density = 2.249963 g / cm^3
# Si number density = 22.550958 Si / 1000 Ang^3
#
#
#
# Elastic Constant Matrix: (Units=GPa)
#
#
# Indices 1 2 3 4 5 6 
#
# 1 113.7297 40.9517 25.8317 3.7565 6.4287 10.3772
# 2 40.9517 119.6292 22.1750 5.7959 2.6191 8.7674
# 3 25.8317 22.1750 108.7243 23.7506 0.7565 5.9754
# 4 3.7565 5.7959 23.7506 28.7955 0.6440 9.3430
# 5 6.4287 2.6191 0.7565 0.6440 29.6569 15.4412
# 6 10.3772 8.7674 5.9754 9.3430 15.4412 32.2030
#
#
#
# Elastic Compliance Matrix: (Units=1/GPa)
#
#
# Indices 1 2 3 4 5 6 
#
# 1 0.010603 -0.003134 -0.002135 0.001770 -0.000813 -0.002291
# 2 -0.003134 0.009761 -0.001142 -0.000048 0.000783 -0.001797
# 3 -0.002135 -0.001142 0.012025 -0.010024 -0.000530 0.001930
# 4 0.001770 -0.000048 -0.010024 0.047808 0.007172 -0.016007
# 5 -0.000813 0.000783 -0.000530 0.007172 0.046233 -0.024102
# 6 -0.002291 -0.001797 0.001930 -0.016007 -0.024102 0.048123
#
#
# Mechanical properties :
#
#
# Convention : Reuss Voigt Hill
#
# Bulk Modulus (GPa) = 51.10893 57.77777 54.44335
# Shear Modulus (GPa) = 25.78690 35.00608 30.39649
#
# Velocity S-wave (km/s) = 3.38523 3.94421 3.67536
# Velocity P-wave (km/s) = 6.16382 6.81315 6.49660
#
# Compressibility (1/GPa) = 0.01956605
#
# Stress axis : x y z
#
# Youngs Moduli (GPa) = 94.31595 102.45292 83.15837
#
# Poissons Ratio (x) = 0.32107 0.17755
# Poissons Ratio (y) = 0.29557 0.09500
# Poissons Ratio (z) = 0.20137 0.11704
#
# Static dielectric constant tensor:
#      x y z
#    x 1.877310 0.039820 0.002960 
#    y 0.039820 1.874920 -0.014440 
#    z 0.002960 -0.014440 1.795510 
# 
# From -- ./inp_files/352499.got.cif
#   From: 2010.05.17/outbox.cif.g08.bks.cpg/sg2_177_cif.got.tgz:352499.got - 2010.06.03 11:33:40.
