data_PCOD9048859
_publ_section_title
;
Structure prediction by ZEFSAII (Michael W. Deem and Ramdas Pophale) SiO2 
 PCOD9048859
Probable space group: P -1
;
_chemical_formula_sum "Si O2"
_cell_formula_units_Z 16
_cell_length_a 15.213046
_cell_length_b 9.289060
_cell_length_c 8.985824
_cell_angle_alpha 79.942240
_cell_angle_beta 66.463313
_cell_angle_gamma 38.274169
_cell_volume 699.236381
_symmetry_space_group_name_H-M "P -1"
_symmetry_group_IT_number 2
_symmetry_cell_setting 'triclinic'
loop_
_space_group_symop_operation_xyz
x,y,z
-x,-y,-z
loop_
_atom_site_type_symbol
_atom_site_label
_atom_site_fract_x
_atom_site_fract_y
_atom_site_fract_z
Si Si1 0.715382 0.656093 0.803486
Si Si2 0.563297 0.922683 0.303166
Si Si3 0.709439 0.171176 0.649868
Si Si4 0.851822 0.058398 0.247811
Si Si5 0.059315 0.364775 0.331036
Si Si6 0.633509 0.555797 0.157860
Si Si7 0.132054 0.285912 0.835814
Si Si8 0.884273 0.192342 0.673772
O O1 0.814331 0.667675 0.806351
O O2 0.830326 0.424473 0.661032
O O3 0.574390 0.888273 0.758632
O O4 0.663803 0.604748 0.974665
O O5 0.638795 0.674767 0.258930
O O6 0.691937 0.894110 0.200131
O O7 0.500000 0.000000 0.500000
O O8 0.751118 0.154512 0.451524
O O9 0.539135 0.306240 0.750068
O O10 0.730593 0.282241 0.726838
O O11 0.842835 0.898631 0.666106
O O12 0.757264 0.280709 0.165033
O O13 0.882744 0.863075 0.185652
O O14 0.012740 0.937478 0.221989
O O15 0.000000 0.500000 0.500000
O O16 0.905475 0.556418 0.300725
O O17 0.000000 0.500000 0.000000
O O18 0.000000 0.000000 0.500000
#
# Coordination Sequence:
#
# PCOD9048859 Si02
#       8
#     2   2   2   2   2   2   2   2
#     4  12  26  49  72 105 148 189 247 303 369 423
#     4  12  28  46  74 108 145 197 248 299 362 446
#     4  11  24  44  76 104 141 197 243 294 361 440
#     4  11  25  49  70 107 148 189 245 299 365 438
#     4  12  22  47  75 100 140 190 247 299 355 427
#     4  12  28  46  73 104 154 189 234 310 368 430
#     4  12  27  45  75 110 145 187 245 306 367 434
#     4  10  24  45  74 103 143 189 242 300 357 439
#
# _framework density 22.882107000000001
#
# number of rings (size 3 to 8) (size 9 to 14) (size 15 to 20)
#    0.000    0.500    3.750    3.750    8.750    2.000 
#    0.000    0.000    0.000    0.000    0.000    0.000 
#    0.000    0.000    0.000    0.000    0.000    0.000 
#
# Total GULP energy -89495.587436 kJ/mol
# GULP energy per Si atom -5593.474215 kJ/mol
# Density = 2.283003 g / cm^3
# Si number density = 22.882107 Si / 1000 Ang^3
#
#
#
# Elastic Constant Matrix: (Units=GPa)
#
#
# Indices 1 2 3 4 5 6 
#
# 1 131.1657 16.3807 34.9655 5.4898 8.1568 8.1434
# 2 16.3807 116.2462 28.6631 -12.1461 9.3613 5.7425
# 3 34.9655 28.6631 99.2352 4.8780 -9.6888 11.3294
# 4 5.4898 -12.1461 4.8780 33.2802 7.5365 1.6901
# 5 8.1568 9.3613 -9.6888 7.5365 27.1798 2.7032
# 6 8.1434 5.7425 11.3294 1.6901 2.7032 36.3782
#
#
#
# Elastic Compliance Matrix: (Units=1/GPa)
#
#
# Indices 1 2 3 4 5 6 
#
# 1 0.008806 -0.000095 -0.003360 -0.000123 -0.003711 -0.000628
# 2 -0.000095 0.010804 -0.004027 0.006099 -0.006798 -0.000208
# 3 -0.003360 -0.004027 0.013932 -0.004832 0.009039 -0.003398
# 4 -0.000123 0.006099 -0.004832 0.036131 -0.013796 -0.000084
# 5 -0.003711 -0.006798 0.009039 -0.013796 0.047674 -0.003813
# 6 -0.000628 -0.000208 -0.003398 -0.000084 -0.003813 0.029008
#
#
# Mechanical properties :
#
#
# Convention : Reuss Voigt Hill
#
# Bulk Modulus (GPa) = 53.82671 56.29621 55.06146
# Shear Modulus (GPa) = 29.84856 37.14350 33.49603
#
# Velocity S-wave (km/s) = 3.61564 4.03334 3.83018
# Velocity P-wave (km/s) = 6.40351 6.80783 6.60876
#
# Compressibility (1/GPa) = 0.01857814
#
# Stress axis : x y z
#
# Youngs Moduli (GPa) = 113.55272 92.56044 71.77671
#
# Poissons Ratio (x) = 0.00883 0.24117
# Poissons Ratio (y) = 0.01083 0.28903
# Poissons Ratio (z) = 0.38154 0.37272
#
# Static dielectric constant tensor:
#      x y z
#    x -0.695260 -0.578460 -0.290720 
#    y -0.578460 1.664930 -0.014690 
#    z -0.290720 -0.014690 1.862870 
# 
# From -- ./inp_files/298194.got.cif
#   From: 2010.05.17/outbox.cif.g08.bks.cpg/sg2_150_cif.got.tgz:298194.got - 2010.06.03 11:33:40.
