data_PCOD9048627
_publ_section_title
;
Structure prediction by ZEFSAII (Michael W. Deem and Ramdas Pophale) SiO2 
 PCOD9048627
Probable space group: P -1
;
_chemical_formula_sum "Si O2"
_cell_formula_units_Z 16
_cell_length_a 12.100635
_cell_length_b 9.140679
_cell_length_c 14.690393
_cell_angle_alpha 133.746726
_cell_angle_beta 40.564633
_cell_angle_gamma 111.127738
_cell_volume 714.801918
_symmetry_space_group_name_H-M "P -1"
_symmetry_group_IT_number 2
_symmetry_cell_setting 'triclinic'
loop_
_space_group_symop_operation_xyz
x,y,z
-x,-y,-z
loop_
_atom_site_type_symbol
_atom_site_label
_atom_site_fract_x
_atom_site_fract_y
_atom_site_fract_z
Si Si1 0.036187 0.738977 0.778865
Si Si2 0.160160 0.802399 0.391635
Si Si3 0.658923 0.397670 0.132210
Si Si4 0.750383 0.960012 0.778584
Si Si5 0.547860 0.032107 0.752248
Si Si6 0.235996 0.451003 0.047584
Si Si7 0.746278 0.502235 0.626766
Si Si8 0.725894 0.203788 0.192175
O O1 0.096204 0.632384 0.598274
O O2 0.210981 0.736806 0.725343
O O3 0.939880 0.603228 0.838520
O O4 0.889920 0.980465 0.967381
O O5 0.262740 0.973358 0.413083
O O6 0.220479 0.672143 0.203538
O O7 0.229871 0.617119 0.344249
O O8 0.945480 0.900824 0.581736
O O9 0.443599 0.489441 0.292995
O O10 0.708823 0.376824 0.197895
O O11 0.739718 0.524765 0.064662
O O12 0.722205 0.152551 0.948959
O O13 0.748375 0.742674 0.733862
O O14 0.593702 0.020529 0.825763
O O15 0.457174 0.853517 0.712501
O O16 0.403742 0.257692 0.903382
#
# Coordination Sequence:
#
# PCOD9048627 Si02
#       8
#     2   2   2   2   2   2   2   2
#     4  10  24  47  68  91 124 173 217 259 312 376
#     4  12  23  38  62 100 130 166 205 261 325 377
#     4  12  24  40  65  98 128 168 209 264 319 378
#     4  12  24  37  62  98 132 165 210 257 319 381
#     4  11  22  40  62  92 131 166 203 262 317 371
#     4  11  23  41  66  92 134 166 205 265 323 374
#     4  12  24  41  65  97 130 168 211 259 320 380
#     4  10  24  45  70  89 125 172 219 258 311 376
#
# _framework density 22.383824000000001
#
# number of rings (size 3 to 8) (size 9 to 14) (size 15 to 20)
#    0.000    0.750    5.000    3.000    3.500    1.000 
#    0.000    0.625    2.750    0.000    0.000    0.000 
#    0.000    0.000    0.000    0.000    0.000    0.000 
#
# Total GULP energy -89571.267113 kJ/mol
# GULP energy per Si atom -5598.204195 kJ/mol
# Density = 2.233288 g / cm^3
# Si number density = 22.383824 Si / 1000 Ang^3
#
#
#
# Elastic Constant Matrix: (Units=GPa)
#
#
# Indices 1 2 3 4 5 6 
#
# 1 85.5040 41.2364 -6.6958 -2.7633 -15.8180 -8.4928
# 2 41.2364 92.9957 22.2134 -20.6453 -4.5441 -22.9164
# 3 -6.6958 22.2134 47.3938 -13.7525 -4.5789 0.2992
# 4 -2.7633 -20.6453 -13.7525 36.4902 4.7473 -13.0691
# 5 -15.8180 -4.5441 -4.5789 4.7473 16.7531 -5.9002
# 6 -8.4928 -22.9164 0.2992 -13.0691 -5.9002 39.9727
#
#
#
# Elastic Compliance Matrix: (Units=1/GPa)
#
#
# Indices 1 2 3 4 5 6 
#
# 1 0.022034 -0.012284 0.009540 -0.004743 0.021119 -0.000866
# 2 -0.012284 0.026356 -0.009751 0.017290 -0.005901 0.017355
# 3 0.009540 -0.009751 0.029593 0.004526 0.013034 -0.000381
# 4 -0.004743 0.017290 0.004526 0.047559 -0.003616 0.023886
# 5 0.021119 -0.005901 0.013034 -0.003616 0.087082 0.012678
# 6 -0.000866 0.017355 -0.000381 0.023886 0.012678 0.044467
#
#
# Mechanical properties :
#
#
# Convention : Reuss Voigt Hill
#
# Bulk Modulus (GPa) = 18.87031 37.71129 28.29080
# Shear Modulus (GPa) = 16.68085 29.91916 23.30000
#
# Velocity S-wave (km/s) = 2.73283 3.65998 3.22985
# Velocity P-wave (km/s) = 4.29027 5.89447 5.15515
#
# Compressibility (1/GPa) = 0.05299330
#
# Stress axis : x y z
#
# Youngs Moduli (GPa) = 45.38398 37.94226 33.79179
#
# Poissons Ratio (x) = 0.46607 -0.32236
# Poissons Ratio (y) = 0.55748 0.32950
# Poissons Ratio (z) = -0.43295 0.36998
#
# Static dielectric constant tensor:
#      x y z
#    x 1.810200 -0.002510 -0.027650 
#    y -0.002510 1.850540 -0.008470 
#    z -0.027650 -0.008470 1.814780 
# 
# From -- ./inp_files/188314.got.cif
#   From: 2010.05.17/outbox.cif.g08.bks.cpg/sg2_95_cif.got.tgz:188314.got - 2010.06.03 11:33:40.
