data_PCOD9048730
_publ_section_title
;
Structure prediction by ZEFSAII (Michael W. Deem and Ramdas Pophale) SiO2 
 PCOD9048730
Probable space group: P -1
;
_chemical_formula_sum "Si O2"
_cell_formula_units_Z 16
_cell_length_a 14.941101
_cell_length_b 11.993541
_cell_length_c 5.347456
_cell_angle_alpha 91.325279
_cell_angle_beta 62.195539
_cell_angle_gamma 124.072524
_cell_volume 663.962927
_symmetry_space_group_name_H-M "P -1"
_symmetry_group_IT_number 2
_symmetry_cell_setting 'triclinic'
loop_
_space_group_symop_operation_xyz
x,y,z
-x,-y,-z
loop_
_atom_site_type_symbol
_atom_site_label
_atom_site_fract_x
_atom_site_fract_y
_atom_site_fract_z
Si Si1 0.594810 0.313180 0.808362
Si Si2 0.138286 0.869634 0.796746
Si Si3 0.448594 0.375688 0.358578
Si Si4 0.965086 0.599527 0.305888
Si Si5 0.191501 0.709147 0.396148
Si Si6 0.673222 0.876277 0.111758
Si Si7 0.119156 0.076500 0.537720
Si Si8 0.240858 0.384092 0.440974
O O1 0.674931 0.264473 0.807446
O O2 0.466065 0.190472 0.824752
O O3 0.686693 0.457566 0.525666
O O4 0.551607 0.365592 0.092502
O O5 0.209251 0.841401 0.500452
O O6 0.240543 0.964296 0.887002
O O7 0.099298 0.962980 0.749490
O O8 0.015111 0.711900 0.025687
O O9 0.500000 0.500000 0.500000
O O10 0.355607 0.229692 0.630452
O O11 0.368783 0.392651 0.258242
O O12 0.094075 0.657305 0.290585
O O13 0.890222 0.434929 0.334768
O O14 0.861764 0.610598 0.587549
O O15 0.760090 0.877338 0.789448
O O16 0.147730 0.216867 0.625328
O O17 0.000000 0.000000 0.500000
#
# Coordination Sequence:
#
# PCOD9048730 Si02
#       8
#     2   2   2   2   2   2   2   2
#     4  11  24  45  70  99 137 180 224 282 340 394
#     4  12  24  43  67  98 137 182 229 275 336 406
#     4  12  23  41  69 103 137 174 225 277 344 411
#     4  10  24  45  71  99 133 179 229 284 338 400
#     4  10  24  48  69  98 137 177 233 283 331 397
#     4  12  24  41  65 100 139 176 225 274 342 403
#     4  12  26  42  66  99 143 180 219 282 341 405
#     4  11  21  43  68 100 136 173 221 281 339 402
#
# _framework density 24.097729000000001
#
# number of rings (size 3 to 8) (size 9 to 14) (size 15 to 20)
#    0.000    0.750    3.750    3.750    1.750    2.500 
#    6.750    4.375    0.000    0.000    0.000    0.000 
#    0.000    0.000    0.000    0.000    0.000    0.000 
#
# Total GULP energy -89139.366844 kJ/mol
# GULP energy per Si atom -5571.210428 kJ/mol
# Density = 2.404288 g / cm^3
# Si number density = 24.097729 Si / 1000 Ang^3
#
#
#
# Elastic Constant Matrix: (Units=GPa)
#
#
# Indices 1 2 3 4 5 6 
#
# 1 174.2027 25.6307 15.4319 8.0300 -37.2012 1.0837
# 2 25.6307 119.6506 10.7291 -1.8732 -2.5842 0.2619
# 3 15.4319 10.7291 53.1225 -11.7587 -0.7541 -3.8937
# 4 8.0300 -1.8732 -11.7587 42.4947 -7.7284 0.9443
# 5 -37.2012 -2.5842 -0.7541 -7.7284 28.6980 0.5982
# 6 1.0837 0.2619 -3.8937 0.9443 0.5982 40.8519
#
#
#
# Elastic Compliance Matrix: (Units=1/GPa)
#
#
# Indices 1 2 3 4 5 6 
#
# 1 0.008431 -0.001388 -0.002122 -0.000286 0.010683 -0.000567
# 2 -0.001388 0.008758 -0.001371 0.000086 -0.001021 -0.000137
# 3 -0.002122 -0.001371 0.021184 0.006025 -0.000736 0.001956
# 4 -0.000286 0.000086 0.006025 0.026523 0.006941 -0.000133
# 5 0.010683 -0.001021 -0.000736 0.006941 0.050477 -0.001246
# 6 -0.000567 -0.000137 0.001956 -0.000133 -0.001246 0.024702
#
#
# Mechanical properties :
#
#
# Convention : Reuss Voigt Hill
#
# Bulk Modulus (GPa) = 34.95214 50.06211 42.50713
# Shear Modulus (GPa) = 31.37277 42.08785 36.73031
#
# Velocity S-wave (km/s) = 3.61210 4.18371 3.90837
# Velocity P-wave (km/s) = 5.65085 6.64512 6.16805
#
# Compressibility (1/GPa) = 0.02861055
#
# Stress axis : x y z
#
# Youngs Moduli (GPa) = 118.61456 114.18685 47.20474
#
# Poissons Ratio (x) = 0.15851 0.10016
# Poissons Ratio (y) = 0.16466 0.06471
# Poissons Ratio (z) = 0.25169 0.15654
#
# Static dielectric constant tensor:
#      x y z
#    x 1.947400 0.021850 -0.016860 
#    y 0.021850 1.907590 -0.046580 
#    z -0.016860 -0.046580 2.058800 
# 
# From -- ./inp_files/94908.got.cif
#   From: 2010.05.17/outbox.cif.g08.bks.cpg/sg2_48_cif.got.tgz:94908.got - 2010.06.03 11:33:40.
