data_PCOD9048616
_publ_section_title
;
Structure prediction by ZEFSAII (Michael W. Deem and Ramdas Pophale) SiO2 
 PCOD9048616
Probable space group: P -1
;
_chemical_formula_sum "Si O2"
_cell_formula_units_Z 14
_cell_length_a 16.181685
_cell_length_b 7.860613
_cell_length_c 7.674729
_cell_angle_alpha 82.044415
_cell_angle_beta 68.204682
_cell_angle_gamma 36.829390
_cell_volume 520.763226
_symmetry_space_group_name_H-M "P -1"
_symmetry_group_IT_number 2
_symmetry_cell_setting 'triclinic'
loop_
_space_group_symop_operation_xyz
x,y,z
-x,-y,-z
loop_
_atom_site_type_symbol
_atom_site_label
_atom_site_fract_x
_atom_site_fract_y
_atom_site_fract_z
Si Si1 0.462227 0.709307 0.645110
Si Si2 0.238922 0.647299 0.351597
Si Si3 0.203197 0.885557 0.837962
Si Si4 0.026399 0.765896 0.736777
Si Si5 0.020696 0.405778 0.692927
Si Si6 0.530021 0.806220 0.268540
Si Si7 0.306741 0.219597 0.099414
O O1 0.500000 0.500000 0.500000
O O2 0.605104 0.508378 0.689355
O O3 0.310330 0.872232 0.830303
O O4 0.451459 0.894172 0.502865
O O5 0.268192 0.453004 0.210202
O O6 0.163705 0.665167 0.571644
O O7 0.112876 0.974097 0.325719
O O8 0.316315 0.548214 0.796947
O O9 0.139316 0.066832 0.683701
O O10 0.054678 0.074605 0.039765
O O11 0.071468 0.496734 0.738847
O O12 0.853197 0.608608 0.851447
O O13 0.000000 0.500000 0.500000
O O14 0.407125 0.949225 0.194247
O O15 0.592254 0.887920 0.131453
#
# Coordination Sequence:
#
# PCOD9048616 Si02
#       7
#     2   2   2   2   2   2   2
#     4  10  25  44  71 102 138 187 236 295 352 419
#     4  11  25  46  75 103 145 187 239 298 355 428
#     4  11  25  46  73 107 144 190 239 299 356 422
#     4  11  26  46  72 109 144 189 239 295 359 425
#     4  12  26  44  74 104 149 184 242 293 359 422
#     4  10  24  45  70 106 143 183 250 282 365 420
#     4  11  24  46  72 107 138 196 232 302 352 429
#
# _framework density 26.883617000000001
#
# number of rings (size 3 to 8) (size 9 to 14) (size 15 to 20)
#    0.000    1.143    2.857    1.286   10.000    4.000 
#    0.000    0.000    0.000    0.000    0.000    0.000 
#    0.000    0.000    0.000    0.000    0.000    0.000 
#
# Total GULP energy -78444.230623 kJ/mol
# GULP energy per Si atom -5603.159330 kJ/mol
# Density = 2.682243 g / cm^3
# Si number density = 26.883617 Si / 1000 Ang^3
#
#
#
# Elastic Constant Matrix: (Units=GPa)
#
#
# Indices 1 2 3 4 5 6 
#
# 1 107.1777 28.2756 28.3546 1.0355 -8.2396 -5.4946
# 2 28.2756 164.0988 12.0819 -16.0018 14.8109 -3.5955
# 3 28.3546 12.0819 113.0868 -3.0203 -10.3439 -3.8176
# 4 1.0355 -16.0018 -3.0203 44.4986 -1.7293 4.2952
# 5 -8.2396 14.8109 -10.3439 -1.7293 35.9495 9.8544
# 6 -5.4946 -3.5955 -3.8176 4.2952 9.8544 38.9524
#
#
#
# Elastic Compliance Matrix: (Units=1/GPa)
#
#
# Indices 1 2 3 4 5 6 
#
# 1 0.010675 -0.001981 -0.002254 -0.001080 0.002394 0.000616
# 2 -0.001981 0.007049 -0.000496 0.002309 -0.003663 0.000995
# 3 -0.002254 -0.000496 0.009707 0.000644 0.002547 -0.000128
# 4 -0.001080 0.002309 0.000644 0.023667 0.000866 -0.002705
# 5 0.002394 -0.003663 0.002547 0.000866 0.032888 -0.008166
# 6 0.000616 0.000995 -0.000128 -0.002705 -0.008166 0.028203
#
#
# Mechanical properties :
#
#
# Convention : Reuss Voigt Hill
#
# Bulk Modulus (GPa) = 55.65353 57.97637 56.81495
# Shear Modulus (GPa) = 39.17233 44.92351 42.04792
#
# Velocity S-wave (km/s) = 3.82135 4.09227 3.95913
# Velocity P-wave (km/s) = 6.34168 6.62883 6.48684
#
# Compressibility (1/GPa) = 0.01796831
#
# Stress axis : x y z
#
# Youngs Moduli (GPa) = 93.67327 141.85662 103.02075
#
# Poissons Ratio (x) = 0.28108 0.23222
# Poissons Ratio (y) = 0.18561 0.05111
# Poissons Ratio (z) = 0.21115 0.07038
#
# Static dielectric constant tensor:
#      x y z
#    x 2.184290 0.048510 0.050010 
#    y 0.048510 2.047570 0.022000 
#    z 0.050010 0.022000 2.151460 
# 
# From -- ./inp_files/328699.got.cif
#   From: 2010.05.17/outbox.cif.g08.bks.cpg/sg2_165_cif.got.tgz:328699.got - 2010.06.03 11:33:40.
