data_PCOD9048579
_publ_section_title
;
Structure prediction by ZEFSAII (Michael W. Deem and Ramdas Pophale) SiO2 
 PCOD9048579
Probable space group: P -1
;
_chemical_formula_sum "Si O2"
_cell_formula_units_Z 12
_cell_length_a 17.837058
_cell_length_b 8.841870
_cell_length_c 5.485199
_cell_angle_alpha 101.554686
_cell_angle_beta 127.947317
_cell_angle_gamma 54.483967
_cell_volume 538.416264
_symmetry_space_group_name_H-M "P -1"
_symmetry_group_IT_number 2
_symmetry_cell_setting 'triclinic'
loop_
_space_group_symop_operation_xyz
x,y,z
-x,-y,-z
loop_
_atom_site_type_symbol
_atom_site_label
_atom_site_fract_x
_atom_site_fract_y
_atom_site_fract_z
Si Si1 0.012290 0.852065 0.666352
Si Si2 0.823824 0.081733 0.730106
Si Si3 0.832208 0.750667 0.857638
Si Si4 0.149004 0.420485 0.664338
Si Si5 0.568594 0.476964 0.377090
Si Si6 0.379890 0.211370 0.343455
O O1 0.085268 0.644888 0.626443
O O2 0.100999 0.836387 0.042534
O O3 0.000000 0.000000 0.500000
O O4 0.884832 0.952077 0.568784
O O5 0.689637 0.263860 0.527212
O O6 0.837298 0.929276 0.900104
O O7 0.878158 0.632102 0.662617
O O8 0.700327 0.808254 0.634488
O O9 0.887500 0.637535 0.183255
O O10 0.291281 0.299577 0.959241
O O11 0.500000 0.500000 0.500000
O O12 0.595626 0.634639 0.488938
O O13 0.500000 0.500000 0.000000
O O14 0.500000 0.000000 0.500000
#
# Coordination Sequence:
#
# PCOD9048579 Si02
#       6
#     2   2   2   2   2   2
#     4  11  27  45  79  99 151 192 240 303 354 436
#     4  11  26  48  69 112 141 192 247 294 364 428
#     4  10  25  43  73  96 148 180 242 289 360 417
#     4  10  25  46  68 105 138 189 231 299 351 426
#     4  12  29  45  76 106 147 189 242 300 361 430
#     4  10  24  45  70 101 145 186 241 288 360 420
#
# _framework density 22.287588
#
# number of rings (size 3 to 8) (size 9 to 14) (size 15 to 20)
#    1.000    0.333    1.667    1.000   16.333    2.000 
#    0.000    0.000    0.000    0.000    0.000    0.000 
#    0.000    0.000    0.000    0.000    0.000    0.000 
#
# Total GULP energy -66993.008381 kJ/mol
# GULP energy per Si atom -5582.750698 kJ/mol
# Density = 2.223686 g / cm^3
# Si number density = 22.287588 Si / 1000 Ang^3
#
#
#
# Elastic Constant Matrix: (Units=GPa)
#
#
# Indices 1 2 3 4 5 6 
#
# 1 131.4798 52.1781 32.7959 -9.1919 -5.7475 -16.1492
# 2 52.1781 181.7035 65.3418 -20.3426 -4.2728 -7.6492
# 3 32.7959 65.3418 125.2365 3.7846 -7.0163 -19.4593
# 4 -9.1919 -20.3426 3.7846 49.7988 2.4677 7.3039
# 5 -5.7475 -4.2728 -7.0163 2.4677 36.5266 0.1234
# 6 -16.1492 -7.6492 -19.4593 7.3039 0.1234 51.6234
#
#
#
# Elastic Compliance Matrix: (Units=1/GPa)
#
#
# Indices 1 2 3 4 5 6 
#
# 1 0.008995 -0.002089 -0.000903 0.000522 0.000955 0.002088
# 2 -0.002089 0.007795 -0.003863 0.003320 -0.000378 -0.001423
# 3 -0.000903 -0.003863 0.011013 -0.003217 0.001726 0.003747
# 4 0.000522 0.003320 -0.003217 0.022406 -0.001649 -0.003723
# 5 0.000955 -0.000378 0.001726 -0.001649 0.027923 0.001060
# 6 0.002088 -0.001423 0.003747 -0.003723 0.001060 0.021750
#
#
# Mechanical properties :
#
#
# Convention : Reuss Voigt Hill
#
# Bulk Modulus (GPa) = 70.95996 82.11684 76.53840
# Shear Modulus (GPa) = 42.26905 46.79669 44.53287
#
# Velocity S-wave (km/s) = 4.35964 4.58719 4.47486
# Velocity P-wave (km/s) = 7.56633 8.06106 7.81761
#
# Compressibility (1/GPa) = 0.01409245
#
# Stress axis : x y z
#
# Youngs Moduli (GPa) = 111.17450 128.28109 90.80176
#
# Poissons Ratio (x) = 0.26803 0.08202
# Poissons Ratio (y) = 0.23229 0.35075
# Poissons Ratio (z) = 0.10042 0.49552
#
# Static dielectric constant tensor:
#      x y z
#    x 1.891310 -0.015110 0.065010 
#    y -0.015110 1.806210 0.031500 
#    z 0.065010 0.031500 1.921410 
# 
# From -- ./inp_files/95699.got.cif
#   From: 2010.05.17/outbox.cif.g08.bks.cpg/sg2_48_cif.got.tgz:95699.got - 2010.06.03 11:33:40.
