data_PCOD9048669
_publ_section_title
;
Structure prediction by ZEFSAII (Michael W. Deem and Ramdas Pophale) SiO2 
 PCOD9048669
Probable space group: P -1
;
_chemical_formula_sum "Si O2"
_cell_formula_units_Z 10
_cell_length_a 11.309829
_cell_length_b 8.582481
_cell_length_c 8.120494
_cell_angle_alpha 71.102089
_cell_angle_beta 130.843026
_cell_angle_gamma 140.061426
_cell_volume 356.302290
_symmetry_space_group_name_H-M "P -1"
_symmetry_group_IT_number 2
_symmetry_cell_setting 'triclinic'
loop_
_space_group_symop_operation_xyz
x,y,z
-x,-y,-z
loop_
_atom_site_type_symbol
_atom_site_label
_atom_site_fract_x
_atom_site_fract_y
_atom_site_fract_z
Si Si1 0.275630 0.538902 0.574227
Si Si2 0.304722 0.218161 0.326737
Si Si3 0.386648 0.726023 0.963450
Si Si4 0.872233 0.252908 0.797177
Si Si5 0.873858 0.042432 0.178022
O O1 0.541481 0.670622 0.743125
O O2 0.250616 0.595578 0.709951
O O3 0.240176 0.662620 0.374920
O O4 0.059202 0.241209 0.426043
O O5 0.500000 0.500000 0.500000
O O6 0.038730 0.069823 0.192392
O O7 0.240217 0.969519 0.360948
O O8 0.171651 0.500416 0.970258
O O9 0.500000 0.000000 0.000000
O O10 0.621652 0.798585 0.128171
O O11 0.813692 0.147284 0.965151
#
# Coordination Sequence:
#
# PCOD9048669 Si02
#       5
#     2   2   2   2   2
#     4  11  24  47  72 103 140 180 232 286 336 414
#     4  10  24  45  71 101 140 182 228 285 343 408
#     4  12  27  43  72 107 140 175 236 289 333 412
#     4  12  24  44  76  99 138 190 225 279 354 398
#     4  11  25  48  69 104 143 178 231 286 340 412
#
# _framework density 28.066057000000001
#
# number of rings (size 3 to 8) (size 9 to 14) (size 15 to 20)
#    0.000    0.800    4.000    2.400    0.000    2.400 
#    0.000    2.000    0.000    0.000    0.000    0.000 
#    0.000    0.000    0.000    0.000    0.000    0.000 
#
# Total GULP energy -55863.061113 kJ/mol
# GULP energy per Si atom -5586.306111 kJ/mol
# Density = 2.800218 g / cm^3
# Si number density = 28.066057 Si / 1000 Ang^3
#
#
#
# Elastic Constant Matrix: (Units=GPa)
#
#
# Indices 1 2 3 4 5 6 
#
# 1 169.6295 65.5320 40.6882 21.1413 11.6577 11.6857
# 2 65.5320 168.4541 36.3962 32.0186 13.5750 9.1548
# 3 40.6882 36.3962 87.0306 21.0253 15.4992 4.4224
# 4 21.1413 32.0186 21.0253 43.4974 7.7005 3.3001
# 5 11.6577 13.5750 15.4992 7.7005 65.9845 24.7848
# 6 11.6857 9.1548 4.4224 3.3001 24.7848 56.6226
#
#
#
# Elastic Compliance Matrix: (Units=1/GPa)
#
#
# Indices 1 2 3 4 5 6 
#
# 1 0.007471 -0.002199 -0.002351 -0.000828 0.000167 -0.001028
# 2 -0.002199 0.007869 -0.001204 -0.004054 -0.000348 -0.000336
# 3 -0.002351 -0.001204 0.014630 -0.004657 -0.002583 0.000939
# 4 -0.000828 -0.004054 -0.004657 0.028856 -0.001327 0.000089
# 5 0.000167 -0.000348 -0.002583 -0.001327 0.018964 -0.008000
# 6 -0.001028 -0.000336 0.000939 0.000089 -0.008000 0.021350
#
#
# Mechanical properties :
#
#
# Convention : Reuss Voigt Hill
#
# Bulk Modulus (GPa) = 54.16427 78.92746 66.54586
# Shear Modulus (GPa) = 42.80772 52.05407 47.43090
#
# Velocity S-wave (km/s) = 3.90968 4.31129 4.11539
# Velocity P-wave (km/s) = 6.30250 7.27778 6.80763
#
# Compressibility (1/GPa) = 0.01846236
#
# Stress axis : x y z
#
# Youngs Moduli (GPa) = 133.85093 127.08418 68.35213
#
# Poissons Ratio (x) = 0.27942 0.16069
# Poissons Ratio (y) = 0.29430 0.08231
# Poissons Ratio (z) = 0.31466 0.15304
#
# Static dielectric constant tensor:
#      x y z
#    x 2.164400 -0.096010 0.035550 
#    y -0.096010 2.213050 0.030910 
#    z 0.035550 0.030910 2.276200 
# 
# From -- ./inp_files/16570.got.cif
#   From: 2010.05.17/outbox.cif.g08.bks.cpg/sg2_9_cif.got.tgz:16570.got - 2010.06.03 11:33:40.
