data_PCOD9048312
_publ_section_title
;
Structure prediction by ZEFSAII (Michael W. Deem and Ramdas Pophale) SiO2 
 PCOD9048312
Probable space group: P -1
;
_chemical_formula_sum "Si O2"
_cell_formula_units_Z 16
_cell_length_a 8.158904
_cell_length_b 6.433286
_cell_length_c 19.228522
_cell_angle_alpha 77.013342
_cell_angle_beta 131.861084
_cell_angle_gamma 117.657797
_cell_volume 660.229286
_symmetry_space_group_name_H-M "P -1"
_symmetry_group_IT_number 2
_symmetry_cell_setting 'triclinic'
loop_
_space_group_symop_operation_xyz
x,y,z
-x,-y,-z
loop_
_atom_site_type_symbol
_atom_site_label
_atom_site_fract_x
_atom_site_fract_y
_atom_site_fract_z
Si Si1 0.201524 0.693636 0.994024
Si Si2 0.685947 0.392125 0.547788
Si Si3 0.091404 0.072265 0.165374
Si Si4 0.781070 0.845035 0.300655
Si Si5 0.697988 0.963875 0.632488
Si Si6 0.536922 0.904541 0.849378
Si Si7 0.069450 0.283759 0.512146
Si Si8 0.660206 0.612223 0.131292
O O1 0.407843 0.615096 0.034370
O O2 0.337552 0.921107 0.064466
O O3 0.000000 0.500000 0.000000
O O4 0.056636 0.769251 0.890696
O O5 0.500000 0.500000 0.500000
O O6 0.557577 0.206746 0.461960
O O7 0.909337 0.624411 0.568275
O O8 0.710212 0.225603 0.625589
O O9 0.260633 0.133131 0.276331
O O10 0.253733 0.105096 0.140516
O O11 0.888206 0.802970 0.139624
O O12 0.750757 0.696089 0.373309
O O13 0.692485 0.695170 0.215381
O O14 0.625829 0.995499 0.246804
O O15 0.073225 0.987075 0.357384
O O16 0.370204 0.651200 0.853336
O O17 0.000000 0.500000 0.500000
O O18 0.000000 0.000000 0.500000
#
# Coordination Sequence:
#
# PCOD9048312 Si02
#       8
#     2   2   2   2   2   2   2   2
#     4  11  23  46  68  98 142 179 227 293 352 430
#     4  11  25  43  69  99 140 181 243 295 363 428
#     4  11  24  43  72  99 134 182 234 284 362 423
#     4  10  24  45  66  99 139 182 231 291 355 431
#     4  10  24  46  65  98 139 179 232 299 353 433
#     4  11  25  44  69 100 137 180 232 292 352 427
#     4  12  27  44  74 102 142 196 240 300 372 432
#     4  10  24  45  68  99 140 178 231 293 349 431
#
# _framework density 24.234005
#
# number of rings (size 3 to 8) (size 9 to 14) (size 15 to 20)
#    0.000    1.250    2.500    1.500    7.000    2.500 
#    6.750    0.000    0.000    0.000    0.000    0.000 
#    0.000    0.000    0.000    0.000    0.000    0.000 
#
# Total GULP energy -89176.372933 kJ/mol
# GULP energy per Si atom -5573.523308 kJ/mol
# Density = 2.417885 g / cm^3
# Si number density = 24.234005 Si / 1000 Ang^3
#
#
#
# Elastic Constant Matrix: (Units=GPa)
#
#
# Indices 1 2 3 4 5 6 
#
# 1 44.6469 11.9158 -10.7236 -4.0820 14.0086 -10.7802
# 2 11.9158 154.1809 33.4899 -21.4245 6.0800 -3.1799
# 3 -10.7236 33.4899 121.7000 -39.4380 7.1689 -8.0818
# 4 -4.0820 -21.4245 -39.4380 42.3580 -4.7881 8.6646
# 5 14.0086 6.0800 7.1689 -4.7881 29.1982 -6.2316
# 6 -10.7802 -3.1799 -8.0818 8.6646 -6.2316 39.6453
#
#
#
# Elastic Compliance Matrix: (Units=1/GPa)
#
#
# Indices 1 2 3 4 5 6 
#
# 1 0.030696 -0.002387 0.006063 0.004576 -0.013635 0.006248
# 2 -0.002387 0.007291 -0.001576 0.002182 0.000194 -0.000832
# 3 0.006063 -0.001576 0.013173 0.011402 -0.003703 0.001134
# 4 0.004576 0.002182 0.011402 0.036610 -0.000367 -0.004315
# 5 -0.013635 0.000194 -0.003703 -0.000367 0.042079 0.002247
# 6 0.006248 -0.000832 0.001134 -0.004315 0.002247 0.028383
#
#
# Mechanical properties :
#
#
# Convention : Reuss Voigt Hill
#
# Bulk Modulus (GPa) = 18.06349 43.32133 30.69241
# Shear Modulus (GPa) = 28.98776 41.29667 35.14221
#
# Velocity S-wave (km/s) = 3.46231 4.13253 3.81218
# Velocity P-wave (km/s) = 4.84287 6.37851 5.66299
#
# Compressibility (1/GPa) = 0.05536029
#
# Stress axis : x y z
#
# Youngs Moduli (GPa) = 32.57712 137.15238 75.91232
#
# Poissons Ratio (x) = 0.32735 -0.46024
# Poissons Ratio (y) = 0.07775 0.11965
# Poissons Ratio (z) = -0.19751 0.21617
#
# Static dielectric constant tensor:
#      x y z
#    x 1.984460 0.016610 -0.025010 
#    y 0.016610 1.976400 0.051620 
#    z -0.025010 0.051620 1.931160 
# 
# From -- ./inp_files/139179.got.cif
#   From: 2010.05.17/outbox.cif.g08.bks.cpg/sg2_70_cif.got.tgz:139179.got - 2010.06.03 11:33:40.
