data_PCOD9048645
_publ_section_title
;
Structure prediction by ZEFSAII (Michael W. Deem and Ramdas Pophale) SiO2 
 PCOD9048645
Probable space group: P -1
;
_chemical_formula_sum "Si O2"
_cell_formula_units_Z 14
_cell_length_a 18.764548
_cell_length_b 8.972452
_cell_length_c 5.483493
_cell_angle_alpha 103.558517
_cell_angle_beta 56.530569
_cell_angle_gamma 132.784461
_cell_volume 550.201163
_symmetry_space_group_name_H-M "P -1"
_symmetry_group_IT_number 2
_symmetry_cell_setting 'triclinic'
loop_
_space_group_symop_operation_xyz
x,y,z
-x,-y,-z
loop_
_atom_site_type_symbol
_atom_site_label
_atom_site_fract_x
_atom_site_fract_y
_atom_site_fract_z
Si Si1 0.482856 0.649888 0.500715
Si Si2 0.702049 0.683854 0.587691
Si Si3 0.709213 0.001153 0.983152
Si Si4 0.075142 0.215686 0.594338
Si Si5 0.852722 0.063943 0.146340
Si Si6 0.572135 0.116944 0.154587
Si Si7 0.929803 0.443054 0.365792
O O1 0.500000 0.500000 0.500000
O O2 0.412923 0.551202 0.340848
O O3 0.611580 0.874723 0.334602
O O4 0.404385 0.672809 0.808439
O O5 0.805395 0.717213 0.530385
O O6 0.762206 0.819014 0.276988
O O7 0.674456 0.808241 0.823613
O O8 0.826934 0.103128 0.943876
O O9 0.680597 0.133076 0.978028
O O10 0.105555 0.421648 0.510310
O O11 0.000000 0.000000 0.500000
O O12 0.981238 0.148448 0.954554
O O13 0.842051 0.190802 0.406866
O O14 0.500000 0.000000 0.500000
O O15 0.500000 0.000000 0.000000
O O16 0.000000 0.500000 0.500000
O O17 0.000000 0.500000 0.000000
#
# Coordination Sequence:
#
# PCOD9048645 Si02
#       7
#     2   2   2   2   2   2   2
#     4  11  23  45  70 104 140 180 239 290 353 414
#     4  12  24  42  72 102 140 186 232 296 350 414
#     4  11  24  44  70 100 143 188 231 289 354 423
#     4  11  23  45  70 104 140 180 239 290 353 414
#     4  11  24  44  70 100 143 188 231 289 354 423
#     4  10  24  45  70  98 137 185 231 287 344 419
#     4  10  24  45  70  98 137 185 231 287 344 419
#
# _framework density 25.445239000000001
#
# number of rings (size 3 to 8) (size 9 to 14) (size 15 to 20)
#    0.000    1.143    2.857    2.571    6.000    2.286 
#    0.000    2.857    0.000    0.000    0.000    0.000 
#    0.000    0.000    0.000    0.000    0.000    0.000 
#
# Total GULP energy -78162.748809 kJ/mol
# GULP energy per Si atom -5583.053486 kJ/mol
# Density = 2.538732 g / cm^3
# Si number density = 25.445239 Si / 1000 Ang^3
#
#
#
# Elastic Constant Matrix: (Units=GPa)
#
#
# Indices 1 2 3 4 5 6 
#
# 1 190.2426 46.5213 38.2008 24.8863 -20.5511 -22.3503
# 2 46.5213 108.8560 11.7481 33.5954 -4.3355 -11.2761
# 3 38.2008 11.7481 84.3917 20.9832 -13.5821 -8.1698
# 4 24.8863 33.5954 20.9832 58.1539 -3.2557 -7.6629
# 5 -20.5511 -4.3355 -13.5821 -3.2557 52.6749 14.9943
# 6 -22.3503 -11.2761 -8.1698 -7.6629 14.9943 52.1099
#
#
#
# Elastic Compliance Matrix: (Units=1/GPa)
#
#
# Indices 1 2 3 4 5 6 
#
# 1 0.006639 -0.002238 -0.002206 -0.000470 0.001365 0.001555
# 2 -0.002238 0.012054 0.000929 -0.006231 -0.000301 0.000964
# 3 -0.002206 0.000929 0.014285 -0.004592 0.002595 0.000073
# 4 -0.000470 -0.006231 -0.004592 0.022780 -0.000849 0.001324
# 5 0.001365 -0.000301 0.002595 -0.000849 0.021654 -0.005429
# 6 0.001555 0.000964 0.000073 0.001324 -0.005429 0.021834
#
#
# Mechanical properties :
#
#
# Convention : Reuss Voigt Hill
#
# Bulk Modulus (GPa) = 38.54029 64.04782 51.29406
# Shear Modulus (GPa) = 43.50659 51.72241 47.61450
#
# Velocity S-wave (km/s) = 4.13947 4.51343 4.33049
# Velocity P-wave (km/s) = 6.16654 7.23788 6.72358
#
# Compressibility (1/GPa) = 0.02594687
#
# Stress axis : x y z
#
# Youngs Moduli (GPa) = 150.63627 82.96323 70.00229
#
# Poissons Ratio (x) = 0.18570 0.15444
# Poissons Ratio (y) = 0.33717 -0.06505
# Poissons Ratio (z) = 0.33233 -0.07710
#
# Static dielectric constant tensor:
#      x y z
#    x 2.007500 -0.058040 0.029380 
#    y -0.058040 2.136400 -0.160800 
#    z 0.029380 -0.160800 2.229150 
# 
# From -- ./inp_files/48911.got.cif
#   From: 2010.05.17/outbox.cif.g08.bks.cpg/sg2_25_cif.got.tgz:48911.got - 2010.06.03 11:33:40.
