data_PCOD9048924
_publ_section_title
;
Structure prediction by ZEFSAII (Michael W. Deem and Ramdas Pophale) SiO2 
 PCOD9048924
Probable space group: P -1
;
_chemical_formula_sum "Si O2"
_cell_formula_units_Z 14
_cell_length_a 9.419136
_cell_length_b 9.131072
_cell_length_c 11.788872
_cell_angle_alpha 124.018117
_cell_angle_beta 49.994626
_cell_angle_gamma 95.656083
_cell_volume 586.780933
_symmetry_space_group_name_H-M "P -1"
_symmetry_group_IT_number 2
_symmetry_cell_setting 'triclinic'
loop_
_space_group_symop_operation_xyz
x,y,z
-x,-y,-z
loop_
_atom_site_type_symbol
_atom_site_label
_atom_site_fract_x
_atom_site_fract_y
_atom_site_fract_z
Si Si1 0.788787 0.759087 0.732538
Si Si2 0.939814 0.573855 0.807169
Si Si3 0.383642 0.834168 0.437189
Si Si4 0.800260 0.493571 0.157758
Si Si5 0.650959 0.988896 0.242651
Si Si6 0.372648 0.814189 0.893751
Si Si7 0.077197 0.780810 0.408590
O O1 0.928248 0.628442 0.704347
O O2 0.597209 0.708315 0.785271
O O3 0.893124 0.765876 0.564879
O O4 0.714234 0.977376 0.911977
O O5 0.861614 0.401965 0.786577
O O6 0.153488 0.505945 0.731752
O O7 0.794966 0.776308 0.029501
O O8 0.595669 0.670884 0.301435
O O9 0.267300 0.949211 0.658569
O O10 0.255134 0.750944 0.392950
O O11 0.445836 0.973112 0.384246
O O12 0.764360 0.302411 0.067673
O O13 0.000000 0.500000 0.000000
O O14 0.618235 0.139414 0.223830
O O15 0.000000 0.000000 0.500000
#
# Coordination Sequence:
#
# PCOD9048924 Si02
#       7
#     2   2   2   2   2   2   2
#     4  10  24  47  71 108 145 189 241 296 362 428
#     4  11  26  46  70 104 145 189 240 294 360 430
#     4  11  26  46  72 106 147 188 237 301 358 427
#     4  12  27  46  73 108 145 191 245 297 359 426
#     4  10  24  46  73 103 144 186 244 291 365 418
#     4  10  24  45  76 103 144 192 242 295 361 432
#     4  12  28  44  76 107 147 188 240 302 364 427
#
# _framework density 23.858989999999999
#
# number of rings (size 3 to 8) (size 9 to 14) (size 15 to 20)
#    0.000    1.143    1.429    2.143   12.000    2.286 
#    0.000    0.000    0.000    0.000    0.000    0.000 
#    0.000    0.000    0.000    0.000    0.000    0.000 
#
# Total GULP energy -78347.772639 kJ/mol
# GULP energy per Si atom -5596.269474 kJ/mol
# Density = 2.380469 g / cm^3
# Si number density = 23.858990 Si / 1000 Ang^3
#
#
#
# Elastic Constant Matrix: (Units=GPa)
#
#
# Indices 1 2 3 4 5 6 
#
# 1 163.3968 65.5044 32.2153 14.6835 -1.4093 16.5641
# 2 65.5044 149.9566 42.6897 12.2904 -0.8136 4.0440
# 3 32.2153 42.6897 70.4948 5.5754 6.4727 -6.3367
# 4 14.6835 12.2904 5.5754 29.6091 -3.1728 4.0794
# 5 -1.4093 -0.8136 6.4727 -3.1728 22.9189 2.1842
# 6 16.5641 4.0440 -6.3367 4.0794 2.1842 48.2010
#
#
#
# Elastic Compliance Matrix: (Units=1/GPa)
#
#
# Indices 1 2 3 4 5 6 
#
# 1 0.008096 -0.002644 -0.002282 -0.002000 0.001032 -0.002738
# 2 -0.002644 0.009216 -0.004401 -0.001502 0.001235 -0.000372
# 3 -0.002282 -0.004401 0.018987 -0.001857 -0.006306 0.004092
# 4 -0.002000 -0.001502 -0.001857 0.036735 0.005700 -0.002798
# 5 0.001032 0.001235 -0.006306 0.005700 0.046680 -0.003885
# 6 -0.002738 -0.000372 0.004092 -0.002798 -0.003885 0.022669
#
#
# Mechanical properties :
#
#
# Convention : Reuss Voigt Hill
#
# Bulk Modulus (GPa) = 56.66806 73.85188 65.25997
# Shear Modulus (GPa) = 29.95506 36.37506 33.16506
#
# Velocity S-wave (km/s) = 3.54715 3.90883 3.73237
# Velocity P-wave (km/s) = 6.37018 7.16886 6.78129
#
# Compressibility (1/GPa) = 0.01764663
#
# Stress axis : x y z
#
# Youngs Moduli (GPa) = 123.51983 108.50564 52.66804
#
# Poissons Ratio (x) = 0.28684 0.12016
# Poissons Ratio (y) = 0.32654 0.23179
# Poissons Ratio (z) = 0.28181 0.47753
#
# Static dielectric constant tensor:
#      x y z
#    x 1.891660 -0.021700 0.032620 
#    y -0.021700 1.911360 0.029480 
#    z 0.032620 0.029480 1.979710 
# 
# From -- ./inp_files/383073.got.cif
#   From: 2010.05.17/outbox.cif.g08.bks.cpg/sg2_192_cif.got.tgz:383073.got - 2010.06.03 11:33:40.
