data_PCOD9048113
_publ_section_title
;
Structure prediction by ZEFSAII (Michael W. Deem and Ramdas Pophale) SiO2 
 PCOD9048113
Probable space group: P -1
;
_chemical_formula_sum "Si O2"
_cell_formula_units_Z 14
_cell_length_a 7.794584
_cell_length_b 12.518354
_cell_length_c 18.968910
_cell_angle_alpha 153.423591
_cell_angle_beta 129.326058
_cell_angle_gamma 45.555391
_cell_volume 591.022730
_symmetry_space_group_name_H-M "P -1"
_symmetry_group_IT_number 2
_symmetry_cell_setting 'triclinic'
loop_
_space_group_symop_operation_xyz
x,y,z
-x,-y,-z
loop_
_atom_site_type_symbol
_atom_site_label
_atom_site_fract_x
_atom_site_fract_y
_atom_site_fract_z
Si Si1 0.000091 0.451992 0.712346
Si Si2 0.637089 0.979544 0.952455
Si Si3 0.240044 0.181323 0.395930
Si Si4 0.310929 0.255686 0.807689
Si Si5 0.876174 0.340367 0.270532
Si Si6 0.718562 0.542859 0.943664
Si Si7 0.972413 0.016699 0.646403
O O1 0.741179 0.687006 0.780090
O O2 0.101847 0.429773 0.803910
O O3 0.137432 0.538596 0.738564
O O4 0.026945 0.171815 0.527734
O O5 0.500000 0.000000 0.000000
O O6 0.843360 0.077900 0.088508
O O7 0.454508 0.195157 0.982417
O O8 0.294905 0.418972 0.584103
O O9 0.114205 0.262057 0.334571
O O10 0.476892 0.932107 0.295967
O O11 0.060325 0.119078 0.368343
O O12 0.205516 0.080005 0.724755
O O13 0.372107 0.432625 0.985384
O O14 0.747891 0.292250 0.757173
O O15 0.000000 0.500000 0.000000
#
# Coordination Sequence:
#
# PCOD9048113 Si02
#       7
#     2   2   2   2   2   2   2
#     4  11  25  45  67 106 135 186 232 287 347 416
#     4  12  26  42  72 100 144 184 227 290 353 405
#     4  10  24  45  72 102 140 188 229 294 344 408
#     4  11  24  42  74 100 141 183 239 279 354 408
#     4  10  25  46  65 103 146 176 239 284 349 419
#     4  10  24  45  66 104 138 182 235 284 344 418
#     4  10  24  44  73  99 142 177 243 283 341 417
#
# _framework density 23.687753000000001
#
# number of rings (size 3 to 8) (size 9 to 14) (size 15 to 20)
#    0.000    1.429    0.000    3.429   12.000    1.714 
#    0.000    5.000    0.000    0.000    0.000    0.000 
#    0.000    0.000    0.000    0.000    0.000    0.000 
#
# Total GULP energy -78084.745817 kJ/mol
# GULP energy per Si atom -5577.481844 kJ/mol
# Density = 2.363384 g / cm^3
# Si number density = 23.687753 Si / 1000 Ang^3
#
#
#
# Elastic Constant Matrix: (Units=GPa)
#
#
# Indices 1 2 3 4 5 6 
#
# 1 66.6255 8.3892 28.5977 1.7452 -14.8706 10.7432
# 2 8.3892 125.5148 62.2417 9.3238 -17.2393 7.6509
# 3 28.5977 62.2417 110.0290 12.8663 -35.0828 2.5036
# 4 1.7452 9.3238 12.8663 35.4991 -5.4878 -13.6898
# 5 -14.8706 -17.2393 -35.0828 -5.4878 34.6487 6.7069
# 6 10.7432 7.6509 2.5036 -13.6898 6.7069 27.8645
#
#
#
# Elastic Compliance Matrix: (Units=1/GPa)
#
#
# Indices 1 2 3 4 5 6 
#
# 1 0.019926 0.002386 -0.003207 -0.003753 0.008194 -0.011866
# 2 0.002386 0.011662 -0.006565 -0.002613 0.000732 -0.004992
# 3 -0.003207 -0.006565 0.018923 -0.004385 0.014664 -0.004345
# 4 -0.003753 -0.002613 -0.004385 0.038575 -0.005669 0.022875
# 5 0.008194 0.000732 0.014664 -0.005669 0.050489 -0.019616
# 6 -0.011866 -0.004992 -0.004345 0.022875 -0.019616 0.058184
#
#
# Mechanical properties :
#
#
# Convention : Reuss Voigt Hill
#
# Bulk Modulus (GPa) = 27.98043 55.62518 41.80280
# Shear Modulus (GPa) = 22.27743 33.13185 27.70464
#
# Velocity S-wave (km/s) = 3.07002 3.74397 3.42362
# Velocity P-wave (km/s) = 4.94010 6.49795 5.77182
#
# Compressibility (1/GPa) = 0.03573927
#
# Stress axis : x y z
#
# Youngs Moduli (GPa) = 50.18588 85.74859 52.84628
#
# Poissons Ratio (x) = -0.20461 0.16949
# Poissons Ratio (y) = -0.11975 0.34692
# Poissons Ratio (z) = 0.16096 0.56291
#
# Static dielectric constant tensor:
#      x y z
#    x 1.967460 0.019980 0.067540 
#    y 0.019980 1.749220 -0.003110 
#    z 0.067540 -0.003110 1.976510 
# 
# From -- ./inp_files/154613.got.cif
#   From: 2010.05.17/outbox.cif.g08.bks.cpg/sg2_78_cif.got.tgz:154613.got - 2010.06.03 11:33:40.
