data_PCOD9048992
_publ_section_title
;
Structure prediction by ZEFSAII (Michael W. Deem and Ramdas Pophale) SiO2 
 PCOD9048992
Probable space group: P -1
;
_chemical_formula_sum "Si O2"
_cell_formula_units_Z 13
_cell_length_a 14.260356
_cell_length_b 9.371570
_cell_length_c 10.606880
_cell_angle_alpha 152.435960
_cell_angle_beta 96.334327
_cell_angle_gamma 97.375219
_cell_volume 567.659738
_symmetry_space_group_name_H-M "P -1"
_symmetry_group_IT_number 2
_symmetry_cell_setting 'triclinic'
loop_
_space_group_symop_operation_xyz
x,y,z
-x,-y,-z
loop_
_atom_site_type_symbol
_atom_site_label
_atom_site_fract_x
_atom_site_fract_y
_atom_site_fract_z
Si Si1 0.245571 0.882245 0.318273
Si Si2 0.109763 0.244344 0.629879
Si Si3 0.500000 0.000000 0.000000
Si Si4 0.965381 0.312871 0.480183
Si Si5 0.484941 0.331472 0.727091
Si Si6 0.184274 0.454920 0.219755
Si Si7 0.377421 0.372196 0.277305
O O1 0.250405 0.753348 0.359452
O O2 0.154826 0.999113 0.389169
O O3 0.363947 0.201063 0.556753
O O4 0.206408 0.537832 0.957387
O O5 0.071634 0.439099 0.678561
O O6 0.000000 0.000000 0.500000
O O7 0.434007 0.686908 0.635223
O O8 0.609739 0.967750 0.955006
O O9 0.875452 0.393776 0.585515
O O10 0.000000 0.500000 0.500000
O O11 0.910622 0.890577 0.131210
O O12 0.561270 0.536605 0.780528
O O13 0.500000 0.000000 0.500000
O O14 0.500000 0.500000 0.000000
O O15 0.260784 0.332903 0.204106
#
# Coordination Sequence:
#
# PCOD9048992 Si02
#       7
#     2   2   1   2   2   2   2
#     4  12  24  42  70 106 129 181 225 278 361 412
#     4  12  23  44  70  96 137 177 229 289 343 413
#     4  10  24  46  64  90 140 188 234 270 336 410
#     4  12  27  46  68 101 139 179 231 292 346 415
#     4  12  25  42  71 105 145 170 227 296 349 410
#     4  12  23  44  76  96 132 182 231 280 356 423
#     4  11  24  46  71  98 138 184 233 284 342 418
#
# _framework density 22.901043000000001
#
# number of rings (size 3 to 8) (size 9 to 14) (size 15 to 20)
#    0.000    0.308    4.615    4.615    2.154    0.000 
#   16.615    0.000    0.000    0.000    0.000    0.000 
#    0.000    0.000    0.000    0.000    0.000    0.000 
#
# Total GULP energy -72440.913256 kJ/mol
# GULP energy per Si atom -5572.377943 kJ/mol
# Density = 2.284892 g / cm^3
# Si number density = 22.901043 Si / 1000 Ang^3
#
#
#
# Elastic Constant Matrix: (Units=GPa)
#
#
# Indices 1 2 3 4 5 6 
#
# 1 -1597.3217 509.4398 -784.0380 147.6522 389.5349 -53.4023
# 2 509.4398 -115.9308 243.3913 -55.6411 -124.2572 8.0836
# 3 -784.0380 243.3913 -244.4646 46.4725 167.6850 -6.1288
# 4 147.6522 -55.6411 46.4725 12.6955 -41.3076 3.8481
# 5 389.5349 -124.2572 167.6850 -41.3076 -52.5109 6.6995
# 6 -53.4023 8.0836 -6.1288 3.8481 6.6995 28.9605
#
#
#
# Elastic Compliance Matrix: (Units=1/GPa)
#
#
# Indices 1 2 3 4 5 6 
#
# 1 0.004793 0.008555 -0.001409 0.006326 0.006326 0.003848
# 2 0.008555 0.025600 0.003398 0.012837 0.004479 0.006606
# 3 -0.001409 0.003398 0.011853 0.014144 0.007630 -0.004684
# 4 0.006326 0.012837 0.014144 0.059125 0.015168 -0.000290
# 5 0.006326 0.004479 0.007630 0.015168 0.030110 0.003049
# 6 0.003848 0.006606 -0.004684 -0.000290 0.003049 0.038124
#
#
# Mechanical properties :
#
#
# Convention : Reuss Voigt Hill
#
# Bulk Modulus (GPa) = 15.78942 -224.45897 -104.33477
# Shear Modulus (GPa) = 29.47601 -130.60500 -50.56450
#
# Velocity S-wave (km/s) = 3.59151 -7.56002 -4.70399
# Velocity P-wave (km/s) = 4.91001 13.20722 8.66956
#
# Compressibility (1/GPa) = 0.06333354
#
# Stress axis : x y z
#
# Youngs Moduli (GPa) = 208.63624 39.06203 84.36557
#
# Poissons Ratio (x) = -0.33416 0.11891
# Poissons Ratio (y) = -1.78482 -0.28670
# Poissons Ratio (z) = 0.29407 -0.13274
#
# Static dielectric constant tensor:
#      x y z
#    x 1.966490 -0.274260 0.044860 
#    y -0.274260 2.585590 -0.043050 
#    z 0.044860 -0.043050 1.830580 
# 
# From -- ./inp_files/297181.got.cif
#   From: 2010.05.17/outbox.cif.g08.bks.cpg/sg2_149_cif.got.tgz:297181.got - 2010.06.03 11:33:40.
