data_PCOD9048987
_publ_section_title
;
Structure prediction by ZEFSAII (Michael W. Deem and Ramdas Pophale) SiO2 
 PCOD9048987
Probable space group: P -1
;
_chemical_formula_sum "Si O2"
_cell_formula_units_Z 16
_cell_length_a 5.397949
_cell_length_b 12.064944
_cell_length_c 20.059969
_cell_angle_alpha 37.701682
_cell_angle_beta 70.594146
_cell_angle_gamma 88.468568
_cell_volume 687.501853
_symmetry_space_group_name_H-M "P -1"
_symmetry_group_IT_number 2
_symmetry_cell_setting 'triclinic'
loop_
_space_group_symop_operation_xyz
x,y,z
-x,-y,-z
loop_
_atom_site_type_symbol
_atom_site_label
_atom_site_fract_x
_atom_site_fract_y
_atom_site_fract_z
Si Si1 0.514244 0.203008 0.958017
Si Si2 0.392694 0.084371 0.295846
Si Si3 0.159620 0.375391 0.576237
Si Si4 0.751111 0.866319 0.435841
Si Si5 0.959147 0.838423 0.185701
Si Si6 0.302112 0.873413 0.886188
Si Si7 0.452567 0.468481 0.736997
Si Si8 0.242991 0.480466 0.890054
O O1 0.631758 0.362835 0.811950
O O2 0.391050 0.326491 0.959608
O O3 0.668848 0.129547 0.034554
O O4 0.245955 0.007418 0.049071
O O5 0.454833 0.068887 0.218966
O O6 0.578672 0.310353 0.193195
O O7 0.523284 0.954615 0.389962
O O8 0.052444 0.022007 0.365594
O O9 0.500000 0.500000 0.500000
O O10 0.154870 0.214784 0.599738
O O11 0.989978 0.293318 0.698872
O O12 0.000000 0.500000 0.500000
O O13 0.619050 0.676044 0.586892
O O14 0.747832 0.694518 0.219132
O O15 0.820609 0.958721 0.185546
O O16 0.079067 0.648666 0.996557
O O17 0.260982 0.501999 0.797594
#
# Coordination Sequence:
#
# PCOD9048987 Si02
#       8
#     2   2   2   2   2   2   2   2
#     4   9  23  42  67 100 133 179 235 282 358 410
#     4  12  27  46  75 102 142 187 242 293 349 408
#     4  12  25  44  70 104 143 183 227 286 352 413
#     4  12  27  45  71 108 140 190 236 286 353 424
#     4  11  22  43  69 103 141 180 228 299 351 427
#     4  11  23  43  73 105 135 179 239 299 357 413
#     4  10  24  46  64 104 142 186 235 282 360 420
#     4   9  25  46  66 102 137 187 236 296 344 415
#
# _framework density 23.272663999999999
#
# number of rings (size 3 to 8) (size 9 to 14) (size 15 to 20)
#    0.750    0.500    2.500    2.250    5.250    3.000 
#    0.000    0.000    0.000    0.000    0.000    0.000 
#    0.000    0.000    0.000    0.000    0.000    0.000 
#
# Total GULP energy -89297.955931 kJ/mol
# GULP energy per Si atom -5581.122246 kJ/mol
# Density = 2.321969 g / cm^3
# Si number density = 23.272664 Si / 1000 Ang^3
#
#
#
# Elastic Constant Matrix: (Units=GPa)
#
#
# Indices 1 2 3 4 5 6 
#
# 1 70.2412 4.5333 41.9574 3.1111 9.9662 18.7325
# 2 4.5333 66.5555 39.0086 -4.8274 -0.7554 11.1213
# 3 41.9574 39.0086 139.0303 17.5870 -8.1864 18.4189
# 4 3.1111 -4.8274 17.5870 45.4114 13.9338 -8.9348
# 5 9.9662 -0.7554 -8.1864 13.9338 41.7444 7.9521
# 6 18.7325 11.1213 18.4189 -8.9348 7.9521 23.7627
#
#
#
# Elastic Compliance Matrix: (Units=1/GPa)
#
#
# Indices 1 2 3 4 5 6 
#
# 1 0.021717 0.004331 -0.006290 0.000055 -0.003892 -0.012949
# 2 0.004331 0.019898 -0.006946 0.004339 -0.002560 -0.004854
# 3 -0.006290 -0.006946 0.014359 -0.010898 0.009790 -0.010294
# 4 0.000055 0.004339 -0.010898 0.038267 -0.020080 0.027481
# 5 -0.003892 -0.002560 0.009790 -0.020080 0.037951 -0.023573
# 6 -0.012949 -0.004854 -0.010294 0.027481 -0.023573 0.080763
#
#
# Mechanical properties :
#
#
# Convention : Reuss Voigt Hill
#
# Bulk Modulus (GPa) = 26.20326 49.64729 37.92527
# Shear Modulus (GPa) = 20.53499 34.87220 27.70360
#
# Velocity S-wave (km/s) = 2.97369 3.87514 3.45395
# Velocity P-wave (km/s) = 4.80355 6.43440 5.67783
#
# Compressibility (1/GPa) = 0.03816319
#
# Stress axis : x y z
#
# Youngs Moduli (GPa) = 46.04661 50.25567 69.64461
#
# Poissons Ratio (x) = -0.21764 0.43804
# Poissons Ratio (y) = -0.19941 0.48378
# Poissons Ratio (z) = 0.28962 0.34910
#
# Static dielectric constant tensor:
#      x y z
#    x 1.991630 0.011530 -0.008800 
#    y 0.011530 1.895070 0.024450 
#    z -0.008800 0.024450 1.862000 
# 
# From -- ./inp_files/583259.got.cif
#   From: 2010.05.17/outbox.cif.g08.bks.cpg/sg2_292_cif.got.tgz:583259.got - 2010.06.03 11:33:40.
