data_PCOD9048488
_publ_section_title
;
Structure prediction by ZEFSAII (Michael W. Deem and Ramdas Pophale) SiO2 
 PCOD9048488
Probable space group: P -1
;
_chemical_formula_sum "Si O2"
_cell_formula_units_Z 13
_cell_length_a 5.373924
_cell_length_b 8.385067
_cell_length_c 19.668888
_cell_angle_alpha 44.880383
_cell_angle_beta 100.575881
_cell_angle_gamma 75.925453
_cell_volume 518.186467
_symmetry_space_group_name_H-M "P -1"
_symmetry_group_IT_number 2
_symmetry_cell_setting 'triclinic'
loop_
_space_group_symop_operation_xyz
x,y,z
-x,-y,-z
loop_
_atom_site_type_symbol
_atom_site_label
_atom_site_fract_x
_atom_site_fract_y
_atom_site_fract_z
Si Si1 0.457996 0.600968 0.546288
Si Si2 0.061087 0.605252 0.812094
Si Si3 0.787334 0.060710 0.362499
Si Si4 0.480227 0.926085 0.279746
Si Si5 0.500000 0.000000 0.500000
Si Si6 0.845388 0.892218 0.073317
Si Si7 0.525446 0.745353 0.945753
O O1 0.500000 0.500000 0.500000
O O2 0.474101 0.350644 0.657935
O O3 0.661887 0.696998 0.560059
O O4 0.138567 0.885556 0.453511
O O5 0.272626 0.670940 0.759570
O O6 0.981600 0.427239 0.816655
O O7 0.195012 0.406644 0.943155
O O8 0.806794 0.890967 0.741696
O O9 0.741883 0.893164 0.352330
O O10 0.592901 0.107351 0.405040
O O11 0.435652 0.110685 0.158507
O O12 0.780761 0.036095 0.098606
O O13 0.500000 0.000000 0.000000
O O14 0.000000 0.000000 0.000000
O O15 0.500000 0.500000 0.000000
#
# Coordination Sequence:
#
# PCOD9048488 Si02
#       7
#     2   2   2   2   1   2   2
#     4  12  26  50  73 110 146 201 255 316 391 454
#     4  11  24  45  73 107 150 194 255 314 389 469
#     4  12  25  49  73 110 150 198 256 324 391 469
#     4  12  25  45  76 107 148 201 249 320 386 467
#     4  12  28  48  78 104 156 196 258 326 386 472
#     4  10  24  45  69 103 153 202 252 321 378 461
#     4  11  23  45  71 110 145 197 251 308 387 466
#
# _framework density 25.087494
#
# number of rings (size 3 to 8) (size 9 to 14) (size 15 to 20)
#    0.000    0.615    4.615    2.308    4.308    1.231 
#    0.000    0.000    0.000    0.000    0.000    0.000 
#    0.000    0.000    0.000    0.000    0.000    0.000 
#
# Total GULP energy -72400.895785 kJ/mol
# GULP energy per Si atom -5569.299676 kJ/mol
# Density = 2.503039 g / cm^3
# Si number density = 25.087494 Si / 1000 Ang^3
#
#
#
# Elastic Constant Matrix: (Units=GPa)
#
#
# Indices 1 2 3 4 5 6 
#
# 1 61.0984 7.9015 32.3000 8.3541 -36.1201 -22.8512
# 2 7.9015 127.4910 36.0659 -11.9799 -40.7448 -6.8539
# 3 32.3000 36.0659 133.6426 16.4878 -41.5818 -5.3633
# 4 8.3541 -11.9799 16.4878 32.1268 3.8342 -16.5562
# 5 -36.1201 -40.7448 -41.5818 3.8342 61.6694 -2.9472
# 6 -22.8512 -6.8539 -5.3633 -16.5562 -2.9472 40.9116
#
#
#
# Elastic Compliance Matrix: (Units=1/GPa)
#
#
# Indices 1 2 3 4 5 6 
#
# 1 0.050259 0.012007 -0.003581 0.006989 0.036196 0.035050
# 2 0.012007 0.014038 -0.002670 0.008553 0.014607 0.013222
# 3 -0.003581 -0.002670 0.011187 -0.008390 0.004008 -0.004088
# 4 0.006989 0.008553 -0.008390 0.049033 0.002197 0.024238
# 5 0.036196 0.014607 0.004008 0.002197 0.050958 0.027750
# 6 0.035050 0.013222 -0.004088 0.024238 0.027750 0.057507
#
#
# Mechanical properties :
#
#
# Convention : Reuss Voigt Hill
#
# Bulk Modulus (GPa) = 11.49484 52.75187 32.12335
# Shear Modulus (GPa) = 19.96262 43.33921 31.65092
#
# Velocity S-wave (km/s) = 2.82391 4.16086 3.55578
# Velocity P-wave (km/s) = 3.90186 6.64503 5.44890
#
# Compressibility (1/GPa) = 0.08699556
#
# Stress axis : x y z
#
# Youngs Moduli (GPa) = 19.89692 71.23745 89.39150
#
# Poissons Ratio (x) = -0.85535 0.32010
# Poissons Ratio (y) = -0.23890 0.23868
# Poissons Ratio (z) = 0.07125 0.19020
#
# Static dielectric constant tensor:
#      x y z
#    x 2.329510 0.268250 0.110950 
#    y 0.268250 2.761980 0.247280 
#    z 0.110950 0.247280 2.060930 
# 
# From -- ./inp_files/59991.got.cif
#   From: 2010.05.17/outbox.cif.g08.bks.cpg/sg2_30_cif.got.tgz:59991.got - 2010.06.03 11:33:40.
