data_PCOD9048779
_publ_section_title
;
Structure prediction by ZEFSAII (Michael W. Deem and Ramdas Pophale) SiO2 
 PCOD9048779
Probable space group: P -1
;
_chemical_formula_sum "Si O2"
_cell_formula_units_Z 10
_cell_length_a 12.389356
_cell_length_b 5.408684
_cell_length_c 16.192793
_cell_angle_alpha 57.038012
_cell_angle_beta 26.645801
_cell_angle_gamma 63.846116
_cell_volume 405.300233
_symmetry_space_group_name_H-M "P -1"
_symmetry_group_IT_number 2
_symmetry_cell_setting 'triclinic'
loop_
_space_group_symop_operation_xyz
x,y,z
-x,-y,-z
loop_
_atom_site_type_symbol
_atom_site_label
_atom_site_fract_x
_atom_site_fract_y
_atom_site_fract_z
Si Si1 0.558623 0.912784 0.216190
Si Si2 0.627050 0.331312 0.333675
Si Si3 0.075812 0.169248 0.505515
Si Si4 0.704669 0.863382 0.936779
Si Si5 0.908836 0.349793 0.963691
O O1 0.462037 0.594704 0.380828
O O2 0.356751 0.129366 0.330590
O O3 0.613187 0.901987 0.084639
O O4 0.828105 0.015092 0.049676
O O5 0.827618 0.467348 0.238382
O O6 0.500000 0.000000 0.500000
O O7 0.769053 0.341240 0.147938
O O8 0.000000 0.500000 0.500000
O O9 0.000000 0.000000 0.500000
O O10 0.945026 0.029574 0.701858
O O11 0.772336 0.529108 0.955025
O O12 0.500000 0.000000 0.000000
#
# Coordination Sequence:
#
# PCOD9048779 Si02
#       5
#     2   2   2   2   2
#     4  11  25  47  79 110 157 203 263 321 393 468
#     4  10  24  48  75 108 153 203 260 324 393 465
#     4  12  28  46  76 116 157 211 264 317 399 478
#     4  11  24  46  73 109 159 200 250 326 387 467
#     4  10  24  45  72 112 150 203 258 322 393 464
#
# _framework density 24.673069000000002
#
# number of rings (size 3 to 8) (size 9 to 14) (size 15 to 20)
#    0.000    1.200    2.000    1.800    8.400    2.400 
#    7.200    0.000    0.000    0.000    0.000    0.000 
#    0.000    0.000    0.000    0.000    0.000    0.000 
#
# Total GULP energy -55771.453218 kJ/mol
# GULP energy per Si atom -5577.145322 kJ/mol
# Density = 2.461691 g / cm^3
# Si number density = 24.673069 Si / 1000 Ang^3
#
#
#
# Elastic Constant Matrix: (Units=GPa)
#
#
# Indices 1 2 3 4 5 6 
#
# 1 115.7557 49.0404 37.8600 -23.5755 -9.1343 -15.8038
# 2 49.0404 170.0549 75.4226 -20.5104 -2.1324 -10.9747
# 3 37.8600 75.4226 179.3535 -34.7620 4.4769 -18.0981
# 4 -23.5755 -20.5104 -34.7620 50.4995 -1.1503 -5.2718
# 5 -9.1343 -2.1324 4.4769 -1.1503 39.2936 -1.8746
# 6 -15.8038 -10.9747 -18.0981 -5.2718 -1.8746 24.4704
#
#
#
# Elastic Compliance Matrix: (Units=1/GPa)
#
#
# Indices 1 2 3 4 5 6 
#
# 1 0.012156 -0.002354 0.000361 0.005937 0.003241 0.008589
# 2 -0.002354 0.007805 -0.002756 0.000178 0.000195 -0.000005
# 3 0.000361 -0.002756 0.008367 0.005455 -0.000558 0.006318
# 4 0.005937 0.000178 0.005455 0.027929 0.002260 0.014139
# 5 0.003241 0.000195 -0.000558 0.002260 0.026548 0.004288
# 6 0.008589 -0.000005 0.006318 0.014139 0.004288 0.054457
#
#
# Mechanical properties :
#
#
# Convention : Reuss Voigt Hill
#
# Bulk Modulus (GPa) = 53.11106 87.75667 70.43386
# Shear Modulus (GPa) = 32.67132 43.04211 37.85672
#
# Velocity S-wave (km/s) = 3.64286 4.18125 3.92131
# Velocity P-wave (km/s) = 6.26630 7.67825 7.00793
#
# Compressibility (1/GPa) = 0.01882847
#
# Stress axis : x y z
#
# Youngs Moduli (GPa) = 82.26402 128.11555 119.51170
#
# Poissons Ratio (x) = 0.30164 -0.04310
# Poissons Ratio (y) = 0.19369 0.32942
# Poissons Ratio (z) = -0.02967 0.35314
#
# Static dielectric constant tensor:
#      x y z
#    x 2.122250 0.014290 -0.090320 
#    y 0.014290 2.124970 0.050390 
#    z -0.090320 0.050390 1.841730 
# 
# From -- ./inp_files/409261.got.cif
#   From: 2010.05.17/outbox.cif.g08.bks.cpg/sg2_205_cif.got.tgz:409261.got - 2010.06.03 11:33:40.
