data_PCOD9048198
_publ_section_title
;
Structure prediction by ZEFSAII (Michael W. Deem and Ramdas Pophale) SiO2 
 PCOD9048198
Probable space group: P -1
;
_chemical_formula_sum "Si O2"
_cell_formula_units_Z 13
_cell_length_a 15.634830
_cell_length_b 12.051240
_cell_length_c 15.117441
_cell_angle_alpha 28.588943
_cell_angle_beta 152.683961
_cell_angle_gamma 152.197594
_cell_volume 550.278804
_symmetry_space_group_name_H-M "P -1"
_symmetry_group_IT_number 2
_symmetry_cell_setting 'triclinic'
loop_
_space_group_symop_operation_xyz
x,y,z
-x,-y,-z
loop_
_atom_site_type_symbol
_atom_site_label
_atom_site_fract_x
_atom_site_fract_y
_atom_site_fract_z
Si Si1 0.526868 0.316069 0.581725
Si Si2 0.000000 0.000000 0.000000
Si Si3 0.038218 0.271412 0.392756
Si Si4 0.790085 0.504558 0.267660
Si Si5 0.318090 0.422443 0.700822
Si Si6 0.578628 0.154462 0.056062
Si Si7 0.355659 0.067818 0.426293
O O1 0.500000 0.500000 0.500000
O O2 0.760201 0.487271 0.635543
O O3 0.362059 0.220947 0.415791
O O4 0.492300 0.062373 0.780990
O O5 0.840591 0.686152 0.101514
O O6 0.162819 0.018188 0.218836
O O7 0.099693 0.276388 0.548518
O O8 0.830650 0.303551 0.175646
O O9 0.000000 0.000000 0.500000
O O10 0.712201 0.626985 0.188908
O O11 0.000000 0.500000 0.500000
O O12 0.636259 0.190690 0.348289
O O13 0.427071 0.735620 0.562731
O O14 0.468206 0.326554 0.859096
O O15 0.500000 0.000000 0.000000
#
# Coordination Sequence:
#
# PCOD9048198 Si02
#       7
#     2   1   2   2   2   2   2
#     4  11  24  46  76 111 154 205 252 325 394 458
#     4  10  24  44  76 110 144 204 266 304 388 466
#     4  11  23  46  74 104 156 202 250 323 390 453
#     4  10  24  47  72 106 151 201 254 319 386 453
#     4  11  25  47  74 110 148 208 260 317 393 464
#     4  12  25  46  74 113 153 200 264 315 384 472
#     4  10  24  47  73 106 155 198 254 323 385 453
#
# _framework density 23.624388
#
# number of rings (size 3 to 8) (size 9 to 14) (size 15 to 20)
#    0.000    1.231    3.077    1.385    6.462    2.462 
#   16.615    0.000    0.000    0.000    0.000    0.000 
#    0.000    0.000    0.000    0.000    0.000    0.000 
#
# Total GULP energy -72468.390395 kJ/mol
# GULP energy per Si atom -5574.491569 kJ/mol
# Density = 2.357062 g / cm^3
# Si number density = 23.624388 Si / 1000 Ang^3
#
#
#
# Elastic Constant Matrix: (Units=GPa)
#
#
# Indices 1 2 3 4 5 6 
#
# 1 106.0811 41.2929 57.0909 0.4469 -6.2853 -13.7720
# 2 41.2929 93.7031 45.7266 13.1485 -16.2303 -2.7606
# 3 57.0909 45.7266 129.3580 -4.5488 -22.6487 -1.1840
# 4 0.4469 13.1485 -4.5488 55.4267 14.1005 -14.6597
# 5 -6.2853 -16.2303 -22.6487 14.1005 54.2515 -1.8185
# 6 -13.7720 -2.7606 -1.1840 -14.6597 -1.8185 48.8864
#
#
#
# Elastic Compliance Matrix: (Units=1/GPa)
#
#
# Indices 1 2 3 4 5 6 
#
# 1 0.014235 -0.004396 -0.004994 0.002187 -0.002178 0.004216
# 2 -0.004396 0.015528 -0.003018 -0.005482 0.004237 -0.001921
# 3 -0.004994 -0.003018 0.011566 0.000644 0.003147 -0.000987
# 4 0.002187 -0.005482 0.000644 0.022959 -0.006852 0.006952
# 5 -0.002178 0.004237 0.003147 -0.006852 0.022492 -0.001516
# 6 0.004216 -0.001921 -0.000987 0.006952 -0.001516 0.023539
#
#
# Mechanical properties :
#
#
# Convention : Reuss Voigt Hill
#
# Bulk Modulus (GPa) = 60.55645 68.59591 64.57618
# Shear Modulus (GPa) = 35.55207 44.04839 39.80023
#
# Velocity S-wave (km/s) = 3.88350 4.32271 4.10897
# Velocity P-wave (km/s) = 6.76738 7.34939 7.06438
#
# Compressibility (1/GPa) = 0.01651352
#
# Stress axis : x y z
#
# Youngs Moduli (GPa) = 70.25059 64.39938 86.46078
#
# Poissons Ratio (x) = 0.28308 0.43182
# Poissons Ratio (y) = 0.30880 0.26090
# Poissons Ratio (z) = 0.35086 0.19433
#
# Static dielectric constant tensor:
#      x y z
#    x 1.969450 -0.002110 0.081080 
#    y -0.002110 1.976680 0.026340 
#    z 0.081080 0.026340 1.944990 
# 
# From -- ./inp_files/531577.got.cif
#   From: 2010.05.17/outbox.cif.g08.bks.cpg/sg2_266_cif.got.tgz:531577.got - 2010.06.03 11:33:40.
