data_PCOD9048908
_publ_section_title
;
Structure prediction by ZEFSAII (Michael W. Deem and Ramdas Pophale) SiO2 
 PCOD9048908
Probable space group: P -1
;
_chemical_formula_sum "Si O2"
_cell_formula_units_Z 12
_cell_length_a 11.901896
_cell_length_b 5.230259
_cell_length_c 14.945888
_cell_angle_alpha 66.332440
_cell_angle_beta 29.816413
_cell_angle_gamma 76.691936
_cell_volume 409.200765
_symmetry_space_group_name_H-M "P -1"
_symmetry_group_IT_number 2
_symmetry_cell_setting 'triclinic'
loop_
_space_group_symop_operation_xyz
x,y,z
-x,-y,-z
loop_
_atom_site_type_symbol
_atom_site_label
_atom_site_fract_x
_atom_site_fract_y
_atom_site_fract_z
Si Si1 0.958449 0.049861 0.933932
Si Si2 0.334113 0.854530 0.689500
Si Si3 0.513459 0.325466 0.720818
Si Si4 0.155329 0.715424 0.664682
Si Si5 0.221491 0.332329 0.211449
Si Si6 0.707315 0.225283 0.772025
O O1 0.847076 0.078870 0.114463
O O2 0.703958 0.953646 0.079885
O O3 0.107534 0.374418 0.770043
O O4 0.093181 0.858965 0.792400
O O5 0.403259 0.573318 0.718613
O O6 0.436651 0.861101 0.505311
O O7 0.697548 0.251278 0.536681
O O8 0.614191 0.410253 0.736693
O O9 0.903128 0.717654 0.791260
O O10 0.127728 0.559196 0.304049
O O11 0.193454 0.012427 0.312683
O O12 0.500000 0.500000 0.000000
O O13 0.500000 0.000000 0.000000
#
# Coordination Sequence:
#
# PCOD9048908 Si02
#       6
#     2   2   2   2   2   2
#     4  12  25  44  72 106 152 197 247 303 380 457
#     4  12  26  46  75 112 155 193 250 312 384 469
#     4  12  26  47  74 111 149 201 249 314 387 455
#     4  12  27  47  74 109 153 197 248 319 381 460
#     4  10  24  45  75 104 150 195 258 314 376 444
#     4  10  24  46  73 107 148 196 261 313 373 449
#
# _framework density 29.325458999999999
#
# number of rings (size 3 to 8) (size 9 to 14) (size 15 to 20)
#    0.000    0.667    3.333    4.000    7.000    4.000 
#    0.000    0.000    0.000    0.000    0.000    0.000 
#    0.000    0.000    0.000    0.000    0.000    0.000 
#
# Total GULP energy -67045.864501 kJ/mol
# GULP energy per Si atom -5587.155375 kJ/mol
# Density = 2.925871 g / cm^3
# Si number density = 29.325459 Si / 1000 Ang^3
#
#
#
# Elastic Constant Matrix: (Units=GPa)
#
#
# Indices 1 2 3 4 5 6 
#
# 1 261.0209 48.8161 50.0172 1.4313 7.0861 27.0400
# 2 48.8161 166.0028 13.3951 -2.9859 -1.8955 33.0220
# 3 50.0172 13.3951 218.3406 22.0403 -5.0810 16.5494
# 4 1.4313 -2.9859 22.0403 53.6882 7.1452 -1.6928
# 5 7.0861 -1.8955 -5.0810 7.1452 45.8831 1.2020
# 6 27.0400 33.0220 16.5494 -1.6928 1.2020 58.7144
#
#
#
# Elastic Compliance Matrix: (Units=1/GPa)
#
#
# Indices 1 2 3 4 5 6 
#
# 1 0.004325 -0.000972 -0.000888 0.000267 -0.000817 -0.001170
# 2 -0.000972 0.007015 0.000048 0.000218 0.000503 -0.003515
# 3 -0.000888 0.000048 0.005121 -0.002257 0.001088 -0.001149
# 4 0.000267 0.000218 -0.002257 0.020047 -0.003431 0.001038
# 5 -0.000817 0.000503 0.001088 -0.003431 0.022617 -0.000775
# 6 -0.001170 -0.003515 -0.001149 0.001038 -0.000775 0.019917
#
#
# Mechanical properties :
#
#
# Convention : Reuss Voigt Hill
#
# Bulk Modulus (GPa) = 77.90090 96.64677 87.27383
# Shear Modulus (GPa) = 57.50800 67.19952 62.35376
#
# Velocity S-wave (km/s) = 4.43315 4.79216 4.61615
# Velocity P-wave (km/s) = 7.26813 7.97796 7.63130
#
# Compressibility (1/GPa) = 0.01283682
#
# Stress axis : x y z
#
# Youngs Moduli (GPa) = 231.20903 142.55467 195.28373
#
# Poissons Ratio (x) = 0.13855 0.17350
# Poissons Ratio (y) = 0.22471 -0.00945
# Poissons Ratio (z) = 0.20542 -0.00690
#
# Static dielectric constant tensor:
#      x y z
#    x 2.366070 0.001440 0.104070 
#    y 0.001440 2.296280 0.323010 
#    z 0.104070 0.323010 2.607030 
# 
# From -- ./inp_files/510778.got.cif
#   From: 2010.05.17/outbox.cif.g08.bks.cpg/sg2_256_cif.got.tgz:510778.got - 2010.06.03 11:33:40.
