data_PCOD9048559
_publ_section_title
;
Structure prediction by ZEFSAII (Michael W. Deem and Ramdas Pophale) SiO2 
 PCOD9048559
Probable space group: P -1
;
_chemical_formula_sum "Si O2"
_cell_formula_units_Z 12
_cell_length_a 17.664028
_cell_length_b 7.845739
_cell_length_c 11.845761
_cell_angle_alpha 107.186584
_cell_angle_beta 26.154186
_cell_angle_gamma 121.403623
_cell_volume 549.113004
_symmetry_space_group_name_H-M "P -1"
_symmetry_group_IT_number 2
_symmetry_cell_setting 'triclinic'
loop_
_space_group_symop_operation_xyz
x,y,z
-x,-y,-z
loop_
_atom_site_type_symbol
_atom_site_label
_atom_site_fract_x
_atom_site_fract_y
_atom_site_fract_z
Si Si1 0.254081 0.386167 0.991352
Si Si2 0.717739 0.606980 0.797854
Si Si3 0.188347 0.699166 0.470483
Si Si4 0.162801 0.026795 0.880625
Si Si5 0.512185 0.096810 0.268533
Si Si6 0.960545 0.236023 0.782599
O O1 0.296470 0.327817 0.045299
O O2 0.002887 0.290566 0.307782
O O3 0.283257 0.265662 0.828185
O O4 0.402599 0.652477 0.827527
O O5 0.756211 0.415787 0.719393
O O6 0.910169 0.788226 0.492787
O O7 0.500000 0.500000 0.000000
O O8 0.084197 0.505130 0.668676
O O9 0.395172 0.929379 0.287017
O O10 0.332376 0.006175 0.588197
O O11 0.037252 0.851401 0.116107
O O12 0.000000 0.000000 0.000000
O O13 0.718343 0.120261 0.042691
#
# Coordination Sequence:
#
# PCOD9048559 Si02
#       6
#     2   2   2   2   2   2
#     4  11  24  45  68 101 138 171 225 273 335 396
#     4  10  24  45  70 100 134 172 224 282 332 394
#     4   9  22  45  67  99 132 175 219 274 335 393
#     4  12  25  44  68 100 137 180 222 273 329 396
#     4  11  23  45  69  99 134 183 215 274 334 396
#     4   9  25  45  65  98 132 176 224 274 331 392
#
# _framework density 21.853425000000001
#
# number of rings (size 3 to 8) (size 9 to 14) (size 15 to 20)
#    1.000    0.667    1.667    1.500    4.667    2.000 
#    3.000    0.000    0.000    0.000    0.000    0.000 
#    0.000    0.000    0.000    0.000    0.000    0.000 
#
# Total GULP energy -67045.605149 kJ/mol
# GULP energy per Si atom -5587.133762 kJ/mol
# Density = 2.180369 g / cm^3
# Si number density = 21.853425 Si / 1000 Ang^3
#
#
#
# Elastic Constant Matrix: (Units=GPa)
#
#
# Indices 1 2 3 4 5 6 
#
# 1 117.3908 9.3164 39.2543 -25.6690 19.0505 6.6396
# 2 9.3164 59.8272 11.4122 -16.6923 4.1664 14.3864
# 3 39.2543 11.4122 71.7816 -0.7683 3.6913 8.9956
# 4 -25.6690 -16.6923 -0.7683 30.4435 3.3847 2.4261
# 5 19.0505 4.1664 3.6913 3.3847 34.7299 0.9026
# 6 6.6396 14.3864 8.9956 2.4261 0.9026 32.2804
#
#
#
# Elastic Compliance Matrix: (Units=1/GPa)
#
#
# Indices 1 2 3 4 5 6 
#
# 1 0.017502 0.006560 -0.009182 0.019778 -0.011205 -0.005138
# 2 0.006560 0.026549 -0.005526 0.021878 -0.007989 -0.013062
# 3 -0.009182 -0.005526 0.019527 -0.010768 0.004684 -0.000412
# 4 0.019778 0.021878 -0.010768 0.064481 -0.018219 -0.015154
# 5 -0.011205 -0.007989 0.004684 -0.018219 0.037049 0.004893
# 6 -0.005138 -0.013062 -0.000412 -0.015154 0.004893 0.038973
#
#
# Mechanical properties :
#
#
# Convention : Reuss Voigt Hill
#
# Bulk Modulus (GPa) = 21.15050 40.99614 31.07332
# Shear Modulus (GPa) = 21.17408 32.09189 26.63298
#
# Velocity S-wave (km/s) = 3.11611 3.83627 3.49479
# Velocity P-wave (km/s) = 4.75881 6.19862 5.52581
#
# Compressibility (1/GPa) = 0.04728020
#
# Stress axis : x y z
#
# Youngs Moduli (GPa) = 57.13610 37.66657 51.21224
#
# Poissons Ratio (x) = -0.24709 0.47025
# Poissons Ratio (y) = -0.37481 0.28302
# Poissons Ratio (z) = 0.52464 0.20816
#
# Static dielectric constant tensor:
#      x y z
#    x 1.765520 -0.011350 0.021000 
#    y -0.011350 1.841450 -0.006370 
#    z 0.021000 -0.006370 1.780810 
# 
# From -- ./inp_files/86299.got.cif
#   From: 2010.05.17/outbox.cif.g08.bks.cpg/sg2_44_cif.got.tgz:86299.got - 2010.06.03 11:33:40.
