data_PCOD9048220
_publ_section_title
;
Structure prediction by ZEFSAII (Michael W. Deem and Ramdas Pophale) SiO2 
 PCOD9048220
Probable space group: P -1
;
_chemical_formula_sum "Si O2"
_cell_formula_units_Z 15
_cell_length_a 23.263367
_cell_length_b 8.871346
_cell_length_c 5.466951
_cell_angle_alpha 104.745770
_cell_angle_beta 95.816713
_cell_angle_gamma 139.229217
_cell_volume 630.537511
_symmetry_space_group_name_H-M "P -1"
_symmetry_group_IT_number 2
_symmetry_cell_setting 'triclinic'
loop_
_space_group_symop_operation_xyz
x,y,z
-x,-y,-z
loop_
_atom_site_type_symbol
_atom_site_label
_atom_site_fract_x
_atom_site_fract_y
_atom_site_fract_z
Si Si1 0.943145 0.694557 0.326128
Si Si2 0.092949 0.722944 0.813809
Si Si3 0.714024 0.783384 0.194003
Si Si4 0.852323 0.608259 0.762739
Si Si5 0.517210 0.221732 0.039348
Si Si6 0.137171 0.048424 0.331005
Si Si7 0.500000 0.500000 0.500000
Si Si8 0.652935 0.979533 0.410976
O O1 0.889217 0.411297 0.142905
O O2 0.907671 0.665548 0.567895
O O3 0.913715 0.729734 0.089349
O O4 0.062714 0.941087 0.467821
O O5 0.000000 0.500000 0.500000
O O6 0.195913 0.017192 0.876231
O O7 0.064543 0.779575 0.033968
O O8 0.616963 0.461818 0.014349
O O9 0.773206 0.858098 0.492175
O O10 0.674272 0.872560 0.214728
O O11 0.828162 0.731082 0.723897
O O12 0.753364 0.291568 0.628020
O O13 0.526217 0.377792 0.318444
O O14 0.424042 0.078203 0.783555
O O15 0.500000 0.000000 0.000000
O O16 0.597976 0.790716 0.544819
#
# Coordination Sequence:
#
# PCOD9048220 Si02
#       8
#     2   2   2   2   2   2   1   2
#     4  12  26  47  72 105 155 203 252 314 382 456
#     4  12  25  45  73 105 149 201 256 313 380 464
#     4  11  24  44  74 105 149 194 255 314 389 458
#     4  12  28  46  76 109 155 203 253 318 390 456
#     4  11  26  48  75 111 152 196 258 324 390 469
#     4  12  27  43  72 109 148 197 260 312 384 462
#     4  10  24  44  78 102 150 192 252 308 400 442
#     4  11  25  47  75 110 145 199 248 321 387 465
#
# _framework density 23.789228000000001
#
# number of rings (size 3 to 8) (size 9 to 14) (size 15 to 20)
#    0.000    0.533    2.667    5.200    3.733    6.933 
#    0.000    0.000    0.000    0.000    0.000    0.000 
#    0.000    0.000    0.000    0.000    0.000    0.000 
#
# Total GULP energy -83578.365419 kJ/mol
# GULP energy per Si atom -5571.891028 kJ/mol
# Density = 2.373508 g / cm^3
# Si number density = 23.789228 Si / 1000 Ang^3
#
#
#
# Elastic Constant Matrix: (Units=GPa)
#
#
# Indices 1 2 3 4 5 6 
#
# 1 115.7039 79.2073 58.4685 6.4402 2.8822 -18.7700
# 2 79.2073 184.2708 41.6327 22.7727 -11.5394 -4.9319
# 3 58.4685 41.6327 75.0563 2.4553 -1.4084 1.1655
# 4 6.4402 22.7727 2.4553 40.4995 -0.8862 -7.2927
# 5 2.8822 -11.5394 -1.4084 -0.8862 51.0920 5.4492
# 6 -18.7700 -4.9319 1.1655 -7.2927 5.4492 55.3349
#
#
#
# Elastic Compliance Matrix: (Units=1/GPa)
#
#
# Indices 1 2 3 4 5 6 
#
# 1 0.020544 -0.006254 -0.012792 0.002267 -0.003668 0.007341
# 2 -0.006254 0.008672 0.000280 -0.004233 0.002476 -0.002156
# 3 -0.012792 0.000280 0.023261 -0.000400 0.001958 -0.005050
# 4 0.002267 -0.004233 -0.000400 0.027455 -0.001058 0.004123
# 5 -0.003668 0.002476 0.001958 -0.001058 0.020720 -0.003245
# 6 0.007341 -0.002156 -0.005050 0.004123 -0.003245 0.021339
#
#
# Mechanical properties :
#
#
# Convention : Reuss Voigt Hill
#
# Bulk Modulus (GPa) = 66.90911 81.51646 74.21278
# Shear Modulus (GPa) = 30.39427 42.43345 36.41386
#
# Velocity S-wave (km/s) = 3.57830 4.22800 3.91664
# Velocity P-wave (km/s) = 6.72749 7.62726 7.19146
#
# Compressibility (1/GPa) = 0.01494565
#
# Stress axis : x y z
#
# Youngs Moduli (GPa) = 48.67581 115.31048 42.99043
#
# Poissons Ratio (x) = 0.72115 0.54992
# Poissons Ratio (y) = 0.30442 -0.01203
# Poissons Ratio (z) = 0.62265 -0.03227
#
# Static dielectric constant tensor:
#      x y z
#    x 1.979400 -0.034580 -0.038730 
#    y -0.034580 1.891660 -0.064200 
#    z -0.038730 -0.064200 1.949570 
# 
# From -- ./inp_files/117246.got.cif
#   From: 2010.05.17/outbox.cif.g08.bks.cpg/sg2_59_cif.got.tgz:117246.got - 2010.06.03 11:33:40.
