data_PCOD9049343
_publ_section_title
;
Structure prediction by ZEFSAII (Michael W. Deem and Ramdas Pophale) SiO2 
 PCOD9049343
Probable space group: P -1
;
_chemical_formula_sum "Si O2"
_cell_formula_units_Z 13
_cell_length_a 6.630900
_cell_length_b 9.832919
_cell_length_c 11.755690
_cell_angle_alpha 50.412605
_cell_angle_beta 83.169868
_cell_angle_gamma 102.507164
_cell_volume 542.007446
_symmetry_space_group_name_H-M "P -1"
_symmetry_group_IT_number 2
_symmetry_cell_setting 'triclinic'
loop_
_space_group_symop_operation_xyz
x,y,z
-x,-y,-z
loop_
_atom_site_type_symbol
_atom_site_label
_atom_site_fract_x
_atom_site_fract_y
_atom_site_fract_z
Si Si1 0.209201 0.094390 0.735913
Si Si2 0.000000 0.500000 0.000000
Si Si3 0.150321 0.440415 0.435770
Si Si4 0.887565 0.452710 0.243361
Si Si5 0.747592 0.772820 0.873987
Si Si6 0.394413 0.308214 0.823393
Si Si7 0.436413 0.888262 0.682957
O O1 0.233529 0.292566 0.568839
O O2 0.247510 0.135683 0.844722
O O3 0.381887 0.018823 0.707963
O O4 0.969419 0.952501 0.790476
O O5 0.050529 0.613181 0.065851
O O6 0.188505 0.405156 0.064042
O O7 0.363209 0.614498 0.285658
O O8 0.000000 0.500000 0.500000
O O9 0.995907 0.365793 0.375112
O O10 0.709369 0.527203 0.265070
O O11 0.783956 0.303852 0.223506
O O12 0.621448 0.821717 0.752645
O O13 0.611892 0.736359 0.019731
O O14 0.500000 0.000000 0.500000
#
# Coordination Sequence:
#
# PCOD9049343 Si02
#       7
#     2   1   2   2   2   2   2
#     4  12  26  48  73 112 148 194 258 303 375 441
#     4  10  24  46  72 108 144 192 240 304 372 434
#     4  12  27  46  78 105 150 201 249 310 368 445
#     4  11  25  45  71 107 144 191 248 296 371 439
#     4  11  27  49  76 110 153 194 250 311 372 441
#     4  11  27  46  76 105 147 197 255 304 373 440
#     4  12  28  44  75 110 151 193 246 308 378 440
#
# _framework density 23.984908999999998
#
# number of rings (size 3 to 8) (size 9 to 14) (size 15 to 20)
#    0.000    0.615    3.077    2.769   10.769    3.077 
#    0.000    0.000    0.000    0.000    0.000    0.000 
#    0.000    0.000    0.000    0.000    0.000    0.000 
#
# Total GULP energy -72635.892705 kJ/mol
# GULP energy per Si atom -5587.376362 kJ/mol
# Density = 2.393032 g / cm^3
# Si number density = 23.984909 Si / 1000 Ang^3
#
#
#
# Elastic Constant Matrix: (Units=GPa)
#
#
# Indices 1 2 3 4 5 6 
#
# 1 128.5870 48.1986 56.1207 19.8602 15.0123 -12.9378
# 2 48.1986 103.4722 19.2979 20.7830 6.2830 -12.8189
# 3 56.1207 19.2979 115.4374 18.3296 10.4902 -2.5241
# 4 19.8602 20.7830 18.3296 32.1977 -0.7672 -4.4570
# 5 15.0123 6.2830 10.4902 -0.7672 52.6346 3.2967
# 6 -12.9378 -12.8189 -2.5241 -4.4570 3.2967 42.5801
#
#
#
# Elastic Compliance Matrix: (Units=1/GPa)
#
#
# Indices 1 2 3 4 5 6 
#
# 1 0.012068 -0.003951 -0.004640 -0.002005 -0.002210 0.002164
# 2 -0.003951 0.012884 0.000854 -0.006086 -0.000805 0.002154
# 3 -0.004640 0.000854 0.011557 -0.004411 -0.001093 -0.000845
# 4 -0.002005 -0.006086 -0.004411 0.038960 0.002672 0.001168
# 5 -0.002210 -0.000805 -0.001093 0.002672 0.020124 -0.002257
# 6 0.002164 0.002154 -0.000845 0.001168 -0.002257 0.025038
#
#
# Mechanical properties :
#
#
# Convention : Reuss Voigt Hill
#
# Bulk Modulus (GPa) = 47.54133 66.08121 56.81127
# Shear Modulus (GPa) = 34.93626 40.40777 37.67202
#
# Velocity S-wave (km/s) = 3.82067 4.10898 3.96745
# Velocity P-wave (km/s) = 6.27119 7.07973 6.68769
#
# Compressibility (1/GPa) = 0.02103433
#
# Stress axis : x y z
#
# Youngs Moduli (GPa) = 82.86063 77.61632 86.52708
#
# Poissons Ratio (x) = 0.30668 0.40149
# Poissons Ratio (y) = 0.32740 -0.07387
# Poissons Ratio (z) = 0.38448 -0.06626
#
# Static dielectric constant tensor:
#      x y z
#    x 1.205100 -0.227410 2.206410 
#    y -0.227410 1.809900 0.848170 
#    z 2.206410 0.848170 -5.259300 
# 
# From -- ./inp_files/26503.got.cif
#   From: 2010.05.17/outbox.cif.g08.bks.cpg/sg2_14_cif.got.tgz:26503.got - 2010.06.03 11:33:40.
