data_PCOD9049251
_publ_section_title
;
Structure prediction by ZEFSAII (Michael W. Deem and Ramdas Pophale) SiO2 
 PCOD9049251
Probable space group: P -1
;
_chemical_formula_sum "Si O2"
_cell_formula_units_Z 14
_cell_length_a 11.507880
_cell_length_b 9.395080
_cell_length_c 18.297356
_cell_angle_alpha 133.972754
_cell_angle_beta 154.363902
_cell_angle_gamma 59.784606
_cell_volume 566.111494
_symmetry_space_group_name_H-M "P -1"
_symmetry_group_IT_number 2
_symmetry_cell_setting 'triclinic'
loop_
_space_group_symop_operation_xyz
x,y,z
-x,-y,-z
loop_
_atom_site_type_symbol
_atom_site_label
_atom_site_fract_x
_atom_site_fract_y
_atom_site_fract_z
Si Si1 0.071741 0.061607 0.146309
Si Si2 0.104079 0.428730 0.459808
Si Si3 0.316020 0.838505 0.514208
Si Si4 0.799120 0.641202 0.942520
Si Si5 0.098957 0.026975 0.755432
Si Si6 0.317444 0.053670 0.732100
Si Si7 0.151312 0.560279 0.825006
O O1 0.423837 0.174672 0.389552
O O2 0.955700 0.243248 0.163202
O O3 0.946239 0.846071 0.045777
O O4 0.000000 0.000000 0.000000
O O5 0.455657 0.513373 0.682710
O O6 0.000000 0.500000 0.500000
O O7 0.957700 0.520546 0.346703
O O8 0.964993 0.170371 0.296897
O O9 0.202337 0.998254 0.464396
O O10 0.034066 0.618736 0.286886
O O11 0.423897 0.921133 0.687268
O O12 0.800124 0.753298 0.062283
O O13 0.000000 0.500000 0.000000
O O14 0.300491 0.018791 0.797576
O O15 0.508334 0.306705 0.920653
O O16 0.000000 0.000000 0.500000
#
# Coordination Sequence:
#
# PCOD9049251 Si02
#       7
#     2   2   2   2   2   2   2
#     4  12  25  45  72 103 147 186 246 301 359 433
#     4  12  27  46  76 108 148 195 249 305 369 432
#     4  11  25  44  72 105 144 192 239 297 365 436
#     4  12  29  48  73 108 151 198 246 300 372 439
#     4  11  26  46  72 103 150 189 244 298 366 436
#     4  10  24  46  71 103 146 184 242 297 359 435
#     4  12  25  43  74 105 142 190 243 299 369 424
#
# _framework density 24.730111000000001
#
# number of rings (size 3 to 8) (size 9 to 14) (size 15 to 20)
#    0.000    0.571    2.857    3.857    6.000    6.857 
#    0.000    0.000    0.000    0.000    0.000    0.000 
#    0.000    0.000    0.000    0.000    0.000    0.000 
#
# Total GULP energy -78301.612060 kJ/mol
# GULP energy per Si atom -5592.972290 kJ/mol
# Density = 2.467382 g / cm^3
# Si number density = 24.730111 Si / 1000 Ang^3
#
#
#
# Elastic Constant Matrix: (Units=GPa)
#
#
# Indices 1 2 3 4 5 6 
#
# 1 90.1596 26.9853 45.7236 -0.1996 -4.5313 13.6233
# 2 26.9853 93.8670 23.0560 10.9077 3.7248 16.0370
# 3 45.7236 23.0560 142.2118 -2.7738 31.2057 4.3969
# 4 -0.1996 10.9077 -2.7738 42.8090 0.4668 -0.1260
# 5 -4.5313 3.7248 31.2057 0.4668 51.5164 2.8667
# 6 13.6233 16.0370 4.3969 -0.1260 2.8667 40.0599
#
#
#
# Elastic Compliance Matrix: (Units=1/GPa)
#
#
# Indices 1 2 3 4 5 6 
#
# 1 0.015584 -0.002671 -0.005581 0.000324 0.005163 -0.003986
# 2 -0.002671 0.012788 -0.001102 -0.003352 -0.000234 -0.004084
# 3 -0.005581 -0.001102 0.010478 0.001014 -0.006861 0.001683
# 4 0.000324 -0.003352 0.001014 0.024291 -0.000632 0.001242
# 5 0.005163 -0.000234 -0.006861 -0.000632 0.024191 -0.002642
# 6 -0.003986 -0.004084 0.001683 0.001242 -0.002642 0.027961
#
#
# Mechanical properties :
#
#
# Convention : Reuss Voigt Hill
#
# Bulk Modulus (GPa) = 49.64657 57.52981 53.58819
# Shear Modulus (GPa) = 35.53252 42.24196 38.88724
#
# Velocity S-wave (km/s) = 3.79464 4.13742 3.96973
# Velocity P-wave (km/s) = 6.27041 6.79249 6.53666
#
# Compressibility (1/GPa) = 0.02014238
#
# Stress axis : x y z
#
# Youngs Moduli (GPa) = 64.16984 78.19545 95.43727
#
# Poissons Ratio (x) = 0.20884 0.53262
# Poissons Ratio (y) = 0.17138 0.10521
# Poissons Ratio (z) = 0.35812 0.08620
#
# Static dielectric constant tensor:
#      x y z
#    x 2.044690 -0.086520 -0.000310 
#    y -0.086520 1.983350 -0.066700 
#    z -0.000310 -0.066700 2.112850 
# 
# From -- ./inp_files/78812.got.cif
#   From: 2010.05.17/outbox.cif.g08.bks.cpg/sg2_40_cif.got.tgz:78812.got - 2010.06.03 11:33:40.
