data_PCOD9049055
_publ_section_title
;
Structure prediction by ZEFSAII (Michael W. Deem and Ramdas Pophale) SiO2 
 PCOD9049055
Probable space group: P -1
;
_chemical_formula_sum "Si O2"
_cell_formula_units_Z 16
_cell_length_a 5.523668
_cell_length_b 5.386339
_cell_length_c 23.516693
_cell_angle_alpha 108.485416
_cell_angle_beta 63.783611
_cell_angle_gamma 99.146581
_cell_volume 595.169023
_symmetry_space_group_name_H-M "P -1"
_symmetry_group_IT_number 2
_symmetry_cell_setting 'triclinic'
loop_
_space_group_symop_operation_xyz
x,y,z
-x,-y,-z
loop_
_atom_site_type_symbol
_atom_site_label
_atom_site_fract_x
_atom_site_fract_y
_atom_site_fract_z
Si Si1 0.219425 0.271061 0.123436
Si Si2 0.160262 0.290090 0.564825
Si Si3 0.081839 0.269148 0.770279
Si Si4 0.605978 0.296958 0.663419
Si Si5 0.677629 0.497201 0.038827
Si Si6 0.748004 0.952020 0.148590
Si Si7 0.431125 0.851043 0.585277
Si Si8 0.754540 0.773197 0.755128
O O1 0.526484 0.264423 0.072677
O O2 0.129110 0.231765 0.194610
O O3 0.105491 0.562899 0.155069
O O4 0.032015 0.049740 0.099274
O O5 0.271730 0.579064 0.591472
O O6 0.316443 0.217889 0.485854
O O7 0.836432 0.306021 0.590844
O O8 0.253727 0.066943 0.584579
O O9 0.297426 0.387588 0.711115
O O10 0.268599 0.161744 0.793993
O O11 0.900543 0.044368 0.739841
O O12 0.764633 0.496780 0.703491
O O13 0.535683 0.984425 0.642908
O O14 0.629423 0.746274 0.101765
O O15 0.500000 0.500000 0.000000
O O16 0.000000 0.500000 0.000000
O O17 0.556557 0.194141 0.193552
#
# Coordination Sequence:
#
# PCOD9049055 Si02
#       8
#     2   2   2   2   2   2   2   2
#     4  11  25  47  70  97 145 183 231 293 378 432
#     4  10  24  46  68 100 143 196 240 314 366 448
#     4  11  24  43  68 101 142 186 229 300 363 453
#     4  12  24  39  71 104 136 181 248 291 375 443
#     4  12  28  47  75 107 142 190 249 305 367 457
#     4  11  25  47  73 100 140 189 238 297 374 441
#     4  10  24  46  69  98 147 188 249 306 377 434
#     4  11  25  41  70 101 137 187 231 299 370 445
#
# _framework density 26.883120999999999
#
# number of rings (size 3 to 8) (size 9 to 14) (size 15 to 20)
#    0.000    1.000    2.500    2.625    5.250    4.000 
#    0.000    3.750    0.000    0.000    0.000    0.000 
#    0.000    0.000    0.000    0.000    0.000    0.000 
#
# Total GULP energy -89101.058265 kJ/mol
# GULP energy per Si atom -5568.816142 kJ/mol
# Density = 2.682193 g / cm^3
# Si number density = 26.883121 Si / 1000 Ang^3
#
#
#
# Elastic Constant Matrix: (Units=GPa)
#
#
# Indices 1 2 3 4 5 6 
#
# 1 103.7037 33.0089 51.1491 -19.0429 -20.2164 39.0286
# 2 33.0089 252.2882 36.2517 28.2930 -89.3943 38.7263
# 3 51.1491 36.2517 109.2863 -6.7094 -4.8126 19.4954
# 4 -19.0429 28.2930 -6.7094 51.6161 14.6544 -4.3194
# 5 -20.2164 -89.3943 -4.8126 14.6544 101.7915 -6.3001
# 6 39.0286 38.7263 19.4954 -4.3194 -6.3001 55.9578
#
#
#
# Elastic Compliance Matrix: (Units=1/GPa)
#
#
# Indices 1 2 3 4 5 6 
#
# 1 0.017411 0.000619 -0.006262 0.003722 0.002562 -0.009814
# 2 0.000619 0.009108 -0.002432 -0.008047 0.008824 -0.005515
# 3 -0.006262 -0.002432 0.012598 0.001613 -0.002926 0.001457
# 4 0.003722 -0.008047 0.001613 0.028538 -0.010145 0.003472
# 5 0.002562 0.008824 -0.002926 -0.010145 0.019063 -0.005511
# 6 -0.009814 -0.005515 0.001457 0.003472 -0.005511 0.027673
#
#
# Mechanical properties :
#
#
# Convention : Reuss Voigt Hill
#
# Bulk Modulus (GPa) = 43.54342 78.45531 60.99936
# Shear Modulus (GPa) = 36.18026 64.86430 50.52228
#
# Velocity S-wave (km/s) = 3.67254 4.91738 4.33983
# Velocity P-wave (km/s) = 5.84944 7.84143 6.91751
#
# Compressibility (1/GPa) = 0.02296558
#
# Stress axis : x y z
#
# Youngs Moduli (GPa) = 57.43516 109.79700 79.37626
#
# Poissons Ratio (x) = -0.06793 0.49705
# Poissons Ratio (y) = -0.03554 0.19307
# Poissons Ratio (z) = 0.35966 0.26707
#
# Static dielectric constant tensor:
#      x y z
#    x 2.207540 0.210160 0.036620 
#    y 0.210160 0.949430 -0.081810 
#    z 0.036620 -0.081810 2.064980 
# 
# From -- ./inp_files/614764.got.cif
#   From: 2010.05.17/outbox.cif.g08.bks.cpg/sg2_308_cif.got.tgz:614764.got - 2010.06.03 11:33:40.
