data_PCOD9049223
_publ_section_title
;
Structure prediction by ZEFSAII (Michael W. Deem and Ramdas Pophale) SiO2 
 PCOD9049223
Probable space group: P -1
;
_chemical_formula_sum "Si O2"
_cell_formula_units_Z 14
_cell_length_a 11.634533
_cell_length_b 7.545230
_cell_length_c 11.878061
_cell_angle_alpha 87.697694
_cell_angle_beta 147.056824
_cell_angle_gamma 97.796714
_cell_volume 556.518425
_symmetry_space_group_name_H-M "P -1"
_symmetry_group_IT_number 2
_symmetry_cell_setting 'triclinic'
loop_
_space_group_symop_operation_xyz
x,y,z
-x,-y,-z
loop_
_atom_site_type_symbol
_atom_site_label
_atom_site_fract_x
_atom_site_fract_y
_atom_site_fract_z
Si Si1 0.357123 0.231388 0.375283
Si Si2 0.327952 0.583119 0.201725
Si Si3 0.559285 0.130751 0.333592
Si Si4 0.122501 0.130868 0.452895
Si Si5 0.422714 0.407199 0.058349
Si Si6 0.087843 0.872145 0.949183
Si Si7 0.295055 0.096491 0.812522
O O1 0.308957 0.409276 0.268939
O O2 0.452919 0.288073 0.575647
O O3 0.540033 0.177524 0.447709
O O4 0.137398 0.084210 0.189703
O O5 0.330862 0.521934 0.075762
O O6 0.151460 0.704445 0.070312
O O7 0.758004 0.032790 0.480306
O O8 0.581105 0.305982 0.266268
O O9 0.317719 0.007050 0.117183
O O10 0.900800 0.068937 0.339928
O O11 0.286787 0.208254 0.686558
O O12 0.019135 0.204635 0.256466
O O13 0.500000 0.500000 0.000000
O O14 0.262350 0.231839 0.881926
O O15 0.500000 0.000000 0.000000
#
# Coordination Sequence:
#
# PCOD9049223 Si02
#       7
#     2   2   2   2   2   2   2
#     4  10  24  46  70  99 139 187 223 280 343 400
#     4  10  25  47  64 103 142 177 227 277 342 416
#     4  11  24  46  68 103 136 174 238 284 329 409
#     4  11  24  40  73 101 135 174 229 288 342 391
#     4  11  25  43  72  95 139 177 218 289 342 401
#     4  12  23  41  73 100 135 182 228 285 334 399
#     4  11  23  46  69  99 136 179 228 282 335 409
#
# _framework density 25.156400000000001
#
# number of rings (size 3 to 8) (size 9 to 14) (size 15 to 20)
#    0.000    1.143    2.857    1.714    6.000    3.429 
#    7.714    1.429    0.000    0.000    0.000    0.000 
#    0.000    0.000    0.000    0.000    0.000    0.000 
#
# Total GULP energy -77944.866389 kJ/mol
# GULP energy per Si atom -5567.490456 kJ/mol
# Density = 2.509914 g / cm^3
# Si number density = 25.156400 Si / 1000 Ang^3
#
#
#
# Elastic Constant Matrix: (Units=GPa)
#
#
# Indices 1 2 3 4 5 6 
#
# 1 68.2308 22.3791 26.3833 -15.9712 -2.5609 -5.1406
# 2 22.3791 42.9180 31.4205 -10.8282 6.4747 -5.2474
# 3 26.3833 31.4205 126.9519 -16.6119 2.6711 1.2868
# 4 -15.9712 -10.8282 -16.6119 39.9484 -6.1581 -7.2993
# 5 -2.5609 6.4747 2.6711 -6.1581 59.2691 0.2179
# 6 -5.1406 -5.2474 1.2868 -7.2993 0.2179 38.2161
#
#
#
# Elastic Compliance Matrix: (Units=1/GPa)
#
#
# Indices 1 2 3 4 5 6 
#
# 1 0.019387 -0.007557 -0.001456 0.005959 0.002338 0.002744
# 2 -0.007557 0.033891 -0.006286 0.003875 -0.003360 0.004608
# 3 -0.001456 -0.006286 0.009963 0.001717 0.000357 -0.001069
# 4 0.005959 0.003875 0.001717 0.030943 0.002945 0.007169
# 5 0.002338 -0.003360 0.000357 0.002945 0.017629 0.000303
# 6 0.002744 0.004608 -0.001069 0.007169 0.000303 0.028572
#
#
# Mechanical properties :
#
#
# Convention : Reuss Voigt Hill
#
# Bulk Modulus (GPa) = 30.63475 44.27406 37.45441
# Shear Modulus (GPa) = 27.49279 38.01455 32.75367
#
# Velocity S-wave (km/s) = 3.30945 3.89154 3.61224
# Velocity P-wave (km/s) = 5.17759 6.15060 5.68495
#
# Compressibility (1/GPa) = 0.03264267
#
# Stress axis : x y z
#
# Youngs Moduli (GPa) = 51.58077 29.50626 100.36677
#
# Poissons Ratio (x) = 0.22298 0.14613
# Poissons Ratio (y) = 0.38980 0.63095
# Poissons Ratio (z) = 0.07510 0.18549
#
# Static dielectric constant tensor:
#      x y z
#    x 2.211620 0.086250 -0.089050 
#    y 0.086250 2.070030 0.077970 
#    z -0.089050 0.077970 1.995680 
# 
# From -- ./inp_files/262690.got.cif
#   From: 2010.05.17/outbox.cif.g08.bks.cpg/sg2_132_cif.got.tgz:262690.got - 2010.06.03 11:33:40.
