data_PCOD9049966
_publ_section_title
;
Structure prediction by ZEFSAII (Michael W. Deem and Ramdas Pophale) SiO2 
 PCOD9049966
Probable space group: P -1
;
_chemical_formula_sum "Si O2"
_cell_formula_units_Z 16
_cell_length_a 9.028657
_cell_length_b 15.665781
_cell_length_c 10.095803
_cell_angle_alpha 105.669310
_cell_angle_beta 72.836769
_cell_angle_gamma 43.736534
_cell_volume 642.989765
_symmetry_space_group_name_H-M "P -1"
_symmetry_group_IT_number 2
_symmetry_cell_setting 'triclinic'
loop_
_space_group_symop_operation_xyz
x,y,z
-x,-y,-z
loop_
_atom_site_type_symbol
_atom_site_label
_atom_site_fract_x
_atom_site_fract_y
_atom_site_fract_z
Si Si1 0.505091 0.639142 0.849350
Si Si2 0.128250 0.170533 0.191237
Si Si3 0.473784 0.913784 0.319985
Si Si4 0.257498 0.390548 0.772301
Si Si5 0.162381 0.625757 0.904491
Si Si6 0.574269 0.706713 0.579117
Si Si7 0.110069 0.995615 0.213312
Si Si8 0.852453 0.753255 0.503654
O O1 0.300249 0.651486 0.919957
O O2 0.565785 0.651611 0.690807
O O3 0.846243 0.438695 0.727286
O O4 0.333102 0.802444 0.041636
O O5 0.038714 0.251054 0.392982
O O6 0.896856 0.331316 0.217404
O O7 0.110149 0.074221 0.139249
O O8 0.500000 0.000000 0.000000
O O9 0.547834 0.798532 0.353475
O O10 0.254617 0.971158 0.294052
O O11 0.298747 0.092298 0.476050
O O12 0.810281 0.778865 0.115255
O O13 0.374558 0.432248 0.793900
O O14 0.161393 0.449132 0.667478
O O15 0.000000 0.500000 0.000000
O O16 0.631497 0.782357 0.622389
O O17 0.251631 0.853132 0.643190
#
# Coordination Sequence:
#
# PCOD9049966 Si02
#       8
#     2   2   2   2   2   2   2   2
#     4  12  26  40  68 114 144 166 224 287 354 403
#     4  11  20  39  68  99 140 179 216 269 352 412
#     4  10  24  48  70  95 136 191 234 269 338 406
#     4  10  26  46  73  95 132 187 241 281 329 399
#     4  11  22  42  72  97 139 178 227 276 346 397
#     4  12  25  42  71 101 142 180 225 280 349 408
#     4  11  24  40  71 104 142 178 217 281 347 415
#     4  11  25  40  66 102 139 177 223 282 338 407
#
# _framework density 24.883755000000001
#
# number of rings (size 3 to 8) (size 9 to 14) (size 15 to 20)
#    0.000    1.000    3.750    3.000    7.000    2.000 
#    0.000    0.625    0.000    0.000    0.000    0.000 
#    0.000    0.000    0.000    0.000    0.000    0.000 
#
# Total GULP energy -89340.292451 kJ/mol
# GULP energy per Si atom -5583.768278 kJ/mol
# Density = 2.482712 g / cm^3
# Si number density = 24.883755 Si / 1000 Ang^3
#
#
#
# Elastic Constant Matrix: (Units=GPa)
#
#
# Indices 1 2 3 4 5 6 
#
# 1 171.9883 61.4786 32.4434 20.1339 -5.0977 49.5096
# 2 61.4786 113.3826 15.7051 19.0346 0.2255 44.0043
# 3 32.4434 15.7051 46.5798 13.1980 8.3978 10.7693
# 4 20.1339 19.0346 13.1980 39.1928 7.9197 11.5305
# 5 -5.0977 0.2255 8.3978 7.9197 31.7358 12.7816
# 6 49.5096 44.0043 10.7693 11.5305 12.7816 56.4056
#
#
#
# Elastic Compliance Matrix: (Units=1/GPa)
#
#
# Indices 1 2 3 4 5 6 
#
# 1 0.009952 -0.001353 -0.005385 -0.001679 0.006594 -0.007802
# 2 -0.001353 0.014278 -0.001370 -0.003842 0.005049 -0.010048
# 3 -0.005385 -0.001370 0.027882 -0.005291 -0.008295 0.003433
# 4 -0.001679 -0.003842 -0.005291 0.031225 -0.006901 0.000662
# 5 0.006594 0.005049 -0.008295 -0.006901 0.043096 -0.016498
# 6 -0.007802 -0.010048 0.003433 0.000662 -0.016498 0.035364
#
#
# Mechanical properties :
#
#
# Convention : Reuss Voigt Hill
#
# Bulk Modulus (GPa) = 27.85832 61.24500 44.55166
# Shear Modulus (GPa) = 26.31892 40.28841 33.30366
#
# Velocity S-wave (km/s) = 3.25572 4.02813 3.66234
# Velocity P-wave (km/s) = 5.03514 6.80443 5.98552
#
# Compressibility (1/GPa) = 0.03589592
#
# Stress axis : x y z
#
# Youngs Moduli (GPa) = 100.48301 70.03807 35.86547
#
# Poissons Ratio (x) = 0.09479 0.19312
# Poissons Ratio (y) = 0.13600 0.04913
# Poissons Ratio (z) = 0.54106 0.09595
#
# Static dielectric constant tensor:
#      x y z
#    x 2.000870 -0.027030 -0.009340 
#    y -0.027030 2.056800 0.065010 
#    z -0.009340 0.065010 2.145490 
# 
# From -- ./inp_files/399273.got.cif
#   From: 2010.05.17/outbox.cif.g08.bks.cpg/sg2_200_cif.got.tgz:399273.got - 2010.06.03 11:33:40.
