data_PCOD9049911
_publ_section_title
;
Structure prediction by ZEFSAII (Michael W. Deem and Ramdas Pophale) SiO2 
 PCOD9049911
Probable space group: P -1
;
_chemical_formula_sum "Si O2"
_cell_formula_units_Z 16
_cell_length_a 15.658093
_cell_length_b 12.106999
_cell_length_c 8.668059
_cell_angle_alpha 55.051065
_cell_angle_beta 101.248581
_cell_angle_gamma 62.082400
_cell_volume 914.832435
_symmetry_space_group_name_H-M "P -1"
_symmetry_group_IT_number 2
_symmetry_cell_setting 'triclinic'
loop_
_space_group_symop_operation_xyz
x,y,z
-x,-y,-z
loop_
_atom_site_type_symbol
_atom_site_label
_atom_site_fract_x
_atom_site_fract_y
_atom_site_fract_z
Si Si1 0.937139 0.426326 0.542911
Si Si2 0.199285 0.580739 0.760138
Si Si3 0.417733 0.219372 0.343031
Si Si4 0.828259 0.232961 0.109644
Si Si5 0.269020 0.435728 0.409825
Si Si6 0.534245 0.529507 0.825655
Si Si7 0.901862 0.005747 0.035410
Si Si8 0.331896 0.598064 0.518983
O O1 0.884785 0.427593 0.361054
O O2 0.819045 0.550739 0.519021
O O3 0.000000 0.500000 0.500000
O O4 0.043363 0.201331 0.811410
O O5 0.129769 0.752227 0.724806
O O6 0.265628 0.605966 0.639777
O O7 0.306572 0.378999 0.053920
O O8 0.354308 0.265903 0.450804
O O9 0.490832 0.281355 0.330996
O O10 0.500000 0.000000 0.500000
O O11 0.895403 0.043688 0.185813
O O12 0.820951 0.367328 0.881625
O O13 0.683189 0.351549 0.990944
O O14 0.349586 0.451824 0.527211
O O15 0.454397 0.541141 0.659603
O O16 0.500000 0.500000 0.000000
O O17 0.767518 0.191356 0.766141
O O18 0.000000 0.000000 0.000000
#
# Coordination Sequence:
#
# PCOD9049911 Si02
#       8
#     2   2   2   2   2   2   2   2
#     4  11  22  39  55  79 114 146 184 231 277 324
#     4   9  18  36  57  80 111 148 175 228 287 319
#     4  10  21  37  58  80 116 149 179 219 280 344
#     4   9  18  33  59  84 109 142 187 224 282 318
#     4   8  18  36  56  76 112 147 176 226 281 322
#     4  10  18  34  58  86 113 138 180 237 272 320
#     4  11  20  36  58  81 108 147 191 231 260 336
#     4  10  17  34  61  85 108 144 186 229 279 314
#
# _framework density 17.489540999999999
#
# number of rings (size 3 to 8) (size 9 to 14) (size 15 to 20)
#    0.000    2.500    6.250    0.000    0.000    6.000 
#    2.250    5.000    0.000    0.000    0.000    0.000 
#    0.000    0.000    0.000    0.000    0.000    0.000 
#
# Total GULP energy -89130.881458 kJ/mol
# GULP energy per Si atom -5570.680091 kJ/mol
# Density = 1.744973 g / cm^3
# Si number density = 17.489541 Si / 1000 Ang^3
#
#
#
# Elastic Constant Matrix: (Units=GPa)
#
#
# Indices 1 2 3 4 5 6 
#
# 1 120.9279 61.2469 36.8627 5.0692 -1.7963 19.3210
# 2 61.2469 141.5940 44.8515 1.1072 -9.2628 -6.7690
# 3 36.8627 44.8515 68.2661 8.9126 5.5977 4.9764
# 4 5.0692 1.1072 8.9126 37.4159 7.0292 -0.5520
# 5 -1.7963 -9.2628 5.5977 7.0292 26.2682 4.9759
# 6 19.3210 -6.7690 4.9764 -0.5520 4.9759 24.9754
#
#
#
# Elastic Compliance Matrix: (Units=1/GPa)
#
#
# Indices 1 2 3 4 5 6 
#
# 1 0.014075 -0.005539 -0.003048 -0.001656 0.002432 -0.012304
# 2 -0.005539 0.011893 -0.005843 0.001312 0.003181 0.008068
# 3 -0.003048 -0.005843 0.021210 -0.003490 -0.005389 -0.002455
# 4 -0.001656 0.001312 -0.003490 0.029234 -0.007580 0.004488
# 5 0.002432 0.003181 -0.005389 -0.007580 0.044224 -0.008924
# 6 -0.012304 0.008068 -0.002455 0.004488 -0.008924 0.054111
#
#
# Mechanical properties :
#
#
# Convention : Reuss Voigt Hill
#
# Bulk Modulus (GPa) = 54.58942 68.52336 61.55639
# Shear Modulus (GPa) = 23.84238 30.25369 27.04804
#
# Velocity S-wave (km/s) = 3.69621 4.16362 3.93686
# Velocity P-wave (km/s) = 7.03536 7.89804 7.47915
#
# Compressibility (1/GPa) = 0.01831857
#
# Stress axis : x y z
#
# Youngs Moduli (GPa) = 71.04744 84.08582 47.14855
#
# Poissons Ratio (x) = 0.46575 0.14369
# Poissons Ratio (y) = 0.39353 0.27548
# Poissons Ratio (z) = 0.21652 0.49129
#
# Static dielectric constant tensor:
#      x y z
#    x 1.579110 -0.014310 0.010230 
#    y -0.014310 1.628820 0.024370 
#    z 0.010230 0.024370 1.619110 
# 
# From -- ./inp_files/260647.got.cif
#   From: 2010.05.17/outbox.cif.g08.bks.cpg/sg2_131_cif.got.tgz:260647.got - 2010.06.03 11:33:40.
