data_PCOD9049957
_publ_section_title
;
Structure prediction by ZEFSAII (Michael W. Deem and Ramdas Pophale) SiO2 
 PCOD9049957
Probable space group: P -1
;
_chemical_formula_sum "Si O2"
_cell_formula_units_Z 13
_cell_length_a 5.195155
_cell_length_b 24.942007
_cell_length_c 24.591037
_cell_angle_alpha 168.609884
_cell_angle_beta 52.746441
_cell_angle_gamma 127.267825
_cell_volume 499.398025
_symmetry_space_group_name_H-M "P -1"
_symmetry_group_IT_number 2
_symmetry_cell_setting 'triclinic'
loop_
_space_group_symop_operation_xyz
x,y,z
-x,-y,-z
loop_
_atom_site_type_symbol
_atom_site_label
_atom_site_fract_x
_atom_site_fract_y
_atom_site_fract_z
Si Si1 0.489628 0.569522 0.368699
Si Si2 0.242849 0.637228 0.039375
Si Si3 0.841463 0.289471 0.613920
Si Si4 0.384420 0.499657 0.439875
Si Si5 0.135794 0.885340 0.442053
Si Si6 0.500000 0.000000 0.000000
Si Si7 0.401173 0.109436 0.849672
O O1 0.425982 0.549695 0.420472
O O2 0.867734 0.525940 0.267097
O O3 0.462390 0.868203 0.643864
O O4 0.270123 0.342571 0.137083
O O5 0.556030 0.479319 0.856718
O O6 0.937981 0.421923 0.873391
O O7 0.321782 0.703262 0.031839
O O8 0.131264 0.924216 0.358619
O O9 0.925071 0.141646 0.512048
O O10 0.751885 0.061227 0.352153
O O11 0.554766 0.741773 0.694781
O O12 0.000000 0.500000 0.500000
O O13 0.486784 0.209211 0.157643
O O14 0.500000 0.000000 0.500000
#
# Coordination Sequence:
#
# PCOD9049957 Si02
#       7
#     2   2   2   2   2   1   2
#     4  12  27  45  73 110 143 189 245 295 364 416
#     4  12  24  48  67 106 137 184 241 289 360 438
#     4  12  26  45  77  95 152 186 234 312 358 418
#     4  11  25  48  74 104 151 194 234 304 350 426
#     4  12  28  48  73 105 145 187 240 297 359 436
#     4  10  24  48  70 106 142 190 250 270 364 434
#     4  12  24  45  69 107 140 183 248 293 358 434
#
# _framework density 26.031338999999999
#
# number of rings (size 3 to 8) (size 9 to 14) (size 15 to 20)
#    0.000    0.308    6.154    1.846    4.308    4.923 
#    2.769    0.000    0.000    0.000    0.000    0.000 
#    0.000    0.000    0.000    0.000    0.000    0.000 
#
# Total GULP energy -72463.891081 kJ/mol
# GULP energy per Si atom -5574.145468 kJ/mol
# Density = 2.597209 g / cm^3
# Si number density = 26.031339 Si / 1000 Ang^3
#
#
#
# Elastic Constant Matrix: (Units=GPa)
#
#
# Indices 1 2 3 4 5 6 
#
# 1 71.3897 35.8110 33.5577 6.0372 2.5538 -15.4521
# 2 35.8110 139.8559 13.8373 4.2607 13.3575 -26.0168
# 3 33.5577 13.8373 147.1404 28.8351 -18.6009 -20.4212
# 4 6.0372 4.2607 28.8351 41.2111 -21.8435 -2.7775
# 5 2.5538 13.3575 -18.6009 -21.8435 43.2486 -4.5277
# 6 -15.4521 -26.0168 -20.4212 -2.7775 -4.5277 51.1982
#
#
#
# Elastic Compliance Matrix: (Units=1/GPa)
#
#
# Indices 1 2 3 4 5 6 
#
# 1 0.018101 -0.003764 -0.003612 -0.000366 -0.001439 0.001963
# 2 -0.003764 0.009033 0.000490 -0.002150 -0.003102 0.003259
# 3 -0.003612 0.000490 0.009111 -0.004718 0.001881 0.002704
# 4 -0.000366 -0.002150 -0.004718 0.037127 0.017458 0.000473
# 5 -0.001439 -0.003102 0.001881 0.017458 0.034074 0.002700
# 6 0.001963 0.003259 0.002704 0.000473 0.002700 0.023123
#
#
# Mechanical properties :
#
#
# Convention : Reuss Voigt Hill
#
# Bulk Modulus (GPa) = 44.49426 58.31088 51.40257
# Shear Modulus (GPa) = 32.93096 45.47693 39.20395
#
# Velocity S-wave (km/s) = 3.56061 4.18426 3.88497
# Velocity P-wave (km/s) = 5.83384 6.76704 6.31769
#
# Compressibility (1/GPa) = 0.02247481
#
# Stress axis : x y z
#
# Youngs Moduli (GPa) = 55.24641 110.69990 109.75240
#
# Poissons Ratio (x) = 0.41665 0.39644
# Poissons Ratio (y) = 0.20793 -0.05383
# Poissons Ratio (z) = 0.19956 -0.05429
#
# Static dielectric constant tensor:
#      x y z
#    x 2.129450 0.053430 0.021760 
#    y 0.053430 2.035710 -0.042770 
#    z 0.021760 -0.042770 2.003730 
# 
# From -- ./inp_files/615998.got.cif
#   From: 2010.05.17/outbox.cif.g08.bks.cpg/sg2_308_cif.got.tgz:615998.got - 2010.06.03 11:33:40.
