data_PCOD9049341
_publ_section_title
;
Structure prediction by ZEFSAII (Michael W. Deem and Ramdas Pophale) SiO2 
 PCOD9049341
Probable space group: P -1
;
_chemical_formula_sum "Si O2"
_cell_formula_units_Z 13
_cell_length_a 14.564496
_cell_length_b 14.537977
_cell_length_c 8.070999
_cell_angle_alpha 92.450862
_cell_angle_beta 77.819967
_cell_angle_gamma 159.603389
_cell_volume 518.442783
_symmetry_space_group_name_H-M "P -1"
_symmetry_group_IT_number 2
_symmetry_cell_setting 'triclinic'
loop_
_space_group_symop_operation_xyz
x,y,z
-x,-y,-z
loop_
_atom_site_type_symbol
_atom_site_label
_atom_site_fract_x
_atom_site_fract_y
_atom_site_fract_z
Si Si1 0.178397 0.454177 0.488763
Si Si2 0.000000 0.500000 0.500000
Si Si3 0.959079 0.866037 0.602437
Si Si4 0.514962 0.758587 0.030011
Si Si5 0.764416 0.580861 0.204209
Si Si6 0.219235 0.670758 0.070795
Si Si7 0.720835 0.745084 0.210799
O O1 0.989303 0.182537 0.513676
O O2 0.386100 0.645716 0.258180
O O3 0.315758 0.564417 0.628338
O O4 0.022654 0.408999 0.544400
O O5 0.966682 0.501335 0.702591
O O6 0.605201 0.538666 0.762687
O O7 0.000000 0.000000 0.500000
O O8 0.181432 0.084365 0.687948
O O9 0.368166 0.710734 0.993781
O O10 0.405685 0.582601 0.920954
O O11 0.875580 0.095773 0.933789
O O12 0.706289 0.631108 0.291984
O O13 0.000000 0.500000 0.000000
O O14 0.500000 0.000000 0.000000
O O15 0.000000 0.000000 0.000000
#
# Coordination Sequence:
#
# PCOD9049341 Si02
#       7
#     2   1   2   2   2   2   2
#     4  11  25  45  74 102 149 185 243 294 362 424
#     4  10  24  46  72 108 136 196 240 294 354 436
#     4  12  25  45  70 105 142 185 236 298 364 427
#     4  11  25  43  67 105 139 185 236 295 351 427
#     4  12  25  45  73 103 144 187 235 290 363 428
#     4  11  23  44  69  98 141 182 240 297 354 417
#     4  12  25  45  72 105 143 188 242 294 363 439
#
# _framework density 25.075091
#
# number of rings (size 3 to 8) (size 9 to 14) (size 15 to 20)
#    0.000    0.615    1.538    6.462    0.000    1.846 
#    0.000    6.154    0.000    0.000    0.000    0.000 
#    0.000    0.000    0.000    0.000    0.000    0.000 
#
# Total GULP energy -72477.849211 kJ/mol
# GULP energy per Si atom -5575.219170 kJ/mol
# Density = 2.501802 g / cm^3
# Si number density = 25.075091 Si / 1000 Ang^3
#
#
#
# Elastic Constant Matrix: (Units=GPa)
#
#
# Indices 1 2 3 4 5 6 
#
# 1 186.6431 14.9705 17.5217 0.3318 3.9358 -2.2832
# 2 14.9705 121.8283 57.0878 -4.9696 0.4646 29.1541
# 3 17.5217 57.0878 104.7365 9.2885 9.5014 21.6633
# 4 0.3318 -4.9696 9.2885 33.5719 6.3627 -4.6184
# 5 3.9358 0.4646 9.5014 6.3627 49.0065 15.5983
# 6 -2.2832 29.1541 21.6633 -4.6184 15.5983 41.3817
#
#
#
# Elastic Compliance Matrix: (Units=1/GPa)
#
#
# Indices 1 2 3 4 5 6 
#
# 1 0.005526 -0.000621 -0.000876 0.000468 -0.000827 0.001565
# 2 -0.000621 0.012746 -0.005879 0.002014 0.002983 -0.006836
# 3 -0.000876 -0.005879 0.014169 -0.005121 -0.000814 -0.003589
# 4 0.000468 0.002014 -0.005121 0.033568 -0.005709 0.007187
# 5 -0.000827 0.002983 -0.000814 -0.005709 0.025105 -0.011822
# 6 0.001565 -0.006836 -0.003589 0.007187 -0.011822 0.036205
#
#
# Mechanical properties :
#
#
# Convention : Reuss Voigt Hill
#
# Bulk Modulus (GPa) = 56.53113 65.81865 61.17489
# Shear Modulus (GPa) = 33.79153 46.36722 40.07938
#
# Velocity S-wave (km/s) = 3.67497 4.30482 4.00230
# Velocity P-wave (km/s) = 6.37188 7.14243 6.76813
#
# Compressibility (1/GPa) = 0.01768937
#
# Stress axis : x y z
#
# Youngs Moduli (GPa) = 180.97582 78.45618 70.57680
#
# Poissons Ratio (x) = 0.04869 0.06184
# Poissons Ratio (y) = 0.11231 0.41490
# Poissons Ratio (z) = 0.15858 0.46122
#
# Static dielectric constant tensor:
#      x y z
#    x 2.061710 -0.092040 0.005830 
#    y -0.092040 2.060250 0.050850 
#    z 0.005830 0.050850 2.121130 
# 
# From -- ./inp_files/313338.got.cif
#   From: 2010.05.17/outbox.cif.g08.bks.cpg/sg2_157_cif.got.tgz:313338.got - 2010.06.03 11:33:40.
