data_PCOD9049938
_publ_section_title
;
Structure prediction by ZEFSAII (Michael W. Deem and Ramdas Pophale) SiO2 
 PCOD9049938
Probable space group: P -1
;
_chemical_formula_sum "Si O2"
_cell_formula_units_Z 16
_cell_length_a 8.575856
_cell_length_b 13.821477
_cell_length_c 6.725651
_cell_angle_alpha 61.966097
_cell_angle_beta 88.972196
_cell_angle_gamma 84.080002
_cell_volume 699.486354
_symmetry_space_group_name_H-M "P -1"
_symmetry_group_IT_number 2
_symmetry_cell_setting 'triclinic'
loop_
_space_group_symop_operation_xyz
x,y,z
-x,-y,-z
loop_
_atom_site_type_symbol
_atom_site_label
_atom_site_fract_x
_atom_site_fract_y
_atom_site_fract_z
Si Si1 0.055003 0.636903 0.492080
Si Si2 0.897712 0.779161 0.030690
Si Si3 0.752796 0.168531 0.582787
Si Si4 0.689154 0.971253 0.041171
Si Si5 0.659508 0.523715 0.266141
Si Si6 0.868618 0.065741 0.296136
Si Si7 0.456521 0.333226 0.521892
Si Si8 0.194852 0.356413 0.199830
O O1 0.114145 0.751435 0.456259
O O2 0.204497 0.548734 0.542856
O O3 0.959901 0.672747 0.262310
O O4 0.950860 0.594880 0.710707
O O5 0.755533 0.851392 0.074623
O O6 0.851128 0.736988 0.858074
O O7 0.038237 0.855327 0.920396
O O8 0.755879 0.139853 0.378073
O O9 0.594393 0.236092 0.598404
O O10 0.766980 0.055672 0.812137
O O11 0.764688 0.992426 0.234326
O O12 0.500000 0.000000 0.000000
O O13 0.524890 0.443072 0.328495
O O14 0.596504 0.630557 0.290896
O O15 0.729360 0.556855 0.024634
O O16 0.000000 0.000000 0.500000
O O17 0.318628 0.307176 0.407036
#
# Coordination Sequence:
#
# PCOD9049938 Si02
#       8
#     2   2   2   2   2   2   2   2
#     4  11  24  45  71 100 134 180 233 285 345 414
#     4  12  26  44  70 103 140 182 227 289 352 413
#     4  11  24  46  70 101 135 185 231 281 349 418
#     4  12  29  44  73 104 145 185 233 288 352 420
#     4  10  24  48  69  98 138 185 227 286 352 409
#     4  12  24  47  74 100 140 190 237 289 346 418
#     4  10  25  45  71  99 143 179 228 286 350 419
#     4  12  25  41  71 104 136 176 235 288 343 409
#
# _framework density 22.873926999999998
#
# number of rings (size 3 to 8) (size 9 to 14) (size 15 to 20)
#    0.000    0.750    3.750    2.625    5.250    3.500 
#    2.250    0.000    0.000    0.000    0.000    0.000 
#    0.000    0.000    0.000    0.000    0.000    0.000 
#
# Total GULP energy -89576.707666 kJ/mol
# GULP energy per Si atom -5598.544229 kJ/mol
# Density = 2.282186 g / cm^3
# Si number density = 22.873927 Si / 1000 Ang^3
#
#
#
# Elastic Constant Matrix: (Units=GPa)
#
#
# Indices 1 2 3 4 5 6 
#
# 1 86.8012 24.0584 33.2216 23.4044 3.2818 -5.8022
# 2 24.0584 97.6076 20.3185 24.2513 8.9886 -8.2394
# 3 33.2216 20.3185 89.6007 8.9770 -5.8258 -8.4931
# 4 23.4044 24.2513 8.9770 34.6917 11.0861 -3.9544
# 5 3.2818 8.9886 -5.8258 11.0861 43.2269 4.7934
# 6 -5.8022 -8.2394 -8.4931 -3.9544 4.7934 42.5562
#
#
#
# Elastic Compliance Matrix: (Units=1/GPa)
#
#
# Indices 1 2 3 4 5 6 
#
# 1 0.016040 -0.000694 -0.004803 -0.009280 0.000641 0.000159
# 2 -0.000694 0.012902 -0.001845 -0.007555 -0.001103 0.001457
# 3 -0.004803 -0.001845 0.013606 0.000443 0.002304 0.001485
# 4 -0.009280 -0.007555 0.000443 0.043427 -0.009070 0.002417
# 5 0.000641 -0.001103 0.002304 -0.009070 0.026336 -0.003476
# 6 0.000159 0.001457 0.001485 0.002417 -0.003476 0.024715
#
#
# Mechanical properties :
#
#
# Convention : Reuss Voigt Hill
#
# Bulk Modulus (GPa) = 35.88873 47.68961 41.78917
# Shear Modulus (GPa) = 31.05626 37.18903 34.12264
#
# Velocity S-wave (km/s) = 3.68871 4.03653 3.86653
# Velocity P-wave (km/s) = 5.81945 6.52832 6.18405
#
# Compressibility (1/GPa) = 0.02786390
#
# Stress axis : x y z
#
# Youngs Moduli (GPa) = 62.34494 77.50812 73.49589
#
# Poissons Ratio (x) = 0.05375 0.35302
# Poissons Ratio (y) = 0.04324 0.13562
# Poissons Ratio (z) = 0.29946 0.14302
#
# Static dielectric constant tensor:
#      x y z
#    x 1.900330 0.021040 -0.010970 
#    y 0.021040 1.836630 -0.025750 
#    z -0.010970 -0.025750 1.825630 
# 
# From -- ./inp_files/37390.got.cif
#   From: 2010.05.17/outbox.cif.g08.bks.cpg/sg2_19_cif.got.tgz:37390.got - 2010.06.03 11:33:40.
