data_PCOD9049387
_publ_section_title
;
Structure prediction by ZEFSAII (Michael W. Deem and Ramdas Pophale) SiO2 
 PCOD9049387
Probable space group: P -1
;
_chemical_formula_sum "Si O2"
_cell_formula_units_Z 16
_cell_length_a 5.666978
_cell_length_b 9.105042
_cell_length_c 20.558258
_cell_angle_alpha 119.256630
_cell_angle_beta 74.462941
_cell_angle_gamma 127.252661
_cell_volume 736.039605
_symmetry_space_group_name_H-M "P -1"
_symmetry_group_IT_number 2
_symmetry_cell_setting 'triclinic'
loop_
_space_group_symop_operation_xyz
x,y,z
-x,-y,-z
loop_
_atom_site_type_symbol
_atom_site_label
_atom_site_fract_x
_atom_site_fract_y
_atom_site_fract_z
Si Si1 0.629595 0.446262 0.076456
Si Si2 0.607174 0.843398 0.308505
Si Si3 0.673415 0.600642 0.786545
Si Si4 0.907642 0.866068 0.579169
Si Si5 0.344921 0.686773 0.090087
Si Si6 0.539125 0.426415 0.349320
Si Si7 0.326263 0.905651 0.766370
Si Si8 0.152139 0.841053 0.433596
O O1 0.483968 0.349203 0.136062
O O2 0.493198 0.575410 0.088798
O O3 0.985098 0.567282 0.088981
O O4 0.562589 0.296125 0.988759
O O5 0.441026 0.629921 0.238153
O O6 0.385925 0.814108 0.375225
O O7 0.683118 0.008508 0.284157
O O8 0.921130 0.942680 0.342489
O O9 0.583725 0.566587 0.709872
O O10 0.016315 0.775188 0.798557
O O11 0.689597 0.666196 0.593694
O O12 0.131221 0.842611 0.513437
O O13 0.775342 0.944681 0.553548
O O14 0.458850 0.898572 0.163143
O O15 0.600107 0.255389 0.292559
O O16 0.829713 0.644576 0.393511
#
# Coordination Sequence:
#
# PCOD9049387 Si02
#       8
#     2   2   2   2   2   2   2   2
#     4  10  24  46  73 104 141 185 230 281 342 411
#     4  12  23  44  63  96 130 174 226 276 335 414
#     4  12  26  41  69 100 135 179 224 281 343 410
#     4  11  24  42  64  91 129 175 221 278 346 406
#     4  10  24  46  73 104 141 185 230 281 342 411
#     4  12  25  42  63 100 132 168 228 286 337 410
#     4  12  26  41  69 100 135 179 224 281 343 410
#     4  11  24  42  64  91 129 175 221 278 346 406
#
# _framework density 21.737959
#
# number of rings (size 3 to 8) (size 9 to 14) (size 15 to 20)
#    0.000    0.750    6.250    0.750    7.000    0.500 
#    0.000    1.875    0.000    0.000    0.000    0.000 
#    0.000    0.000    0.000    0.000    0.000    0.000 
#
# Total GULP energy -89204.421504 kJ/mol
# GULP energy per Si atom -5575.276344 kJ/mol
# Density = 2.168848 g / cm^3
# Si number density = 21.737959 Si / 1000 Ang^3
#
#
#
# Elastic Constant Matrix: (Units=GPa)
#
#
# Indices 1 2 3 4 5 6 
#
# 1 61.9145 27.3482 21.2718 -6.6916 0.1706 8.2781
# 2 27.3482 102.6857 44.9215 -9.8791 -13.8954 17.5642
# 3 21.2718 44.9215 147.1713 -23.2388 2.6514 14.0541
# 4 -6.6916 -9.8791 -23.2388 18.6648 35.7155 -22.4539
# 5 0.1706 -13.8954 2.6514 35.7155 8.0644 15.6840
# 6 8.2781 17.5642 14.0541 -22.4539 15.6840 26.1305
#
#
#
# Elastic Compliance Matrix: (Units=1/GPa)
#
#
# Indices 1 2 3 4 5 6 
#
# 1 0.018685 -0.003975 -0.001266 -0.000302 -0.000030 -0.002808
# 2 -0.003975 0.012072 -0.002234 0.005300 -0.001684 -0.000088
# 3 -0.001266 -0.002234 0.007948 -0.000243 0.002048 -0.003810
# 4 -0.000302 0.005300 -0.000243 0.003117 0.019754 -0.012515
# 5 -0.000030 -0.001684 0.002048 0.019754 0.000896 0.016477
# 6 -0.002808 -0.000088 -0.003810 -0.012515 0.016477 0.020623
#
#
# Mechanical properties :
#
#
# Convention : Reuss Voigt Hill
#
# Bulk Modulus (GPa) = 42.09987 55.42828 48.76407
# Shear Modulus (GPa) = 57.99666 25.12061 41.55863
#
# Velocity S-wave (km/s) = 5.17086 3.40311 4.37716
# Velocity P-wave (km/s) = 7.42021 6.40276 6.93018
#
# Compressibility (1/GPa) = 0.02375304
#
# Stress axis : x y z
#
# Youngs Moduli (GPa) = 53.51843 82.83882 125.81065
#
# Poissons Ratio (x) = 0.32931 0.15932
# Poissons Ratio (y) = 0.21275 0.28112
# Poissons Ratio (z) = 0.06777 0.18510
#
# Static dielectric constant tensor:
#      x y z
#    x 1.891910 -0.022420 -0.017540 
#    y -0.022420 1.846940 0.027310 
#    z -0.017540 0.027310 1.837700 
# 
# From -- ./inp_files/13698.got.cif
#   From: 2010.05.17/outbox.cif.g08.bks.cpg/sg2_7_cif.got.tgz:13698.got - 2010.06.03 11:33:40.
