data_PCOD9049577
_publ_section_title
;
Structure prediction by ZEFSAII (Michael W. Deem and Ramdas Pophale) SiO2 
 PCOD9049577
Probable space group: P -1
;
_chemical_formula_sum "Si O2"
_cell_formula_units_Z 16
_cell_length_a 17.444774
_cell_length_b 5.319169
_cell_length_c 8.650502
_cell_angle_alpha 61.265603
_cell_angle_beta 118.580384
_cell_angle_gamma 108.042276
_cell_volume 614.760404
_symmetry_space_group_name_H-M "P -1"
_symmetry_group_IT_number 2
_symmetry_cell_setting 'triclinic'
loop_
_space_group_symop_operation_xyz
x,y,z
-x,-y,-z
loop_
_atom_site_type_symbol
_atom_site_label
_atom_site_fract_x
_atom_site_fract_y
_atom_site_fract_z
Si Si1 0.163836 0.927045 0.540422
Si Si2 0.651686 0.084063 0.354502
Si Si3 0.681261 0.672742 0.048981
Si Si4 0.872852 0.747930 0.302494
Si Si5 0.534415 0.077383 0.685646
Si Si6 0.007519 0.309925 0.841477
Si Si7 0.137481 0.448780 0.178782
Si Si8 0.676667 0.565898 0.728400
O O1 0.268662 0.002070 0.650476
O O2 0.112857 0.041995 0.601282
O O3 0.139083 0.111205 0.316454
O O4 0.150023 0.592856 0.589989
O O5 0.550693 0.965016 0.273033
O O6 0.675386 0.906411 0.585066
O O7 0.658259 0.430180 0.232194
O O8 0.684530 0.515749 0.932352
O O9 0.604899 0.877365 0.884642
O O10 0.780907 0.823293 0.116920
O O11 0.957809 0.742054 0.279734
O O12 0.587562 0.391040 0.638635
O O13 0.500000 0.000000 0.500000
O O14 0.920515 0.440132 0.774002
O O15 0.087463 0.492825 0.957890
O O16 0.000000 0.000000 0.000000
O O17 0.239831 0.551027 0.238969
#
# Coordination Sequence:
#
# PCOD9049577 Si02
#       8
#     2   2   2   2   2   2   2   2
#     4  10  26  48  75 105 150 193 247 310 376 447
#     4  10  24  47  66 107 141 188 252 300 370 442
#     4  11  25  44  73 102 145 199 240 311 374 445
#     4  11  26  48  74 108 147 193 248 309 380 445
#     4  12  26  44  73 106 146 194 251 312 375 442
#     4  11  26  42  75 106 149 188 250 304 369 463
#     4  10  25  47  71 108 142 200 242 303 380 445
#     4  11  24  47  71  99 150 192 247 308 374 450
#
# _framework density 26.026396999999999
#
# number of rings (size 3 to 8) (size 9 to 14) (size 15 to 20)
#    0.000    1.250    2.500    0.750   10.500    5.500 
#    0.000    0.000    0.000    0.000    0.000    0.000 
#    0.000    0.000    0.000    0.000    0.000    0.000 
#
# Total GULP energy -89416.366488 kJ/mol
# GULP energy per Si atom -5588.522906 kJ/mol
# Density = 2.596716 g / cm^3
# Si number density = 26.026397 Si / 1000 Ang^3
#
#
#
# Elastic Constant Matrix: (Units=GPa)
#
#
# Indices 1 2 3 4 5 6 
#
# 1 191.0596 15.2083 37.4592 -1.2494 33.7657 4.1396
# 2 15.2083 65.5864 48.5307 -7.1520 2.8821 4.3843
# 3 37.4592 48.5307 104.9867 -15.8110 11.7347 -3.7828
# 4 -1.2494 -7.1520 -15.8110 62.1631 -0.1824 -0.5790
# 5 33.7657 2.8821 11.7347 -0.1824 38.1077 -5.1948
# 6 4.1396 4.3843 -3.7828 -0.5790 -5.1948 37.9442
#
#
#
# Elastic Compliance Matrix: (Units=1/GPa)
#
#
# Indices 1 2 3 4 5 6 
#
# 1 0.006608 0.000242 -0.001973 -0.000373 -0.005500 -0.001704
# 2 0.000242 0.023780 -0.011350 -0.000178 0.000966 -0.003776
# 3 -0.001973 -0.011350 0.016223 0.002802 -0.001979 0.002916
# 4 -0.000373 -0.000178 0.002802 0.016775 -0.000364 0.000547
# 5 -0.005500 0.000966 -0.001979 -0.000364 0.032291 0.004706
# 6 -0.001704 -0.003776 0.002916 0.000547 0.004706 0.027920
#
#
# Mechanical properties :
#
#
# Convention : Reuss Voigt Hill
#
# Bulk Modulus (GPa) = 48.89678 62.66990 55.78334
# Shear Modulus (GPa) = 31.93377 45.00530 38.46954
#
# Velocity S-wave (km/s) = 3.50662 4.16290 3.84877
# Velocity P-wave (km/s) = 5.93493 6.87299 6.42111
#
# Compressibility (1/GPa) = 0.02045124
#
# Stress axis : x y z
#
# Youngs Moduli (GPa) = 151.33378 42.05299 61.63908
#
# Poissons Ratio (x) = -0.01019 0.12158
# Poissons Ratio (y) = -0.03666 0.69958
# Poissons Ratio (z) = 0.29851 0.47728
#
# Static dielectric constant tensor:
#      x y z
#    x 2.094940 0.009350 0.072510 
#    y 0.009350 2.032960 0.002550 
#    z 0.072510 0.002550 2.126520 
# 
# From -- ./inp_files/323364.got.cif
#   From: 2010.05.17/outbox.cif.g08.bks.cpg/sg2_162_cif.got.tgz:323364.got - 2010.06.03 11:33:40.
