data_PCOD9049134
_publ_section_title
;
Structure prediction by ZEFSAII (Michael W. Deem and Ramdas Pophale) SiO2 
 PCOD9049134
Probable space group: P -1
;
_chemical_formula_sum "Si O2"
_cell_formula_units_Z 12
_cell_length_a 16.564146
_cell_length_b 18.415113
_cell_length_c 13.200109
_cell_angle_alpha 157.396743
_cell_angle_beta 25.540046
_cell_angle_gamma 164.375730
_cell_volume 413.391640
_symmetry_space_group_name_H-M "P -1"
_symmetry_group_IT_number 2
_symmetry_cell_setting 'triclinic'
loop_
_space_group_symop_operation_xyz
x,y,z
-x,-y,-z
loop_
_atom_site_type_symbol
_atom_site_label
_atom_site_fract_x
_atom_site_fract_y
_atom_site_fract_z
Si Si1 0.140962 0.058747 0.807773
Si Si2 0.252719 0.591573 0.646492
Si Si3 0.855728 0.959245 0.497940
Si Si4 0.253238 0.570380 0.064727
Si Si5 0.628978 0.343998 0.188837
Si Si6 0.705060 0.394377 0.717074
O O1 0.390129 0.142225 0.431662
O O2 0.205272 0.311015 0.008417
O O3 0.895779 0.732134 0.611003
O O4 0.000000 0.000000 0.000000
O O5 0.224607 0.646508 0.865236
O O6 0.556202 0.817206 0.344765
O O7 0.063459 0.569626 0.758273
O O8 0.701902 0.891673 0.692531
O O9 0.193546 0.300812 0.790794
O O10 0.177634 0.310238 0.578133
O O11 0.382671 0.718400 0.996368
O O12 0.415258 0.745813 0.213250
O O13 0.000000 0.500000 0.500000
#
# Coordination Sequence:
#
# PCOD9049134 Si02
#       6
#     2   2   2   2   2   2
#     4  11  24  49  72  98 148 187 243 305 370 429
#     4  10  25  42  71 105 143 189 237 296 362 429
#     4  10  24  46  69 107 146 192 237 295 362 428
#     4  12  23  45  71 106 142 189 242 298 361 438
#     4  10  24  48  70 107 150 190 237 299 364 429
#     4  11  27  46  73 107 139 193 246 305 364 440
#
# _framework density 29.028162999999999
#
# number of rings (size 3 to 8) (size 9 to 14) (size 15 to 20)
#    1.000    0.333    0.000    4.500    0.000    8.667 
#    9.000    0.000    0.000    0.000    0.000    0.000 
#    0.000    0.000    0.000    0.000    0.000    0.000 
#
# Total GULP energy -67250.291381 kJ/mol
# GULP energy per Si atom -5604.190948 kJ/mol
# Density = 2.896209 g / cm^3
# Si number density = 29.028163 Si / 1000 Ang^3
#
#
#
# Elastic Constant Matrix: (Units=GPa)
#
#
# Indices 1 2 3 4 5 6 
#
# 1 204.9769 25.6912 57.1176 -7.6172 17.9897 -15.1240
# 2 25.6912 133.4569 43.4583 15.3258 9.8080 2.8571
# 3 57.1176 43.4583 107.1030 6.2894 18.6126 -0.2402
# 4 -7.6172 15.3258 6.2894 50.7161 -4.5778 1.7006
# 5 17.9897 9.8080 18.6126 -4.5778 68.0081 -3.8790
# 6 -15.1240 2.8571 -0.2402 1.7006 -3.8790 48.6350
#
#
#
# Elastic Compliance Matrix: (Units=1/GPa)
#
#
# Indices 1 2 3 4 5 6 
#
# 1 0.005991 -0.000305 -0.003051 0.001264 -0.000519 0.001780
# 2 -0.000305 0.008927 -0.003232 -0.002369 -0.000516 -0.000593
# 3 -0.003051 -0.003232 0.012755 -0.001247 -0.002349 -0.000840
# 4 0.001264 -0.002369 -0.001247 0.020939 0.001754 -0.000066
# 5 -0.000519 -0.000516 -0.002349 0.001754 0.015737 0.001051
# 6 0.001780 -0.000593 -0.000840 -0.000066 0.001051 0.021232
#
#
# Mechanical properties :
#
#
# Convention : Reuss Voigt Hill
#
# Bulk Modulus (GPa) = 68.98264 77.56345 73.27305
# Shear Modulus (GPa) = 48.26761 54.75649 51.51205
#
# Velocity S-wave (km/s) = 4.08215 4.34789 4.21712
# Velocity P-wave (km/s) = 6.78485 7.20997 7.00064
#
# Compressibility (1/GPa) = 0.01449640
#
# Stress axis : x y z
#
# Youngs Moduli (GPa) = 166.91933 112.02047 78.39920
#
# Poissons Ratio (x) = 0.03414 0.23922
# Poissons Ratio (y) = 0.05087 0.25341
# Poissons Ratio (z) = 0.50932 0.36208
#
# Static dielectric constant tensor:
#      x y z
#    x 2.314840 0.008960 -0.015820 
#    y 0.008960 2.205970 -0.034210 
#    z -0.015820 -0.034210 2.303020 
# 
# From -- ./inp_files/69279.got.cif
#   From: 2010.05.17/outbox.cif.g08.bks.cpg/sg2_35_cif.got.tgz:69279.got - 2010.06.03 11:33:40.
