data_PCOD9049701
_publ_section_title
;
Structure prediction by ZEFSAII (Michael W. Deem and Ramdas Pophale) SiO2 
 PCOD9049701
Probable space group: P -1
;
_chemical_formula_sum "Si O2"
_cell_formula_units_Z 14
_cell_length_a 5.217699
_cell_length_b 12.606745
_cell_length_c 8.971717
_cell_angle_alpha 81.877186
_cell_angle_beta 101.856420
_cell_angle_gamma 95.409594
_cell_volume 570.460763
_symmetry_space_group_name_H-M "P -1"
_symmetry_group_IT_number 2
_symmetry_cell_setting 'triclinic'
loop_
_space_group_symop_operation_xyz
x,y,z
-x,-y,-z
loop_
_atom_site_type_symbol
_atom_site_label
_atom_site_fract_x
_atom_site_fract_y
_atom_site_fract_z
Si Si1 0.993545 0.622334 0.230014
Si Si2 0.489621 0.844338 0.903198
Si Si3 0.421150 0.119292 0.416343
Si Si4 0.599976 0.619190 0.931088
Si Si5 0.144864 0.031189 0.860422
Si Si6 0.497324 0.502492 0.322879
Si Si7 0.027157 0.815247 0.427190
O O1 0.792715 0.528363 0.292956
O O2 0.980828 0.713776 0.334025
O O3 0.288992 0.591430 0.246215
O O4 0.861987 0.649157 0.051257
O O5 0.659099 0.867678 0.768302
O O6 0.422968 0.717598 0.922534
O O7 0.266232 0.925619 0.835910
O O8 0.624712 0.883032 0.067776
O O9 0.203004 0.162155 0.490463
O O10 0.695579 0.189055 0.458803
O O11 0.500000 0.000000 0.500000
O O12 0.621979 0.601255 0.760740
O O13 0.500000 0.500000 0.000000
O O14 0.972740 0.085371 0.707698
O O15 0.000000 0.000000 0.000000
O O16 0.500000 0.500000 0.500000
#
# Coordination Sequence:
#
# PCOD9049701 Si02
#       7
#     2   2   2   2   2   2   2
#     4  11  24  47  70 100 141 189 236 296 362 425
#     4  11  25  46  70 105 145 188 248 296 364 437
#     4  12  26  46  71 106 151 191 238 304 368 436
#     4  10  24  47  72 101 144 194 243 298 360 430
#     4  11  25  44  72 106 142 191 239 301 359 442
#     4  11  25  46  71 105 140 184 243 302 357 425
#     4  12  26  45  73 103 148 190 238 295 372 434
#
# _framework density 24.541568000000002
#
# number of rings (size 3 to 8) (size 9 to 14) (size 15 to 20)
#    0.000    0.857    2.857    3.000    8.000    2.286 
#    5.143    0.000    0.000    0.000    0.000    0.000 
#    0.000    0.000    0.000    0.000    0.000    0.000 
#
# Total GULP energy -78323.472711 kJ/mol
# GULP energy per Si atom -5594.533765 kJ/mol
# Density = 2.448571 g / cm^3
# Si number density = 24.541568 Si / 1000 Ang^3
#
#
#
# Elastic Constant Matrix: (Units=GPa)
#
#
# Indices 1 2 3 4 5 6 
#
# 1 81.3978 14.8619 26.6466 17.3322 -7.4901 -4.8605
# 2 14.8619 129.8889 31.6557 27.8518 -5.1513 -17.9522
# 3 26.6466 31.6557 143.3682 23.9565 8.8724 -4.3167
# 4 17.3322 27.8518 23.9565 43.8144 0.3492 -5.6907
# 5 -7.4901 -5.1513 8.8724 0.3492 45.4767 7.8884
# 6 -4.8605 -17.9522 -4.3167 -5.6907 7.8884 22.0171
#
#
#
# Elastic Compliance Matrix: (Units=1/GPa)
#
#
# Indices 1 2 3 4 5 6 
#
# 1 0.014179 0.000023 -0.002043 -0.004444 0.002658 0.000648
# 2 0.000023 0.009938 -0.001214 -0.004817 0.000271 0.006528
# 3 -0.002043 -0.001214 0.008240 -0.002886 -0.002090 0.000178
# 4 -0.004444 -0.004817 -0.002886 0.029580 -0.001406 0.002674
# 5 0.002658 0.000271 -0.002090 -0.001406 0.024386 -0.008702
# 6 0.000648 0.006528 0.000178 0.002674 -0.008702 0.054729
#
#
# Mechanical properties :
#
#
# Convention : Reuss Voigt Hill
#
# Bulk Modulus (GPa) = 38.62503 55.66483 47.14493
# Shear Modulus (GPa) = 32.02061 41.02769 36.52415
#
# Velocity S-wave (km/s) = 3.61605 4.09316 3.86198
# Velocity P-wave (km/s) = 5.76257 6.71339 6.25607
#
# Compressibility (1/GPa) = 0.02588994
#
# Stress axis : x y z
#
# Youngs Moduli (GPa) = 70.52464 100.62375 121.36381
#
# Poissons Ratio (x) = -0.00235 0.24795
# Poissons Ratio (y) = -0.00165 0.14733
# Poissons Ratio (z) = 0.14408 0.12215
#
# Static dielectric constant tensor:
#      x y z
#    x 2.311310 0.208410 -0.216820 
#    y 0.208410 2.056610 -0.082760 
#    z -0.216820 -0.082760 2.141390 
# 
# From -- ./inp_files/82439.got.cif
#   From: 2010.05.17/outbox.cif.g08.bks.cpg/sg2_42_cif.got.tgz:82439.got - 2010.06.03 11:33:40.
