data_PCOD9049605
_publ_section_title
;
Structure prediction by ZEFSAII (Michael W. Deem and Ramdas Pophale) SiO2 
 PCOD9049605
Probable space group: P -1
;
_chemical_formula_sum "Si O2"
_cell_formula_units_Z 14
_cell_length_a 9.223469
_cell_length_b 10.720006
_cell_length_c 9.418262
_cell_angle_alpha 70.679267
_cell_angle_beta 44.639286
_cell_angle_gamma 77.958405
_cell_volume 616.969989
_symmetry_space_group_name_H-M "P -1"
_symmetry_group_IT_number 2
_symmetry_cell_setting 'triclinic'
loop_
_space_group_symop_operation_xyz
x,y,z
-x,-y,-z
loop_
_atom_site_type_symbol
_atom_site_label
_atom_site_fract_x
_atom_site_fract_y
_atom_site_fract_z
Si Si1 0.962538 0.578201 0.850577
Si Si2 0.256151 0.761586 0.687148
Si Si3 0.294887 0.657975 0.002008
Si Si4 0.103535 0.826621 0.319267
Si Si5 0.708965 0.746516 0.794181
Si Si6 0.575241 0.049855 0.729480
Si Si7 0.916366 0.939252 0.934024
O O1 0.867236 0.465407 0.855400
O O2 0.791899 0.690066 0.905982
O O3 0.187183 0.654004 0.656038
O O4 0.000000 0.500000 0.000000
O O5 0.369510 0.885391 0.486319
O O6 0.354096 0.706575 0.781997
O O7 0.038227 0.807244 0.883567
O O8 0.183689 0.759504 0.145832
O O9 0.519386 0.650205 0.917635
O O10 0.291237 0.864592 0.280647
O O11 0.916183 0.745226 0.554528
O O12 0.015239 0.965960 0.279752
O O13 0.632347 0.897112 0.776177
O O14 0.329974 0.064203 0.903832
O O15 0.000000 0.000000 0.000000
#
# Coordination Sequence:
#
# PCOD9049605 Si02
#       7
#     2   2   2   2   2   2   2
#     4  10  24  47  68  92 131 183 225 269 327 391
#     4  11  23  45  67  99 138 176 216 272 330 396
#     4  11  26  43  68  97 137 178 223 268 325 391
#     4  12  24  40  64 104 133 169 221 271 330 392
#     4  12  23  43  71  97 134 175 220 274 334 392
#     4  12  25  40  71 102 136 172 218 269 343 395
#     4  12  24  40  67 104 140 169 214 276 334 394
#
# _framework density 22.691541000000001
#
# number of rings (size 3 to 8) (size 9 to 14) (size 15 to 20)
#    0.000    0.571    5.714    2.143    4.000    1.714 
#    0.000    0.000    0.000    6.000    0.000    0.000 
#    0.000    0.000    0.000    0.000    0.000    0.000 
#
# Total GULP energy -78047.259335 kJ/mol
# GULP energy per Si atom -5574.804238 kJ/mol
# Density = 2.263989 g / cm^3
# Si number density = 22.691541 Si / 1000 Ang^3
#
#
#
# Elastic Constant Matrix: (Units=GPa)
#
#
# Indices 1 2 3 4 5 6 
#
# 1 100.8016 7.0796 10.4606 0.7567 -0.5813 3.3122
# 2 7.0796 52.7744 22.9958 -17.9343 -4.4954 7.6327
# 3 10.4606 22.9958 74.1575 -10.9859 -8.7386 -4.1977
# 4 0.7567 -17.9343 -10.9859 24.7066 -4.8873 7.7703
# 5 -0.5813 -4.4954 -8.7386 -4.8873 31.6814 -6.8962
# 6 3.3122 7.6327 -4.1977 7.7703 -6.8962 42.4549
#
#
#
# Elastic Compliance Matrix: (Units=1/GPa)
#
#
# Indices 1 2 3 4 5 6 
#
# 1 0.010193 -0.001441 -0.001409 -0.002007 -0.000811 -0.000440
# 2 -0.001441 0.031984 -0.006120 0.024568 0.004433 -0.010019
# 3 -0.001409 -0.006120 0.016785 0.003053 0.004882 0.003104
# 4 -0.002007 0.024568 0.003053 0.066478 0.011441 -0.014267
# 5 -0.000811 0.004433 0.004882 0.011441 0.036054 0.003512
# 6 -0.000440 -0.010019 0.003104 -0.014267 0.003512 0.028879
#
#
# Mechanical properties :
#
#
# Convention : Reuss Voigt Hill
#
# Bulk Modulus (GPa) = 24.37706 34.31172 29.34439
# Shear Modulus (GPa) = 22.52392 32.24842 27.38617
#
# Velocity S-wave (km/s) = 3.15399 3.77392 3.47780
# Velocity P-wave (km/s) = 4.90201 5.84327 5.39321
#
# Compressibility (1/GPa) = 0.04102217
#
# Stress axis : x y z
#
# Youngs Moduli (GPa) = 98.10941 31.26537 59.57804
#
# Poissons Ratio (x) = 0.04505 0.08393
# Poissons Ratio (y) = 0.14136 0.36463
# Poissons Ratio (z) = 0.13821 0.19135
#
# Static dielectric constant tensor:
#      x y z
#    x 1.839070 0.035380 0.027660 
#    y 0.035380 1.968900 -0.024310 
#    z 0.027660 -0.024310 1.849680 
# 
# From -- ./inp_files/175805.got.cif
#   From: 2010.05.17/outbox.cif.g08.bks.cpg/sg2_88_cif.got.tgz:175805.got - 2010.06.03 11:33:40.
