data_PCOD9049127
_publ_section_title
;
Structure prediction by ZEFSAII (Michael W. Deem and Ramdas Pophale) SiO2 
 PCOD9049127
Probable space group: P -1
;
_chemical_formula_sum "Si O2"
_cell_formula_units_Z 16
_cell_length_a 5.571327
_cell_length_b 10.020297
_cell_length_c 15.481712
_cell_angle_alpha 59.632063
_cell_angle_beta 58.688791
_cell_angle_gamma 84.025859
_cell_volume 622.167559
_symmetry_space_group_name_H-M "P -1"
_symmetry_group_IT_number 2
_symmetry_cell_setting 'triclinic'
loop_
_space_group_symop_operation_xyz
x,y,z
-x,-y,-z
loop_
_atom_site_type_symbol
_atom_site_label
_atom_site_fract_x
_atom_site_fract_y
_atom_site_fract_z
Si Si1 0.736483 0.137674 0.950397
Si Si2 0.065423 0.656614 0.012608
Si Si3 0.278166 0.154613 0.452566
Si Si4 0.355902 0.302052 0.056265
Si Si5 0.873453 0.315069 0.566744
Si Si6 0.893602 0.860956 0.692298
Si Si7 0.170276 0.573252 0.714820
Si Si8 0.193464 0.285226 0.688038
O O1 0.861099 0.166969 0.015007
O O2 0.011465 0.169245 0.829087
O O3 0.552783 0.277484 0.944199
O O4 0.500000 0.000000 0.000000
O O5 0.378761 0.613227 0.960708
O O6 0.870393 0.543745 0.156167
O O7 0.924917 0.660968 0.945697
O O8 0.537364 0.294490 0.385535
O O9 0.002938 0.236777 0.487764
O O10 0.303768 0.115259 0.359631
O O11 0.184780 0.992871 0.577779
O O12 0.238273 0.141963 0.187169
O O13 0.529896 0.283405 0.631204
O O14 0.000000 0.500000 0.500000
O O15 0.020937 0.246692 0.643695
O O16 0.937182 0.680869 0.735089
O O17 0.163673 0.459704 0.670907
#
# Coordination Sequence:
#
# PCOD9049127 Si02
#       8
#     2   2   2   2   2   2   2   2
#     4   9  23  44  69 107 144 186 233 298 371 436
#     4   9  24  43  71 105 139 183 240 294 367 422
#     4  11  27  47  72 102 147 198 246 299 362 430
#     4  10  24  46  69 105 144 185 239 294 365 430
#     4  12  25  45  74 106 142 187 243 301 364 427
#     4  11  27  48  69 105 146 198 246 295 359 438
#     4  11  24  44  76 101 149 188 242 305 361 433
#     4  11  26  44  73 109 142 185 238 306 365 433
#
# _framework density 25.716546999999998
#
# number of rings (size 3 to 8) (size 9 to 14) (size 15 to 20)
#    0.750    0.750    1.250    1.500   10.500    1.500 
#    2.250    0.000    0.000    0.000    0.000    0.000 
#    0.000    0.000    0.000    0.000    0.000    0.000 
#
# Total GULP energy -89260.133929 kJ/mol
# GULP energy per Si atom -5578.758371 kJ/mol
# Density = 2.565801 g / cm^3
# Si number density = 25.716547 Si / 1000 Ang^3
#
#
#
# Elastic Constant Matrix: (Units=GPa)
#
#
# Indices 1 2 3 4 5 6 
#
# 1 143.8478 26.6201 77.2370 -6.8373 -3.4138 6.9005
# 2 26.6201 71.6988 9.0527 -8.1833 -0.5318 17.3474
# 3 77.2370 9.0527 124.0792 0.3753 -2.4089 14.4350
# 4 -6.8373 -8.1833 0.3753 35.8524 3.8220 -14.6322
# 5 -3.4138 -0.5318 -2.4089 3.8220 44.4162 3.3614
# 6 6.9005 17.3474 14.4350 -14.6322 3.3614 46.7733
#
#
#
# Elastic Compliance Matrix: (Units=1/GPa)
#
#
# Indices 1 2 3 4 5 6 
#
# 1 0.011503 -0.003725 -0.007209 0.002515 0.000028 0.002694
# 2 -0.003725 0.016628 0.001814 0.000559 0.000420 -0.006032
# 3 -0.007209 0.001814 0.012978 -0.003071 0.000786 -0.004631
# 4 0.002515 0.000559 -0.003071 0.033455 -0.003685 0.011100
# 5 0.000028 0.000420 0.000786 -0.003685 0.023125 -0.003217
# 6 0.002694 -0.006032 -0.004631 0.011100 -0.003217 0.028352
#
#
# Mechanical properties :
#
#
# Convention : Reuss Voigt Hill
#
# Bulk Modulus (GPa) = 43.72921 62.82726 53.27823
# Shear Modulus (GPa) = 32.91559 40.52277 36.71918
#
# Velocity S-wave (km/s) = 3.58150 3.97387 3.78278
# Velocity P-wave (km/s) = 5.84330 6.74828 6.31203
#
# Compressibility (1/GPa) = 0.02286801
#
# Stress axis : x y z
#
# Youngs Moduli (GPa) = 86.93415 60.14045 77.05395
#
# Poissons Ratio (x) = 0.22403 0.55549
# Poissons Ratio (y) = 0.32384 -0.13977
# Poissons Ratio (z) = 0.62672 -0.10909
#
# Static dielectric constant tensor:
#      x y z
#    x 2.156550 -0.060230 0.039910 
#    y -0.060230 2.124660 -0.033670 
#    z 0.039910 -0.033670 2.123750 
# 
# From -- ./inp_files/549411.got.cif
#   From: 2010.05.17/outbox.cif.g08.bks.cpg/sg2_275_cif.got.tgz:549411.got - 2010.06.03 11:33:40.
