data_PCOD9049026
_publ_section_title
;
Structure prediction by ZEFSAII (Michael W. Deem and Ramdas Pophale) SiO2 
 PCOD9049026
Probable space group: P -1
;
_chemical_formula_sum "Si O2"
_cell_formula_units_Z 15
_cell_length_a 8.832727
_cell_length_b 9.752180
_cell_length_c 18.090397
_cell_angle_alpha 126.194154
_cell_angle_beta 142.818446
_cell_angle_gamma 45.586946
_cell_volume 670.729504
_symmetry_space_group_name_H-M "P -1"
_symmetry_group_IT_number 2
_symmetry_cell_setting 'triclinic'
loop_
_space_group_symop_operation_xyz
x,y,z
-x,-y,-z
loop_
_atom_site_type_symbol
_atom_site_label
_atom_site_fract_x
_atom_site_fract_y
_atom_site_fract_z
Si Si1 0.500000 0.500000 0.500000
Si Si2 0.297600 0.995186 0.128098
Si Si3 0.382847 0.230323 0.106408
Si Si4 0.024802 0.827636 0.507926
Si Si5 0.832654 0.341179 0.831372
Si Si6 0.023575 0.041005 0.301534
Si Si7 0.354601 0.351382 0.757998
Si Si8 0.803739 0.754204 0.683872
O O1 0.315100 0.641365 0.541170
O O2 0.595924 0.662786 0.564746
O O3 0.376930 0.086645 0.119557
O O4 0.264394 0.120099 0.228383
O O5 0.528464 0.775970 0.163588
O O6 0.000000 0.000000 0.000000
O O7 0.285891 0.440470 0.170888
O O8 0.704177 0.142328 0.175580
O O9 0.145198 0.268737 0.964609
O O10 0.005096 0.892409 0.604694
O O11 0.790057 0.758381 0.377383
O O12 0.000000 0.000000 0.500000
O O13 0.618087 0.344472 0.812959
O O14 0.853123 0.187177 0.730259
O O15 0.200285 0.115874 0.344915
O O16 0.115930 0.567471 0.749842
#
# Coordination Sequence:
#
# PCOD9049026 Si02
#       8
#     1   2   2   2   2   2   2   2
#     4  10  24  46  66  92 140 178 222 282 342 406
#     4  12  24  45  71 102 140 182 225 288 348 409
#     4  11  24  44  69 101 140 180 231 280 345 410
#     4  11  26  45  69  99 137 177 230 284 340 415
#     4  11  24  44  69 101 139 178 230 286 336 410
#     4  12  24  43  73 101 134 185 229 283 346 406
#     4  11  23  45  66 100 138 176 230 277 341 411
#     4  11  24  44  70 103 139 181 232 284 341 416
#
# _framework density 22.363710000000001
#
# number of rings (size 3 to 8) (size 9 to 14) (size 15 to 20)
#    0.000    0.800    4.000    2.800    0.000    7.467 
#    2.400    0.000    0.000    0.000    0.000    0.000 
#    0.000    0.000    0.000    0.000    0.000    0.000 
#
# Total GULP energy -83724.863404 kJ/mol
# GULP energy per Si atom -5581.657560 kJ/mol
# Density = 2.231281 g / cm^3
# Si number density = 22.363710 Si / 1000 Ang^3
#
#
#
# Elastic Constant Matrix: (Units=GPa)
#
#
# Indices 1 2 3 4 5 6 
#
# 1 61.4662 -2.1763 8.6560 12.9569 9.1655 13.4806
# 2 -2.1763 97.0600 15.5592 16.2361 -10.7599 -3.9360
# 3 8.6560 15.5592 38.9038 11.2337 6.6798 10.0360
# 4 12.9569 16.2361 11.2337 34.6724 -1.1607 4.4687
# 5 9.1655 -10.7599 6.6798 -1.1607 33.7877 11.0022
# 6 13.4806 -3.9360 10.0360 4.4687 11.0022 43.4936
#
#
#
# Elastic Compliance Matrix: (Units=1/GPa)
#
#
# Indices 1 2 3 4 5 6 
#
# 1 0.019370 0.001235 -0.001118 -0.007058 -0.003579 -0.004003
# 2 0.001235 0.012403 -0.004904 -0.004721 0.003983 0.001349
# 3 -0.001118 -0.004904 0.032455 -0.007331 -0.006213 -0.005261
# 4 -0.007058 -0.004721 -0.007331 0.036332 0.003487 -0.001163
# 5 -0.003579 0.003983 -0.006213 0.003487 0.035259 -0.006374
# 6 -0.004003 0.001349 -0.005261 -0.001163 -0.006374 0.027301
#
#
# Mechanical properties :
#
#
# Convention : Reuss Voigt Hill
#
# Bulk Modulus (GPa) = 18.29683 26.83420 22.56551
# Shear Modulus (GPa) = 26.19015 34.08349 30.13682
#
# Velocity S-wave (km/s) = 3.42585 3.90815 3.67492
# Velocity P-wave (km/s) = 4.88342 5.69121 5.30272
#
# Compressibility (1/GPa) = 0.05465428
#
# Stress axis : x y z
#
# Youngs Moduli (GPa) = 51.62658 80.62808 30.81148
#
# Poissons Ratio (x) = -0.09960 0.03446
# Poissons Ratio (y) = -0.06377 0.15109
# Poissons Ratio (z) = 0.05774 0.39537
#
# Static dielectric constant tensor:
#      x y z
#    x 1.779340 -0.012550 0.033870 
#    y -0.012550 1.811700 -0.033820 
#    z 0.033870 -0.033820 1.855150 
# 
# From -- ./inp_files/556456.got.cif
#   From: 2010.05.17/outbox.cif.g08.bks.cpg/sg2_279_cif.got.tgz:556456.got - 2010.06.03 11:33:40.
