data_PCOD9049007
_publ_section_title
;
Structure prediction by ZEFSAII (Michael W. Deem and Ramdas Pophale) SiO2 
 PCOD9049007
Probable space group: P -1
;
_chemical_formula_sum "Si O2"
_cell_formula_units_Z 16
_cell_length_a 15.936488
_cell_length_b 13.492041
_cell_length_c 8.146679
_cell_angle_alpha 79.752811
_cell_angle_beta 110.561675
_cell_angle_gamma 151.948402
_cell_volume 735.763790
_symmetry_space_group_name_H-M "P -1"
_symmetry_group_IT_number 2
_symmetry_cell_setting 'triclinic'
loop_
_space_group_symop_operation_xyz
x,y,z
-x,-y,-z
loop_
_atom_site_type_symbol
_atom_site_label
_atom_site_fract_x
_atom_site_fract_y
_atom_site_fract_z
Si Si1 0.069366 0.788833 0.369013
Si Si2 0.691007 0.418218 0.385267
Si Si3 0.644632 0.067771 0.673065
Si Si4 0.627351 0.198432 0.905076
Si Si5 0.525540 0.642755 0.937191
Si Si6 0.699919 0.966908 0.224928
Si Si7 0.048962 0.932693 0.039981
Si Si8 0.903353 0.621698 0.815834
O O1 0.192836 0.824273 0.356290
O O2 0.019587 0.831194 0.204062
O O3 0.867642 0.542603 0.372959
O O4 0.183904 0.950213 0.556699
O O5 0.648329 0.483581 0.255032
O O6 0.753701 0.474932 0.601880
O O7 0.493565 0.159980 0.293169
O O8 0.708290 0.199870 0.827824
O O9 0.500000 0.000000 0.500000
O O10 0.452232 0.103965 0.787505
O O11 0.816863 0.464417 0.948303
O O12 0.500000 0.000000 0.000000
O O13 0.722336 0.847936 0.906673
O O14 0.500000 0.500000 0.000000
O O15 0.574284 0.758711 0.098623
O O16 0.878015 0.184986 0.163630
O O17 0.928163 0.758423 0.863294
O O18 0.000000 0.000000 0.000000
#
# Coordination Sequence:
#
# PCOD9049007 Si02
#       8
#     2   2   2   2   2   2   2   2
#     4  11  24  44  71  98 141 183 225 288 337 411
#     4  11  23  45  70  98 140 184 224 286 343 408
#     4  12  23  44  67 102 139 179 237 278 339 409
#     4  12  26  41  69  99 140 183 231 281 344 401
#     4  11  24  44  71 102 135 176 232 292 348 412
#     4  10  24  46  66 100 138 179 230 282 343 413
#     4  11  25  45  69 102 137 179 230 288 352 409
#     4  10  25  45  66  98 141 177 233 282 336 418
#
# _framework density 21.746110999999999
#
# number of rings (size 3 to 8) (size 9 to 14) (size 15 to 20)
#    0.000    1.000    3.750    1.500    7.000    3.000 
#    0.000    5.000    0.000    0.000    0.000    0.000 
#    0.000    0.000    0.000    0.000    0.000    0.000 
#
# Total GULP energy -89190.839519 kJ/mol
# GULP energy per Si atom -5574.427470 kJ/mol
# Density = 2.169662 g / cm^3
# Si number density = 21.746111 Si / 1000 Ang^3
#
#
#
# Elastic Constant Matrix: (Units=GPa)
#
#
# Indices 1 2 3 4 5 6 
#
# 1 138.5371 45.1443 43.3053 -4.2601 -0.4556 5.8359
# 2 45.1443 109.3359 17.7487 -3.1606 -8.2755 4.7621
# 3 43.3053 17.7487 63.2265 -2.4954 0.1527 -0.6146
# 4 -4.2601 -3.1606 -2.4954 28.5323 -2.4995 0.5545
# 5 -0.4556 -8.2755 0.1527 -2.4995 29.4307 -5.5122
# 6 5.8359 4.7621 -0.6146 0.5545 -5.5122 32.2089
#
#
#
# Elastic Compliance Matrix: (Units=1/GPa)
#
#
# Indices 1 2 3 4 5 6 
#
# 1 0.010269 -0.003231 -0.006117 0.000587 -0.000982 -0.001678
# 2 -0.003231 0.010890 -0.000820 0.000925 0.002993 -0.000544
# 3 -0.006117 -0.000820 0.020281 0.000732 -0.000070 0.001592
# 4 0.000587 0.000925 0.000732 0.035591 0.003234 -0.000288
# 5 -0.000982 0.002993 -0.000070 0.003234 0.036179 0.005870
# 6 -0.001678 -0.000544 0.001592 -0.000288 0.005870 0.032472
#
#
# Mechanical properties :
#
#
# Convention : Reuss Voigt Hill
#
# Bulk Modulus (GPa) = 47.38607 58.16625 52.77616
# Shear Modulus (GPa) = 28.89293 31.69446 30.29370
#
# Velocity S-wave (km/s) = 3.64902 3.82183 3.73642
# Velocity P-wave (km/s) = 6.29219 6.80303 6.55259
#
# Compressibility (1/GPa) = 0.02110325
#
# Stress axis : x y z
#
# Youngs Moduli (GPa) = 97.38159 91.82408 49.30812
#
# Poissons Ratio (x) = 0.29671 0.30162
# Poissons Ratio (y) = 0.31467 0.04043
# Poissons Ratio (z) = 0.59569 0.07529
#
# Static dielectric constant tensor:
#      x y z
#    x 1.671190 0.083750 -0.098450 
#    y 0.083750 1.782920 0.051970 
#    z -0.098450 0.051970 1.794610 
# 
# From -- ./inp_files/307403.got.cif
#   From: 2010.05.17/outbox.cif.g08.bks.cpg/sg2_154_cif.got.tgz:307403.got - 2010.06.03 11:33:40.
