data_PCOD9049294
_publ_section_title
;
Structure prediction by ZEFSAII (Michael W. Deem and Ramdas Pophale) SiO2 
 PCOD9049294
Probable space group: P -1
;
_chemical_formula_sum "Si O2"
_cell_formula_units_Z 13
_cell_length_a 24.047297
_cell_length_b 9.234235
_cell_length_c 8.373567
_cell_angle_alpha 35.953127
_cell_angle_beta 28.906927
_cell_angle_gamma 36.306899
_cell_volume 495.792578
_symmetry_space_group_name_H-M "P -1"
_symmetry_group_IT_number 2
_symmetry_cell_setting 'triclinic'
loop_
_space_group_symop_operation_xyz
x,y,z
-x,-y,-z
loop_
_atom_site_type_symbol
_atom_site_label
_atom_site_fract_x
_atom_site_fract_y
_atom_site_fract_z
Si Si1 0.500000 0.500000 0.500000
Si Si2 0.134531 0.976447 0.234606
Si Si3 0.016799 0.416843 0.350573
Si Si4 0.775189 0.748576 0.531064
Si Si5 0.423056 0.065016 0.362146
Si Si6 0.758391 0.470487 0.428424
Si Si7 0.336135 0.805241 0.366276
O O1 0.382765 0.631363 0.561208
O O2 0.449938 0.765543 0.515380
O O3 0.103269 0.124859 0.352101
O O4 0.230700 0.695711 0.288516
O O5 0.179980 0.123494 0.848141
O O6 0.000000 0.000000 0.500000
O O7 0.000000 0.500000 0.500000
O O8 0.884716 0.486737 0.536138
O O9 0.100576 0.565436 0.927319
O O10 0.637354 0.774743 0.795344
O O11 0.763703 0.930973 0.551625
O O12 0.328682 0.229239 0.588442
O O13 0.547015 0.116408 0.045668
O O14 0.704971 0.350348 0.526815
#
# Coordination Sequence:
#
# PCOD9049294 Si02
#       7
#     1   2   2   2   2   2   2
#     4  10  24  46  72 100 138 198 242 304 358 424
#     4  12  25  45  75 105 149 198 243 309 366 440
#     4  12  27  46  73 111 149 194 245 307 374 438
#     4  11  23  48  72 106 147 193 255 296 364 444
#     4  11  25  49  73 106 147 192 257 298 368 437
#     4  12  27  47  73 114 150 193 246 308 373 440
#     4  11  27  45  72 107 151 195 246 305 363 446
#
# _framework density 26.220642000000002
#
# number of rings (size 3 to 8) (size 9 to 14) (size 15 to 20)
#    0.000    0.615    3.077    4.615    6.462    5.538 
#    2.769    0.000    0.000    0.000    0.000    0.000 
#    0.000    0.000    0.000    0.000    0.000    0.000 
#
# Total GULP energy -72500.327917 kJ/mol
# GULP energy per Si atom -5576.948301 kJ/mol
# Density = 2.616096 g / cm^3
# Si number density = 26.220642 Si / 1000 Ang^3
#
#
#
# Elastic Constant Matrix: (Units=GPa)
#
#
# Indices 1 2 3 4 5 6 
#
# 1 106.7785 16.5474 3.7526 3.3856 -31.0209 26.3473
# 2 16.5474 173.0478 4.8213 17.9487 -6.2926 21.1714
# 3 3.7526 4.8213 40.8088 27.4552 -2.2992 1.9598
# 4 3.3856 17.9487 27.4552 32.9251 6.0915 6.0824
# 5 -31.0209 -6.2926 -2.2992 6.0915 42.4895 -5.3633
# 6 26.3473 21.1714 1.9598 6.0824 -5.3633 58.6643
#
#
#
# Elastic Compliance Matrix: (Units=1/GPa)
#
#
# Indices 1 2 3 4 5 6 
#
# 1 0.013517 0.000064 0.002657 -0.004622 0.010081 -0.004782
# 2 0.000064 0.006695 0.004383 -0.007405 0.002132 -0.001629
# 3 0.002657 0.004383 0.064816 -0.059981 0.015030 0.002653
# 4 -0.004622 -0.007405 -0.059981 0.089637 -0.021132 -0.004473
# 5 0.010081 0.002132 0.015030 -0.021132 0.035002 -0.000408
# 6 -0.004782 -0.001629 0.002653 -0.004473 -0.000408 0.020120
#
#
# Mechanical properties :
#
#
# Convention : Reuss Voigt Hill
#
# Bulk Modulus (GPa) = 10.07688 41.20864 25.64276
# Shear Modulus (GPa) = 20.10805 46.51669 33.31237
#
# Velocity S-wave (km/s) = 2.77226 4.21651 3.56822
# Velocity P-wave (km/s) = 3.75482 6.28137 5.17466
#
# Compressibility (1/GPa) = 0.09923702
#
# Stress axis : x y z
#
# Youngs Moduli (GPa) = 73.98127 149.35719 15.42835
#
# Poissons Ratio (x) = -0.00963 -0.04099
# Poissons Ratio (y) = -0.00477 -0.06763
# Poissons Ratio (z) = -0.19654 -0.65470
#
# Static dielectric constant tensor:
#      x y z
#    x 1.998100 0.019860 -0.003650 
#    y 0.019860 2.055000 -0.091380 
#    z -0.003650 -0.091380 2.257130 
# 
# From -- ./inp_files/23991.got.cif
#   From: 2010.05.17/outbox.cif.g08.bks.cpg/sg2_12_cif.got.tgz:23991.got - 2010.06.03 11:33:40.
