data_PCOD9049290
_publ_section_title
;
Structure prediction by ZEFSAII (Michael W. Deem and Ramdas Pophale) SiO2 
 PCOD9049290
Probable space group: P -1
;
_chemical_formula_sum "Si O2"
_cell_formula_units_Z 12
_cell_length_a 8.179068
_cell_length_b 13.617879
_cell_length_c 8.436264
_cell_angle_alpha 59.001866
_cell_angle_beta 94.238956
_cell_angle_gamma 50.168839
_cell_volume 488.487404
_symmetry_space_group_name_H-M "P -1"
_symmetry_group_IT_number 2
_symmetry_cell_setting 'triclinic'
loop_
_space_group_symop_operation_xyz
x,y,z
-x,-y,-z
loop_
_atom_site_type_symbol
_atom_site_label
_atom_site_fract_x
_atom_site_fract_y
_atom_site_fract_z
Si Si1 0.221110 0.417478 0.207956
Si Si2 0.767822 0.329274 0.058270
Si Si3 0.165318 0.751965 0.221217
Si Si4 0.671658 0.016881 0.443486
Si Si5 0.412308 0.927453 0.980322
Si Si6 0.321549 0.410027 0.550285
O O1 0.218290 0.388159 0.416808
O O2 0.493662 0.781934 0.673565
O O3 0.000000 0.500000 0.000000
O O4 0.166417 0.581396 0.074202
O O5 0.026037 0.148300 0.329128
O O6 0.500000 0.500000 0.000000
O O7 0.740444 0.280770 0.927973
O O8 0.166550 0.616486 0.389052
O O9 0.385315 0.697440 0.385380
O O10 0.860075 0.958379 0.045104
O O11 0.500000 0.000000 0.500000
O O12 0.660219 0.021297 0.250491
O O13 0.630510 0.706568 0.209113
O O14 0.500000 0.000000 0.000000
#
# Coordination Sequence:
#
# PCOD9049290 Si02
#       6
#     2   2   2   2   2   2
#     4  11  24  45  74  99 141 191 233 295 357 419
#     4  11  26  45  74 104 142 186 240 293 355 423
#     4  10  24  48  71  99 146 185 237 292 355 427
#     4  12  26  46  70 103 148 184 237 296 354 427
#     4  12  27  42  73 105 140 191 235 294 359 423
#     4  10  24  46  71  99 143 183 236 290 356 421
#
# _framework density 24.565626999999999
#
# number of rings (size 3 to 8) (size 9 to 14) (size 15 to 20)
#    0.000    1.000    1.667    3.500   11.667    1.333 
#    0.000    0.000    0.000    0.000    0.000    0.000 
#    0.000    0.000    0.000    0.000    0.000    0.000 
#
# Total GULP energy -67099.570558 kJ/mol
# GULP energy per Si atom -5591.630880 kJ/mol
# Density = 2.450971 g / cm^3
# Si number density = 24.565627 Si / 1000 Ang^3
#
#
#
# Elastic Constant Matrix: (Units=GPa)
#
#
# Indices 1 2 3 4 5 6 
#
# 1 66.0265 14.8059 26.9105 4.3427 15.4059 7.7521
# 2 14.8059 102.6278 63.7637 -14.7076 15.4203 -6.3548
# 3 26.9105 63.7637 187.2876 -4.0270 12.1688 3.3403
# 4 4.3427 -14.7076 -4.0270 44.6668 -3.2573 1.5932
# 5 15.4059 15.4203 12.1688 -3.2573 43.3457 -9.2404
# 6 7.7521 -6.3548 3.3403 1.5932 -9.2404 40.2097
#
#
#
# Elastic Compliance Matrix: (Units=1/GPa)
#
#
# Indices 1 2 3 4 5 6 
#
# 1 0.018538 -0.001242 -0.001756 -0.002694 -0.006947 -0.005114
# 2 -0.001242 0.013633 -0.004252 0.003973 -0.002486 0.002019
# 3 -0.001756 -0.004252 0.007049 -0.000567 -0.000080 -0.000915
# 4 -0.002694 0.003973 -0.000567 0.024004 0.001639 0.000620
# 5 -0.006947 -0.002486 -0.000080 0.001639 0.028137 0.007354
# 6 -0.005114 0.002019 -0.000915 0.000620 0.007354 0.027916
#
#
# Mechanical properties :
#
#
# Convention : Reuss Voigt Hill
#
# Bulk Modulus (GPa) = 40.45502 62.98913 51.72207
# Shear Modulus (GPa) = 35.20690 42.34189 38.77440
#
# Velocity S-wave (km/s) = 3.78984 4.15616 3.97722
# Velocity P-wave (km/s) = 5.97113 6.98057 6.49549
#
# Compressibility (1/GPa) = 0.02471881
#
# Stress axis : x y z
#
# Youngs Moduli (GPa) = 53.94264 73.35217 141.87165
#
# Poissons Ratio (x) = 0.09113 0.24913
# Poissons Ratio (y) = 0.06702 0.60324
# Poissons Ratio (z) = 0.09473 0.31189
#
# Static dielectric constant tensor:
#      x y z
#    x 2.293970 0.040470 0.434380 
#    y 0.040470 1.953980 0.031590 
#    z 0.434380 0.031590 2.527060 
# 
# From -- ./inp_files/209954.got.cif
#   From: 2010.05.17/outbox.cif.g08.bks.cpg/sg2_105_cif.got.tgz:209954.got - 2010.06.03 11:33:40.
