data_PCOD9049505
_publ_section_title
;
Structure prediction by ZEFSAII (Michael W. Deem and Ramdas Pophale) SiO2 
 PCOD9049505
Probable space group: P -1
;
_chemical_formula_sum "Si O2"
_cell_formula_units_Z 15
_cell_length_a 13.830169
_cell_length_b 9.162241
_cell_length_c 8.210322
_cell_angle_alpha 47.285458
_cell_angle_beta 101.858845
_cell_angle_gamma 108.794565
_cell_volume 723.521175
_symmetry_space_group_name_H-M "P -1"
_symmetry_group_IT_number 2
_symmetry_cell_setting 'triclinic'
loop_
_space_group_symop_operation_xyz
x,y,z
-x,-y,-z
loop_
_atom_site_type_symbol
_atom_site_label
_atom_site_fract_x
_atom_site_fract_y
_atom_site_fract_z
Si Si1 0.764121 0.909352 0.801600
Si Si2 0.013525 0.945183 0.357505
Si Si3 0.860673 0.157988 0.951834
Si Si4 0.403950 0.438153 0.894952
Si Si5 0.657442 0.142603 0.072110
Si Si6 0.519030 0.724390 0.261548
Si Si7 0.000000 0.500000 0.500000
Si Si8 0.387614 0.849779 0.584211
O O1 0.869384 0.939779 0.723618
O O2 0.794441 0.993097 0.928742
O O3 0.694101 0.041519 0.596756
O O4 0.697338 0.678296 0.960093
O O5 0.000089 0.711658 0.459121
O O6 0.000000 0.000000 0.500000
O O7 0.938998 0.051420 0.149373
O O8 0.924394 0.347975 0.721241
O O9 0.774730 0.198499 0.014742
O O10 0.430116 0.283974 0.890619
O O11 0.389300 0.641692 0.649506
O O12 0.500000 0.500000 0.000000
O O13 0.642359 0.220696 0.187989
O O14 0.601077 0.899134 0.253086
O O15 0.587090 0.218010 0.857056
O O16 0.500000 0.500000 0.500000
O O17 0.500000 0.000000 0.500000
#
# Coordination Sequence:
#
# PCOD9049505 Si02
#       8
#     2   2   2   2   2   2   1   2
#     4  11  24  43  69 100 139 183 226 295 355 414
#     4  11  26  50  76 108 146 186 247 308 363 442
#     4  11  25  47  73 105 144 186 245 304 364 436
#     4  12  23  42  64  97 136 182 225 278 346 421
#     4  11  24  42  62  98 138 179 229 291 343 422
#     4  11  24  40  63  94 137 180 226 277 347 417
#     4  10  24  46  76 104 144 190 242 300 376 420
#     4  12  24  39  66  96 140 180 231 280 341 423
#
# _framework density 20.731945
#
# number of rings (size 3 to 8) (size 9 to 14) (size 15 to 20)
#    0.000    0.800    4.000    3.200    3.733    6.933 
#    0.000    0.000    0.000    0.000    0.000    0.000 
#    0.000    0.000    0.000    0.000    0.000    0.000 
#
# Total GULP energy -83503.315806 kJ/mol
# GULP energy per Si atom -5566.887720 kJ/mol
# Density = 2.068476 g / cm^3
# Si number density = 20.731945 Si / 1000 Ang^3
#
#
#
# Elastic Constant Matrix: (Units=GPa)
#
#
# Indices 1 2 3 4 5 6 
#
# 1 177.2359 49.9759 70.1016 -6.5703 -4.0250 5.4212
# 2 49.9759 101.4079 36.6534 -12.7109 -15.1383 0.2498
# 3 70.1016 36.6534 102.1378 -18.3524 -3.5954 18.3372
# 4 -6.5703 -12.7109 -18.3524 43.4904 2.0866 -8.4090
# 5 -4.0250 -15.1383 -3.5954 2.0866 32.1382 4.0620
# 6 5.4212 0.2498 18.3372 -8.4090 4.0620 37.9690
#
#
#
# Elastic Compliance Matrix: (Units=1/GPa)
#
#
# Indices 1 2 3 4 5 6 
#
# 1 0.008345 -0.002486 -0.005333 -0.001455 -0.000775 0.001161
# 2 -0.002486 0.013124 -0.002666 0.002379 0.005225 0.001524
# 3 -0.005333 -0.002666 0.016269 0.004057 0.000420 -0.006224
# 4 -0.001455 0.002379 0.004057 0.026009 -0.000812 0.004080
# 5 -0.000775 0.005225 0.000420 -0.000812 0.034079 -0.003952
# 6 0.001161 0.001524 -0.006224 0.004080 -0.003952 0.030494
#
#
# Mechanical properties :
#
#
# Convention : Reuss Voigt Hill
#
# Bulk Modulus (GPa) = 59.63234 77.13817 68.38525
# Shear Modulus (GPa) = 32.28322 37.65625 34.96973
#
# Velocity S-wave (km/s) = 3.95038 4.26648 4.11147
# Velocity P-wave (km/s) = 7.04509 7.84593 7.45627
#
# Compressibility (1/GPa) = 0.01676942
#
# Stress axis : x y z
#
# Youngs Moduli (GPa) = 119.82608 76.19386 61.46821
#
# Poissons Ratio (x) = 0.18943 0.32779
# Poissons Ratio (y) = 0.29791 0.16385
# Poissons Ratio (z) = 0.63900 0.20311
#
# Static dielectric constant tensor:
#      x y z
#    x 1.746990 -0.043680 0.012820 
#    y -0.043680 1.763210 -0.013290 
#    z 0.012820 -0.013290 1.753490 
# 
# From -- ./inp_files/236805.got.cif
#   From: 2010.05.17/outbox.cif.g08.bks.cpg/sg2_119_cif.got.tgz:236805.got - 2010.06.03 11:33:40.
