data_PCOD9049285
_publ_section_title
;
Structure prediction by ZEFSAII (Michael W. Deem and Ramdas Pophale) SiO2 
 PCOD9049285
Probable space group: P -1
;
_chemical_formula_sum "Si O2"
_cell_formula_units_Z 10
_cell_length_a 8.805394
_cell_length_b 17.129411
_cell_length_c 4.745165
_cell_angle_alpha 95.214155
_cell_angle_beta 71.354795
_cell_angle_gamma 144.081130
_cell_volume 379.218625
_symmetry_space_group_name_H-M "P -1"
_symmetry_group_IT_number 2
_symmetry_cell_setting 'triclinic'
loop_
_space_group_symop_operation_xyz
x,y,z
-x,-y,-z
loop_
_atom_site_type_symbol
_atom_site_label
_atom_site_fract_x
_atom_site_fract_y
_atom_site_fract_z
Si Si1 0.760146 0.192604 0.891917
Si Si2 0.910262 0.152384 0.268368
Si Si3 0.475772 0.334862 0.645538
Si Si4 0.694147 0.905613 0.250102
Si Si5 0.837708 0.512847 0.005274
O O1 0.916919 0.214951 0.542158
O O2 0.509783 0.144054 0.890933
O O3 0.969240 0.335644 0.983512
O O4 0.702549 0.103255 0.133342
O O5 0.787795 0.019800 0.407423
O O6 0.197516 0.251846 0.950613
O O7 0.451086 0.230777 0.584869
O O8 0.546408 0.399485 0.323743
O O9 0.255916 0.534229 0.275496
O O10 0.000000 0.000000 0.000000
O O11 0.000000 0.500000 0.000000
#
# Coordination Sequence:
#
# PCOD9049285 Si02
#       5
#     2   2   2   2   2
#     4  12  25  44  71  99 139 178 222 281 338 392
#     4  11  26  45  69 104 137 176 223 279 339 397
#     4  11  25  45  71 101 136 180 224 274 335 401
#     4  10  24  46  71  99 137 179 227 276 332 405
#     4  12  25  43  72 100 137 176 229 276 332 405
#
# _framework density 26.370016
#
# number of rings (size 3 to 8) (size 9 to 14) (size 15 to 20)
#    0.000    0.800    2.000    4.200    2.800    6.400 
#    0.000    9.000    0.000    0.000    0.000    0.000 
#    0.000    0.000    0.000    0.000    0.000    0.000 
#
# Total GULP energy -56065.088960 kJ/mol
# GULP energy per Si atom -5606.508896 kJ/mol
# Density = 2.631000 g / cm^3
# Si number density = 26.370016 Si / 1000 Ang^3
#
#
#
# Elastic Constant Matrix: (Units=GPa)
#
#
# Indices 1 2 3 4 5 6 
#
# 1 90.9107 16.3384 30.6231 6.7017 -29.0112 5.9814
# 2 16.3384 125.2404 16.5564 19.4044 -14.4907 -13.9544
# 3 30.6231 16.5564 133.2315 12.9735 -19.8063 -0.6130
# 4 6.7017 19.4044 12.9735 35.0856 1.6666 -5.5454
# 5 -29.0112 -14.4907 -19.8063 1.6666 47.3750 -2.0202
# 6 5.9814 -13.9544 -0.6130 -5.5454 -2.0202 34.5209
#
#
#
# Elastic Compliance Matrix: (Units=1/GPa)
#
#
# Indices 1 2 3 4 5 6 
#
# 1 0.014662 -0.000657 -0.001867 -0.002566 0.007969 -0.002785
# 2 -0.000657 0.009508 -0.000151 -0.004676 0.002751 0.003364
# 3 -0.001867 -0.000151 0.008605 -0.002844 0.002513 0.000105
# 4 -0.002566 -0.004676 -0.002844 0.033442 -0.005215 0.003571
# 5 0.007969 0.002751 0.002513 -0.005215 0.028088 0.000582
# 6 -0.002785 0.003364 0.000105 0.003571 0.000582 0.031420
#
#
# Mechanical properties :
#
#
# Convention : Reuss Voigt Hill
#
# Bulk Modulus (GPa) = 36.46184 52.93539 44.69862
# Shear Modulus (GPa) = 35.65948 42.45393 39.05670
#
# Velocity S-wave (km/s) = 3.68132 4.01675 3.85268
# Velocity P-wave (km/s) = 5.65035 6.45213 6.06451
#
# Compressibility (1/GPa) = 0.02742593
#
# Stress axis : x y z
#
# Youngs Moduli (GPa) = 68.20342 105.17547 116.21782
#
# Poissons Ratio (x) = 0.06907 0.21695
# Poissons Ratio (y) = 0.04479 0.01753
# Poissons Ratio (z) = 0.12732 0.01586
#
# Static dielectric constant tensor:
#      x y z
#    x 2.027260 0.009230 -0.055910 
#    y 0.009230 2.088160 -0.036950 
#    z -0.055910 -0.036950 2.044050 
# 
# From -- ./inp_files/30564.got.cif
#   From: 2010.05.17/outbox.cif.g08.bks.cpg/sg2_16_cif.got.tgz:30564.got - 2010.06.03 11:33:40.
