data_PCOD9049476
_publ_section_title
;
Structure prediction by ZEFSAII (Michael W. Deem and Ramdas Pophale) SiO2 
 PCOD9049476
Probable space group: P -1
;
_chemical_formula_sum "Si O2"
_cell_formula_units_Z 15
_cell_length_a 19.413117
_cell_length_b 5.510817
_cell_length_c 18.722452
_cell_angle_alpha 125.463295
_cell_angle_beta 158.266884
_cell_angle_gamma 48.250934
_cell_volume 547.974089
_symmetry_space_group_name_H-M "P -1"
_symmetry_group_IT_number 2
_symmetry_cell_setting 'triclinic'
loop_
_space_group_symop_operation_xyz
x,y,z
-x,-y,-z
loop_
_atom_site_type_symbol
_atom_site_label
_atom_site_fract_x
_atom_site_fract_y
_atom_site_fract_z
Si Si1 0.972417 0.767461 0.275528
Si Si2 0.000000 0.500000 0.500000
Si Si3 0.096851 0.211603 0.986289
Si Si4 0.806861 0.937005 0.686169
Si Si5 0.382234 0.817809 0.313884
Si Si6 0.504426 0.123306 0.308960
Si Si7 0.738289 0.525599 0.125671
Si Si8 0.712544 0.414115 0.326349
O O1 0.824696 0.658575 0.164410
O O2 0.077366 0.453876 0.270525
O O3 0.154198 0.758294 0.503543
O O4 0.861318 0.128998 0.194771
O O5 0.805925 0.661382 0.283820
O O6 0.860221 0.368177 0.394081
O O7 0.260991 0.235384 0.093786
O O8 0.247879 0.922658 0.132587
O O9 0.000000 0.500000 0.000000
O O10 0.926746 0.092143 0.778841
O O11 0.779275 0.119921 0.765808
O O12 0.589021 0.030836 0.454991
O O13 0.533854 0.448476 0.379734
O O14 0.500000 0.000000 0.500000
O O15 0.629448 0.807179 0.329969
O O16 0.498850 0.617705 0.898890
#
# Coordination Sequence:
#
# PCOD9049476 Si02
#       8
#     2   1   2   2   2   2   2   2
#     4  10  26  45  72 111 147 192 245 297 360 437
#     4  10  24  48  76 114 140 190 238 300 368 448
#     4  12  24  39  64  92 131 180 236 286 343 410
#     4  11  23  43  63  95 135 181 233 296 340 412
#     4  12  24  39  63  92 131 182 232 286 341 406
#     4  11  24  45  62  96 132 180 230 287 353 411
#     4  11  24  48  76 109 149 188 238 298 370 438
#     4  10  24  46  75 103 147 188 238 303 367 440
#
# _framework density 27.373553999999999
#
# number of rings (size 3 to 8) (size 9 to 14) (size 15 to 20)
#    0.000    1.067    2.667    2.800    1.867    8.533 
#    0.000    4.000    0.000    0.000    0.000    0.000 
#    0.000    0.000    0.000    0.000    0.000    0.000 
#
# Total GULP energy -83669.083657 kJ/mol
# GULP energy per Si atom -5577.938910 kJ/mol
# Density = 2.731125 g / cm^3
# Si number density = 27.373554 Si / 1000 Ang^3
#
#
#
# Elastic Constant Matrix: (Units=GPa)
#
#
# Indices 1 2 3 4 5 6 
#
# 1 67.0648 8.2137 20.8382 5.6417 10.8561 14.3039
# 2 8.2137 117.2599 38.6998 -7.6480 8.2640 -6.7586
# 3 20.8382 38.6998 214.3330 15.4607 4.9033 13.6453
# 4 5.6417 -7.6480 15.4607 49.6523 12.8092 -0.0113
# 5 10.8561 8.2640 4.9033 12.8092 37.3204 5.4512
# 6 14.3039 -6.7586 13.6453 -0.0113 5.4512 45.0811
#
#
#
# Elastic Compliance Matrix: (Units=1/GPa)
#
#
# Indices 1 2 3 4 5 6 
#
# 1 0.017025 -0.000922 -0.001042 -0.000816 -0.003632 -0.004786
# 2 -0.000922 0.009830 -0.002009 0.003042 -0.003090 0.002749
# 3 -0.001042 -0.002009 0.005369 -0.002128 0.001024 -0.001720
# 4 -0.000816 0.003042 -0.002128 0.023584 -0.008603 0.002405
# 5 -0.003632 -0.003090 0.001024 -0.008603 0.031862 -0.003476
# 6 -0.004786 0.002749 -0.001720 0.002405 -0.003476 0.025054
#
#
# Mechanical properties :
#
#
# Convention : Reuss Voigt Hill
#
# Bulk Modulus (GPa) = 41.18836 59.35122 50.26979
# Shear Modulus (GPa) = 38.83102 48.47116 43.65109
#
# Velocity S-wave (km/s) = 3.77046 4.21257 3.99763
# Velocity P-wave (km/s) = 5.83392 6.73721 6.30177
#
# Compressibility (1/GPa) = 0.02427871
#
# Stress axis : x y z
#
# Youngs Moduli (GPa) = 58.73729 101.72559 186.24495
#
# Poissons Ratio (x) = 0.09375 0.19410
# Poissons Ratio (y) = 0.05413 0.37419
# Poissons Ratio (z) = 0.06122 0.20438
#
# Static dielectric constant tensor:
#      x y z
#    x 2.128000 -0.054320 0.208020 
#    y -0.054320 2.067920 0.045690 
#    z 0.208020 0.045690 2.134720 
# 
# From -- ./inp_files/600827.got.cif
#   From: 2010.05.17/outbox.cif.g08.bks.cpg/sg2_301_cif.got.tgz:600827.got - 2010.06.03 11:33:40.
