data_PCOD9049187
_publ_section_title
;
Structure prediction by ZEFSAII (Michael W. Deem and Ramdas Pophale) SiO2 
 PCOD9049187
Probable space group: P -1
;
_chemical_formula_sum "Si O2"
_cell_formula_units_Z 13
_cell_length_a 9.383333
_cell_length_b 18.237233
_cell_length_c 5.766195
_cell_angle_alpha 65.386072
_cell_angle_beta 115.728561
_cell_angle_gamma 141.144341
_cell_volume 552.275221
_symmetry_space_group_name_H-M "P -1"
_symmetry_group_IT_number 2
_symmetry_cell_setting 'triclinic'
loop_
_space_group_symop_operation_xyz
x,y,z
-x,-y,-z
loop_
_atom_site_type_symbol
_atom_site_label
_atom_site_fract_x
_atom_site_fract_y
_atom_site_fract_z
Si Si1 0.603702 0.627329 0.404496
Si Si2 0.262672 0.631045 0.998376
Si Si3 0.500000 0.000000 0.500000
Si Si4 0.172757 0.187112 0.327326
Si Si5 0.159843 0.639453 0.412717
Si Si6 0.952125 0.228347 0.765666
Si Si7 0.170595 0.026879 0.276405
O O1 0.500000 0.500000 0.500000
O O2 0.628218 0.683215 0.591606
O O3 0.864695 0.715270 0.384384
O O4 0.447479 0.627101 0.134375
O O5 0.268467 0.680836 0.694829
O O6 0.296445 0.687030 0.199707
O O7 0.000000 0.500000 0.000000
O O8 0.693289 0.117500 0.643712
O O9 0.361254 0.035609 0.311778
O O10 0.258876 0.138639 0.326350
O O11 0.994537 0.086567 0.523357
O O12 0.024339 0.189417 0.055351
O O13 0.019104 0.670350 0.255067
O O14 0.000000 0.500000 0.500000
O O15 0.000000 0.000000 0.000000
#
# Coordination Sequence:
#
# PCOD9049187 Si02
#       7
#     2   2   1   2   2   2   2
#     4  12  27  47  75 110 159 206 267 332 404 488
#     4  10  24  46  70 106 148 208 261 327 396 467
#     4  12  26  50  80 108 156 204 264 336 404 480
#     4  11  26  48  77 110 158 208 260 336 412 476
#     4  10  24  46  74 108 154 203 269 328 398 483
#     4  12  28  48  75 114 156 209 271 327 412 483
#     4  11  24  53  76 113 155 198 268 333 405 483
#
# _framework density 23.538985
#
# number of rings (size 3 to 8) (size 9 to 14) (size 15 to 20)
#    0.000    0.923    3.077    1.846   10.769    2.462 
#    0.000    0.000    0.000    0.000    0.000    0.000 
#    0.000    0.000    0.000    0.000    0.000    0.000 
#
# Total GULP energy -72410.390785 kJ/mol
# GULP energy per Si atom -5570.030060 kJ/mol
# Density = 2.348541 g / cm^3
# Si number density = 23.538985 Si / 1000 Ang^3
#
#
#
# Elastic Constant Matrix: (Units=GPa)
#
#
# Indices 1 2 3 4 5 6 
#
# 1 123.7804 28.1952 47.6939 -4.0902 24.5636 -45.4508
# 2 28.1952 109.3261 37.1368 -1.4096 6.3958 -35.8353
# 3 47.6939 37.1368 137.1638 -0.5563 2.1277 -18.4430
# 4 -4.0902 -1.4096 -0.5563 35.6403 -2.2733 12.1386
# 5 24.5636 6.3958 2.1277 -2.2733 49.9166 -5.0729
# 6 -45.4508 -35.8353 -18.4430 12.1386 -5.0729 49.1776
#
#
#
# Elastic Compliance Matrix: (Units=1/GPa)
#
#
# Indices 1 2 3 4 5 6 
#
# 1 0.015848 0.002651 -0.004084 -0.003770 -0.006581 0.015299
# 2 0.002651 0.013372 -0.002952 -0.003321 -0.001853 0.011716
# 3 -0.004084 -0.002952 0.009157 0.000499 0.001773 -0.002432
# 4 -0.003770 -0.003321 0.000499 0.032226 0.002363 -0.013429
# 5 -0.006581 -0.001853 0.001773 0.002363 0.023036 -0.004974
# 6 0.015299 0.011716 -0.002432 -0.013429 -0.004974 0.044901
#
#
# Mechanical properties :
#
#
# Convention : Reuss Voigt Hill
#
# Bulk Modulus (GPa) = 33.77547 66.25799 50.01673
# Shear Modulus (GPa) = 31.81109 44.09653 37.95381
#
# Velocity S-wave (km/s) = 3.68016 4.33291 4.01980
# Velocity P-wave (km/s) = 5.69543 7.29667 6.54520
#
# Compressibility (1/GPa) = 0.02960729
#
# Stress axis : x y z
#
# Youngs Moduli (GPa) = 63.10139 74.78470 109.20024
#
# Poissons Ratio (x) = -0.19828 0.44602
# Poissons Ratio (y) = -0.16731 0.32232
# Poissons Ratio (z) = 0.25773 0.22074
#
# Static dielectric constant tensor:
#      x y z
#    x 1.981720 0.005150 -0.051040 
#    y 0.005150 1.891990 0.037190 
#    z -0.051040 0.037190 1.873980 
# 
# From -- ./inp_files/40969.got.cif
#   From: 2010.05.17/outbox.cif.g08.bks.cpg/sg2_21_cif.got.tgz:40969.got - 2010.06.03 11:33:40.
