data_PCOD9049932
_publ_section_title
;
Structure prediction by ZEFSAII (Michael W. Deem and Ramdas Pophale) SiO2 
 PCOD9049932
Probable space group: P -1
;
_chemical_formula_sum "Si O2"
_cell_formula_units_Z 16
_cell_length_a 9.221961
_cell_length_b 6.693528
_cell_length_c 14.261418
_cell_angle_alpha 71.267253
_cell_angle_beta 91.694306
_cell_angle_gamma 77.094055
_cell_volume 807.719484
_symmetry_space_group_name_H-M "P -1"
_symmetry_group_IT_number 2
_symmetry_cell_setting 'triclinic'
loop_
_space_group_symop_operation_xyz
x,y,z
-x,-y,-z
loop_
_atom_site_type_symbol
_atom_site_label
_atom_site_fract_x
_atom_site_fract_y
_atom_site_fract_z
Si Si1 0.904438 0.748265 0.857496
Si Si2 0.678270 0.389653 0.220760
Si Si3 0.731533 0.310458 0.535094
Si Si4 0.819540 0.678638 0.069896
Si Si5 0.094791 0.498537 0.635256
Si Si6 0.457043 0.380723 0.374840
Si Si7 0.204644 0.175591 0.358884
Si Si8 0.864301 0.957341 0.203943
O O1 0.804099 0.776814 0.759194
O O2 0.026773 0.514719 0.889839
O O3 0.817219 0.759298 0.951590
O O4 0.998947 0.931019 0.826391
O O5 0.688923 0.562941 0.114417
O O6 0.801577 0.426559 0.293922
O O7 0.525994 0.421251 0.270483
O O8 0.733596 0.148440 0.216188
O O9 0.833012 0.453345 0.467914
O O10 0.594127 0.320294 0.459159
O O11 0.658317 0.409081 0.616041
O O12 0.817744 0.061972 0.585711
O O13 0.824203 0.862611 0.118622
O O14 0.099985 0.248343 0.694247
O O15 0.930401 0.647978 0.624128
O O16 0.363993 0.199380 0.394194
#
# Coordination Sequence:
#
# PCOD9049932 Si02
#       8
#     2   2   2   2   2   2   2   2
#     4  10  20  34  56  91 121 144 183 240 283 339
#     4   9  19  38  60  83 116 152 192 234 275 344
#     4  10  24  42  59  80 114 157 196 234 282 343
#     4   9  18  35  59  87 118 149 187 226 287 346
#     4  10  21  37  58  88 116 144 192 240 286 334
#     4  10  24  41  58  82 111 159 194 235 281 342
#     4  12  22  37  58  88 117 150 186 243 288 329
#     4  10  17  34  61  85 115 154 186 229 288 337
#
# _framework density 19.808857
#
# number of rings (size 3 to 8) (size 9 to 14) (size 15 to 20)
#    0.000    2.000    3.750    1.125    1.750    6.500 
#    0.000    0.625    0.000    1.500    0.000    0.000 
#    0.000    0.000    0.000    0.000    0.000    0.000 
#
# Total GULP energy -89345.117523 kJ/mol
# GULP energy per Si atom -5584.069845 kJ/mol
# Density = 1.976377 g / cm^3
# Si number density = 19.808857 Si / 1000 Ang^3
#
#
#
# Elastic Constant Matrix: (Units=GPa)
#
#
# Indices 1 2 3 4 5 6 
#
# 1 73.1454 36.8957 48.9762 3.5429 -32.8909 -3.3327
# 2 36.8957 125.7693 56.9508 5.4977 -21.7217 4.2001
# 3 48.9762 56.9508 100.1525 4.8055 -36.4546 -8.3648
# 4 3.5429 5.4977 4.8055 23.2918 -5.4662 -5.0492
# 5 -32.8909 -21.7217 -36.4546 -5.4662 35.9474 7.1767
# 6 -3.3327 4.2001 -8.3648 -5.0492 7.1767 13.2515
#
#
#
# Elastic Compliance Matrix: (Units=1/GPa)
#
#
# Indices 1 2 3 4 5 6 
#
# 1 0.026479 -0.001781 -0.005663 0.000601 0.018753 -0.006278
# 2 -0.001781 0.011921 -0.006354 -0.003213 0.000594 -0.009783
# 3 -0.005663 -0.006354 0.020922 0.002509 0.010800 0.008903
# 4 0.000601 -0.003213 0.002509 0.048224 0.004786 0.018537
# 5 0.018753 0.000594 0.010800 0.004786 0.060980 -0.019857
# 6 -0.006278 -0.009783 0.008903 0.018537 -0.019857 0.100423
#
#
# Mechanical properties :
#
#
# Convention : Reuss Voigt Hill
#
# Bulk Modulus (GPa) = 31.52142 64.96804 48.24473
# Shear Modulus (GPa) = 16.28024 24.91444 20.59734
#
# Velocity S-wave (km/s) = 2.86993 3.55031 3.22810
# Velocity P-wave (km/s) = 5.18935 7.04805 6.18887
#
# Compressibility (1/GPa) = 0.03172445
#
# Stress axis : x y z
#
# Youngs Moduli (GPa) = 37.76536 83.88750 47.79768
#
# Poissons Ratio (x) = 0.14944 0.27068
# Poissons Ratio (y) = 0.06728 0.30371
# Poissons Ratio (z) = 0.21386 0.53304
#
# Static dielectric constant tensor:
#      x y z
#    x 1.688700 0.016120 -0.002370 
#    y 0.016120 1.690500 0.015880 
#    z -0.002370 0.015880 1.710040 
# 
# From -- ./inp_files/135080.got.cif
#   From: 2010.05.17/outbox.cif.g08.bks.cpg/sg2_68_cif.got.tgz:135080.got - 2010.06.03 11:33:40.
