data_PCOD9049070
_publ_section_title
;
Structure prediction by ZEFSAII (Michael W. Deem and Ramdas Pophale) SiO2 
 PCOD9049070
Probable space group: P -1
;
_chemical_formula_sum "Si O2"
_cell_formula_units_Z 14
_cell_length_a 7.651845
_cell_length_b 14.547487
_cell_length_c 11.551139
_cell_angle_alpha 151.125816
_cell_angle_beta 93.699154
_cell_angle_gamma 80.343934
_cell_volume 602.877184
_symmetry_space_group_name_H-M "P -1"
_symmetry_group_IT_number 2
_symmetry_cell_setting 'triclinic'
loop_
_space_group_symop_operation_xyz
x,y,z
-x,-y,-z
loop_
_atom_site_type_symbol
_atom_site_label
_atom_site_fract_x
_atom_site_fract_y
_atom_site_fract_z
Si Si1 0.908192 0.758196 0.569697
Si Si2 0.925909 0.379220 0.261945
Si Si3 0.416583 0.729657 0.271660
Si Si4 0.274180 0.129084 0.071290
Si Si5 0.460220 0.681762 0.830754
Si Si6 0.319755 0.732780 0.533493
Si Si7 0.321441 0.995195 0.358961
O O1 0.885511 0.533868 0.325405
O O2 0.796837 0.860480 0.789181
O O3 0.118838 0.738667 0.572954
O O4 0.839762 0.881715 0.589375
O O5 0.742919 0.316161 0.213324
O O6 0.000000 0.500000 0.500000
O O7 0.095558 0.197419 0.058091
O O8 0.323713 0.752950 0.418033
O O9 0.289182 0.849449 0.298177
O O10 0.577595 0.843922 0.411677
O O11 0.500000 0.500000 0.000000
O O12 0.596393 0.726774 0.790554
O O13 0.372574 0.915314 0.798553
O O14 0.548494 0.470678 0.653015
O O15 0.446099 0.846190 0.110264
#
# Coordination Sequence:
#
# PCOD9049070 Si02
#       7
#     2   2   2   2   2   2   2
#     4  11  25  46  68 108 152 188 240 303 363 440
#     4  10  24  46  68 104 152 197 242 294 350 434
#     4  11  24  47  76 104 140 187 250 307 366 426
#     4  11  25  49  69 109 153 193 240 301 359 443
#     4  12  24  45  77 104 144 201 243 293 370 429
#     4  12  24  46  77 108 143 193 249 302 367 439
#     4  11  25  47  73 106 144 186 247 310 359 432
#
# _framework density 23.221975
#
# number of rings (size 3 to 8) (size 9 to 14) (size 15 to 20)
#    0.000    0.857    4.286    2.143    0.000    4.571 
#    7.714    0.714    0.000    0.000    0.000    0.000 
#    0.000    0.000    0.000    0.000    0.000    0.000 
#
# Total GULP energy -78386.738226 kJ/mol
# GULP energy per Si atom -5599.052730 kJ/mol
# Density = 2.316912 g / cm^3
# Si number density = 23.221975 Si / 1000 Ang^3
#
#
#
# Elastic Constant Matrix: (Units=GPa)
#
#
# Indices 1 2 3 4 5 6 
#
# 1 122.9076 56.9223 11.2771 14.8493 4.2295 9.7095
# 2 56.9223 183.9244 34.5621 25.7320 -9.3745 -4.7784
# 3 11.2771 34.5621 98.5348 25.3849 4.5234 -8.7178
# 4 14.8493 25.7320 25.3849 43.5107 1.4353 -11.3456
# 5 4.2295 -9.3745 4.5234 1.4353 29.3238 5.7705
# 6 9.7095 -4.7784 -8.7178 -11.3456 5.7705 37.1608
#
#
#
# Elastic Compliance Matrix: (Units=1/GPa)
#
#
# Indices 1 2 3 4 5 6 
#
# 1 0.010166 -0.003003 0.000367 -0.002779 -0.001649 -0.003549
# 2 -0.003003 0.007167 -0.001712 -0.002283 0.003075 0.000130
# 3 0.000367 -0.001712 0.012469 -0.006005 -0.002458 0.001157
# 4 -0.002779 -0.002283 -0.006005 0.031213 -0.002696 0.008972
# 5 -0.001649 0.003075 -0.002458 -0.002696 0.037080 -0.006332
# 6 -0.003549 0.000130 0.001157 0.008972 -0.006332 0.031848
#
#
# Mechanical properties :
#
#
# Convention : Reuss Voigt Hill
#
# Bulk Modulus (GPa) = 47.37484 67.87664 57.62574
# Shear Modulus (GPa) = 34.32315 42.17273 38.24794
#
# Velocity S-wave (km/s) = 3.84871 4.26616 4.06280
# Velocity P-wave (km/s) = 6.33997 7.31845 6.84671
#
# Compressibility (1/GPa) = 0.02110825
#
# Stress axis : x y z
#
# Youngs Moduli (GPa) = 98.36787 139.51915 80.19652
#
# Poissons Ratio (x) = 0.41893 -0.02946
# Poissons Ratio (y) = 0.29537 0.13729
# Poissons Ratio (z) = -0.03614 0.23885
#
# Static dielectric constant tensor:
#      x y z
#    x 1.863170 -0.018730 0.019880 
#    y -0.018730 1.948130 0.029690 
#    z 0.019880 0.029690 1.907210 
# 
# From -- ./inp_files/400064.got.cif
#   From: 2010.05.17/outbox.cif.g08.bks.cpg/sg2_201_cif.got.tgz:400064.got - 2010.06.03 11:33:40.
