data_PCOD9049208
_publ_section_title
;
Structure prediction by ZEFSAII (Michael W. Deem and Ramdas Pophale) SiO2 
 PCOD9049208
Probable space group: P -1
;
_chemical_formula_sum "Si O2"
_cell_formula_units_Z 16
_cell_length_a 8.997639
_cell_length_b 20.495379
_cell_length_c 14.177920
_cell_angle_alpha 19.644708
_cell_angle_beta 130.188800
_cell_angle_gamma 131.470574
_cell_volume 656.183876
_symmetry_space_group_name_H-M "P -1"
_symmetry_group_IT_number 2
_symmetry_cell_setting 'triclinic'
loop_
_space_group_symop_operation_xyz
x,y,z
-x,-y,-z
loop_
_atom_site_type_symbol
_atom_site_label
_atom_site_fract_x
_atom_site_fract_y
_atom_site_fract_z
Si Si1 0.445375 0.723066 0.552963
Si Si2 0.263993 0.463487 0.552902
Si Si3 0.299594 0.195698 0.104963
Si Si4 0.017511 0.519383 0.093358
Si Si5 0.649647 0.700929 0.473647
Si Si6 0.075696 0.348977 0.938162
Si Si7 0.781888 0.924911 0.056389
Si Si8 0.614914 0.212366 0.363773
O O1 0.602335 0.719915 0.538416
O O2 0.274486 0.521785 0.762525
O O3 0.521024 0.755774 0.646686
O O4 0.342458 0.908204 0.240013
O O5 0.441838 0.641976 0.414018
O O6 0.300667 0.290384 0.732619
O O7 0.094491 0.560235 0.306458
O O8 0.229714 0.340785 0.803931
O O9 0.508161 0.260512 0.159466
O O10 0.341575 0.005267 0.328241
O O11 0.129351 0.161221 0.162319
O O12 0.986178 0.683607 0.933052
O O13 0.831498 0.347874 0.281911
O O14 0.232349 0.471992 0.262526
O O15 0.000000 0.500000 0.000000
O O16 0.779549 0.889234 0.216638
O O17 0.000000 0.000000 0.000000
#
# Coordination Sequence:
#
# PCOD9049208 Si02
#       8
#     2   2   2   2   2   2   2   2
#     4  11  23  42  68 100 130 181 224 279 334 403
#     4  12  23  44  68 101 140 174 223 280 336 399
#     4  11  23  42  73  98 130 178 228 279 335 408
#     4  11  25  44  65  97 138 180 224 284 331 401
#     4  12  26  42  67 104 136 176 229 276 339 399
#     4  11  24  42  72  99 133 180 228 270 349 399
#     4  12  23  44  68  96 141 182 221 276 340 400
#     4  10  24  46  70  95 132 183 229 273 344 400
#
# _framework density 24.383412
#
# number of rings (size 3 to 8) (size 9 to 14) (size 15 to 20)
#    0.000    0.750    5.000    2.625    1.750    1.000 
#    2.250    0.625    0.000    0.000    0.000    0.000 
#    0.000    0.000    0.000    0.000    0.000    0.000 
#
# Total GULP energy -89347.250071 kJ/mol
# GULP energy per Si atom -5584.203129 kJ/mol
# Density = 2.432791 g / cm^3
# Si number density = 24.383412 Si / 1000 Ang^3
#
#
#
# Elastic Constant Matrix: (Units=GPa)
#
#
# Indices 1 2 3 4 5 6 
#
# 1 176.7226 34.7218 24.4623 1.4651 -1.8525 -47.7437
# 2 34.7218 56.7932 -1.5635 1.4948 -2.4198 -29.7355
# 3 24.4623 -1.5635 43.4206 6.9711 9.2814 -6.6827
# 4 1.4651 1.4948 6.9711 19.9227 -6.0465 -1.1653
# 5 -1.8525 -2.4198 9.2814 -6.0465 42.4704 9.1326
# 6 -47.7437 -29.7355 -6.6827 -1.1653 9.1326 40.7552
#
#
#
# Elastic Compliance Matrix: (Units=1/GPa)
#
#
# Indices 1 2 3 4 5 6 
#
# 1 0.008817 -0.000530 -0.003487 0.000926 -0.000811 0.009578
# 2 -0.000530 0.030585 0.007134 -0.005086 -0.005725 0.024001
# 3 -0.003487 0.007134 0.030869 -0.013697 -0.010177 0.008070
# 4 0.000926 -0.005086 -0.013697 0.058710 0.012386 -0.005969
# 5 -0.000811 -0.005725 -0.010177 0.012386 0.030003 -0.013165
# 6 0.009578 0.024001 0.008070 -0.005969 -0.013165 0.057372
#
#
# Mechanical properties :
#
#
# Convention : Reuss Voigt Hill
#
# Bulk Modulus (GPa) = 13.07141 43.57528 28.32335
# Shear Modulus (GPa) = 21.22035 35.25071 28.23553
#
# Velocity S-wave (km/s) = 2.95325 3.80634 3.40660
# Velocity P-wave (km/s) = 4.12327 6.10142 5.20714
#
# Compressibility (1/GPa) = 0.07650282
#
# Stress axis : x y z
#
# Youngs Moduli (GPa) = 113.41601 32.69623 32.39537
#
# Poissons Ratio (x) = 0.01734 0.11298
# Poissons Ratio (y) = 0.06016 -0.23111
# Poissons Ratio (z) = 0.39554 -0.23326
#
# Static dielectric constant tensor:
#      x y z
#    x 2.017740 -0.091860 -0.039210 
#    y -0.091860 2.037530 -0.024540 
#    z -0.039210 -0.024540 1.958600 
# 
# From -- ./inp_files/242689.got.cif
#   From: 2010.05.17/outbox.cif.g08.bks.cpg/sg2_122_cif.got.tgz:242689.got - 2010.06.03 11:33:40.
