data_PCOD9049611
_publ_section_title
;
Structure prediction by ZEFSAII (Michael W. Deem and Ramdas Pophale) SiO2 
 PCOD9049611
Probable space group: P -1
;
_chemical_formula_sum "Si O2"
_cell_formula_units_Z 14
_cell_length_a 5.983539
_cell_length_b 12.369983
_cell_length_c 8.566178
_cell_angle_alpha 105.359022
_cell_angle_beta 85.653952
_cell_angle_gamma 113.261838
_cell_volume 561.394345
_symmetry_space_group_name_H-M "P -1"
_symmetry_group_IT_number 2
_symmetry_cell_setting 'triclinic'
loop_
_space_group_symop_operation_xyz
x,y,z
-x,-y,-z
loop_
_atom_site_type_symbol
_atom_site_label
_atom_site_fract_x
_atom_site_fract_y
_atom_site_fract_z
Si Si1 0.613445 0.737172 0.770351
Si Si2 0.357713 0.836515 0.597695
Si Si3 0.226056 0.061349 0.631000
Si Si4 0.217394 0.695491 0.024122
Si Si5 0.994546 0.876228 0.034587
Si Si6 0.156663 0.395642 0.477686
Si Si7 0.920708 0.472748 0.762859
O O1 0.525990 0.835000 0.733565
O O2 0.644706 0.658566 0.595079
O O3 0.427459 0.687328 0.901850
O O4 0.866153 0.786219 0.865451
O O5 0.536008 0.859512 0.449140
O O6 0.114068 0.713792 0.559143
O O7 0.278419 0.949326 0.655611
O O8 0.154655 0.130732 0.800497
O O9 0.000000 0.000000 0.500000
O O10 0.227679 0.647576 0.178195
O O11 0.201159 0.827129 0.059101
O O12 0.982898 0.586940 0.919523
O O13 0.000000 0.000000 0.000000
O O14 0.182733 0.490073 0.372908
O O15 0.153552 0.452207 0.668570
#
# Coordination Sequence:
#
# PCOD9049611 Si02
#       7
#     2   2   2   2   2   2   2
#     4  12  24  44  71 102 141 185 229 287 352 417
#     4  11  24  44  69 106 140 181 237 286 347 423
#     4  11  26  44  72 104 140 184 233 291 351 418
#     4  11  25  46  67 105 140 182 234 293 341 416
#     4  12  26  45  71 102 141 184 225 294 354 419
#     4  11  23  46  69 101 140 188 230 288 343 417
#     4  10  24  47  68  97 147 181 237 289 340 411
#
# _framework density 24.937908
#
# number of rings (size 3 to 8) (size 9 to 14) (size 15 to 20)
#    0.000    0.857    2.857    3.429    6.000    4.571 
#    0.000    0.000    0.000    0.000    0.000    0.000 
#    0.000    0.000    0.000    0.000    0.000    0.000 
#
# Total GULP energy -78214.552711 kJ/mol
# GULP energy per Si atom -5586.753765 kJ/mol
# Density = 2.488115 g / cm^3
# Si number density = 24.937908 Si / 1000 Ang^3
#
#
#
# Elastic Constant Matrix: (Units=GPa)
#
#
# Indices 1 2 3 4 5 6 
#
# 1 83.5530 48.0200 24.7390 -3.8203 -28.9070 -8.8098
# 2 48.0200 131.0514 43.3786 -27.3973 -7.2487 -15.3087
# 3 24.7390 43.3786 108.6790 -2.9739 -27.5964 -1.4393
# 4 -3.8203 -27.3973 -2.9739 44.0882 -0.3028 -3.1363
# 5 -28.9070 -7.2487 -27.5964 -0.3028 50.7081 2.9885
# 6 -8.8098 -15.3087 -1.4393 -3.1363 2.9885 34.3795
#
#
#
# Elastic Compliance Matrix: (Units=1/GPa)
#
#
# Indices 1 2 3 4 5 6 
#
# 1 0.019532 -0.007467 0.001172 -0.002756 0.010656 0.000551
# 2 -0.007467 0.014017 -0.004924 0.008073 -0.005197 0.005310
# 3 0.001172 -0.004924 0.012567 -0.002217 0.006918 -0.002170
# 4 -0.002756 0.008073 -0.002217 0.027688 -0.001781 0.005476
# 5 0.010656 -0.005197 0.006918 -0.001781 0.028923 -0.001971
# 6 0.000551 0.005310 -0.002170 0.005476 -0.001971 0.032173
#
#
# Mechanical properties :
#
#
# Convention : Reuss Voigt Hill
#
# Bulk Modulus (GPa) = 42.23221 61.72873 51.98047
# Shear Modulus (GPa) = 30.26083 39.64489 34.95286
#
# Velocity S-wave (km/s) = 3.48724 3.99148 3.74785
# Velocity P-wave (km/s) = 5.76074 6.78596 6.29426
#
# Compressibility (1/GPa) = 0.02367861
#
# Stress axis : x y z
#
# Youngs Moduli (GPa) = 51.19857 71.34118 79.57266
#
# Poissons Ratio (x) = 0.53273 -0.09327
# Poissons Ratio (y) = 0.38231 0.39178
# Poissons Ratio (z) = -0.06001 0.35125
#
# Static dielectric constant tensor:
#      x y z
#    x 1.989010 0.025090 0.005650 
#    y 0.025090 2.062020 0.059810 
#    z 0.005650 0.059810 1.957400 
# 
# From -- ./inp_files/131851.got.cif
#   From: 2010.05.17/outbox.cif.g08.bks.cpg/sg2_66_cif.got.tgz:131851.got - 2010.06.03 11:33:40.
