data_PCOD9049607
_publ_section_title
;
Structure prediction by ZEFSAII (Michael W. Deem and Ramdas Pophale) SiO2 
 PCOD9049607
Probable space group: P -1
;
_chemical_formula_sum "Si O2"
_cell_formula_units_Z 16
_cell_length_a 15.916556
_cell_length_b 11.990295
_cell_length_c 14.898825
_cell_angle_alpha 54.186917
_cell_angle_beta 151.857195
_cell_angle_gamma 142.106092
_cell_volume 761.201820
_symmetry_space_group_name_H-M "P -1"
_symmetry_group_IT_number 2
_symmetry_cell_setting 'triclinic'
loop_
_space_group_symop_operation_xyz
x,y,z
-x,-y,-z
loop_
_atom_site_type_symbol
_atom_site_label
_atom_site_fract_x
_atom_site_fract_y
_atom_site_fract_z
Si Si1 0.728614 0.135589 0.576446
Si Si2 0.097313 0.583617 0.150731
Si Si3 0.646872 0.991673 0.857116
Si Si4 0.538822 0.468882 0.450718
Si Si5 0.065983 0.048959 0.144174
Si Si6 0.204300 0.574997 0.884459
Si Si7 0.406994 0.944674 0.834806
Si Si8 0.710020 0.824913 0.337877
O O1 0.988835 0.350394 0.754557
O O2 0.500000 0.000000 0.500000
O O3 0.614662 0.156566 0.375387
O O4 0.807414 0.025299 0.674640
O O5 0.214207 0.799388 0.154192
O O6 0.298791 0.580233 0.370757
O O7 0.872718 0.445728 0.074943
O O8 0.000000 0.500000 0.000000
O O9 0.596879 0.997574 0.911329
O O10 0.821454 0.957658 0.014952
O O11 0.500000 0.500000 0.500000
O O12 0.271485 0.282333 0.242260
O O13 0.673764 0.664691 0.432692
O O14 0.000000 0.000000 0.000000
O O15 0.192206 0.707865 0.752010
O O16 0.504386 0.704430 0.118334
O O17 0.337338 0.065093 0.697195
O O18 0.500000 0.000000 0.000000
O O19 0.000000 0.000000 0.500000
#
# Coordination Sequence:
#
# PCOD9049607 Si02
#       8
#     2   2   2   2   2   2   2   2
#     4  12  23  45  71 106 143 186 236 293 350 425
#     4  12  22  40  67 101 137 181 235 296 359 419
#     4  12  24  43  71 104 143 188 236 290 356 422
#     4  12  24  39  67 106 139 175 236 298 354 423
#     4  12  24  42  72 108 148 185 234 296 360 429
#     4  11  23  45  68  94 139 189 232 285 357 420
#     4  10  24  47  68  96 142 186 234 296 355 417
#     4  11  24  42  67 101 136 182 233 290 357 417
#
# _framework density 21.019392
#
# number of rings (size 3 to 8) (size 9 to 14) (size 15 to 20)
#    0.000    0.500    3.750    6.000    0.000    3.500 
#    2.250    0.625    0.000    0.000    0.000    0.000 
#    0.000    0.000    0.000    0.000    0.000    0.000 
#
# Total GULP energy -89378.582669 kJ/mol
# GULP energy per Si atom -5586.161417 kJ/mol
# Density = 2.097155 g / cm^3
# Si number density = 21.019392 Si / 1000 Ang^3
#
#
#
# Elastic Constant Matrix: (Units=GPa)
#
#
# Indices 1 2 3 4 5 6 
#
# 1 127.4565 32.5687 52.1612 4.1916 15.2154 -5.0563
# 2 32.5687 133.7867 43.3712 13.7533 10.6540 -2.5298
# 3 52.1612 43.3712 124.6703 15.2594 8.0317 -5.5425
# 4 4.1916 13.7533 15.2594 42.7150 -9.8539 0.4009
# 5 15.2154 10.6540 8.0317 -9.8539 35.4439 -3.0827
# 6 -5.0563 -2.5298 -5.5425 0.4009 -3.0827 27.8998
#
#
#
# Elastic Compliance Matrix: (Units=1/GPa)
#
#
# Indices 1 2 3 4 5 6 
#
# 1 0.009970 -0.000992 -0.003581 -0.000111 -0.003144 0.000660
# 2 -0.000992 0.008888 -0.002210 -0.002541 -0.002456 -0.000048
# 3 -0.003581 -0.002210 0.010775 -0.003023 -0.000974 0.001227
# 4 -0.000111 -0.002541 -0.003023 0.027421 0.009099 -0.000240
# 5 -0.003144 -0.002456 -0.000974 0.009099 0.033274 0.002560
# 6 0.000660 -0.000048 0.001227 -0.000240 0.002560 0.036488
#
#
# Mechanical properties :
#
#
# Convention : Reuss Voigt Hill
#
# Bulk Modulus (GPa) = 62.23473 71.34618 66.79045
# Shear Modulus (GPa) = 34.30802 38.39924 36.35363
#
# Velocity S-wave (km/s) = 4.04444 4.27880 4.16327
# Velocity P-wave (km/s) = 7.17513 7.64379 7.41317
#
# Compressibility (1/GPa) = 0.01606820
#
# Stress axis : x y z
#
# Youngs Moduli (GPa) = 100.30266 112.50628 92.80401
#
# Poissons Ratio (x) = 0.11160 0.33231
# Poissons Ratio (y) = 0.09950 0.20510
# Poissons Ratio (z) = 0.35916 0.24864
#
# Static dielectric constant tensor:
#      x y z
#    x 1.748080 -0.010580 -0.005720 
#    y -0.010580 1.774450 -0.003770 
#    z -0.005720 -0.003770 1.837480 
# 
# From -- ./inp_files/532509.got.cif
#   From: 2010.05.17/outbox.cif.g08.bks.cpg/sg2_267_cif.got.tgz:532509.got - 2010.06.03 11:33:40.
