data_PCOD9049981
_publ_section_title
;
Structure prediction by ZEFSAII (Michael W. Deem and Ramdas Pophale) SiO2 
 PCOD9049981
Probable space group: P -1
;
_chemical_formula_sum "Si O2"
_cell_formula_units_Z 12
_cell_length_a 14.505582
_cell_length_b 11.284558
_cell_length_c 8.764078
_cell_angle_alpha 52.303768
_cell_angle_beta 39.225363
_cell_angle_gamma 30.522686
_cell_volume 453.725650
_symmetry_space_group_name_H-M "P -1"
_symmetry_group_IT_number 2
_symmetry_cell_setting 'triclinic'
loop_
_space_group_symop_operation_xyz
x,y,z
-x,-y,-z
loop_
_atom_site_type_symbol
_atom_site_label
_atom_site_fract_x
_atom_site_fract_y
_atom_site_fract_z
Si Si1 0.731776 0.733359 0.857302
Si Si2 0.051885 0.174764 0.326979
Si Si3 0.503056 0.195213 0.159247
Si Si4 0.724799 0.043061 0.296590
Si Si5 0.151164 0.736940 0.182627
Si Si6 0.636389 0.541360 0.339957
O O1 0.926004 0.680352 0.729664
O O2 0.690022 0.754826 0.712691
O O3 0.722605 0.574122 0.063883
O O4 0.500000 0.000000 0.000000
O O5 0.979011 0.127488 0.597693
O O6 0.852130 0.335419 0.332743
O O7 0.291773 0.947730 0.114799
O O8 0.625017 0.041313 0.277299
O O9 0.366501 0.457728 0.156128
O O10 0.533511 0.218951 0.532326
O O11 0.773555 0.170981 0.066181
O O12 0.960770 0.812630 0.258045
O O13 0.500000 0.500000 0.500000
#
# Coordination Sequence:
#
# PCOD9049981 Si02
#       6
#     2   2   2   2   2   2
#     4  10  24  48  71 106 151 193 243 297 370 440
#     4  11  26  48  73 103 148 195 237 305 368 437
#     4  11  24  45  73 102 142 195 240 298 360 433
#     4  11  25  44  69 111 146 188 247 308 359 434
#     4  11  25  46  68 106 152 186 247 302 366 433
#     4  12  26  47  78 110 145 197 248 302 366 436
#
# _framework density 26.447700999999999
#
# number of rings (size 3 to 8) (size 9 to 14) (size 15 to 20)
#    0.000    1.000    1.667    4.000    9.333    1.333 
#    0.000    5.000    0.000    0.000    0.000    0.000 
#    0.000    0.000    0.000    0.000    0.000    0.000 
#
# Total GULP energy -67296.049451 kJ/mol
# GULP energy per Si atom -5608.004121 kJ/mol
# Density = 2.638750 g / cm^3
# Si number density = 26.447701 Si / 1000 Ang^3
#
#
#
# Elastic Constant Matrix: (Units=GPa)
#
#
# Indices 1 2 3 4 5 6 
#
# 1 212.3026 48.8662 38.8381 -7.5079 -11.5804 -43.5619
# 2 48.8662 104.2589 35.3184 21.2245 6.7421 -27.8601
# 3 38.8381 35.3184 107.9968 6.6920 2.6010 -0.5613
# 4 -7.5079 21.2245 6.6920 43.2507 11.6291 7.2555
# 5 -11.5804 6.7421 2.6010 11.6291 60.0487 -0.7614
# 6 -43.5619 -27.8601 -0.5613 7.2555 -0.7614 56.1054
#
#
#
# Elastic Compliance Matrix: (Units=1/GPa)
#
#
# Indices 1 2 3 4 5 6 
#
# 1 0.006345 -0.001608 -0.001838 0.001155 0.001311 0.003978
# 2 -0.001608 0.015374 -0.003885 -0.008432 -0.000141 0.007435
# 3 -0.001838 -0.003885 0.011152 0.000569 -0.000554 -0.003326
# 4 0.001155 -0.008432 0.000569 0.029852 -0.004728 -0.007209
# 5 0.001311 -0.000141 -0.000554 -0.004728 0.017884 0.001796
# 6 0.003978 0.007435 -0.003326 -0.007209 0.001796 0.025528
#
#
# Mechanical properties :
#
#
# Convention : Reuss Voigt Hill
#
# Bulk Modulus (GPa) = 54.92092 74.51152 64.71622
# Shear Modulus (GPa) = 39.41136 51.98335 45.69736
#
# Velocity S-wave (km/s) = 3.86445 4.43822 4.16124
# Velocity P-wave (km/s) = 6.38145 7.38228 6.90004
#
# Compressibility (1/GPa) = 0.01820800
#
# Stress axis : x y z
#
# Youngs Moduli (GPa) = 157.59544 65.04608 89.67027
#
# Poissons Ratio (x) = 0.10461 0.16486
# Poissons Ratio (y) = 0.25345 0.34835
# Poissons Ratio (z) = 0.28974 0.25269
#
# Static dielectric constant tensor:
#      x y z
#    x 2.144350 0.038610 -0.048980 
#    y 0.038610 2.032200 -0.011660 
#    z -0.048980 -0.011660 2.075970 
# 
# From -- ./inp_files/306403.got.cif
#   From: 2010.05.17/outbox.cif.g08.bks.cpg/sg2_154_cif.got.tgz:306403.got - 2010.06.03 11:33:40.
