data_PCOD9049111
_publ_section_title
;
Structure prediction by ZEFSAII (Michael W. Deem and Ramdas Pophale) SiO2 
 PCOD9049111
Probable space group: P -1
;
_chemical_formula_sum "Si O2"
_cell_formula_units_Z 14
_cell_length_a 11.396795
_cell_length_b 18.624481
_cell_length_c 11.866390
_cell_angle_alpha 152.984585
_cell_angle_beta 38.826743
_cell_angle_gamma 152.064686
_cell_volume 535.596783
_symmetry_space_group_name_H-M "P -1"
_symmetry_group_IT_number 2
_symmetry_cell_setting 'triclinic'
loop_
_space_group_symop_operation_xyz
x,y,z
-x,-y,-z
loop_
_atom_site_type_symbol
_atom_site_label
_atom_site_fract_x
_atom_site_fract_y
_atom_site_fract_z
Si Si1 0.383638 0.831502 0.688890
Si Si2 0.423529 0.153344 0.986767
Si Si3 0.062993 0.470812 0.578206
Si Si4 0.943435 0.943031 0.723454
Si Si5 0.857471 0.300971 0.740350
Si Si6 0.458534 0.458093 0.660445
Si Si7 0.309041 0.303526 0.786856
O O1 0.225028 0.713301 0.755579
O O2 0.585796 0.807126 0.487973
O O3 0.173408 0.682809 0.541685
O O4 0.496996 0.065257 0.902948
O O5 0.132489 0.021683 0.051420
O O6 0.525628 0.386815 0.218542
O O7 0.557499 0.152126 0.775364
O O8 0.265381 0.443433 0.374931
O O9 0.959295 0.407345 0.691891
O O10 0.677486 0.755352 0.603677
O O11 0.076469 0.847471 0.499397
O O12 0.080668 0.135009 0.803104
O O13 0.000000 0.500000 0.000000
O O14 0.298093 0.394966 0.806323
O O15 0.500000 0.500000 0.000000
#
# Coordination Sequence:
#
# PCOD9049111 Si02
#       7
#     2   2   2   2   2   2   2
#     4  10  25  46  70 103 142 189 242 284 360 420
#     4  12  25  42  73 106 139 187 233 286 354 421
#     4  10  24  46  69 101 146 186 238 294 344 425
#     4  12  25  47  71 106 146 181 235 298 350 422
#     4  12  24  44  72 103 145 187 235 289 356 420
#     4  11  24  46  72 104 142 186 234 290 360 415
#     4  11  27  47  71 102 142 189 236 294 353 422
#
# _framework density 26.139067000000001
#
# number of rings (size 3 to 8) (size 9 to 14) (size 15 to 20)
#    0.000    0.857    4.286    1.714    8.000    2.286 
#    2.571    2.143    0.000    0.000    0.000    0.000 
#    0.000    0.000    0.000    0.000    0.000    0.000 
#
# Total GULP energy -78278.836233 kJ/mol
# GULP energy per Si atom -5591.345445 kJ/mol
# Density = 2.607957 g / cm^3
# Si number density = 26.139067 Si / 1000 Ang^3
#
#
#
# Elastic Constant Matrix: (Units=GPa)
#
#
# Indices 1 2 3 4 5 6 
#
# 1 72.8753 50.0741 16.9192 5.2873 6.0392 -30.9568
# 2 50.0741 244.2911 58.6683 -11.9463 -3.8054 -65.0310
# 3 16.9192 58.6683 87.5235 -2.5438 -32.0204 -21.9945
# 4 5.2873 -11.9463 -2.5438 55.9924 0.2489 -5.6839
# 5 6.0392 -3.8054 -32.0204 0.2489 37.2806 -10.9236
# 6 -30.9568 -65.0310 -21.9945 -5.6839 -10.9236 61.5067
#
#
#
# Elastic Compliance Matrix: (Units=1/GPa)
#
#
# Indices 1 2 3 4 5 6 
#
# 1 0.018321 -0.001839 -0.002074 -0.001612 -0.003222 0.005814
# 2 -0.001839 0.006628 -0.002519 0.002024 0.000390 0.005438
# 3 -0.002074 -0.002519 0.024852 0.001658 0.024237 0.009638
# 4 -0.001612 0.002024 0.001658 0.018932 0.002997 0.004203
# 5 -0.003222 0.000390 0.024237 0.002997 0.053219 0.017187
# 6 0.005814 0.005438 0.009638 0.004203 0.017187 0.031821
#
#
# Mechanical properties :
#
#
# Convention : Reuss Voigt Hill
#
# Bulk Modulus (GPa) = 27.07249 72.89034 49.98142
# Shear Modulus (GPa) = 27.94093 49.55783 38.74938
#
# Velocity S-wave (km/s) = 3.27300 4.35895 3.85441
# Velocity P-wave (km/s) = 4.96618 7.29932 6.24272
#
# Compressibility (1/GPa) = 0.03693786
#
# Stress axis : x y z
#
# Youngs Moduli (GPa) = 54.58326 150.87611 40.23768
#
# Poissons Ratio (x) = 0.27739 0.08344
# Poissons Ratio (y) = 0.10035 0.10137
# Poissons Ratio (z) = 0.11319 0.38009
#
# Static dielectric constant tensor:
#      x y z
#    x 2.043570 0.008980 0.002720 
#    y 0.008980 2.086090 -0.073120 
#    z 0.002720 -0.073120 2.141940 
# 
# From -- ./inp_files/437433.got.cif
#   From: 2010.05.17/outbox.cif.g08.bks.cpg/sg2_219_cif.got.tgz:437433.got - 2010.06.03 11:33:40.
