data_PCOD9049121
_publ_section_title
;
Structure prediction by ZEFSAII (Michael W. Deem and Ramdas Pophale) SiO2 
 PCOD9049121
Probable space group: P -1
;
_chemical_formula_sum "Si O2"
_cell_formula_units_Z 16
_cell_length_a 11.259414
_cell_length_b 9.675215
_cell_length_c 8.871603
_cell_angle_alpha 78.983004
_cell_angle_beta 56.554303
_cell_angle_gamma 52.725492
_cell_volume 626.703517
_symmetry_space_group_name_H-M "P -1"
_symmetry_group_IT_number 2
_symmetry_cell_setting 'triclinic'
loop_
_space_group_symop_operation_xyz
x,y,z
-x,-y,-z
loop_
_atom_site_type_symbol
_atom_site_label
_atom_site_fract_x
_atom_site_fract_y
_atom_site_fract_z
Si Si1 0.445068 0.376789 0.609583
Si Si2 0.519737 0.088800 0.109443
Si Si3 0.019357 0.581957 0.314554
Si Si4 0.073171 0.631259 0.697827
Si Si5 0.343002 0.032870 0.502789
Si Si6 0.853485 0.240554 0.670770
Si Si7 0.533919 0.599990 0.079278
Si Si8 0.078523 0.038954 0.080134
O O1 0.500000 0.500000 0.500000
O O2 0.276315 0.449333 0.601320
O O3 0.601235 0.165060 0.516905
O O4 0.368653 0.435213 0.821999
O O5 0.384310 0.092423 0.311351
O O6 0.446515 0.276619 0.060185
O O7 0.500000 0.000000 0.000000
O O8 0.716194 0.018759 0.055062
O O9 0.042936 0.441054 0.209977
O O10 0.000000 0.500000 0.500000
O O11 0.165130 0.615896 0.230825
O O12 0.850035 0.788425 0.352462
O O13 0.047311 0.745768 0.542903
O O14 0.036577 0.756475 0.835408
O O15 0.500000 0.000000 0.500000
O O16 0.669641 0.288277 0.728117
O O17 0.931732 0.066993 0.752324
O O18 0.500000 0.500000 0.000000
O O19 0.000000 0.000000 0.000000
#
# Coordination Sequence:
#
# PCOD9049121 Si02
#       8
#     2   2   2   2   2   2   2   2
#     4  12  26  44  72 110 144 190 248 305 367 450
#     4  11  27  49  73 103 146 200 249 300 385 440
#     4  10  25  44  75 108 139 187 249 305 367 437
#     4  11  24  45  72 107 144 190 255 300 368 454
#     4  12  27  48  75 107 148 191 250 313 373 447
#     4  10  24  46  69 103 143 198 243 304 375 437
#     4  11  26  44  71 104 146 194 240 309 373 439
#     4  11  28  47  72 108 151 199 244 313 382 439
#
# _framework density 25.530415000000001
#
# number of rings (size 3 to 8) (size 9 to 14) (size 15 to 20)
#    0.000    1.000    3.750    0.375   15.750    0.000 
#    0.000    1.250    0.000    0.000    0.000    0.000 
#    0.000    0.000    0.000    0.000    0.000    0.000 
#
# Total GULP energy -89198.322084 kJ/mol
# GULP energy per Si atom -5574.895130 kJ/mol
# Density = 2.547231 g / cm^3
# Si number density = 25.530415 Si / 1000 Ang^3
#
#
#
# Elastic Constant Matrix: (Units=GPa)
#
#
# Indices 1 2 3 4 5 6 
#
# 1 133.4111 61.7176 -5.6055 11.4457 -2.8042 11.7972
# 2 61.7176 204.6179 27.5547 -0.3031 -1.4526 31.3946
# 3 -5.6055 27.5547 17.5674 -5.1781 12.6246 -2.9655
# 4 11.4457 -0.3031 -5.1781 34.8710 8.8024 8.5483
# 5 -2.8042 -1.4526 12.6246 8.8024 46.8028 6.3141
# 6 11.7972 31.3946 -2.9655 8.5483 6.3141 56.0186
#
#
#
# Elastic Compliance Matrix: (Units=1/GPa)
#
#
# Indices 1 2 3 4 5 6 
#
# 1 0.010462 -0.005493 0.014650 -0.000933 -0.003617 0.002201
# 2 -0.005493 0.011653 -0.028910 -0.002917 0.009394 -0.007518
# 3 0.014650 -0.028910 0.153307 0.024447 -0.049078 0.023034
# 4 -0.000933 -0.002917 0.024447 0.036195 -0.013429 -0.000884
# 5 -0.003617 0.009394 -0.049078 -0.013429 0.038472 -0.009388
# 6 0.002201 -0.007518 0.023034 -0.000884 -0.009388 0.024014
#
#
# Mechanical properties :
#
#
# Convention : Reuss Voigt Hill
#
# Bulk Modulus (GPa) = 7.35752 58.10333 32.73043
# Shear Modulus (GPa) = 13.93094 45.66712 29.79903
#
# Velocity S-wave (km/s) = 2.33847 4.23393 3.42013
# Velocity P-wave (km/s) = 3.19052 6.83443 5.33333
#
# Compressibility (1/GPa) = 0.13591542
#
# Stress axis : x y z
#
# Youngs Moduli (GPa) = 95.58688 85.81495 6.52285
#
# Poissons Ratio (x) = 0.47138 -0.09556
# Poissons Ratio (y) = 0.52506 0.18858
# Poissons Ratio (z) = -1.40032 2.48091
#
# Static dielectric constant tensor:
#      x y z
#    x 2.023190 -0.088660 -0.131090 
#    y -0.088660 2.116260 0.084430 
#    z -0.131090 0.084430 2.154460 
# 
# From -- ./inp_files/243401.got.cif
#   From: 2010.05.17/outbox.cif.g08.bks.cpg/sg2_122_cif.got.tgz:243401.got - 2010.06.03 11:33:40.
