data_PCOD9049142
_publ_section_title
;
Structure prediction by ZEFSAII (Michael W. Deem and Ramdas Pophale) SiO2 
 PCOD9049142
Probable space group: P -1
;
_chemical_formula_sum "Si O2"
_cell_formula_units_Z 12
_cell_length_a 9.390919
_cell_length_b 8.432081
_cell_length_c 11.978709
_cell_angle_alpha 63.420714
_cell_angle_beta 103.116801
_cell_angle_gamma 145.325221
_cell_volume 463.695777
_symmetry_space_group_name_H-M "P -1"
_symmetry_group_IT_number 2
_symmetry_cell_setting 'triclinic'
loop_
_space_group_symop_operation_xyz
x,y,z
-x,-y,-z
loop_
_atom_site_type_symbol
_atom_site_label
_atom_site_fract_x
_atom_site_fract_y
_atom_site_fract_z
Si Si1 0.066457 0.225968 0.016383
Si Si2 0.938824 0.231095 0.563555
Si Si3 0.240288 0.229989 0.706238
Si Si4 0.199943 0.704949 0.077386
Si Si5 0.234299 0.892116 0.669987
Si Si6 0.473986 0.734390 0.775768
O O1 0.356381 0.573039 0.926088
O O2 0.004515 0.109509 0.167157
O O3 0.863969 0.160203 0.948225
O O4 0.000000 0.000000 0.000000
O O5 0.782856 0.056423 0.475477
O O6 0.000000 0.500000 0.500000
O O7 0.155935 0.297135 0.583235
O O8 0.776061 0.035564 0.708841
O O9 0.376308 0.485422 0.747378
O O10 0.353283 0.167729 0.683328
O O11 0.060423 0.447309 0.228992
O O12 0.000000 0.500000 0.000000
O O13 0.500000 0.000000 0.000000
O O14 0.377365 0.843000 0.706612
#
# Coordination Sequence:
#
# PCOD9049142 Si02
#       6
#     2   2   2   2   2   2
#     4   9  21  45  69 107 136 181 240 300 373 425
#     4  12  26  46  67  99 143 194 241 294 361 441
#     4  11  23  46  68 104 140 175 250 293 366 435
#     4  11  24  47  73 107 148 186 241 307 366 437
#     4  11  24  45  71 104 138 187 242 296 369 434
#     4  10  24  46  69  97 143 182 233 305 362 433
#
# _framework density 25.879034999999998
#
# number of rings (size 3 to 8) (size 9 to 14) (size 15 to 20)
#    0.000    1.333    3.333    1.000    0.000    6.667 
#    3.000    0.000    0.000    0.000    0.000    0.000 
#    0.000    0.000    0.000    0.000    0.000    0.000 
#
# Total GULP energy -66894.675138 kJ/mol
# GULP energy per Si atom -5574.556261 kJ/mol
# Density = 2.582013 g / cm^3
# Si number density = 25.879035 Si / 1000 Ang^3
#
#
#
# Elastic Constant Matrix: (Units=GPa)
#
#
# Indices 1 2 3 4 5 6 
#
# 1 142.2756 58.4646 19.3266 -15.4716 -7.1364 -46.2739
# 2 58.4646 86.0574 15.8302 -1.1818 -12.1504 -16.5923
# 3 19.3266 15.8302 103.6911 -12.2443 -11.1972 7.2660
# 4 -15.4716 -1.1818 -12.2443 37.1975 -1.3341 -18.1875
# 5 -7.1364 -12.1504 -11.1972 -1.3341 42.4165 -6.7641
# 6 -46.2739 -16.5923 7.2660 -18.1875 -6.7641 47.2926
#
#
#
# Elastic Compliance Matrix: (Units=1/GPa)
#
#
# Indices 1 2 3 4 5 6 
#
# 1 0.023921 -0.008657 -0.001677 0.024545 0.006824 0.031042
# 2 -0.008657 0.017208 -0.001100 -0.005260 0.002388 -0.003946
# 3 -0.001677 -0.001100 0.010693 0.001460 0.001817 -0.002848
# 4 0.024545 -0.005260 0.001460 0.060906 0.012443 0.047149
# 5 0.006824 0.002388 0.001817 0.012443 0.028854 0.016148
# 6 0.031042 -0.003946 -0.002848 0.047149 0.016148 0.071013
#
#
# Mechanical properties :
#
#
# Convention : Reuss Voigt Hill
#
# Bulk Modulus (GPa) = 34.53824 57.69631 46.11728
# Shear Modulus (GPa) = 20.39855 41.27482 30.83669
#
# Velocity S-wave (km/s) = 2.81058 3.99797 3.45566
# Velocity P-wave (km/s) = 4.88953 6.60717 5.81215
#
# Compressibility (1/GPa) = 0.02895341
#
# Stress axis : x y z
#
# Youngs Moduli (GPa) = 41.80342 58.11177 93.52133
#
# Poissons Ratio (x) = 0.50310 0.15682
# Poissons Ratio (y) = 0.36191 0.10290
# Poissons Ratio (z) = 0.07010 0.06394
#
# Static dielectric constant tensor:
#      x y z
#    x 2.038710 -0.120660 -0.094410 
#    y -0.120660 2.221840 -0.015350 
#    z -0.094410 -0.015350 2.057990 
# 
# From -- ./inp_files/23961.got.cif
#   From: 2010.05.17/outbox.cif.g08.bks.cpg/sg2_12_cif.got.tgz:23961.got - 2010.06.03 11:33:40.
