data_PCOD9049567
_publ_section_title
;
Structure prediction by ZEFSAII (Michael W. Deem and Ramdas Pophale) SiO2 
 PCOD9049567
Probable space group: P -1
;
_chemical_formula_sum "Si O2"
_cell_formula_units_Z 13
_cell_length_a 11.659002
_cell_length_b 9.725528
_cell_length_c 5.347463
_cell_angle_alpha 92.911741
_cell_angle_beta 63.238527
_cell_angle_gamma 106.163106
_cell_volume 518.033600
_symmetry_space_group_name_H-M "P -1"
_symmetry_group_IT_number 2
_symmetry_cell_setting 'triclinic'
loop_
_space_group_symop_operation_xyz
x,y,z
-x,-y,-z
loop_
_atom_site_type_symbol
_atom_site_label
_atom_site_fract_x
_atom_site_fract_y
_atom_site_fract_z
Si Si1 0.793712 0.125196 0.927336
Si Si2 0.540067 0.190618 0.220526
Si Si3 0.713167 0.623775 0.895562
Si Si4 0.772318 0.897478 0.546858
Si Si5 0.000000 0.000000 0.000000
Si Si6 0.914372 0.464584 0.833189
Si Si7 0.570505 0.373459 0.693064
O O1 0.876742 0.068134 0.045756
O O2 0.838834 0.295988 0.886032
O O3 0.822801 0.054717 0.634919
O O4 0.631726 0.081879 0.116629
O O5 0.379449 0.129840 0.401470
O O6 0.591936 0.294078 0.415983
O O7 0.563332 0.274666 0.939448
O O8 0.764312 0.787398 0.775393
O O9 0.816302 0.564149 0.935502
O O10 0.675401 0.524334 0.674295
O O11 0.574839 0.600270 0.176344
O O12 0.888131 0.876908 0.254323
O O13 0.000000 0.500000 0.500000
O O14 0.000000 0.500000 0.000000
#
# Coordination Sequence:
#
# PCOD9049567 Si02
#       7
#     2   2   2   2   1   2   2
#     4  12  29  52  78 115 162 205 269 326 394 471
#     4  11  26  50  84 118 155 207 267 329 392 464
#     4  10  24  50  79 117 155 202 265 324 397 460
#     4  11  28  51  80 116 159 211 261 326 402 471
#     4  12  30  48  78 108 166 212 258 318 394 484
#     4  12  30  49  79 113 157 211 265 317 392 471
#     4  10  24  46  82 118 155 196 259 337 390 460
#
# _framework density 25.094899000000002
#
# number of rings (size 3 to 8) (size 9 to 14) (size 15 to 20)
#    0.000    0.923    1.538    1.846   12.923    8.615 
#    0.000    0.000    0.000    0.000    0.000    0.000 
#    0.000    0.000    0.000    0.000    0.000    0.000 
#
# Total GULP energy -72646.104481 kJ/mol
# GULP energy per Si atom -5588.161883 kJ/mol
# Density = 2.503778 g / cm^3
# Si number density = 25.094899 Si / 1000 Ang^3
#
#
#
# Elastic Constant Matrix: (Units=GPa)
#
#
# Indices 1 2 3 4 5 6 
#
# 1 189.7937 39.5810 55.4668 9.1919 -13.6103 -36.8163
# 2 39.5810 76.7943 24.1931 5.1830 2.6503 6.9907
# 3 55.4668 24.1931 98.6545 4.0549 21.4912 6.3248
# 4 9.1919 5.1830 4.0549 18.4217 8.1735 -3.8439
# 5 -13.6103 2.6503 21.4912 8.1735 33.4706 6.5273
# 6 -36.8163 6.9907 6.3248 -3.8439 6.5273 39.3716
#
#
#
# Elastic Compliance Matrix: (Units=1/GPa)
#
#
# Indices 1 2 3 4 5 6 
#
# 1 0.011432 -0.004422 -0.007812 -0.004481 0.009003 0.010800
# 2 -0.004422 0.016496 -0.000895 -0.003647 -0.000227 -0.007239
# 3 -0.007812 -0.000895 0.018185 0.005159 -0.014651 -0.007135
# 4 -0.004481 -0.003647 0.005159 0.067653 -0.022531 0.005969
# 5 0.009003 -0.000227 -0.014651 -0.022531 0.048349 0.000598
# 6 0.010800 -0.007239 -0.007135 0.005969 0.000598 0.038413
#
#
# Mechanical properties :
#
#
# Convention : Reuss Voigt Hill
#
# Bulk Modulus (GPa) = 50.37022 67.08047 58.72535
# Shear Modulus (GPa) = 21.42182 34.65288 28.03735
#
# Velocity S-wave (km/s) = 2.92487 3.72004 3.34616
# Velocity P-wave (km/s) = 5.61444 6.72610 6.19525
#
# Compressibility (1/GPa) = 0.01985300
#
# Stress axis : x y z
#
# Youngs Moduli (GPa) = 87.47333 60.61982 54.98913
#
# Poissons Ratio (x) = 0.26809 0.42960
# Poissons Ratio (y) = 0.38685 0.04924
# Poissons Ratio (z) = 0.68338 0.05428
#
# Static dielectric constant tensor:
#      x y z
#    x 1.985380 0.020330 -0.001330 
#    y 0.020330 1.967100 -0.002170 
#    z -0.001330 -0.002170 1.994270 
# 
# From -- ./inp_files/60870.got.cif
#   From: 2010.05.17/outbox.cif.g08.bks.cpg/sg2_31_cif.got.tgz:60870.got - 2010.06.03 11:33:40.
