data_PCOD9049037
_publ_section_title
;
Structure prediction by ZEFSAII (Michael W. Deem and Ramdas Pophale) SiO2 
 PCOD9049037
Probable space group: P -1
;
_chemical_formula_sum "Si O2"
_cell_formula_units_Z 16
_cell_length_a 9.236162
_cell_length_b 9.272489
_cell_length_c 12.956885
_cell_angle_alpha 111.249501
_cell_angle_beta 82.348615
_cell_angle_gamma 135.113803
_cell_volume 716.832908
_symmetry_space_group_name_H-M "P -1"
_symmetry_group_IT_number 2
_symmetry_cell_setting 'triclinic'
loop_
_space_group_symop_operation_xyz
x,y,z
-x,-y,-z
loop_
_atom_site_type_symbol
_atom_site_label
_atom_site_fract_x
_atom_site_fract_y
_atom_site_fract_z
Si Si1 0.064785 0.765447 0.358563
Si Si2 0.327796 0.438531 0.925556
Si Si3 0.143798 0.691477 0.765691
Si Si4 0.058794 0.870823 0.996252
Si Si5 0.464630 0.152074 0.512105
Si Si6 0.158956 0.114591 0.678902
Si Si7 0.921568 0.645529 0.573639
Si Si8 0.483915 0.137830 0.111464
O O1 0.012582 0.567004 0.253957
O O2 0.906373 0.780438 0.347401
O O3 0.014258 0.686702 0.462300
O O4 0.298471 0.009198 0.397257
O O5 0.242248 0.233908 0.811150
O O6 0.410879 0.636826 0.896790
O O7 0.500000 0.500000 0.000000
O O8 0.142238 0.358234 0.993337
O O9 0.123359 0.820543 0.877709
O O10 0.377122 0.799827 0.785981
O O11 0.072270 0.691569 0.659920
O O12 0.241087 0.999685 0.098348
O O13 0.000000 0.000000 0.000000
O O14 0.336581 0.153124 0.610887
O O15 0.687085 0.403314 0.539704
O O16 0.500000 0.000000 0.500000
O O17 0.953031 0.852774 0.638967
O O18 0.500000 0.000000 0.000000
#
# Coordination Sequence:
#
# PCOD9049037 Si02
#       8
#     2   2   2   2   2   2   2   2
#     4  11  24  48  65 105 143 175 230 295 344 414
#     4  12  25  44  72 103 141 186 228 284 350 406
#     4  11  23  44  72  99 147 182 229 292 343 413
#     4  11  24  45  72 105 139 185 242 281 339 426
#     4  11  24  43  71 102 134 179 235 285 339 423
#     4  11  27  45  70 102 143 179 230 290 348 411
#     4  11  24  44  74  98 136 185 229 277 359 410
#     4  10  24  46  67 102 142 178 233 293 336 407
#
# _framework density 22.320402999999999
#
# number of rings (size 3 to 8) (size 9 to 14) (size 15 to 20)
#    0.000    1.000    3.750    2.625    5.250    5.000 
#    2.250    3.750    0.000    0.000    0.000    0.000 
#    0.000    0.000    0.000    0.000    0.000    0.000 
#
# Total GULP energy -89396.580192 kJ/mol
# GULP energy per Si atom -5587.286262 kJ/mol
# Density = 2.226960 g / cm^3
# Si number density = 22.320403 Si / 1000 Ang^3
#
#
#
# Elastic Constant Matrix: (Units=GPa)
#
#
# Indices 1 2 3 4 5 6 
#
# 1 141.4067 40.0228 48.2903 -0.6824 20.6984 -0.5471
# 2 40.0228 106.6257 27.2054 19.2255 3.7927 10.8183
# 3 48.2903 27.2054 95.6126 19.7644 15.5405 -1.3398
# 4 -0.6824 19.2255 19.7644 34.1115 -6.3661 -1.4692
# 5 20.6984 3.7927 15.5405 -6.3661 40.8731 20.3486
# 6 -0.5471 10.8183 -1.3398 -1.4692 20.3486 38.7182
#
#
#
# Elastic Compliance Matrix: (Units=1/GPa)
#
#
# Indices 1 2 3 4 5 6 
#
# 1 0.010216 -0.003693 -0.004197 0.004059 -0.004324 0.003458
# 2 -0.003693 0.012581 -0.000904 -0.006369 0.002663 -0.005240
# 3 -0.004197 -0.000904 0.016294 -0.010281 -0.007815 0.004474
# 4 0.004059 -0.006369 -0.010281 0.040690 0.009854 -0.002154
# 5 -0.004324 0.002663 -0.007815 0.009854 0.042343 -0.022955
# 6 0.003458 -0.005240 0.004474 -0.002154 -0.022955 0.039478
#
#
# Mechanical properties :
#
#
# Convention : Reuss Voigt Hill
#
# Bulk Modulus (GPa) = 46.50532 63.85356 55.17944
# Shear Modulus (GPa) = 26.83026 37.94900 32.38963
#
# Velocity S-wave (km/s) = 3.47082 4.12781 3.81349
# Velocity P-wave (km/s) = 6.07805 7.16856 6.64571
#
# Compressibility (1/GPa) = 0.02150292
#
# Stress axis : x y z
#
# Youngs Moduli (GPa) = 97.88435 79.48618 61.37281
#
# Poissons Ratio (x) = 0.29353 0.25757
# Poissons Ratio (y) = 0.36147 0.05550
# Poissons Ratio (z) = 0.41081 0.07188
#
# Static dielectric constant tensor:
#      x y z
#    x 1.896470 -0.050710 -0.205870 
#    y -0.050710 1.909640 0.263580 
#    z -0.205870 0.263580 2.712290 
# 
# From -- ./inp_files/493425.got.cif
#   From: 2010.05.17/outbox.cif.g08.bks.cpg/sg2_247_cif.got.tgz:493425.got - 2010.06.03 11:33:40.
