data_PCOD9049226
_publ_section_title
;
Structure prediction by ZEFSAII (Michael W. Deem and Ramdas Pophale) SiO2 
 PCOD9049226
Probable space group: P -1
;
_chemical_formula_sum "Si O2"
_cell_formula_units_Z 14
_cell_length_a 21.307757
_cell_length_b 11.298489
_cell_length_c 14.431426
_cell_angle_alpha 31.371399
_cell_angle_beta 17.944937
_cell_angle_gamma 33.152791
_cell_volume 550.476632
_symmetry_space_group_name_H-M "P -1"
_symmetry_group_IT_number 2
_symmetry_cell_setting 'triclinic'
loop_
_space_group_symop_operation_xyz
x,y,z
-x,-y,-z
loop_
_atom_site_type_symbol
_atom_site_label
_atom_site_fract_x
_atom_site_fract_y
_atom_site_fract_z
Si Si1 0.543815 0.758605 0.272411
Si Si2 0.035189 0.008208 0.753700
Si Si3 0.626542 0.139004 0.121747
Si Si4 0.294937 0.843991 0.734531
Si Si5 0.934859 0.506880 0.980255
Si Si6 0.624728 0.705602 0.985979
Si Si7 0.635099 0.395934 0.748905
O O1 0.500000 0.500000 0.500000
O O2 0.576650 0.819014 0.079022
O O3 0.756738 0.713264 0.062954
O O4 0.191923 0.183234 0.392666
O O5 0.361315 0.890753 0.504363
O O6 0.126356 0.741243 0.790027
O O7 0.847597 0.055557 0.911069
O O8 0.916417 0.047674 0.992208
O O9 0.525992 0.377234 0.152528
O O10 0.474377 0.949298 0.467354
O O11 0.639135 0.215694 0.946292
O O12 0.307052 0.569177 0.909232
O O13 0.141139 0.531658 0.619008
O O14 0.000000 0.500000 0.000000
O O15 0.436018 0.705831 0.179092
#
# Coordination Sequence:
#
# PCOD9049226 Si02
#       7
#     2   2   2   2   2   2   2
#     4  10  24  46  70  99 145 185 229 288 353 416
#     4  12  24  43  75 107 140 183 236 292 354 415
#     4  11  23  42  72 101 137 181 236 291 348 401
#     4  11  22  45  72 101 139 186 230 290 349 414
#     4  12  25  45  73 106 139 188 237 289 350 424
#     4  11  24  44  70 104 145 185 228 294 350 419
#     4  11  24  44  69 105 141 180 236 291 346 418
#
# _framework density 25.432504999999999
#
# number of rings (size 3 to 8) (size 9 to 14) (size 15 to 20)
#    0.000    0.857    2.857    5.143    0.000    3.429 
#    2.571   12.143    0.000    0.000    0.000    0.000 
#    0.000    0.000    0.000    0.000    0.000    0.000 
#
# Total GULP energy -78479.046744 kJ/mol
# GULP energy per Si atom -5605.646196 kJ/mol
# Density = 2.537462 g / cm^3
# Si number density = 25.432505 Si / 1000 Ang^3
#
#
#
# Elastic Constant Matrix: (Units=GPa)
#
#
# Indices 1 2 3 4 5 6 
#
# 1 187.9607 51.2970 39.2827 4.5004 24.1185 -7.7077
# 2 51.2970 135.0896 36.9193 -3.2040 3.6345 0.7707
# 3 39.2827 36.9193 147.5998 -16.3344 2.9268 -13.7366
# 4 4.5004 -3.2040 -16.3344 54.6619 3.1333 -8.3740
# 5 24.1185 3.6345 2.9268 3.1333 51.7400 -3.0366
# 6 -7.7077 0.7707 -13.7366 -8.3740 -3.0366 45.5978
#
#
#
# Elastic Compliance Matrix: (Units=1/GPa)
#
#
# Indices 1 2 3 4 5 6 
#
# 1 0.006537 -0.002100 -0.001206 -0.000795 -0.002757 0.000447
# 2 -0.002100 0.008661 -0.001708 -0.000005 0.000409 -0.000990
# 3 -0.001206 -0.001708 0.008093 0.002834 0.000217 0.002798
# 4 -0.000795 -0.000005 0.002834 0.019912 -0.000741 0.004327
# 5 -0.002757 0.000409 0.000217 -0.000741 0.020665 0.000833
# 6 0.000447 -0.000990 0.002798 0.004327 0.000833 0.023716
#
#
# Mechanical properties :
#
#
# Convention : Reuss Voigt Hill
#
# Bulk Modulus (GPa) = 75.40120 80.62758 78.01439
# Shear Modulus (GPa) = 49.00370 53.27666 51.14018
#
# Velocity S-wave (km/s) = 4.39431 4.58189 4.48908
# Velocity P-wave (km/s) = 7.44705 7.73066 7.59018
#
# Compressibility (1/GPa) = 0.01326239
#
# Stress axis : x y z
#
# Youngs Moduli (GPa) = 152.98693 115.45724 123.56201
#
# Poissons Ratio (x) = 0.24242 0.14903
# Poissons Ratio (y) = 0.32123 0.21109
# Poissons Ratio (z) = 0.18452 0.19725
#
# Static dielectric constant tensor:
#      x y z
#    x 2.116700 -0.028560 -0.025440 
#    y -0.028560 2.008030 0.009540 
#    z -0.025440 0.009540 1.972320 
# 
# From -- ./inp_files/541042.got.cif
#   From: 2010.05.17/outbox.cif.g08.bks.cpg/sg2_271_cif.got.tgz:541042.got - 2010.06.03 11:33:40.
