data_PCOD9049594
_publ_section_title
;
Structure prediction by ZEFSAII (Michael W. Deem and Ramdas Pophale) SiO2 
 PCOD9049594
Probable space group: P -1
;
_chemical_formula_sum "Si O2"
_cell_formula_units_Z 12
_cell_length_a 10.505006
_cell_length_b 10.201500
_cell_length_c 12.141379
_cell_angle_alpha 133.129108
_cell_angle_beta 38.003237
_cell_angle_gamma 107.976525
_cell_volume 502.227149
_symmetry_space_group_name_H-M "P -1"
_symmetry_group_IT_number 2
_symmetry_cell_setting 'triclinic'
loop_
_space_group_symop_operation_xyz
x,y,z
-x,-y,-z
loop_
_atom_site_type_symbol
_atom_site_label
_atom_site_fract_x
_atom_site_fract_y
_atom_site_fract_z
Si Si1 0.923435 0.622227 0.807608
Si Si2 0.792321 0.159822 0.572962
Si Si3 0.761103 0.842533 0.691140
Si Si4 0.386615 0.527233 0.934049
Si Si5 0.468292 0.045976 0.321383
Si Si6 0.398861 0.618673 0.523415
O O1 0.091761 0.396978 0.506502
O O2 0.121058 0.681636 0.741036
O O3 0.786921 0.561566 0.960290
O O4 0.704913 0.817689 0.005889
O O5 0.648223 0.359926 0.708651
O O6 0.700494 0.004390 0.517357
O O7 0.071867 0.068253 0.333424
O O8 0.707594 0.259402 0.811012
O O9 0.706041 0.838415 0.596688
O O10 0.500000 0.000000 0.000000
O O11 0.436329 0.528672 0.773289
O O12 0.563543 0.184495 0.389218
O O13 0.500000 0.500000 0.500000
#
# Coordination Sequence:
#
# PCOD9049594 Si02
#       6
#     2   2   2   2   2   2
#     4  10  24  47  68 102 140 184 235 284 351 412
#     4   9  21  45  70 105 136 183 234 287 354 409
#     4  11  24  42  68 109 139 180 235 290 349 415
#     4   9  22  45  75 100 142 184 230 293 348 414
#     4  11  24  44  70 102 140 182 236 285 350 413
#     4  12  25  45  69 108 142 187 234 286 352 418
#
# _framework density 23.89357
#
# number of rings (size 3 to 8) (size 9 to 14) (size 15 to 20)
#    0.000    1.667    1.667    2.000    4.667    4.000 
#    3.000    0.000    0.000    0.000    0.000    0.000 
#    0.000    0.000    0.000    0.000    0.000    0.000 
#
# Total GULP energy -67044.935828 kJ/mol
# GULP energy per Si atom -5587.077986 kJ/mol
# Density = 2.383919 g / cm^3
# Si number density = 23.893570 Si / 1000 Ang^3
#
#
#
# Elastic Constant Matrix: (Units=GPa)
#
#
# Indices 1 2 3 4 5 6 
#
# 1 72.6063 58.1481 49.5351 -20.4797 -20.5272 13.5009
# 2 58.1481 112.3463 44.7304 -7.2347 -21.0491 40.0683
# 3 49.5351 44.7304 122.4945 -11.2209 -35.1135 0.7022
# 4 -20.4797 -7.2347 -11.2209 39.5689 3.2223 -15.4846
# 5 -20.5272 -21.0491 -35.1135 3.2223 48.4607 -24.2596
# 6 13.5009 40.0683 0.7022 -15.4846 -24.2596 50.0281
#
#
#
# Elastic Compliance Matrix: (Units=1/GPa)
#
#
# Indices 1 2 3 4 5 6 
#
# 1 0.042311 -0.026100 -0.000289 0.025802 0.017707 0.026063
# 2 -0.026100 0.034206 -0.009610 -0.022848 -0.020209 -0.037089
# 3 -0.000289 -0.009610 0.017354 0.008872 0.016946 0.018495
# 4 0.025802 -0.022848 0.008872 0.049894 0.023057 0.037835
# 5 0.017707 -0.020209 0.016946 0.023057 0.051856 0.043451
# 6 0.026063 -0.037089 0.018495 0.037835 0.043451 0.075182
#
#
# Mechanical properties :
#
#
# Convention : Reuss Voigt Hill
#
# Bulk Modulus (GPa) = 45.71732 68.03048 56.87390
# Shear Modulus (GPa) = 14.28200 37.94712 26.11456
#
# Velocity S-wave (km/s) = 2.44751 3.98951 3.30957
# Velocity P-wave (km/s) = 5.21175 7.05377 6.20154
#
# Compressibility (1/GPa) = 0.02187355
#
# Stress axis : x y z
#
# Youngs Moduli (GPa) = 23.63476 29.23445 57.62342
#
# Poissons Ratio (x) = 0.76302 0.01666
# Poissons Ratio (y) = 0.61687 0.55374
# Poissons Ratio (z) = 0.00683 0.28093
#
# Static dielectric constant tensor:
#      x y z
#    x 1.907280 -0.015400 0.043440 
#    y -0.015400 2.011730 -0.023910 
#    z 0.043440 -0.023910 1.901360 
# 
# From -- ./inp_files/395154.got.cif
#   From: 2010.05.17/outbox.cif.g08.bks.cpg/sg2_198_cif.got.tgz:395154.got - 2010.06.03 11:33:40.
