data_PCOD9049144
_publ_section_title
;
Structure prediction by ZEFSAII (Michael W. Deem and Ramdas Pophale) SiO2 
 PCOD9049144
Probable space group: P -1
;
_chemical_formula_sum "Si O2"
_cell_formula_units_Z 14
_cell_length_a 24.394476
_cell_length_b 13.814758
_cell_length_c 17.374914
_cell_angle_alpha 155.180943
_cell_angle_beta 163.692743
_cell_angle_gamma 26.100693
_cell_volume 671.917174
_symmetry_space_group_name_H-M "P -1"
_symmetry_group_IT_number 2
_symmetry_cell_setting 'triclinic'
loop_
_space_group_symop_operation_xyz
x,y,z
-x,-y,-z
loop_
_atom_site_type_symbol
_atom_site_label
_atom_site_fract_x
_atom_site_fract_y
_atom_site_fract_z
Si Si1 0.237133 0.444418 0.791002
Si Si2 0.462544 0.946865 0.181189
Si Si3 0.960920 0.922561 0.256296
Si Si4 0.716232 0.834625 0.188879
Si Si5 0.515387 0.184814 0.588137
Si Si6 0.104850 0.503282 0.238577
Si Si7 0.320557 0.366969 0.168756
O O1 0.367052 0.272231 0.777564
O O2 0.286420 0.309799 0.841668
O O3 0.000000 0.500000 0.500000
O O4 0.302377 0.691964 0.063343
O O5 0.525665 0.063860 0.429604
O O6 0.407937 0.140934 0.178442
O O7 0.243585 0.892616 0.864976
O O8 0.092471 0.777887 0.398132
O O9 0.884349 0.698831 0.958120
O O10 0.106727 0.024143 0.471145
O O11 0.746299 0.682670 0.042496
O O12 0.500000 0.000000 0.000000
O O13 0.317413 0.397178 0.486233
O O14 0.500000 0.000000 0.500000
O O15 0.891526 0.499625 0.985546
O O16 0.500000 0.500000 0.500000
#
# Coordination Sequence:
#
# PCOD9049144 Si02
#       7
#     2   2   2   2   2   2   2
#     4  12  29  46  69 105 143 179 233 293 344 413
#     4  10  24  46  69  98 139 176 232 289 339 412
#     4   9  20  39  67  97 131 170 220 287 339 397
#     4  12  23  40  68 100 136 176 224 281 346 405
#     4  11  26  46  71  96 137 191 231 278 344 423
#     4   9  20  38  64  97 130 170 231 278 331 410
#     4  11  22  37  68 102 135 177 221 291 351 398
#
# _framework density 20.835901
#
# number of rings (size 3 to 8) (size 9 to 14) (size 15 to 20)
#    0.000    1.429    1.429    3.429    6.000    3.429 
#    0.000    0.000    0.000    0.000    0.000    0.000 
#    0.000    0.000    0.000    0.000    0.000    0.000 
#
# Total GULP energy -78062.925482 kJ/mol
# GULP energy per Si atom -5575.923249 kJ/mol
# Density = 2.078848 g / cm^3
# Si number density = 20.835901 Si / 1000 Ang^3
#
#
#
# Elastic Constant Matrix: (Units=GPa)
#
#
# Indices 1 2 3 4 5 6 
#
# 1 114.4465 47.0064 36.0752 4.0049 -0.0764 -13.9288
# 2 47.0064 76.6254 32.3326 -12.9866 -1.7371 -13.8364
# 3 36.0752 32.3326 99.0850 1.3297 11.8893 7.9225
# 4 4.0049 -12.9866 1.3297 34.0813 -0.2827 9.3631
# 5 -0.0764 -1.7371 11.8893 -0.2827 41.4860 5.4801
# 6 -13.9288 -13.8364 7.9225 9.3631 5.4801 37.3939
#
#
#
# Elastic Compliance Matrix: (Units=1/GPa)
#
#
# Indices 1 2 3 4 5 6 
#
# 1 0.013216 -0.007081 -0.002759 -0.005305 -0.000076 0.004227
# 2 -0.007081 0.021778 -0.005201 0.008197 0.001891 0.004193
# 3 -0.002759 -0.005201 0.013630 -0.000808 -0.003457 -0.005130
# 4 -0.005305 0.008197 -0.000808 0.035301 0.001847 -0.007881
# 5 -0.000076 0.001891 -0.003457 0.001847 0.025557 -0.002804
# 6 0.004227 0.004193 -0.005130 -0.007881 -0.002804 0.033339
#
#
# Mechanical properties :
#
#
# Convention : Reuss Voigt Hill
#
# Bulk Modulus (GPa) = 53.92866 57.88725 55.90795
# Shear Modulus (GPa) = 27.92025 34.24175 31.08100
#
# Velocity S-wave (km/s) = 3.66458 4.05829 3.86645
# Velocity P-wave (km/s) = 6.62150 7.05708 6.84276
#
# Compressibility (1/GPa) = 0.01854302
#
# Stress axis : x y z
#
# Youngs Moduli (GPa) = 75.66840 45.91799 73.36990
#
# Poissons Ratio (x) = 0.32514 0.20240
# Poissons Ratio (y) = 0.53579 0.38157
# Poissons Ratio (z) = 0.20874 0.23880
#
# Static dielectric constant tensor:
#      x y z
#    x 1.608640 0.086200 0.000700 
#    y 0.086200 1.739020 -0.064990 
#    z 0.000700 -0.064990 1.764820 
# 
# From -- ./inp_files/203948.got.cif
#   From: 2010.05.17/outbox.cif.g08.bks.cpg/sg2_102_cif.got.tgz:203948.got - 2010.06.03 11:33:40.
