data_PCOD9049424
_publ_section_title
;
Structure prediction by ZEFSAII (Michael W. Deem and Ramdas Pophale) SiO2 
 PCOD9049424
Probable space group: P -1
;
_chemical_formula_sum "Si O2"
_cell_formula_units_Z 13
_cell_length_a 14.296382
_cell_length_b 5.701685
_cell_length_c 9.938899
_cell_angle_alpha 40.336547
_cell_angle_beta 66.201574
_cell_angle_gamma 71.908284
_cell_volume 479.798674
_symmetry_space_group_name_H-M "P -1"
_symmetry_group_IT_number 2
_symmetry_cell_setting 'triclinic'
loop_
_space_group_symop_operation_xyz
x,y,z
-x,-y,-z
loop_
_atom_site_type_symbol
_atom_site_label
_atom_site_fract_x
_atom_site_fract_y
_atom_site_fract_z
Si Si1 0.039314 0.407115 0.313581
Si Si2 0.839775 0.578615 0.002004
Si Si3 0.535801 0.423929 0.813619
Si Si4 0.662288 0.329324 0.027134
Si Si5 0.148474 0.581037 0.413862
Si Si6 0.724367 0.488679 0.366817
Si Si7 0.500000 0.500000 0.500000
O O1 0.070200 0.573841 0.079615
O O2 0.139312 0.388439 0.359393
O O3 0.947305 0.582100 0.374197
O O4 0.000000 0.000000 0.500000
O O5 0.863650 0.002932 0.808913
O O6 0.738141 0.542202 0.985704
O O7 0.809909 0.414197 0.234743
O O8 0.448043 0.636197 0.852949
O O9 0.542466 0.560496 0.600081
O O10 0.636352 0.434120 0.842978
O O11 0.500000 0.000000 0.000000
O O12 0.700074 0.917574 0.179492
O O13 0.234444 0.580529 0.477966
O O14 0.614430 0.320390 0.471535
#
# Coordination Sequence:
#
# PCOD9049424 Si02
#       7
#     2   2   2   2   2   2   1
#     4   9  21  45  73 102 131 180 227 275 345 403
#     4  11  23  45  67 101 139 177 226 279 338 405
#     4  11  24  47  64  91 138 180 229 284 333 395
#     4  11  24  44  67  96 136 182 226 279 344 396
#     4  10  24  46  73  99 139 178 224 284 338 408
#     4  12  27  42  66 106 137 178 231 280 338 399
#     4  12  26  44  66  98 140 176 232 280 330 402
#
# _framework density 27.094697
#
# number of rings (size 3 to 8) (size 9 to 14) (size 15 to 20)
#    0.000    1.231    3.077    0.923    6.462    3.692 
#    0.000   10.769    0.000    0.000    0.000    0.000 
#    0.000    0.000    0.000    0.000    0.000    0.000 
#
# Total GULP energy -72515.596701 kJ/mol
# GULP energy per Si atom -5578.122823 kJ/mol
# Density = 2.703303 g / cm^3
# Si number density = 27.094697 Si / 1000 Ang^3
#
#
#
# Elastic Constant Matrix: (Units=GPa)
#
#
# Indices 1 2 3 4 5 6 
#
# 1 83.9844 -2.9443 4.8249 -12.1037 -2.0190 35.7443
# 2 -2.9443 66.6054 45.3064 12.9637 14.8298 17.6627
# 3 4.8249 45.3064 99.2875 30.7452 8.8575 0.9665
# 4 -12.1037 12.9637 30.7452 60.0298 3.7443 -4.2713
# 5 -2.0190 14.8298 8.8575 3.7443 39.6838 13.0854
# 6 35.7443 17.6627 0.9665 -4.2713 13.0854 52.3125
#
#
#
# Elastic Compliance Matrix: (Units=1/GPa)
#
#
# Indices 1 2 3 4 5 6 
#
# 1 0.020727 0.007864 -0.006118 0.004056 0.004902 -0.017599
# 2 0.007864 0.028576 -0.013504 0.001514 -0.002809 -0.013946
# 3 -0.006118 -0.013504 0.018842 -0.007295 -0.001474 0.008165
# 4 0.004056 0.001514 -0.007295 0.020801 -0.000235 -0.001391
# 5 0.004902 -0.002809 -0.001474 -0.000235 0.030123 -0.009928
# 6 -0.017599 -0.013946 0.008165 -0.001391 -0.009928 0.038069
#
#
# Mechanical properties :
#
#
# Convention : Reuss Voigt Hill
#
# Bulk Modulus (GPa) = 22.40689 38.25016 30.32853
# Shear Modulus (GPa) = 25.57127 43.91789 34.74458
#
# Velocity S-wave (km/s) = 3.07542 4.03041 3.58486
# Velocity P-wave (km/s) = 4.57152 5.98388 5.32473
#
# Compressibility (1/GPa) = 0.04462913
#
# Stress axis : x y z
#
# Youngs Moduli (GPa) = 48.24631 34.99383 53.07230
#
# Poissons Ratio (x) = -0.27518 0.32468
# Poissons Ratio (y) = -0.37940 0.71671
# Poissons Ratio (z) = 0.29515 0.47257
#
# Static dielectric constant tensor:
#      x y z
#    x 2.164710 -0.076200 -0.103690 
#    y -0.076200 2.192260 -0.007520 
#    z -0.103690 -0.007520 2.156700 
# 
# From -- ./inp_files/96382.got.cif
#   From: 2010.05.17/outbox.cif.g08.bks.cpg/sg2_49_cif.got.tgz:96382.got - 2010.06.03 11:33:40.
