data_PCOD9049850
_publ_section_title
;
Structure prediction by ZEFSAII (Michael W. Deem and Ramdas Pophale) SiO2 
 PCOD9049850
Probable space group: P -1
;
_chemical_formula_sum "Si O2"
_cell_formula_units_Z 14
_cell_length_a 16.439867
_cell_length_b 9.783762
_cell_length_c 7.132603
_cell_angle_alpha 115.406322
_cell_angle_beta 88.637534
_cell_angle_gamma 140.495280
_cell_volume 557.067386
_symmetry_space_group_name_H-M "P -1"
_symmetry_group_IT_number 2
_symmetry_cell_setting 'triclinic'
loop_
_space_group_symop_operation_xyz
x,y,z
-x,-y,-z
loop_
_atom_site_type_symbol
_atom_site_label
_atom_site_fract_x
_atom_site_fract_y
_atom_site_fract_z
Si Si1 0.701634 0.180244 0.044424
Si Si2 0.137845 0.616737 0.487567
Si Si3 0.243477 0.045959 0.281539
Si Si4 0.932589 0.061097 0.057514
Si Si5 0.562887 0.731057 0.268965
Si Si6 0.603159 0.330439 0.003288
Si Si7 0.111465 0.038094 0.565796
O O1 0.803152 0.386484 0.338016
O O2 0.672207 0.271676 0.960527
O O3 0.769578 0.137752 0.922173
O O4 0.541131 0.893283 0.983316
O O5 0.277268 0.940943 0.608958
O O6 0.000000 0.500000 0.500000
O O7 0.067003 0.392547 0.207667
O O8 0.113027 0.897331 0.345843
O O9 0.396390 0.268372 0.528310
O O10 0.213472 0.121794 0.163980
O O11 0.895603 0.019304 0.252908
O O12 0.000000 0.000000 0.000000
O O13 0.724409 0.629158 0.266952
O O14 0.500000 0.500000 0.000000
O O15 0.445478 0.682353 0.204364
O O16 0.000000 0.000000 0.500000
#
# Coordination Sequence:
#
# PCOD9049850 Si02
#       7
#     2   2   2   2   2   2   2
#     4  10  24  47  76 112 153 202 258 318 392 460
#     4  11  23  46  76 111 156 197 256 324 379 461
#     4  12  26  47  79 114 149 211 258 316 397 463
#     4  12  27  49  75 120 155 203 261 322 390 463
#     4  11  25  47  75 110 156 200 258 325 380 461
#     4  10  24  48  72 106 157 198 251 324 382 449
#     4  12  25  48  77 111 154 195 260 322 379 468
#
# _framework density 25.131609999999998
#
# number of rings (size 3 to 8) (size 9 to 14) (size 15 to 20)
#    0.000    0.857    4.286    1.714    2.000    2.857 
#    5.143    0.000    0.000    0.000    0.000    0.000 
#    0.000    0.000    0.000    0.000    0.000    0.000 
#
# Total GULP energy -78308.087376 kJ/mol
# GULP energy per Si atom -5593.434813 kJ/mol
# Density = 2.507441 g / cm^3
# Si number density = 25.131610 Si / 1000 Ang^3
#
#
#
# Elastic Constant Matrix: (Units=GPa)
#
#
# Indices 1 2 3 4 5 6 
#
# 1 184.2696 42.6144 51.3729 -17.1356 14.3185 -41.9326
# 2 42.6144 88.8227 43.4271 -9.8976 10.6057 -18.9433
# 3 51.3729 43.4271 136.6370 -9.0930 29.8414 -18.5753
# 4 -17.1356 -9.8976 -9.0930 59.3425 -7.9352 12.2224
# 5 14.3185 10.6057 29.8414 -7.9352 62.3668 -15.2342
# 6 -41.9326 -18.9433 -18.5753 12.2224 -15.2342 45.3635
#
#
#
# Elastic Compliance Matrix: (Units=1/GPa)
#
#
# Indices 1 2 3 4 5 6 
#
# 1 0.007571 -0.001611 -0.001694 0.000584 0.000826 0.005752
# 2 -0.001611 0.014488 -0.003641 0.000839 0.000490 0.003009
# 3 -0.001694 -0.003641 0.009901 -0.000026 -0.003807 -0.000304
# 4 0.000584 0.000839 -0.000026 0.018051 0.001154 -0.003597
# 5 0.000826 0.000490 -0.003807 0.001154 0.019074 0.005504
# 6 0.005752 0.003009 -0.000304 -0.003597 0.005504 0.031310
#
#
# Mechanical properties :
#
#
# Convention : Reuss Voigt Hill
#
# Bulk Modulus (GPa) = 55.34669 76.06202 65.70435
# Shear Modulus (GPa) = 41.55931 51.56890 46.56411
#
# Velocity S-wave (km/s) = 4.07094 4.53476 4.30910
# Velocity P-wave (km/s) = 6.64585 7.59934 7.13853
#
# Compressibility (1/GPa) = 0.01806793
#
# Stress axis : x y z
#
# Youngs Moduli (GPa) = 132.08973 69.02205 100.99676
#
# Poissons Ratio (x) = 0.11118 0.17109
# Poissons Ratio (y) = 0.21277 0.36776
# Poissons Ratio (z) = 0.22376 0.25133
#
# Static dielectric constant tensor:
#      x y z
#    x 1.984250 -0.030400 -0.008160 
#    y -0.030400 2.111730 0.009160 
#    z -0.008160 0.009160 2.026480 
# 
# From -- ./inp_files/299539.got.cif
#   From: 2010.05.17/outbox.cif.g08.bks.cpg/sg2_150_cif.got.tgz:299539.got - 2010.06.03 11:33:40.
