data_PCOD9049656
_publ_section_title
;
Structure prediction by ZEFSAII (Michael W. Deem and Ramdas Pophale) SiO2 
 PCOD9049656
Probable space group: P -1
;
_chemical_formula_sum "Si O2"
_cell_formula_units_Z 16
_cell_length_a 14.692575
_cell_length_b 15.665314
_cell_length_c 7.429825
_cell_angle_alpha 81.482194
_cell_angle_beta 126.666976
_cell_angle_gamma 142.035855
_cell_volume 638.380595
_symmetry_space_group_name_H-M "P -1"
_symmetry_group_IT_number 2
_symmetry_cell_setting 'triclinic'
loop_
_space_group_symop_operation_xyz
x,y,z
-x,-y,-z
loop_
_atom_site_type_symbol
_atom_site_label
_atom_site_fract_x
_atom_site_fract_y
_atom_site_fract_z
Si Si1 0.964771 0.221213 0.811098
Si Si2 0.932301 0.239557 0.196480
Si Si3 0.769585 0.908113 0.747168
Si Si4 0.499761 0.582669 0.345518
Si Si5 0.404394 0.889812 0.603037
Si Si6 0.349660 0.194449 0.966160
Si Si7 0.842209 0.441820 0.483488
Si Si8 0.868936 0.793634 0.401239
O O1 0.791473 0.175098 0.532495
O O2 0.849623 0.049974 0.704789
O O3 0.980694 0.250391 0.038201
O O4 0.235976 0.406396 0.004490
O O5 0.007887 0.387514 0.282132
O O6 0.079146 0.271838 0.485392
O O7 0.646615 0.037173 0.954935
O O8 0.554023 0.708710 0.469925
O O9 0.696432 0.879962 0.872842
O O10 0.000000 0.000000 0.000000
O O11 0.500000 0.500000 0.500000
O O12 0.719717 0.718666 0.427386
O O13 0.266094 0.707285 0.474285
O O14 0.500000 0.000000 0.500000
O O15 0.298427 0.262970 0.915054
O O16 0.610120 0.338738 0.165438
O O17 0.134105 0.014574 0.643753
O O18 0.000000 0.500000 0.500000
#
# Coordination Sequence:
#
# PCOD9049656 Si02
#       8
#     2   2   2   2   2   2   2   2
#     4  11  23  40  70 104 135 177 229 287 344 413
#     4  11  22  48  72  96 142 185 230 292 357 416
#     4  12  21  42  69 105 141 182 225 290 354 413
#     4  12  22  39  68 103 143 174 227 279 345 423
#     4  10  24  47  70  98 136 180 239 287 348 413
#     4  11  23  45  70  98 148 177 232 286 353 426
#     4  12  28  47  71 101 140 193 240 289 350 420
#     4  11  23  43  70 104 135 188 221 283 367 417
#
# _framework density 25.063419
#
# number of rings (size 3 to 8) (size 9 to 14) (size 15 to 20)
#    0.000    0.750    6.250    1.500    1.750    4.000 
#    2.250    0.000    0.000    0.000    0.000    0.000 
#    0.000    0.000    0.000    0.000    0.000    0.000 
#
# Total GULP energy -89590.163775 kJ/mol
# GULP energy per Si atom -5599.385236 kJ/mol
# Density = 2.500637 g / cm^3
# Si number density = 25.063419 Si / 1000 Ang^3
#
#
#
# Elastic Constant Matrix: (Units=GPa)
#
#
# Indices 1 2 3 4 5 6 
#
# 1 119.4729 40.2260 56.4317 7.7119 17.9256 -20.5631
# 2 40.2260 143.9403 31.1595 16.2028 -6.8922 -38.0536
# 3 56.4317 31.1595 102.6568 11.9059 26.5018 -4.1688
# 4 7.7119 16.2028 11.9059 35.8122 -6.7315 -0.7858
# 5 17.9256 -6.8922 26.5018 -6.7315 52.6374 2.7229
# 6 -20.5631 -38.0536 -4.1688 -0.7858 2.7229 51.0467
#
#
#
# Elastic Compliance Matrix: (Units=1/GPa)
#
#
# Indices 1 2 3 4 5 6 
#
# 1 0.012472 -0.001291 -0.005821 -0.000411 -0.001728 0.003672
# 2 -0.001291 0.009969 -0.002272 -0.002924 0.002175 0.006565
# 3 -0.005821 -0.002272 0.015744 -0.004258 -0.006659 -0.002463
# 4 -0.000411 -0.002924 -0.004258 0.031842 0.006104 -0.002528
# 5 -0.001728 0.002175 -0.006659 0.006104 0.024046 -0.000807
# 6 0.003672 0.006565 -0.002463 -0.002528 -0.000807 0.025766
#
#
# Mechanical properties :
#
#
# Convention : Reuss Voigt Hill
#
# Bulk Modulus (GPa) = 51.50441 69.07826 60.29134
# Shear Modulus (GPa) = 34.46371 43.78279 39.12325
#
# Velocity S-wave (km/s) = 3.71220 4.18410 3.95520
# Velocity P-wave (km/s) = 6.24245 7.13887 6.70566
#
# Compressibility (1/GPa) = 0.01941581
#
# Stress axis : x y z
#
# Youngs Moduli (GPa) = 80.17770 100.31323 63.51701
#
# Poissons Ratio (x) = 0.12951 0.36976
# Poissons Ratio (y) = 0.10351 0.14431
# Poissons Ratio (z) = 0.46675 0.22791
#
# Static dielectric constant tensor:
#      x y z
#    x 2.036710 -0.003980 -0.004990 
#    y -0.003980 2.025740 -0.045140 
#    z -0.004990 -0.045140 2.006240 
# 
# From -- ./inp_files/315146.got.cif
#   From: 2010.05.17/outbox.cif.g08.bks.cpg/sg2_158_cif.got.tgz:315146.got - 2010.06.03 11:33:40.
