data_PCOD9049788
_publ_section_title
;
Structure prediction by ZEFSAII (Michael W. Deem and Ramdas Pophale) SiO2 
 PCOD9049788
Probable space group: P -1
;
_chemical_formula_sum "Si O2"
_cell_formula_units_Z 16
_cell_length_a 5.209362
_cell_length_b 15.440100
_cell_length_c 7.911547
_cell_angle_alpha 82.496099
_cell_angle_beta 70.111679
_cell_angle_gamma 90.489827
_cell_volume 592.313284
_symmetry_space_group_name_H-M "P -1"
_symmetry_group_IT_number 2
_symmetry_cell_setting 'triclinic'
loop_
_space_group_symop_operation_xyz
x,y,z
-x,-y,-z
loop_
_atom_site_type_symbol
_atom_site_label
_atom_site_fract_x
_atom_site_fract_y
_atom_site_fract_z
Si Si1 0.242983 0.714243 0.504409
Si Si2 0.688683 0.021334 0.111300
Si Si3 0.689514 0.866053 0.381546
Si Si4 0.819011 0.452763 0.245566
Si Si5 0.925502 0.360804 0.774230
Si Si6 0.020594 0.814389 0.022691
Si Si7 0.577621 0.613671 0.925349
Si Si8 0.760155 0.802017 0.750496
O O1 0.487933 0.783953 0.390616
O O2 0.316245 0.619422 0.579324
O O3 0.050210 0.685890 0.397852
O O4 0.065707 0.766001 0.663066
O O5 0.601777 0.958594 0.303429
O O6 0.712870 0.126222 0.110354
O O7 0.500000 0.000000 0.000000
O O8 0.000000 0.000000 0.000000
O O9 0.729692 0.860217 0.574802
O O10 0.958797 0.849289 0.215810
O O11 0.614904 0.448810 0.134834
O O12 0.895079 0.549065 0.274578
O O13 0.113874 0.416117 0.139330
O O14 0.981616 0.289261 0.923182
O O15 0.603323 0.377471 0.867880
O O16 0.793787 0.834107 0.928237
O O17 0.582997 0.710534 0.815330
#
# Coordination Sequence:
#
# PCOD9049788 Si02
#       8
#     2   2   2   2   2   2   2   2
#     4  11  23  43  66 103 144 182 242 296 350 426
#     4  10  24  47  74 109 144 182 239 293 346 428
#     4  11  23  46  77  98 146 190 232 295 363 414
#     4  11  25  44  67 102 141 187 239 296 349 425
#     4  12  23  42  71  99 139 195 236 291 367 413
#     4  11  25  46  75 106 142 190 241 288 359 426
#     4  11  24  45  66 101 144 182 241 296 344 427
#     4  11  24  45  69 106 145 185 237 296 349 427
#
# _framework density 27.012732
#
# number of rings (size 3 to 8) (size 9 to 14) (size 15 to 20)
#    0.000    1.000    2.500    4.125    1.750    3.500 
#    0.000    3.125    0.000    0.000    0.000    0.000 
#    0.000    0.000    0.000    0.000    0.000    0.000 
#
# Total GULP energy -89553.145506 kJ/mol
# GULP energy per Si atom -5597.071594 kJ/mol
# Density = 2.695125 g / cm^3
# Si number density = 27.012732 Si / 1000 Ang^3
#
#
#
# Elastic Constant Matrix: (Units=GPa)
#
#
# Indices 1 2 3 4 5 6 
#
# 1 107.2481 19.8596 9.4014 2.9056 16.6496 13.9369
# 2 19.8596 159.2282 24.5627 -45.2120 15.2803 13.5290
# 3 9.4014 24.5627 112.7892 -18.3346 17.7201 1.5150
# 4 2.9056 -45.2120 -18.3346 55.7040 1.6034 -6.9494
# 5 16.6496 15.2803 17.7201 1.6034 50.3848 -0.5093
# 6 13.9369 13.5290 1.5150 -6.9494 -0.5093 43.1639
#
#
#
# Elastic Compliance Matrix: (Units=1/GPa)
#
#
# Indices 1 2 3 4 5 6 
#
# 1 0.010541 -0.001266 -0.000434 -0.002055 -0.002915 -0.003357
# 2 -0.001266 0.008816 -0.000276 0.007045 -0.002395 -0.001239
# 3 -0.000434 -0.000276 0.010017 0.003238 -0.003395 0.000356
# 4 -0.002055 0.007045 0.003238 0.025235 -0.003375 0.002365
# 5 -0.002915 -0.002395 -0.003395 -0.003375 0.022854 0.001537
# 6 -0.003357 -0.001239 0.000356 0.002365 0.001537 0.025026
#
#
# Mechanical properties :
#
#
# Convention : Reuss Voigt Hill
#
# Bulk Modulus (GPa) = 39.33645 54.10144 46.71895
# Shear Modulus (GPa) = 43.50945 51.54666 47.52806
#
# Velocity S-wave (km/s) = 4.01771 4.37307 4.19915
# Velocity P-wave (km/s) = 6.00970 6.75055 6.39087
#
# Compressibility (1/GPa) = 0.02542171
#
# Stress axis : x y z
#
# Youngs Moduli (GPa) = 94.86601 113.42454 99.82639
#
# Poissons Ratio (x) = 0.14365 0.04331
# Poissons Ratio (y) = 0.12015 0.02758
# Poissons Ratio (z) = 0.04116 0.03134
#
# Static dielectric constant tensor:
#      x y z
#    x 2.176480 -0.135130 -0.002320 
#    y -0.135130 2.202750 -0.021160 
#    z -0.002320 -0.021160 2.164050 
# 
# From -- ./inp_files/135104.got.cif
#   From: 2010.05.17/outbox.cif.g08.bks.cpg/sg2_68_cif.got.tgz:135104.got - 2010.06.03 11:33:40.
