data_PCOD9049874
_publ_section_title
;
Structure prediction by ZEFSAII (Michael W. Deem and Ramdas Pophale) SiO2 
 PCOD9049874
Probable space group: P -1
;
_chemical_formula_sum "Si O2"
_cell_formula_units_Z 16
_cell_length_a 27.967782
_cell_length_b 15.787565
_cell_length_c 17.113507
_cell_angle_alpha 156.904921
_cell_angle_beta 161.248286
_cell_angle_gamma 21.947183
_cell_volume 851.847697
_symmetry_space_group_name_H-M "P -1"
_symmetry_group_IT_number 2
_symmetry_cell_setting 'triclinic'
loop_
_space_group_symop_operation_xyz
x,y,z
-x,-y,-z
loop_
_atom_site_type_symbol
_atom_site_label
_atom_site_fract_x
_atom_site_fract_y
_atom_site_fract_z
Si Si1 0.893341 0.496131 0.198096
Si Si2 0.502866 0.751524 0.577109
Si Si3 0.943842 0.145161 0.264099
Si Si4 0.610553 0.944115 0.201700
Si Si5 0.817906 0.001313 0.794204
Si Si6 0.397978 0.742666 0.093865
Si Si7 0.752592 0.306747 0.679791
Si Si8 0.502673 0.905279 0.544794
O O1 0.985304 0.660000 0.457647
O O2 0.035303 0.230631 0.215201
O O3 0.749997 0.667978 0.181411
O O4 0.806459 0.448084 0.946880
O O5 0.490399 0.964717 0.797084
O O6 0.605025 0.499361 0.563408
O O7 0.582284 0.766767 0.630192
O O8 0.313533 0.812138 0.311166
O O9 0.786598 0.212717 0.133067
O O10 0.087739 0.876972 0.277423
O O11 0.890075 0.119078 0.069550
O O12 0.694705 0.124913 0.477448
O O13 0.500000 0.000000 0.000000
O O14 0.690267 0.927918 0.583820
O O15 0.484052 0.741406 0.308998
O O16 0.408466 0.950796 0.234325
O O17 0.500000 0.500000 0.000000
#
# Coordination Sequence:
#
# PCOD9049874 Si02
#       8
#     2   2   2   2   2   2   2   2
#     4  10  19  36  56  82 115 151 189 229 277 331
#     4  10  20  39  57  84 117 149 187 237 282 323
#     4   9  19  35  57  85 109 151 189 221 285 344
#     4  11  22  37  58  87 107 155 200 223 275 340
#     4   8  18  36  54  81 115 143 181 235 283 318
#     4  10  17  34  61  84 111 145 186 227 288 340
#     4  10  21  39  59  76 118 155 186 229 281 336
#     4   8  19  35  54  86 114 142 183 233 281 334
#
# _framework density 18.782699999999998
#
# number of rings (size 3 to 8) (size 9 to 14) (size 15 to 20)
#    0.750    1.750    1.250    1.125    0.000    1.500 
#    4.500    6.250    0.000    1.500    0.000    0.000 
#    0.000    0.000    0.000    0.000    0.000    0.000 
#
# Total GULP energy -89170.659155 kJ/mol
# GULP energy per Si atom -5573.166197 kJ/mol
# Density = 1.873995 g / cm^3
# Si number density = 18.782700 Si / 1000 Ang^3
#
#
#
# Elastic Constant Matrix: (Units=GPa)
#
#
# Indices 1 2 3 4 5 6 
#
# 1 81.5406 38.4757 21.5392 5.7505 -8.6815 -7.4533
# 2 38.4757 139.5352 38.2620 1.0837 -18.6877 -7.5770
# 3 21.5392 38.2620 88.0370 4.8615 2.1805 4.3954
# 4 5.7505 1.0837 4.8615 26.1343 -0.0437 -7.1287
# 5 -8.6815 -18.6877 2.1805 -0.0437 17.8586 -3.9138
# 6 -7.4533 -7.5770 4.3954 -7.1287 -3.9138 26.7582
#
#
#
# Elastic Compliance Matrix: (Units=1/GPa)
#
#
# Indices 1 2 3 4 5 6 
#
# 1 0.015371 -0.002242 -0.003107 -0.001408 0.006540 0.004739
# 2 -0.002242 0.011134 -0.005035 0.002590 0.012468 0.005869
# 3 -0.003107 -0.005035 0.015145 -0.003940 -0.010244 -0.007327
# 4 -0.001408 0.002590 -0.003940 0.042809 0.005504 0.013198
# 5 0.006540 0.012468 -0.010244 0.005504 0.077845 0.019888
# 6 0.004739 0.005869 -0.007327 0.013198 0.019888 0.047982
#
#
# Mechanical properties :
#
#
# Convention : Reuss Voigt Hill
#
# Bulk Modulus (GPa) = 47.89110 56.18519 52.03815
# Shear Modulus (GPa) = 21.00705 28.20595 24.60650
#
# Velocity S-wave (km/s) = 3.34791 3.87938 3.62340
# Velocity P-wave (km/s) = 6.36377 7.07420 6.72837
#
# Compressibility (1/GPa) = 0.02088070
#
# Stress axis : x y z
#
# Youngs Moduli (GPa) = 65.05585 89.81377 66.03028
#
# Poissons Ratio (x) = 0.20140 0.20516
# Poissons Ratio (y) = 0.14588 0.33248
# Poissons Ratio (z) = 0.20213 0.45224
#
# Static dielectric constant tensor:
#      x y z
#    x 1.676370 -0.017670 0.014350 
#    y -0.017670 1.677980 -0.010960 
#    z 0.014350 -0.010960 1.677130 
# 
# From -- ./inp_files/580193.got.cif
#   From: 2010.05.17/outbox.cif.g08.bks.cpg/sg2_291_cif.got.tgz:580193.got - 2010.06.03 11:33:40.
