data_PCOD9049991
_publ_section_title
;
Structure prediction by ZEFSAII (Michael W. Deem and Ramdas Pophale) SiO2 
 PCOD9049991
Probable space group: P -1
;
_chemical_formula_sum "Si O2"
_cell_formula_units_Z 16
_cell_length_a 8.661234
_cell_length_b 11.752830
_cell_length_c 14.821600
_cell_angle_alpha 52.442857
_cell_angle_beta 128.960624
_cell_angle_gamma 138.078478
_cell_volume 754.091253
_symmetry_space_group_name_H-M "P -1"
_symmetry_group_IT_number 2
_symmetry_cell_setting 'triclinic'
loop_
_space_group_symop_operation_xyz
x,y,z
-x,-y,-z
loop_
_atom_site_type_symbol
_atom_site_label
_atom_site_fract_x
_atom_site_fract_y
_atom_site_fract_z
Si Si1 0.358591 0.563291 0.469548
Si Si2 0.595673 0.852943 0.926540
Si Si3 0.245860 0.237884 0.150590
Si Si4 0.764589 0.880982 0.175396
Si Si5 0.920862 0.204695 0.559350
Si Si6 0.557816 0.820048 0.573306
Si Si7 0.674799 0.221827 0.801269
Si Si8 0.128161 0.500744 0.955465
O O1 0.500000 0.500000 0.500000
O O2 0.517565 0.673340 0.561671
O O3 0.342286 0.693141 0.336421
O O4 0.093739 0.389091 0.482666
O O5 0.720854 0.824308 0.903361
O O6 0.306891 0.698633 0.888351
O O7 0.655672 0.046258 0.856210
O O8 0.675753 0.829150 0.065553
O O9 0.408850 0.226952 0.290713
O O10 0.286978 0.424448 0.069515
O O11 0.965137 0.093172 0.147744
O O12 0.543940 0.826293 0.187574
O O13 0.908847 0.802344 0.301452
O O14 0.687536 0.189068 0.520549
O O15 0.792695 0.021269 0.544426
O O16 0.924603 0.367230 0.873694
O O17 0.000000 0.500000 0.000000
#
# Coordination Sequence:
#
# PCOD9049991 Si02
#       8
#     2   2   2   2   2   2   2   2
#     4  12  27  46  71 105 138 186 237 285 348 421
#     4  12  26  46  74 103 145 182 237 289 353 416
#     4  11  26  46  72 107 140 187 234 291 349 417
#     4  11  22  47  72  99 146 180 229 288 353 409
#     4  10  24  48  72 101 138 189 228 294 348 409
#     4  10  26  47  72 100 145 180 236 288 356 403
#     4  12  27  46  71 106 143 186 233 288 354 418
#     4  12  26  45  72 104 143 188 228 287 355 419
#
# _framework density 21.217590000000001
#
# number of rings (size 3 to 8) (size 9 to 14) (size 15 to 20)
#    0.000    0.750    3.750    2.250   10.500    0.500 
#    0.000    0.000    0.000    0.000    0.000    0.000 
#    0.000    0.000    0.000    0.000    0.000    0.000 
#
# Total GULP energy -89524.155264 kJ/mol
# GULP energy per Si atom -5595.259704 kJ/mol
# Density = 2.116930 g / cm^3
# Si number density = 21.217590 Si / 1000 Ang^3
#
#
#
# Elastic Constant Matrix: (Units=GPa)
#
#
# Indices 1 2 3 4 5 6 
#
# 1 73.4518 50.9294 49.6828 3.4944 -8.3415 -17.5085
# 2 50.9294 149.5635 44.4342 -3.0099 -9.9899 -2.3426
# 3 49.6828 44.4342 95.2440 -2.6243 -0.0823 -4.9117
# 4 3.4944 -3.0099 -2.6243 13.8046 6.1725 -5.5155
# 5 -8.3415 -9.9899 -0.0823 6.1725 29.5733 -3.1696
# 6 -17.5085 -2.3426 -4.9117 -5.5155 -3.1696 37.2220
#
#
#
# Elastic Compliance Matrix: (Units=1/GPa)
#
#
# Indices 1 2 3 4 5 6 
#
# 1 0.031318 -0.006097 -0.013200 -0.011741 0.010448 0.011756
# 2 -0.006097 0.009158 -0.001137 0.002192 0.000693 -0.002058
# 3 -0.013200 -0.001137 0.017961 0.007917 -0.006059 -0.003254
# 4 -0.011741 0.002192 0.007917 0.089398 -0.020440 0.007166
# 5 0.010448 0.000693 -0.006059 -0.020440 0.041747 0.004685
# 6 0.011756 -0.002058 -0.003254 0.007166 0.004685 0.033297
#
#
# Mechanical properties :
#
#
# Convention : Reuss Voigt Hill
#
# Bulk Modulus (GPa) = 56.92279 67.59466 62.25872
# Shear Modulus (GPa) = 18.54571 27.66750 23.10660
#
# Velocity S-wave (km/s) = 2.95968 3.61500 3.30363
# Velocity P-wave (km/s) = 6.21015 7.02505 6.63013
#
# Compressibility (1/GPa) = 0.01756766
#
# Stress axis : x y z
#
# Youngs Moduli (GPa) = 31.93074 109.19059 55.67644
#
# Poissons Ratio (x) = 0.66572 0.73495
# Poissons Ratio (y) = 0.19468 0.06332
# Poissons Ratio (z) = 0.42150 0.12419
#
# Static dielectric constant tensor:
#      x y z
#    x 1.740340 0.014290 0.010500 
#    y 0.014290 1.796970 -0.010140 
#    z 0.010500 -0.010140 1.774670 
# 
# From -- ./inp_files/306163.got.cif
#   From: 2010.05.17/outbox.cif.g08.bks.cpg/sg2_154_cif.got.tgz:306163.got - 2010.06.03 11:33:40.
