data_PCOD9049686
_publ_section_title
;
Structure prediction by ZEFSAII (Michael W. Deem and Ramdas Pophale) SiO2 
 PCOD9049686
Probable space group: P -1
;
_chemical_formula_sum "Si O2"
_cell_formula_units_Z 14
_cell_length_a 8.001228
_cell_length_b 11.534969
_cell_length_c 8.655347
_cell_angle_alpha 41.367980
_cell_angle_beta 102.415368
_cell_angle_gamma 95.605825
_cell_volume 513.083935
_symmetry_space_group_name_H-M "P -1"
_symmetry_group_IT_number 2
_symmetry_cell_setting 'triclinic'
loop_
_space_group_symop_operation_xyz
x,y,z
-x,-y,-z
loop_
_atom_site_type_symbol
_atom_site_label
_atom_site_fract_x
_atom_site_fract_y
_atom_site_fract_z
Si Si1 0.699684 0.277449 0.941901
Si Si2 0.737363 0.124383 0.668535
Si Si3 0.748723 0.947935 0.511024
Si Si4 0.943733 0.747487 0.510149
Si Si5 0.961285 0.607185 0.226859
Si Si6 0.452566 0.389688 0.247731
Si Si7 0.661407 0.798657 0.152477
O O1 0.883441 0.274975 0.896283
O O2 0.671322 0.467350 0.827989
O O3 0.524176 0.268812 0.820538
O O4 0.700235 0.112937 0.223103
O O5 0.623926 0.311159 0.449305
O O6 0.935976 0.158212 0.679229
O O7 0.735085 0.026316 0.600255
O O8 0.665234 0.002769 0.905183
O O9 0.921623 0.847659 0.568348
O O10 0.629006 0.788126 0.638280
O O11 0.029582 0.548060 0.742796
O O12 0.761638 0.760981 0.370574
O O13 0.000000 0.500000 0.500000
O O14 0.778011 0.707896 0.126849
O O15 0.500000 0.500000 0.000000
#
# Coordination Sequence:
#
# PCOD9049686 Si02
#       7
#     2   2   2   2   2   2   2
#     4  12  24  47  79 109 150 201 251 319 372 448
#     4  12  24  46  74 108 154 196 249 319 371 451
#     4  12  25  47  73 112 148 195 262 302 382 449
#     4  11  25  45  70 109 150 200 247 313 377 446
#     4  10  24  47  71 108 154 196 255 306 372 451
#     4  12  24  46  76 110 151 192 256 313 380 448
#     4  11  25  47  75 111 156 198 252 310 381 452
#
# _framework density 27.285983000000002
#
# number of rings (size 3 to 8) (size 9 to 14) (size 15 to 20)
#    0.000    0.571    4.286    3.857    0.000    4.000 
#    5.143    2.143    0.000    0.000    0.000    0.000 
#    0.000    0.000    0.000    0.000    0.000    0.000 
#
# Total GULP energy -78536.564769 kJ/mol
# GULP energy per Si atom -5609.754626 kJ/mol
# Density = 2.722388 g / cm^3
# Si number density = 27.285983 Si / 1000 Ang^3
#
#
#
# Elastic Constant Matrix: (Units=GPa)
#
#
# Indices 1 2 3 4 5 6 
#
# 1 83.7271 68.5193 30.6248 -9.8136 -20.9288 -15.6691
# 2 68.5193 144.5433 34.2115 -22.8946 -0.9106 -23.4422
# 3 30.6248 34.2115 165.7511 -26.4223 -21.1114 -1.1840
# 4 -9.8136 -22.8946 -26.4223 40.4778 -6.2414 -0.3985
# 5 -20.9288 -0.9106 -21.1114 -6.2414 51.6325 -15.6818
# 6 -15.6691 -23.4422 -1.1840 -0.3985 -15.6818 58.0401
#
#
#
# Elastic Compliance Matrix: (Units=1/GPa)
#
#
# Indices 1 2 3 4 5 6 
#
# 1 0.024755 -0.010351 -0.000699 0.001511 0.011447 0.005591
# 2 -0.010351 0.012789 -0.000507 0.003907 -0.003247 0.001510
# 3 -0.000699 -0.000507 0.007537 0.005032 0.003634 0.000777
# 4 0.001511 0.003907 0.005032 0.031834 0.007939 0.004452
# 5 0.011447 -0.003247 0.003634 0.007939 0.029387 0.009848
# 6 0.005591 0.001510 0.000777 0.004452 0.009848 0.022056
#
#
# Mechanical properties :
#
#
# Convention : Reuss Voigt Hill
#
# Bulk Modulus (GPa) = 45.52198 73.41473 59.46836
# Shear Modulus (GPa) = 31.48743 47.40778 39.44761
#
# Velocity S-wave (km/s) = 3.40071 4.17278 3.80637
# Velocity P-wave (km/s) = 5.66915 7.08380 6.41559
#
# Compressibility (1/GPa) = 0.02196741
#
# Stress axis : x y z
#
# Youngs Moduli (GPa) = 40.39589 78.19501 132.67179
#
# Poissons Ratio (x) = 0.80942 0.09267
# Poissons Ratio (y) = 0.41815 0.06726
# Poissons Ratio (z) = 0.02822 0.03964
#
# Static dielectric constant tensor:
#      x y z
#    x 2.243210 0.023910 0.009760 
#    y 0.023910 2.203620 -0.016500 
#    z 0.009760 -0.016500 2.054820 
# 
# From -- ./inp_files/183852.got.cif
#   From: 2010.05.17/outbox.cif.g08.bks.cpg/sg2_92_cif.got.tgz:183852.got - 2010.06.03 11:33:40.
