data_PCOD9049637
_publ_section_title
;
Structure prediction by ZEFSAII (Michael W. Deem and Ramdas Pophale) SiO2 
 PCOD9049637
Probable space group: P -1
;
_chemical_formula_sum "Si O2"
_cell_formula_units_Z 16
_cell_length_a 9.454317
_cell_length_b 11.844395
_cell_length_c 9.729345
_cell_angle_alpha 141.417600
_cell_angle_beta 88.003236
_cell_angle_gamma 75.711919
_cell_volume 609.884750
_symmetry_space_group_name_H-M "P -1"
_symmetry_group_IT_number 2
_symmetry_cell_setting 'triclinic'
loop_
_space_group_symop_operation_xyz
x,y,z
-x,-y,-z
loop_
_atom_site_type_symbol
_atom_site_label
_atom_site_fract_x
_atom_site_fract_y
_atom_site_fract_z
Si Si1 0.388511 0.299571 0.293566
Si Si2 0.301662 0.187520 0.767287
Si Si3 0.784060 0.308665 0.177340
Si Si4 0.914674 0.598608 0.766880
Si Si5 0.852904 0.105161 0.507445
Si Si6 0.590009 0.013830 0.789794
Si Si7 0.336106 0.527328 0.965003
Si Si8 0.065318 0.120724 0.291374
O O1 0.331260 0.530213 0.557081
O O2 0.233554 0.288985 0.223458
O O3 0.433234 0.163314 0.298457
O O4 0.523861 0.197136 0.078860
O O5 0.471280 0.101554 0.752742
O O6 0.312170 0.324656 0.773527
O O7 0.260002 0.001630 0.573922
O O8 0.166180 0.333248 0.016549
O O9 0.706858 0.366350 0.081301
O O10 0.939698 0.347633 0.197971
O O11 0.852216 0.074541 0.995699
O O12 0.985306 0.360653 0.504517
O O13 0.927672 0.086504 0.338404
O O14 0.777897 0.329519 0.778741
O O15 0.000000 0.000000 0.500000
O O16 0.774993 0.928906 0.673024
O O17 0.500000 0.500000 0.000000
#
# Coordination Sequence:
#
# PCOD9049637 Si02
#       8
#     2   2   2   2   2   2   2   2
#     4  10  24  47  70 103 142 187 237 291 359 423
#     4  11  25  46  75 102 146 195 226 294 369 410
#     4  12  25  43  72 105 143 187 236 290 355 419
#     4  11  23  45  73 102 142 185 233 298 352 424
#     4  12  26  45  69 108 145 183 242 292 345 435
#     4  10  24  47  74 102 144 185 236 299 355 425
#     4  12  28  45  71 109 146 189 241 288 351 432
#     4  12  24  43  73 107 138 180 241 292 349 422
#
# _framework density 26.234465
#
# number of rings (size 3 to 8) (size 9 to 14) (size 15 to 20)
#    0.000    0.750    5.000    1.125    3.500    2.500 
#    0.000    0.000    0.000    0.000    0.000    0.000 
#    0.000    0.000    0.000    0.000    0.000    0.000 
#
# Total GULP energy -89584.686315 kJ/mol
# GULP energy per Si atom -5599.042895 kJ/mol
# Density = 2.617475 g / cm^3
# Si number density = 26.234465 Si / 1000 Ang^3
#
#
#
# Elastic Constant Matrix: (Units=GPa)
#
#
# Indices 1 2 3 4 5 6 
#
# 1 131.5021 39.3829 14.9857 8.5525 -10.0600 -8.1989
# 2 39.3829 76.5807 24.3084 2.9617 8.5863 -13.9214
# 3 14.9857 24.3084 142.0349 24.1458 -5.2595 2.4401
# 4 8.5525 2.9617 24.1458 46.3627 6.7449 0.5575
# 5 -10.0600 8.5863 -5.2595 6.7449 56.1241 8.4748
# 6 -8.1989 -13.9214 2.4401 0.5575 8.4748 39.6554
#
#
#
# Elastic Compliance Matrix: (Units=1/GPa)
#
#
# Indices 1 2 3 4 5 6 
#
# 1 0.009476 -0.005329 0.000369 -0.002011 0.002868 -0.000519
# 2 -0.005329 0.018598 -0.003315 0.002225 -0.005398 0.006753
# 3 0.000369 -0.003315 0.008461 -0.004562 0.002219 -0.002018
# 4 -0.002011 0.002225 -0.004562 0.024783 -0.004290 0.001215
# 5 0.002868 -0.005398 0.002219 -0.004290 0.020759 -0.005815
# 6 -0.000519 0.006753 -0.002018 0.001215 -0.005815 0.028831
#
#
# Mechanical properties :
#
#
# Convention : Reuss Voigt Hill
#
# Bulk Modulus (GPa) = 50.03457 56.38575 53.21016
# Shear Modulus (GPa) = 37.28050 46.52449 41.90249
#
# Velocity S-wave (km/s) = 3.77377 4.21576 4.00087
# Velocity P-wave (km/s) = 6.17268 6.72581 6.45517
#
# Compressibility (1/GPa) = 0.01998618
#
# Stress axis : x y z
#
# Youngs Moduli (GPa) = 105.52911 53.77058 118.18650
#
# Poissons Ratio (x) = 0.28652 -0.04363
# Poissons Ratio (y) = 0.56232 0.39178
# Poissons Ratio (z) = -0.03896 0.17824
#
# Static dielectric constant tensor:
#      x y z
#    x 2.056690 0.070690 0.056630 
#    y 0.070690 2.079170 -0.059050 
#    z 0.056630 -0.059050 2.055260 
# 
# From -- ./inp_files/400079.got.cif
#   From: 2010.05.17/outbox.cif.g08.bks.cpg/sg2_201_cif.got.tgz:400079.got - 2010.06.03 11:33:40.
