data_PCOD9049945
_publ_section_title
;
Structure prediction by ZEFSAII (Michael W. Deem and Ramdas Pophale) SiO2 
 PCOD9049945
Probable space group: P -1
;
_chemical_formula_sum "Si O2"
_cell_formula_units_Z 16
_cell_length_a 9.162309
_cell_length_b 14.025660
_cell_length_c 8.129496
_cell_angle_alpha 45.261277
_cell_angle_beta 113.374146
_cell_angle_gamma 99.847087
_cell_volume 671.726609
_symmetry_space_group_name_H-M "P -1"
_symmetry_group_IT_number 2
_symmetry_cell_setting 'triclinic'
loop_
_space_group_symop_operation_xyz
x,y,z
-x,-y,-z
loop_
_atom_site_type_symbol
_atom_site_label
_atom_site_fract_x
_atom_site_fract_y
_atom_site_fract_z
Si Si1 0.184897 0.649015 0.977261
Si Si2 0.965942 0.257599 0.867884
Si Si3 0.356990 0.376547 0.568980
Si Si4 0.885937 0.758516 0.529478
Si Si5 0.895224 0.028323 0.732668
Si Si6 0.638457 0.409346 0.436479
Si Si7 0.740153 0.812554 0.746669
Si Si8 0.393248 0.758749 0.670756
O O1 0.114837 0.743778 0.984632
O O2 0.311194 0.717304 0.848769
O O3 0.037589 0.644642 0.789529
O O4 0.264232 0.504857 0.263487
O O5 0.138802 0.292481 0.956759
O O6 0.830873 0.356786 0.590727
O O7 0.008927 0.111124 0.976174
O O8 0.229757 0.274084 0.628828
O O9 0.529298 0.335548 0.605481
O O10 0.384096 0.440299 0.680208
O O11 0.771073 0.776780 0.614434
O O12 0.973723 0.886585 0.380026
O O13 0.741474 0.128289 0.614155
O O14 0.805220 0.953071 0.640397
O O15 0.578543 0.371113 0.279781
O O16 0.556758 0.814582 0.704322
#
# Coordination Sequence:
#
# PCOD9049945 Si02
#       8
#     2   2   2   2   2   2   2   2
#     4   9  20  34  59  89 112 146 195 240 278 336
#     4   8  19  38  59  80 120 153 188 225 286 346
#     4  10  20  38  61  77 118 156 195 231 281 341
#     4  10  17  34  61  86 107 154 198 227 279 344
#     4   9  20  34  59  86 121 144 187 241 282 339
#     4  10  21  38  58  83 117 154 188 239 287 335
#     4   9  18  34  57  88 114 149 185 236 280 347
#     4  11  20  34  61  92 117 143 189 239 298 327
#
# _framework density 23.819216000000001
#
# number of rings (size 3 to 8) (size 9 to 14) (size 15 to 20)
#    0.750    1.750    1.250    1.125    1.750    1.000 
#    0.000    3.125   16.500    0.000    0.000    0.000 
#    0.000    0.000    0.000    0.000    0.000    0.000 
#
# Total GULP energy -89237.196264 kJ/mol
# GULP energy per Si atom -5577.324767 kJ/mol
# Density = 2.376500 g / cm^3
# Si number density = 23.819216 Si / 1000 Ang^3
#
#
#
# Elastic Constant Matrix: (Units=GPa)
#
#
# Indices 1 2 3 4 5 6 
#
# 1 155.1775 33.4053 23.3254 -3.7904 12.1665 21.5346
# 2 33.4053 82.8577 8.6958 9.5533 2.6719 10.9691
# 3 23.3254 8.6958 50.2552 -9.4803 17.0277 0.4169
# 4 -3.7904 9.5533 -9.4803 18.3463 -3.8100 8.3095
# 5 12.1665 2.6719 17.0277 -3.8100 38.8342 6.4109
# 6 21.5346 10.9691 0.4169 8.3095 6.4109 46.2505
#
#
#
# Elastic Compliance Matrix: (Units=1/GPa)
#
#
# Indices 1 2 3 4 5 6 
#
# 1 0.008048 -0.002901 -0.002439 0.003488 -0.000312 -0.003620
# 2 -0.002901 0.014722 -0.003147 -0.009607 0.000407 -0.000443
# 3 -0.002439 -0.003147 0.027344 0.012909 -0.009855 0.000683
# 4 0.003488 -0.009607 0.012909 0.073530 0.003289 -0.013128
# 5 -0.000312 0.000407 -0.009855 0.003289 0.031254 -0.004785
# 6 -0.003620 -0.000443 0.000683 -0.013128 -0.004785 0.026428
#
#
# Mechanical properties :
#
#
# Convention : Reuss Voigt Hill
#
# Bulk Modulus (GPa) = 30.17711 46.57150 38.37430
# Shear Modulus (GPa) = 23.88385 35.54377 29.71381
#
# Velocity S-wave (km/s) = 3.17000 3.86713 3.53579
# Velocity P-wave (km/s) = 5.10835 6.28762 5.72841
#
# Compressibility (1/GPa) = 0.03313770
#
# Stress axis : x y z
#
# Youngs Moduli (GPa) = 124.26159 67.92557 36.57141
#
# Poissons Ratio (x) = 0.19707 0.08921
# Poissons Ratio (y) = 0.36051 0.11509
# Poissons Ratio (z) = 0.30313 0.21377
#
# Static dielectric constant tensor:
#      x y z
#    x 1.872630 -0.008310 0.032310 
#    y -0.008310 1.961140 -0.004060 
#    z 0.032310 -0.004060 2.007190 
# 
# From -- ./inp_files/200340.got.cif
#   From: 2010.05.17/outbox.cif.g08.bks.cpg/sg2_101_cif.got.tgz:200340.got - 2010.06.03 11:33:40.
