data_PCOD9049866
_publ_section_title
;
Structure prediction by ZEFSAII (Michael W. Deem and Ramdas Pophale) SiO2 
 PCOD9049866
Probable space group: P -1
;
_chemical_formula_sum "Si O2"
_cell_formula_units_Z 14
_cell_length_a 9.390909
_cell_length_b 7.012728
_cell_length_c 10.430151
_cell_angle_alpha 73.774136
_cell_angle_beta 113.718835
_cell_angle_gamma 74.173374
_cell_volume 542.783865
_symmetry_space_group_name_H-M "P -1"
_symmetry_group_IT_number 2
_symmetry_cell_setting 'triclinic'
loop_
_space_group_symop_operation_xyz
x,y,z
-x,-y,-z
loop_
_atom_site_type_symbol
_atom_site_label
_atom_site_fract_x
_atom_site_fract_y
_atom_site_fract_z
Si Si1 0.781124 0.480007 0.633416
Si Si2 0.695603 0.004922 0.266345
Si Si3 0.087550 0.037360 0.187502
Si Si4 0.286886 0.686994 0.006778
Si Si5 0.001427 0.726494 0.610757
Si Si6 0.669897 0.740055 0.811130
Si Si7 0.365338 0.402593 0.709158
O O1 0.938979 0.531875 0.634282
O O2 0.718754 0.612385 0.717927
O O3 0.641639 0.577169 0.451143
O O4 0.161892 0.777434 0.281397
O O5 0.686288 0.186445 0.127952
O O6 0.534089 0.111571 0.284122
O O7 0.875034 0.893408 0.428145
O O8 0.664753 0.809832 0.224774
O O9 0.041631 0.151316 0.291387
O O10 0.222105 0.118866 0.161233
O O11 0.898129 0.149053 0.033137
O O12 0.280297 0.452844 0.027762
O O13 0.453669 0.626885 0.165991
O O14 0.199638 0.616518 0.659656
#
# Coordination Sequence:
#
# PCOD9049866 Si02
#       7
#     2   2   2   2   2   2   2
#     4  10  24  49  76 103 145 190 242 296 360 424
#     4  11  25  49  77 107 145 190 241 298 361 425
#     4  11  26  49  77 102 149 193 238 298 361 423
#     4  12  27  47  72 108 147 193 239 295 360 431
#     4  10  24  47  77 111 139 187 247 301 352 427
#     4  11  28  48  73 109 145 191 245 294 355 432
#     4  11  25  46  77 112 144 183 247 301 356 430
#
# _framework density 25.792957000000001
#
# number of rings (size 3 to 8) (size 9 to 14) (size 15 to 20)
#    0.000    1.143    0.000    4.714    8.000    7.429 
#    2.571    0.000    0.000    0.000    0.000    0.000 
#    0.000    0.000    0.000    0.000    0.000    0.000 
#
# Total GULP energy -78630.982121 kJ/mol
# GULP energy per Si atom -5616.498723 kJ/mol
# Density = 2.573425 g / cm^3
# Si number density = 25.792957 Si / 1000 Ang^3
#
#
#
# Elastic Constant Matrix: (Units=GPa)
#
#
# Indices 1 2 3 4 5 6 
#
# 1 177.3909 59.4873 99.9581 -20.3063 8.7436 18.2047
# 2 59.4873 132.4862 52.7914 -27.9957 1.8512 14.2425
# 3 99.9581 52.7914 161.0010 -19.9017 14.9286 18.4440
# 4 -20.3063 -27.9957 -19.9017 37.0408 2.4485 -1.7526
# 5 8.7436 1.8512 14.9286 2.4485 53.0741 -15.2323
# 6 18.2047 14.2425 18.4440 -1.7526 -15.2323 51.4004
#
#
#
# Elastic Compliance Matrix: (Units=1/GPa)
#
#
# Indices 1 2 3 4 5 6 
#
# 1 0.009242 -0.001883 -0.004820 0.001031 -0.000472 -0.001126
# 2 -0.001883 0.010361 -0.001239 0.006084 -0.000469 -0.001691
# 3 -0.004820 -0.001239 0.010422 0.002095 -0.002902 -0.002478
# 4 0.001031 0.006084 0.002095 0.033378 -0.003267 -0.002633
# 5 -0.000472 -0.000469 -0.002902 -0.003267 0.022138 0.007787
# 6 -0.001126 -0.001691 -0.002478 -0.002633 0.007787 0.023430
#
#
# Mechanical properties :
#
#
# Convention : Reuss Voigt Hill
#
# Bulk Modulus (GPa) = 70.72013 99.48352 85.10183
# Shear Modulus (GPa) = 38.58979 45.54581 42.06780
#
# Velocity S-wave (km/s) = 3.87219 4.20673 4.04292
# Velocity P-wave (km/s) = 6.88983 7.88982 7.40672
#
# Compressibility (1/GPa) = 0.01414025
#
# Stress axis : x y z
#
# Youngs Moduli (GPa) = 108.20441 96.51410 95.95279
#
# Poissons Ratio (x) = 0.18178 0.46249
# Poissons Ratio (y) = 0.20380 0.11887
# Poissons Ratio (z) = 0.52154 0.11957
#
# Static dielectric constant tensor:
#      x y z
#    x 2.017310 0.006870 -0.013050 
#    y 0.006870 2.063180 0.046310 
#    z -0.013050 0.046310 2.008690 
# 
# From -- ./inp_files/378484.got.cif
#   From: 2010.05.17/outbox.cif.g08.bks.cpg/sg2_190_cif.got.tgz:378484.got - 2010.06.03 11:33:40.
