data_PCOD9049426
_publ_section_title
;
Structure prediction by ZEFSAII (Michael W. Deem and Ramdas Pophale) SiO2 
 PCOD9049426
Probable space group: P -1
;
_chemical_formula_sum "Si O2"
_cell_formula_units_Z 16
_cell_length_a 5.546077
_cell_length_b 9.339736
_cell_length_c 19.102645
_cell_angle_alpha 122.245204
_cell_angle_beta 127.794838
_cell_angle_gamma 64.558429
_cell_volume 653.476302
_symmetry_space_group_name_H-M "P -1"
_symmetry_group_IT_number 2
_symmetry_cell_setting 'triclinic'
loop_
_space_group_symop_operation_xyz
x,y,z
-x,-y,-z
loop_
_atom_site_type_symbol
_atom_site_label
_atom_site_fract_x
_atom_site_fract_y
_atom_site_fract_z
Si Si1 0.252767 0.896984 0.764266
Si Si2 0.031449 0.581837 0.913332
Si Si3 0.663965 0.290107 0.527684
Si Si4 0.290497 0.637631 0.817442
Si Si5 0.258127 0.622927 0.578275
Si Si6 0.666451 0.000963 0.603827
Si Si7 0.247721 0.265339 0.693960
Si Si8 0.458052 0.236185 0.881362
O O1 0.160211 0.808769 0.795988
O O2 0.348783 0.733555 0.687911
O O3 0.995656 0.006190 0.697928
O O4 0.464216 0.041011 0.856693
O O5 0.131236 0.625980 0.862413
O O6 0.175184 0.380012 0.896474
O O7 0.667892 0.622669 0.877763
O O8 0.232194 0.690815 0.024822
O O9 0.559191 0.487724 0.577660
O O10 0.836419 0.260452 0.476361
O O11 0.374302 0.195949 0.436437
O O12 0.898657 0.224666 0.614820
O O13 0.234438 0.463665 0.723089
O O14 0.000000 0.500000 0.500000
O O15 0.500000 0.000000 0.500000
O O16 0.444102 0.140984 0.643634
O O17 0.407826 0.241681 0.790811
#
# Coordination Sequence:
#
# PCOD9049426 Si02
#       8
#     2   2   2   2   2   2   2   2
#     4  12  25  41  71 107 137 189 238 300 347 435
#     4  10  25  51  75 105 145 187 233 301 385 429
#     4  11  24  40  65  94 135 188 229 290 342 412
#     4  11  27  45  76 107 143 187 236 305 364 439
#     4  11  23  42  63  94 139 183 230 284 355 405
#     4  12  25  41  66  99 145 187 239 291 351 414
#     4  11  24  43  69 103 138 190 244 295 350 434
#     4  10  24  46  74 102 141 187 240 297 363 444
#
# _framework density 24.484435999999999
#
# number of rings (size 3 to 8) (size 9 to 14) (size 15 to 20)
#    0.000    1.000    1.250    4.125    7.000    7.500 
#    0.000    0.000    0.000    0.000    0.000    0.000 
#    0.000    0.000    0.000    0.000    0.000    0.000 
#
# Total GULP energy -89297.681943 kJ/mol
# GULP energy per Si atom -5581.105121 kJ/mol
# Density = 2.442871 g / cm^3
# Si number density = 24.484436 Si / 1000 Ang^3
#
#
#
# Elastic Constant Matrix: (Units=GPa)
#
#
# Indices 1 2 3 4 5 6 
#
# 1 58.3299 -7.7898 32.2661 -2.1677 6.0828 -0.2361
# 2 -7.7898 238.5034 25.5332 46.5987 5.0235 -78.1547
# 3 32.2661 25.5332 133.8304 22.0355 4.1162 -6.2251
# 4 -2.1677 46.5987 22.0355 50.2227 -1.7516 -9.8962
# 5 6.0828 5.0235 4.1162 -1.7516 32.6089 -4.2900
# 6 -0.2361 -78.1547 -6.2251 -9.8962 -4.2900 75.8504
#
#
#
# Elastic Compliance Matrix: (Units=1/GPa)
#
#
# Indices 1 2 3 4 5 6 
#
# 1 0.020738 0.001208 -0.005460 0.002254 -0.003115 0.000979
# 2 0.001208 0.007724 -0.000503 -0.005507 -0.000705 0.007163
# 3 -0.005460 -0.000503 0.009545 -0.004028 -0.000364 -0.000298
# 4 0.002254 -0.005507 -0.004028 0.026478 0.002039 -0.002428
# 5 -0.003115 -0.000705 -0.000364 0.002039 0.031682 0.001292
# 6 0.000979 0.007163 -0.000298 -0.002428 0.001292 0.020299
#
#
# Mechanical properties :
#
#
# Convention : Reuss Voigt Hill
#
# Bulk Modulus (GPa) = 35.09238 58.96475 47.02856
# Shear Modulus (GPa) = 36.90672 57.11336 47.01004
#
# Velocity S-wave (km/s) = 3.88668 4.83498 4.38653
# Velocity P-wave (km/s) = 5.87412 7.43668 6.70110
#
# Compressibility (1/GPa) = 0.02849621
#
# Stress axis : x y z
#
# Youngs Moduli (GPa) = 48.22023 129.46451 104.76491
#
# Poissons Ratio (x) = -0.15637 0.57204
# Poissons Ratio (y) = -0.05824 0.05272
# Poissons Ratio (z) = 0.26329 0.06515
#
# Static dielectric constant tensor:
#      x y z
#    x 2.095800 0.061720 0.027260 
#    y 0.061720 2.191380 -0.133540 
#    z 0.027260 -0.133540 1.997510 
# 
# From -- ./inp_files/94325.got.cif
#   From: 2010.05.17/outbox.cif.g08.bks.cpg/sg2_48_cif.got.tgz:94325.got - 2010.06.03 11:33:40.
