data_PCOD9049527
_publ_section_title
;
Structure prediction by ZEFSAII (Michael W. Deem and Ramdas Pophale) SiO2 
 PCOD9049527
Probable space group: P -1
;
_chemical_formula_sum "Si O2"
_cell_formula_units_Z 15
_cell_length_a 8.745041
_cell_length_b 5.435600
_cell_length_c 13.028511
_cell_angle_alpha 75.876225
_cell_angle_beta 93.692732
_cell_angle_gamma 91.175386
_cell_volume 599.328997
_symmetry_space_group_name_H-M "P -1"
_symmetry_group_IT_number 2
_symmetry_cell_setting 'triclinic'
loop_
_space_group_symop_operation_xyz
x,y,z
-x,-y,-z
loop_
_atom_site_type_symbol
_atom_site_label
_atom_site_fract_x
_atom_site_fract_y
_atom_site_fract_z
Si Si1 0.132590 0.683409 0.271072
Si Si2 0.455989 0.517967 0.279411
Si Si3 0.000000 0.500000 0.500000
Si Si4 0.555910 0.956465 0.391639
Si Si5 0.929375 0.369100 0.171849
Si Si6 0.115832 0.884755 0.600202
Si Si7 0.860633 0.903447 0.931848
Si Si8 0.376248 0.397478 0.925893
O O1 0.272122 0.491112 0.273156
O O2 0.093799 0.640173 0.392732
O O3 0.977619 0.619619 0.209317
O O4 0.189434 0.927418 0.185075
O O5 0.521621 0.232072 0.312491
O O6 0.535938 0.649447 0.171643
O O7 0.489402 0.710134 0.356530
O O8 0.129338 0.609293 0.577741
O O9 0.738669 0.937745 0.409090
O O10 0.500000 0.000000 0.500000
O O11 0.939372 0.154052 0.282391
O O12 0.759044 0.397960 0.120649
O O13 0.058656 0.331078 0.097230
O O14 0.000000 0.000000 0.500000
O O15 0.716997 0.833373 0.003183
O O16 0.000000 0.000000 0.000000
O O17 0.500000 0.500000 0.000000
#
# Coordination Sequence:
#
# PCOD9049527 Si02
#       8
#     2   2   1   2   2   2   2   2
#     4  11  26  48  79 109 156 207 273 335 411 499
#     4  12  30  52  79 121 166 215 274 346 420 500
#     4  10  24  46  76 112 148 202 268 326 408 486
#     4  12  29  51  79 116 167 210 268 338 421 497
#     4  11  25  49  72 110 157 201 273 334 404 495
#     4  11  25  42  78 108 152 205 260 325 403 492
#     4  12  27  45  76 109 150 210 276 337 405 489
#     4  12  28  50  79 113 165 220 276 349 427 489
#
# _framework density 25.027989999999999
#
# number of rings (size 3 to 8) (size 9 to 14) (size 15 to 20)
#    0.000    0.533    2.667    3.200   13.067    0.533 
#    0.000    0.000    0.000    0.000    0.000    0.000 
#    0.000    0.000    0.000    0.000    0.000    0.000 
#
# Total GULP energy -83561.326282 kJ/mol
# GULP energy per Si atom -5570.755085 kJ/mol
# Density = 2.497103 g / cm^3
# Si number density = 25.027990 Si / 1000 Ang^3
#
#
#
# Elastic Constant Matrix: (Units=GPa)
#
#
# Indices 1 2 3 4 5 6 
#
# 1 106.1070 14.4617 36.7375 -6.6552 8.6493 15.4106
# 2 14.4617 67.0777 24.7636 6.0033 8.5152 3.5451
# 3 36.7375 24.7636 150.6653 -19.9068 -26.9397 -0.9967
# 4 -6.6552 6.0033 -19.9068 56.9468 9.7700 6.2021
# 5 8.6493 8.5152 -26.9397 9.7700 54.9053 -0.5385
# 6 15.4106 3.5451 -0.9967 6.2021 -0.5385 40.6497
#
#
#
# Elastic Compliance Matrix: (Units=1/GPa)
#
#
# Indices 1 2 3 4 5 6 
#
# 1 0.011713 -0.000761 -0.003215 0.001459 -0.003611 -0.004723
# 2 -0.000761 0.017191 -0.003666 -0.002402 -0.003927 -0.000986
# 3 -0.003215 -0.003666 0.009260 0.002184 0.005245 0.001502
# 4 0.001459 -0.002402 0.002184 0.019499 -0.002288 -0.003295
# 5 -0.003611 -0.003927 0.005245 -0.002288 0.022396 0.002486
# 6 -0.004723 -0.000986 0.001502 -0.003295 0.002486 0.027050
#
#
# Mechanical properties :
#
#
# Convention : Reuss Voigt Hill
#
# Bulk Modulus (GPa) = 43.70602 52.86396 48.28499
# Shear Modulus (GPa) = 38.45568 47.02618 42.74093
#
# Velocity S-wave (km/s) = 3.92408 4.33938 4.13695
# Velocity P-wave (km/s) = 6.16701 6.80256 6.49256
#
# Compressibility (1/GPa) = 0.02288014
#
# Stress axis : x y z
#
# Youngs Moduli (GPa) = 85.37403 58.16921 107.99083
#
# Poissons Ratio (x) = 0.04427 0.34720
# Poissons Ratio (y) = 0.06497 0.39590
# Poissons Ratio (z) = 0.27448 0.21325
#
# Static dielectric constant tensor:
#      x y z
#    x 1.979500 -0.086720 0.034130 
#    y -0.086720 2.165290 -0.051360 
#    z 0.034130 -0.051360 2.003400 
# 
# From -- ./inp_files/372965.got.cif
#   From: 2010.05.17/outbox.cif.g08.bks.cpg/sg2_187_cif.got.tgz:372965.got - 2010.06.03 11:33:40.
