data_PCOD9049481
_publ_section_title
;
Structure prediction by ZEFSAII (Michael W. Deem and Ramdas Pophale) SiO2 
 PCOD9049481
Probable space group: P -1
;
_chemical_formula_sum "Si O2"
_cell_formula_units_Z 12
_cell_length_a 24.279865
_cell_length_b 26.789175
_cell_length_c 9.884478
_cell_angle_alpha 152.373562
_cell_angle_beta 149.914234
_cell_angle_gamma 9.711968
_cell_volume 500.278319
_symmetry_space_group_name_H-M "P -1"
_symmetry_group_IT_number 2
_symmetry_cell_setting 'triclinic'
loop_
_space_group_symop_operation_xyz
x,y,z
-x,-y,-z
loop_
_atom_site_type_symbol
_atom_site_label
_atom_site_fract_x
_atom_site_fract_y
_atom_site_fract_z
Si Si1 0.917836 0.970560 0.093489
Si Si2 0.643858 0.785272 0.897156
Si Si3 0.562314 0.244514 0.739152
Si Si4 0.265850 0.814922 0.299682
Si Si5 0.544309 0.219104 0.135109
Si Si6 0.106374 0.279208 0.170569
O O1 0.276733 0.596085 0.997797
O O2 0.759161 0.044949 0.815653
O O3 0.968648 0.038383 0.290444
O O4 0.691030 0.166602 0.211689
O O5 0.617662 0.693427 0.551970
O O6 0.000000 0.500000 0.000000
O O7 0.500000 0.000000 0.000000
O O8 0.422516 0.989226 0.050062
O O9 0.803716 0.063249 0.697809
O O10 0.449411 0.727874 0.579729
O O11 0.500000 0.500000 0.000000
O O12 0.193367 0.503019 0.019722
O O13 0.784881 0.893212 0.883326
O O14 0.000000 0.500000 0.500000
#
# Coordination Sequence:
#
# PCOD9049481 Si02
#       6
#     2   2   2   2   2   2
#     4  11  25  43  73 106 143 189 236 289 361 435
#     4  12  27  45  76 103 142 187 252 298 359 430
#     4  11  24  45  70 104 144 187 241 298 353 425
#     4  10  24  46  75 105 146 192 244 297 360 429
#     4  12  26  48  74 108 152 189 239 300 368 435
#     4  12  29  49  75 107 150 193 240 303 371 430
#
# _framework density 23.986649
#
# number of rings (size 3 to 8) (size 9 to 14) (size 15 to 20)
#    0.000    0.667    1.667    4.500   11.667    2.667 
#    0.000    5.833    0.000    0.000    0.000    0.000 
#    0.000    0.000    0.000    0.000    0.000    0.000 
#
# Total GULP energy -67245.668812 kJ/mol
# GULP energy per Si atom -5603.805734 kJ/mol
# Density = 2.393205 g / cm^3
# Si number density = 23.986649 Si / 1000 Ang^3
#
#
#
# Elastic Constant Matrix: (Units=GPa)
#
#
# Indices 1 2 3 4 5 6 
#
# 1 109.2734 29.9846 14.2183 1.3332 -9.9590 -2.1377
# 2 29.9846 132.6271 33.8279 -22.7688 0.7678 4.5338
# 3 14.2183 33.8279 81.1549 -9.5370 3.0470 -8.3812
# 4 1.3332 -22.7688 -9.5370 32.0026 2.4564 3.0187
# 5 -9.9590 0.7678 3.0470 2.4564 38.0610 -2.4895
# 6 -2.1377 4.5338 -8.3812 3.0187 -2.4895 38.7368
#
#
#
# Elastic Compliance Matrix: (Units=1/GPa)
#
#
# Indices 1 2 3 4 5 6 
#
# 1 0.010353 -0.002631 -0.001071 -0.002963 0.003110 0.001078
# 2 -0.002631 0.010217 -0.003230 0.006761 -0.001245 -0.002647
# 3 -0.001071 -0.003230 0.014454 0.001849 -0.001281 0.003220
# 4 -0.002963 0.006761 0.001849 0.037367 -0.003714 -0.003705
# 5 0.003110 -0.001245 -0.001281 -0.003714 0.027592 0.002103
# 6 0.001078 -0.002647 0.003220 -0.003705 0.002103 0.027305
#
#
# Mechanical properties :
#
#
# Convention : Reuss Voigt Hill
#
# Bulk Modulus (GPa) = 47.25690 53.23522 50.24606
# Shear Modulus (GPa) = 33.73700 38.09506 35.91603
#
# Velocity S-wave (km/s) = 3.75439 3.98952 3.87374
# Velocity P-wave (km/s) = 6.20790 6.59269 6.40319
#
# Compressibility (1/GPa) = 0.02116093
#
# Stress axis : x y z
#
# Youngs Moduli (GPa) = 96.58768 97.87572 69.18571
#
# Poissons Ratio (x) = 0.25752 0.07408
# Poissons Ratio (y) = 0.25413 0.22346
# Poissons Ratio (z) = 0.10342 0.31612
#
# Static dielectric constant tensor:
#      x y z
#    x 1.965150 -0.015560 -0.036340 
#    y -0.015560 1.868870 0.024610 
#    z -0.036340 0.024610 2.010090 
# 
# From -- ./inp_files/93586.got.cif
#   From: 2010.05.17/outbox.cif.g08.bks.cpg/sg2_47_cif.got.tgz:93586.got - 2010.06.03 11:33:40.
