data_PCOD9049914
_publ_section_title
;
Structure prediction by ZEFSAII (Michael W. Deem and Ramdas Pophale) SiO2 
 PCOD9049914
Probable space group: P -1
;
_chemical_formula_sum "Si O2"
_cell_formula_units_Z 14
_cell_length_a 13.946306
_cell_length_b 11.952141
_cell_length_c 8.298511
_cell_angle_alpha 118.159025
_cell_angle_beta 96.800085
_cell_angle_gamma 134.510570
_cell_volume 608.428031
_symmetry_space_group_name_H-M "P -1"
_symmetry_group_IT_number 2
_symmetry_cell_setting 'triclinic'
loop_
_space_group_symop_operation_xyz
x,y,z
-x,-y,-z
loop_
_atom_site_type_symbol
_atom_site_label
_atom_site_fract_x
_atom_site_fract_y
_atom_site_fract_z
Si Si1 0.325966 0.081075 0.564182
Si Si2 0.843947 0.622002 0.527806
Si Si3 0.604173 0.237223 0.512901
Si Si4 0.868768 0.241895 0.217898
Si Si5 0.024034 0.351671 0.977241
Si Si6 0.892278 0.936713 0.588918
Si Si7 0.494076 0.851811 0.064349
O O1 0.453691 0.161416 0.507321
O O2 0.289262 0.187398 0.594271
O O3 0.429728 0.165986 0.807003
O O4 0.110720 0.775183 0.290629
O O5 0.731093 0.453078 0.550942
O O6 0.848166 0.774615 0.592994
O O7 0.053669 0.798935 0.710015
O O8 0.719629 0.417247 0.220774
O O9 0.754479 0.362152 0.766468
O O10 0.520566 0.016728 0.265864
O O11 0.000000 0.500000 0.500000
O O12 0.917256 0.284129 0.068122
O O13 0.648346 0.018331 0.062721
O O14 0.017344 0.190025 0.867635
O O15 0.000000 0.000000 0.500000
#
# Coordination Sequence:
#
# PCOD9049914 Si02
#       7
#     2   2   2   2   2   2   2
#     4  10  25  42  64  97 134 175 217 270 333 377
#     4  11  25  41  69  96 133 175 219 272 322 393
#     4  11  23  42  65 102 129 172 217 273 335 387
#     4  11  22  43  67 100 131 174 212 271 333 386
#     4   9  23  44  66  91 135 167 224 268 320 393
#     4  10  24  48  66  95 132 177 225 272 323 386
#     4  12  24  40  68 102 136 171 215 274 332 396
#
# _framework density 23.010116
#
# number of rings (size 3 to 8) (size 9 to 14) (size 15 to 20)
#    0.857    0.571    2.857    2.571    4.000    4.000 
#    2.571    0.000    0.000    0.000    0.000    0.000 
#    0.000    0.000    0.000    0.000    0.000    0.000 
#
# Total GULP energy -78280.898250 kJ/mol
# GULP energy per Si atom -5591.492732 kJ/mol
# Density = 2.295774 g / cm^3
# Si number density = 23.010116 Si / 1000 Ang^3
#
#
#
# Elastic Constant Matrix: (Units=GPa)
#
#
# Indices 1 2 3 4 5 6 
#
# 1 550.2364 3.0311 203.3623 -115.3081 94.6533 -22.1904
# 2 3.0311 70.4102 -21.5955 8.8509 -12.1267 -7.4327
# 3 203.3623 -21.5955 179.6110 -65.7990 55.5101 -9.1787
# 4 -115.3081 8.8509 -65.7990 55.2726 -36.4111 8.9926
# 5 94.6533 -12.1267 55.5101 -36.4111 69.6291 -12.3030
# 6 -22.1904 -7.4327 -9.1787 8.9926 -12.3030 51.7843
#
#
#
# Elastic Compliance Matrix: (Units=1/GPa)
#
#
# Indices 1 2 3 4 5 6 
#
# 1 0.003991 -0.001792 -0.002655 0.004686 -0.001190 -0.000114
# 2 -0.001792 0.016091 0.002559 -0.001983 0.002688 0.002978
# 3 -0.002655 0.002559 0.012111 0.007314 -0.001833 -0.000330
# 4 0.004686 -0.001983 0.007314 0.043828 0.009980 -0.002220
# 5 -0.001190 0.002688 -0.001833 0.009980 0.023739 0.003458
# 6 -0.000114 0.002978 -0.000330 -0.002220 0.003458 0.020838
#
#
# Mechanical properties :
#
#
# Convention : Reuss Voigt Hill
#
# Bulk Modulus (GPa) = 35.19224 129.98372 82.58798
# Shear Modulus (GPa) = 37.35587 76.36785 56.86186
#
# Velocity S-wave (km/s) = 4.03358 5.76722 4.97648
# Velocity P-wave (km/s) = 6.08445 10.04790 8.30604
#
# Compressibility (1/GPa) = 0.02841536
#
# Stress axis : x y z
#
# Youngs Moduli (GPa) = 250.57669 62.14604 82.56977
#
# Poissons Ratio (x) = 0.11138 0.21925
# Poissons Ratio (y) = 0.44911 -0.21129
# Poissons Ratio (z) = 0.66538 -0.15903
#
# Static dielectric constant tensor:
#      x y z
#    x 1.854740 -0.015690 0.034560 
#    y -0.015690 1.899870 -0.025920 
#    z 0.034560 -0.025920 1.881970 
# 
# From -- ./inp_files/305758.got.cif
#   From: 2010.05.17/outbox.cif.g08.bks.cpg/sg2_153_cif.got.tgz:305758.got - 2010.06.03 11:33:40.
