data_PCOD9049384
_publ_section_title
;
Structure prediction by ZEFSAII (Michael W. Deem and Ramdas Pophale) SiO2 
 PCOD9049384
Probable space group: P -1
;
_chemical_formula_sum "Si O2"
_cell_formula_units_Z 16
_cell_length_a 10.844392
_cell_length_b 5.916417
_cell_length_c 12.338957
_cell_angle_alpha 106.370999
_cell_angle_beta 79.428379
_cell_angle_gamma 77.226081
_cell_volume 714.758931
_symmetry_space_group_name_H-M "P -1"
_symmetry_group_IT_number 2
_symmetry_cell_setting 'triclinic'
loop_
_space_group_symop_operation_xyz
x,y,z
-x,-y,-z
loop_
_atom_site_type_symbol
_atom_site_label
_atom_site_fract_x
_atom_site_fract_y
_atom_site_fract_z
Si Si1 0.972657 0.183191 0.862682
Si Si2 0.642446 0.024849 0.615845
Si Si3 0.574882 0.717535 0.988627
Si Si4 0.428724 0.779893 0.586484
Si Si5 0.848688 0.543367 0.527590
Si Si6 0.244925 0.614068 0.252958
Si Si7 0.798320 0.555977 0.101628
Si Si8 0.193017 0.705328 0.722381
O O1 0.884907 0.254930 0.778129
O O2 0.087693 0.313762 0.878487
O O3 0.868737 0.300027 0.990389
O O4 0.054230 0.896146 0.804047
O O5 0.619705 0.096340 0.503878
O O6 0.649980 0.235807 0.724205
O O7 0.535230 0.887595 0.639402
O O8 0.782924 0.831791 0.575998
O O9 0.674857 0.618250 0.859479
O O10 0.500000 0.500000 0.000000
O O11 0.674329 0.705874 0.071875
O O12 0.500000 0.000000 0.000000
O O13 0.500000 0.500000 0.500000
O O14 0.307234 0.825779 0.692720
O O15 0.798346 0.437710 0.627530
O O16 0.816280 0.428080 0.406670
O O17 0.000000 0.500000 0.500000
O O18 0.757323 0.486778 0.216017
#
# Coordination Sequence:
#
# PCOD9049384 Si02
#       8
#     2   2   2   2   2   2   2   2
#     4  10  24  46  73 103 142 191 251 311 387 437
#     4  11  24  44  68  99 151 190 239 307 377 450
#     4  11  29  54  81 115 150 206 263 313 389 457
#     4  11  24  44  64 101 146 191 245 298 378 453
#     4  12  26  42  70 109 146 193 243 301 386 454
#     4  11  25  48  74 107 151 195 252 322 375 453
#     4  10  25  48  73 106 143 191 248 320 373 453
#     4  12  24  41  71 107 142 189 245 306 372 457
#
# _framework density 22.385168
#
# number of rings (size 3 to 8) (size 9 to 14) (size 15 to 20)
#    0.000    1.000    2.500    1.875    7.000    4.000 
#    4.500    0.000    0.000    0.000    0.000    0.000 
#    0.000    0.000    0.000    0.000    0.000    0.000 
#
# Total GULP energy -89390.743549 kJ/mol
# GULP energy per Si atom -5586.921472 kJ/mol
# Density = 2.233422 g / cm^3
# Si number density = 22.385168 Si / 1000 Ang^3
#
#
#
# Elastic Constant Matrix: (Units=GPa)
#
#
# Indices 1 2 3 4 5 6 
#
# 1 110.3880 39.1208 40.6202 -10.0838 10.5552 -14.5523
# 2 39.1208 89.0917 44.1537 -11.7567 8.9829 -19.6048
# 3 40.6202 44.1537 129.5702 -21.7642 20.9631 -6.7623
# 4 -10.0838 -11.7567 -21.7642 24.1953 -3.7286 3.7854
# 5 10.5552 8.9829 20.9631 -3.7286 30.4710 -0.1145
# 6 -14.5523 -19.6048 -6.7623 3.7854 -0.1145 32.2536
#
#
#
# Elastic Compliance Matrix: (Units=1/GPa)
#
#
# Indices 1 2 3 4 5 6 
#
# 1 0.011508 -0.003206 -0.001988 0.000782 -0.001568 0.002729
# 2 -0.003206 0.016507 -0.003743 0.001994 -0.000908 0.007565
# 3 -0.001988 -0.003743 0.011606 0.007225 -0.005315 -0.001606
# 4 0.000782 0.001994 0.007225 0.049588 0.000228 -0.002740
# 5 -0.001568 -0.000908 -0.005315 0.000228 0.037305 -0.002268
# 6 0.002729 0.007565 -0.001606 -0.002740 -0.002268 0.036811
#
#
# Mechanical properties :
#
#
# Convention : Reuss Voigt Hill
#
# Bulk Modulus (GPa) = 45.98491 64.09326 55.03908
# Shear Modulus (GPa) = 26.53271 31.06098 28.79685
#
# Velocity S-wave (km/s) = 3.44653 3.72905 3.59057
# Velocity P-wave (km/s) = 6.03533 6.87279 6.46763
#
# Compressibility (1/GPa) = 0.02174626
#
# Stress axis : x y z
#
# Youngs Moduli (GPa) = 86.89799 60.58138 86.16094
#
# Poissons Ratio (x) = 0.19424 0.17126
# Poissons Ratio (y) = 0.27862 0.32252
# Poissons Ratio (z) = 0.17273 0.22677
#
# Static dielectric constant tensor:
#      x y z
#    x 1.826480 0.023720 0.058980 
#    y 0.023720 1.843990 0.031160 
#    z 0.058980 0.031160 1.855380 
# 
# From -- ./inp_files/411066.got.cif
#   From: 2010.05.17/outbox.cif.g08.bks.cpg/sg2_206_cif.got.tgz:411066.got - 2010.06.03 11:33:40.
