data_PCOD9049432
_publ_section_title
;
Structure prediction by ZEFSAII (Michael W. Deem and Ramdas Pophale) SiO2 
 PCOD9049432
Probable space group: P -1
;
_chemical_formula_sum "Si O2"
_cell_formula_units_Z 16
_cell_length_a 8.214082
_cell_length_b 5.694828
_cell_length_c 15.611717
_cell_angle_alpha 86.900263
_cell_angle_beta 69.772929
_cell_angle_gamma 89.755265
_cell_volume 684.161243
_symmetry_space_group_name_H-M "P -1"
_symmetry_group_IT_number 2
_symmetry_cell_setting 'triclinic'
loop_
_space_group_symop_operation_xyz
x,y,z
-x,-y,-z
loop_
_atom_site_type_symbol
_atom_site_label
_atom_site_fract_x
_atom_site_fract_y
_atom_site_fract_z
Si Si1 0.850862 0.309246 0.046228
Si Si2 0.801198 0.730304 0.478222
Si Si3 0.215340 0.779324 0.430577
Si Si4 0.471112 0.055884 0.269416
Si Si5 0.588727 0.068540 0.894434
Si Si6 0.256714 0.218126 0.708469
Si Si7 0.944236 0.030959 0.866727
Si Si8 0.520092 0.522276 0.188786
O O1 0.674816 0.434448 0.100376
O O2 0.854333 0.161215 0.960852
O O3 0.925143 0.151982 0.112554
O O4 0.000000 0.500000 0.000000
O O5 0.739346 0.482298 0.538297
O O6 0.748365 0.704513 0.389473
O O7 0.010678 0.754137 0.448942
O O8 0.746183 0.988096 0.520462
O O9 0.323710 0.868201 0.326551
O O10 0.533363 0.001252 0.162088
O O11 0.633993 0.024571 0.302518
O O12 0.412898 0.319497 0.262081
O O13 0.771622 0.941304 0.852702
O O14 0.601919 0.341036 0.859171
O O15 0.500000 0.000000 0.000000
O O16 0.367108 0.368006 0.754445
O O17 0.063671 0.188682 0.780794
#
# Coordination Sequence:
#
# PCOD9049432 Si02
#       8
#     2   2   2   2   2   2   2   2
#     4  11  21  38  63  89 128 177 224 276 337 400
#     4  10  24  46  74 104 138 178 235 287 350 424
#     4  10  24  47  73 103 140 181 226 291 353 422
#     4  11  25  44  66  97 140 178 224 284 352 416
#     4  11  25  42  65  96 135 179 232 290 344 409
#     4  11  24  42  66 100 135 176 226 286 344 414
#     4  11  23  39  63  93 129 173 227 283 339 408
#     4  11  24  43  63  97 137 180 228 285 342 418
#
# _framework density 23.386301
#
# number of rings (size 3 to 8) (size 9 to 14) (size 15 to 20)
#    0.000    1.250    2.500    2.250    8.750    4.000 
#    2.250    0.000    0.000    0.000    0.000    0.000 
#    0.000    0.000    0.000    0.000    0.000    0.000 
#
# Total GULP energy -89141.555616 kJ/mol
# GULP energy per Si atom -5571.347226 kJ/mol
# Density = 2.333307 g / cm^3
# Si number density = 23.386301 Si / 1000 Ang^3
#
#
#
# Elastic Constant Matrix: (Units=GPa)
#
#
# Indices 1 2 3 4 5 6 
#
# 1 66.0788 14.1556 33.9875 -11.1867 2.6907 -1.2903
# 2 14.1556 82.8982 52.8470 -28.1986 6.5351 4.5578
# 3 33.9875 52.8470 152.0519 -30.2799 15.6010 -4.9455
# 4 -11.1867 -28.1986 -30.2799 36.7798 0.6960 -7.3985
# 5 2.6907 6.5351 15.6010 0.6960 40.2672 -4.9097
# 6 -1.2903 4.5578 -4.9455 -7.3985 -4.9097 28.4241
#
#
#
# Elastic Compliance Matrix: (Units=1/GPa)
#
#
# Indices 1 2 3 4 5 6 
#
# 1 0.017311 0.000025 -0.003322 0.002737 0.000195 0.000950
# 2 0.000025 0.018530 -0.004216 0.010522 -0.001711 -0.001260
# 3 -0.003322 -0.004216 0.010107 0.004743 -0.002720 0.003049
# 4 0.002737 0.010522 0.004743 0.041992 -0.003280 0.009626
# 5 0.000195 -0.001711 -0.002720 -0.003280 0.026643 0.003558
# 6 0.000950 -0.001260 0.003049 0.009626 0.003558 0.039077
#
#
# Mechanical properties :
#
#
# Convention : Reuss Voigt Hill
#
# Bulk Modulus (GPa) = 32.33919 55.88989 44.11454
# Shear Modulus (GPa) = 27.93409 34.43014 31.18211
#
# Velocity S-wave (km/s) = 3.45985 3.84113 3.65547
# Velocity P-wave (km/s) = 5.46068 6.60476 6.05978
#
# Compressibility (1/GPa) = 0.03092223
#
# Stress axis : x y z
#
# Youngs Moduli (GPa) = 57.76754 53.96760 98.93775
#
# Poissons Ratio (x) = -0.00137 0.32870
# Poissons Ratio (y) = -0.00146 0.41710
# Poissons Ratio (z) = 0.19192 0.22752
#
# Static dielectric constant tensor:
#      x y z
#    x 1.942430 -0.106200 -0.003880 
#    y -0.106200 2.332340 0.077070 
#    z -0.003880 0.077070 1.925440 
# 
# From -- ./inp_files/105112.got.cif
#   From: 2010.05.17/outbox.cif.g08.bks.cpg/sg2_53_cif.got.tgz:105112.got - 2010.06.03 11:33:40.
