data_PCOD9049604
_publ_section_title
;
Structure prediction by ZEFSAII (Michael W. Deem and Ramdas Pophale) SiO2 
 PCOD9049604
Probable space group: P -1
;
_chemical_formula_sum "Si O2"
_cell_formula_units_Z 14
_cell_length_a 22.537167
_cell_length_b 9.817688
_cell_length_c 9.653682
_cell_angle_alpha 135.396488
_cell_angle_beta 134.151577
_cell_angle_gamma 23.763418
_cell_volume 596.727011
_symmetry_space_group_name_H-M "P -1"
_symmetry_group_IT_number 2
_symmetry_cell_setting 'triclinic'
loop_
_space_group_symop_operation_xyz
x,y,z
-x,-y,-z
loop_
_atom_site_type_symbol
_atom_site_label
_atom_site_fract_x
_atom_site_fract_y
_atom_site_fract_z
Si Si1 0.471307 0.206908 0.477324
Si Si2 0.360933 0.108824 0.036263
Si Si3 0.872986 0.907953 0.565085
Si Si4 0.280653 0.852681 0.792107
Si Si5 0.727186 0.926739 0.547535
Si Si6 0.707233 0.303123 0.994929
Si Si7 0.126481 0.658804 0.813284
O O1 0.358206 0.307607 0.268787
O O2 0.428329 0.481929 0.691139
O O3 0.500000 0.000000 0.500000
O O4 0.588622 0.057364 0.448384
O O5 0.251762 0.342020 0.896744
O O6 0.298521 0.047037 0.975004
O O7 0.535140 0.717754 0.998141
O O8 0.735116 0.078912 0.550203
O O9 0.000000 0.500000 0.500000
O O10 0.955313 0.941734 0.777735
O O11 0.834723 0.980942 0.394247
O O12 0.263834 0.778906 0.855188
O O13 0.847813 0.529571 0.415809
O O14 0.739541 0.035339 0.781069
O O15 0.824569 0.224154 0.064760
#
# Coordination Sequence:
#
# PCOD9049604 Si02
#       7
#     2   2   2   2   2   2   2
#     4  12  24  41  68 105 138 168 219 279 344 390
#     4  12  23  40  69  99 135 173 215 279 334 396
#     4  10  24  47  68  91 136 184 222 274 323 392
#     4  12  24  45  69  99 139 173 218 280 335 394
#     4  11  23  42  68  95 134 174 219 270 331 397
#     4  12  25  40  70 104 130 172 222 277 343 388
#     4  11  25  45  65  96 139 172 228 274 321 398
#
# _framework density 23.461314999999999
#
# number of rings (size 3 to 8) (size 9 to 14) (size 15 to 20)
#    0.000    0.571    7.143    1.714    2.000    2.286 
#    0.000    2.857    0.000    0.000    0.000    0.000 
#    0.000    0.000    0.000    0.000    0.000    0.000 
#
# Total GULP energy -78102.508832 kJ/mol
# GULP energy per Si atom -5578.750631 kJ/mol
# Density = 2.340792 g / cm^3
# Si number density = 23.461315 Si / 1000 Ang^3
#
#
#
# Elastic Constant Matrix: (Units=GPa)
#
#
# Indices 1 2 3 4 5 6 
#
# 1 168.4135 58.8107 45.7209 -35.0419 23.5687 -5.3494
# 2 58.8107 53.2446 20.1900 -25.0593 -6.7426 4.5612
# 3 45.7209 20.1900 111.0903 -15.8914 11.8189 -3.1972
# 4 -35.0419 -25.0593 -15.8914 39.5653 -0.7873 2.9730
# 5 23.5687 -6.7426 11.8189 -0.7873 56.6953 1.4025
# 6 -5.3494 4.5612 -3.1972 2.9730 1.4025 9.0079
#
#
#
# Elastic Compliance Matrix: (Units=1/GPa)
#
#
# Indices 1 2 3 4 5 6 
#
# 1 0.014301 -0.018613 -0.001233 -0.001227 -0.008393 0.019192
# 2 -0.018613 0.057926 -0.002812 0.023293 0.016815 -0.051689
# 3 -0.001233 -0.002812 0.010511 0.000974 -0.002109 0.004429
# 4 -0.001227 0.023293 0.000974 0.041410 0.004308 -0.026515
# 5 -0.008393 0.016815 -0.002109 0.004308 0.024107 -0.019423
# 6 0.019192 -0.051689 0.004429 -0.026515 -0.019423 0.161931
#
#
# Mechanical properties :
#
#
# Convention : Reuss Voigt Hill
#
# Bulk Modulus (GPa) = 26.72191 64.68795 45.70493
# Shear Modulus (GPa) = 13.58777 34.92216 24.25496
#
# Velocity S-wave (km/s) = 2.40918 3.86229 3.21881
# Velocity P-wave (km/s) = 4.37645 6.89360 5.77387
#
# Compressibility (1/GPa) = 0.03742248
#
# Stress axis : x y z
#
# Youngs Moduli (GPa) = 69.92376 17.26327 95.13425
#
# Poissons Ratio (x) = 0.32133 0.11733
# Poissons Ratio (y) = 1.30151 0.26750
# Poissons Ratio (z) = 0.08623 0.04854
#
# Static dielectric constant tensor:
#      x y z
#    x 1.962060 -0.088110 0.008340 
#    y -0.088110 1.993760 0.002960 
#    z 0.008340 0.002960 1.887510 
# 
# From -- ./inp_files/343885.got.cif
#   From: 2010.05.17/outbox.cif.g08.bks.cpg/sg2_172_cif.got.tgz:343885.got - 2010.06.03 11:33:40.
