data_PCOD9049292
_publ_section_title
;
Structure prediction by ZEFSAII (Michael W. Deem and Ramdas Pophale) SiO2 
 PCOD9049292
Probable space group: P -1
;
_chemical_formula_sum "Si O2"
_cell_formula_units_Z 16
_cell_length_a 8.175904
_cell_length_b 13.069213
_cell_length_c 9.729117
_cell_angle_alpha 73.644907
_cell_angle_beta 132.678029
_cell_angle_gamma 112.021819
_cell_volume 707.940169
_symmetry_space_group_name_H-M "P -1"
_symmetry_group_IT_number 2
_symmetry_cell_setting 'triclinic'
loop_
_space_group_symop_operation_xyz
x,y,z
-x,-y,-z
loop_
_atom_site_type_symbol
_atom_site_label
_atom_site_fract_x
_atom_site_fract_y
_atom_site_fract_z
Si Si1 0.517354 0.348966 0.120733
Si Si2 0.803022 0.059220 0.402834
Si Si3 0.002199 0.229147 0.224150
Si Si4 0.627710 0.313118 0.880010
Si Si5 0.879033 0.579033 0.229508
Si Si6 0.780559 0.236455 0.518862
Si Si7 0.562001 0.829279 0.413161
Si Si8 0.758508 0.513857 0.693569
O O1 0.554657 0.318795 0.994317
O O2 0.685498 0.469808 0.204090
O O3 0.596230 0.267639 0.299689
O O4 0.256508 0.359018 0.974823
O O5 0.834343 0.125908 0.536926
O O6 0.835584 0.154054 0.271173
O O7 0.584354 0.954424 0.330539
O O8 0.000000 0.000000 0.500000
O O9 0.219328 0.176365 0.363581
O O10 0.116043 0.357460 0.275430
O O11 0.821372 0.244760 0.001036
O O12 0.435188 0.248778 0.687619
O O13 0.728642 0.439408 0.841965
O O14 0.990708 0.663201 0.381399
O O15 0.086676 0.539302 0.297007
O O16 0.663300 0.218334 0.607328
O O17 0.500000 0.500000 0.500000
#
# Coordination Sequence:
#
# PCOD9049292 Si02
#       8
#     2   2   2   2   2   2   2   2
#     4  11  27  41  69 104 148 183 230 284 346 429
#     4  10  24  46  72 100 133 187 237 292 344 414
#     4  11  23  44  68 101 142 180 232 282 342 415
#     4  12  24  43  69 104 138 186 226 285 343 424
#     4  11  25  43  66 104 145 187 228 282 349 424
#     4  12  23  47  68 101 138 185 230 294 351 405
#     4  11  26  43  73 100 138 182 241 286 347 399
#     4  12  23  42  70 105 144 183 223 284 348 422
#
# _framework density 22.600778999999999
#
# number of rings (size 3 to 8) (size 9 to 14) (size 15 to 20)
#    0.000    0.750    5.000    1.125    5.250    4.500 
#    0.000    0.000    0.000    3.750    0.000    0.000 
#    0.000    0.000    0.000    0.000    0.000    0.000 
#
# Total GULP energy -89369.081245 kJ/mol
# GULP energy per Si atom -5585.567578 kJ/mol
# Density = 2.254934 g / cm^3
# Si number density = 22.600779 Si / 1000 Ang^3
#
#
#
# Elastic Constant Matrix: (Units=GPa)
#
#
# Indices 1 2 3 4 5 6 
#
# 1 71.4272 39.3804 33.1673 -3.6845 7.2703 -1.3239
# 2 39.3804 89.6086 15.6994 -4.9864 -22.0391 -6.2667
# 3 33.1673 15.6994 87.8102 -6.6698 7.9580 4.4855
# 4 -3.6845 -4.9864 -6.6698 28.0616 -1.6170 -8.3275
# 5 7.2703 -22.0391 7.9580 -1.6170 41.9134 -7.3471
# 6 -1.3239 -6.2667 4.4855 -8.3275 -7.3471 24.5928
#
#
#
# Elastic Compliance Matrix: (Units=1/GPa)
#
#
# Indices 1 2 3 4 5 6 
#
# 1 0.024927 -0.013137 -0.006001 -0.002647 -0.011092 -0.005121
# 2 -0.013137 0.022364 -0.000660 0.006709 0.016585 0.012339
# 3 -0.006001 -0.000660 0.014280 0.001329 -0.002564 -0.003412
# 4 -0.002647 0.006709 0.001329 0.042743 0.008604 0.018369
# 5 -0.011092 0.016585 -0.002564 0.008604 0.038571 0.018533
# 6 -0.005121 0.012339 -0.003412 0.018369 0.018533 0.055910
#
#
# Mechanical properties :
#
#
# Convention : Reuss Voigt Hill
#
# Bulk Modulus (GPa) = 45.50450 47.26001 46.38225
# Shear Modulus (GPa) = 20.34859 29.62015 24.98437
#
# Velocity S-wave (km/s) = 3.00384 3.62412 3.32846
# Velocity P-wave (km/s) = 5.67525 6.20230 5.94462
#
# Compressibility (1/GPa) = 0.02197585
#
# Stress axis : x y z
#
# Youngs Moduli (GPa) = 40.11677 44.71476 70.02565
#
# Poissons Ratio (x) = 0.58741 0.42022
# Poissons Ratio (y) = 0.52701 0.04623
# Poissons Ratio (z) = 0.24074 0.02952
#
# Static dielectric constant tensor:
#      x y z
#    x 1.880500 0.026190 0.023790 
#    y 0.026190 1.855650 -0.018620 
#    z 0.023790 -0.018620 1.892290 
# 
# From -- ./inp_files/206591.got.cif
#   From: 2010.05.17/outbox.cif.g08.bks.cpg/sg2_104_cif.got.tgz:206591.got - 2010.06.03 11:33:40.
