data_PCOD9049887
_publ_section_title
;
Structure prediction by ZEFSAII (Michael W. Deem and Ramdas Pophale) SiO2 
 PCOD9049887
Probable space group: P -1
;
_chemical_formula_sum "Si O2"
_cell_formula_units_Z 14
_cell_length_a 13.799802
_cell_length_b 5.412474
_cell_length_c 16.058659
_cell_angle_alpha 92.754816
_cell_angle_beta 153.204333
_cell_angle_gamma 94.059069
_cell_volume 522.597009
_symmetry_space_group_name_H-M "P -1"
_symmetry_group_IT_number 2
_symmetry_cell_setting 'triclinic'
loop_
_space_group_symop_operation_xyz
x,y,z
-x,-y,-z
loop_
_atom_site_type_symbol
_atom_site_label
_atom_site_fract_x
_atom_site_fract_y
_atom_site_fract_z
Si Si1 0.366928 0.888104 0.112442
Si Si2 0.847667 0.709719 0.285289
Si Si3 0.294023 0.818273 0.742533
Si Si4 0.018638 0.578685 0.245522
Si Si5 0.270077 0.038465 0.357568
Si Si6 0.770174 0.796584 0.836154
Si Si7 0.591144 0.616535 0.383298
O O1 0.482253 0.096451 0.137590
O O2 0.136795 0.696285 0.904731
O O3 0.548799 0.719012 0.262649
O O4 0.334915 0.035258 0.175413
O O5 0.084593 0.761091 0.516842
O O6 0.890021 0.688485 0.219857
O O7 0.718241 0.432162 0.216046
O O8 0.739270 0.942050 0.225623
O O9 0.243555 0.552762 0.464970
O O10 0.082902 0.772705 0.219456
O O11 0.260773 0.258369 0.288570
O O12 0.302733 0.137964 0.476683
O O13 0.500000 0.000000 0.500000
O O14 0.659712 0.518763 0.782717
O O15 0.000000 0.000000 0.000000
#
# Coordination Sequence:
#
# PCOD9049887 Si02
#       7
#     2   2   2   2   2   2   2
#     4  12  28  46  72 111 148 187 253 304 375 453
#     4  10  24  47  80 109 150 199 256 309 391 453
#     4  10  24  47  79 111 149 200 250 321 382 453
#     4  12  28  46  74 109 144 196 245 306 375 454
#     4  12  24  44  69 101 142 191 246 293 366 439
#     4  12  26  44  72 105 144 195 245 307 370 446
#     4  12  25  46  73  98 151 193 242 307 371 439
#
# _framework density 26.789283000000001
#
# number of rings (size 3 to 8) (size 9 to 14) (size 15 to 20)
#    0.000    0.571    2.857    3.857   12.000    2.286 
#    0.000    0.000    0.000    0.000    0.000    0.000 
#    0.000    0.000    0.000    0.000    0.000    0.000 
#
# Total GULP energy -78224.278844 kJ/mol
# GULP energy per Si atom -5587.448489 kJ/mol
# Density = 2.672831 g / cm^3
# Si number density = 26.789283 Si / 1000 Ang^3
#
#
#
# Elastic Constant Matrix: (Units=GPa)
#
#
# Indices 1 2 3 4 5 6 
#
# 1 157.2709 64.7288 21.8734 8.9308 4.9850 27.3924
# 2 64.7288 147.0739 31.0505 23.8866 11.7748 31.7748
# 3 21.8734 31.0505 88.5876 20.5635 11.6673 9.0647
# 4 8.9308 23.8866 20.5635 48.6250 7.5400 7.5135
# 5 4.9850 11.7748 11.6673 7.5400 24.3298 9.8440
# 6 27.3924 31.7748 9.0647 7.5135 9.8440 47.1417
#
#
#
# Elastic Compliance Matrix: (Units=1/GPa)
#
#
# Indices 1 2 3 4 5 6 
#
# 1 0.008140 -0.002945 -0.000986 0.000630 0.001212 -0.002909
# 2 -0.002945 0.009813 -0.001516 -0.002884 -0.000923 -0.003959
# 3 -0.000986 -0.001516 0.013573 -0.004207 -0.004511 0.000597
# 4 0.000630 -0.002884 -0.004207 0.024368 -0.004000 -0.000662
# 5 0.001212 -0.000923 -0.004511 -0.004000 0.048200 -0.008642
# 6 -0.002909 -0.003959 0.000597 -0.000662 -0.008642 0.027366
#
#
# Mechanical properties :
#
#
# Convention : Reuss Voigt Hill
#
# Bulk Modulus (GPa) = 48.47068 69.80418 59.13743
# Shear Modulus (GPa) = 33.50470 42.37127 37.93798
#
# Velocity S-wave (km/s) = 3.54033 3.98131 3.76728
# Velocity P-wave (km/s) = 5.90292 6.87370 6.40672
#
# Compressibility (1/GPa) = 0.02063103
#
# Stress axis : x y z
#
# Youngs Moduli (GPa) = 122.84636 101.90208 73.67777
#
# Poissons Ratio (x) = 0.30015 0.07263
# Poissons Ratio (y) = 0.36184 0.11172
# Poissons Ratio (z) = 0.12110 0.15451
#
# Static dielectric constant tensor:
#      x y z
#    x 1.987660 -0.120870 0.197660 
#    y -0.120870 1.982790 0.155380 
#    z 0.197660 0.155380 1.301500 
# 
# From -- ./inp_files/52248.got.cif
#   From: 2010.05.17/outbox.cif.g08.bks.cpg/sg2_27_cif.got.tgz:52248.got - 2010.06.03 11:33:40.
