data_PCOD9049572
_publ_section_title
;
Structure prediction by ZEFSAII (Michael W. Deem and Ramdas Pophale) SiO2 
 PCOD9049572
Probable space group: P -1
;
_chemical_formula_sum "Si O2"
_cell_formula_units_Z 12
_cell_length_a 7.622716
_cell_length_b 5.908535
_cell_length_c 14.680251
_cell_angle_alpha 109.208692
_cell_angle_beta 50.073297
_cell_angle_gamma 87.681019
_cell_volume 448.978523
_symmetry_space_group_name_H-M "P -1"
_symmetry_group_IT_number 2
_symmetry_cell_setting 'triclinic'
loop_
_space_group_symop_operation_xyz
x,y,z
-x,-y,-z
loop_
_atom_site_type_symbol
_atom_site_label
_atom_site_fract_x
_atom_site_fract_y
_atom_site_fract_z
Si Si1 0.071669 0.208756 0.059326
Si Si2 0.952919 0.936622 0.756314
Si Si3 0.207111 0.367131 0.522785
Si Si4 0.510035 0.359309 0.883262
Si Si5 0.308511 0.246304 0.677882
Si Si6 0.315670 0.587334 0.347050
O O1 0.167154 0.094523 0.112073
O O2 0.854557 0.470243 0.193909
O O3 0.270040 0.287292 0.947628
O O4 0.000000 0.000000 0.000000
O O5 0.085612 0.666782 0.630364
O O6 0.151874 0.069379 0.728343
O O7 0.750688 0.110662 0.778742
O O8 0.363961 0.378515 0.383624
O O9 0.971853 0.301991 0.561929
O O10 0.329780 0.252205 0.561838
O O11 0.553347 0.519093 0.805644
O O12 0.500000 0.500000 0.000000
O O13 0.566621 0.203578 0.633651
#
# Coordination Sequence:
#
# PCOD9049572 Si02
#       6
#     2   2   2   2   2   2
#     4  11  25  39  63  98 129 170 218 256 323 389
#     4  11  23  43  67  90 136 170 210 272 317 380
#     4  10  24  47  64  98 128 169 222 263 323 377
#     4  12  23  42  66  96 132 172 209 265 326 379
#     4  11  23  45  66  98 131 167 216 271 317 380
#     4  11  24  43  71  93 131 173 213 270 320 380
#
# _framework density 26.727336000000001
#
# number of rings (size 3 to 8) (size 9 to 14) (size 15 to 20)
#    0.000    1.000    3.333    3.000    4.667    2.667 
#    0.000    0.000    0.000    0.000    0.000    0.000 
#    0.000    0.000    0.000    0.000    0.000    0.000 
#
# Total GULP energy -67367.344422 kJ/mol
# GULP energy per Si atom -5613.945369 kJ/mol
# Density = 2.666650 g / cm^3
# Si number density = 26.727336 Si / 1000 Ang^3
#
#
#
# Elastic Constant Matrix: (Units=GPa)
#
#
# Indices 1 2 3 4 5 6 
#
# 1 156.4484 43.6971 54.5260 -7.5326 -1.4124 18.0420
# 2 43.6971 87.8430 68.6955 -17.8007 7.6724 3.4967
# 3 54.5260 68.6955 115.6624 -32.9050 15.2185 4.8443
# 4 -7.5326 -17.8007 -32.9050 68.0735 -1.7712 10.7720
# 5 -1.4124 7.6724 15.2185 -1.7712 55.3780 -10.9170
# 6 18.0420 3.4967 4.8443 10.7720 -10.9170 62.4868
#
#
#
# Elastic Compliance Matrix: (Units=1/GPa)
#
#
# Indices 1 2 3 4 5 6 
#
# 1 0.008124 -0.001877 -0.002972 -0.000732 0.000921 -0.001723
# 2 -0.001877 0.021732 -0.012229 -0.000494 0.000370 0.000424
# 3 -0.002972 -0.012229 0.019646 0.006140 -0.003924 -0.001725
# 4 -0.000732 -0.000494 0.006140 0.017979 -0.001782 -0.003648
# 5 0.000921 0.000370 -0.003924 -0.001782 0.019797 0.003784
# 6 -0.001723 0.000424 -0.001725 -0.003648 0.003784 0.017901
#
#
# Mechanical properties :
#
#
# Convention : Reuss Voigt Hill
#
# Bulk Modulus (GPa) = 65.16926 77.08788 71.12857
# Shear Modulus (GPa) = 34.61392 50.05666 42.33529
#
# Velocity S-wave (km/s) = 3.60262 4.33235 3.98423
# Velocity P-wave (km/s) = 6.46073 7.34375 6.91635
#
# Compressibility (1/GPa) = 0.01534466
#
# Stress axis : x y z
#
# Youngs Moduli (GPa) = 123.09506 46.01481 50.90136
#
# Poissons Ratio (x) = 0.08637 0.15129
# Poissons Ratio (y) = 0.23105 0.62249
# Poissons Ratio (z) = 0.36586 0.56273
#
# Static dielectric constant tensor:
#      x y z
#    x 2.037270 -0.024860 -0.009250 
#    y -0.024860 2.067590 0.018660 
#    z -0.009250 0.018660 2.091050 
# 
# From -- ./inp_files/553691.got.cif
#   From: 2010.05.17/outbox.cif.g08.bks.cpg/sg2_277_cif.got.tgz:553691.got - 2010.06.03 11:33:40.
