data_PCOD9049256
_publ_section_title
;
Structure prediction by ZEFSAII (Michael W. Deem and Ramdas Pophale) SiO2 
 PCOD9049256
Probable space group: P -1
;
_chemical_formula_sum "Si O2"
_cell_formula_units_Z 14
_cell_length_a 15.166419
_cell_length_b 10.056616
_cell_length_c 12.630701
_cell_angle_alpha 157.393468
_cell_angle_beta 51.466343
_cell_angle_gamma 125.681373
_cell_volume 579.065137
_symmetry_space_group_name_H-M "P -1"
_symmetry_group_IT_number 2
_symmetry_cell_setting 'triclinic'
loop_
_space_group_symop_operation_xyz
x,y,z
-x,-y,-z
loop_
_atom_site_type_symbol
_atom_site_label
_atom_site_fract_x
_atom_site_fract_y
_atom_site_fract_z
Si Si1 0.900506 0.711909 0.172846
Si Si2 0.260985 0.425942 0.987491
Si Si3 0.808811 0.633647 0.399117
Si Si4 0.487412 0.609989 0.263004
Si Si5 0.556825 0.644833 0.667913
Si Si6 0.897516 0.883490 0.732638
Si Si7 0.246926 0.598584 0.362859
O O1 0.819368 0.503209 0.000306
O O2 0.827071 0.812638 0.403220
O O3 0.972649 0.994951 0.260259
O O4 0.000000 0.500000 0.000000
O O5 0.391150 0.554927 0.969791
O O6 0.258434 0.004549 0.679010
O O7 0.221285 0.542405 0.217531
O O8 0.687844 0.693481 0.582514
O O9 0.891372 0.762058 0.525445
O O10 0.826127 0.226550 0.062903
O O11 0.464601 0.604757 0.400719
O O12 0.373100 0.449918 0.179225
O O13 0.500000 0.000000 0.500000
O O14 0.500000 0.500000 0.500000
O O15 0.500000 0.000000 0.000000
O O16 0.843632 0.590455 0.632434
#
# Coordination Sequence:
#
# PCOD9049256 Si02
#       7
#     2   2   2   2   2   2   2
#     4  10  25  46  71 101 140 188 237 297 353 422
#     4  11  25  43  68 102 139 183 237 290 354 428
#     4  11  23  44  69  96 140 183 234 281 364 422
#     4  10  24  46  71 104 144 191 234 295 366 437
#     4  12  26  42  70 107 144 185 240 299 359 434
#     4  11  23  42  71  99 134 183 238 285 353 419
#     4  11  24  43  70 101 140 182 233 292 358 428
#
# _framework density 24.1769
#
# number of rings (size 3 to 8) (size 9 to 14) (size 15 to 20)
#    0.000    1.143    1.429    3.429    2.000   10.286 
#    0.000    0.000    0.000    0.000    0.000    0.000 
#    0.000    0.000    0.000    0.000    0.000    0.000 
#
# Total GULP energy -78391.440156 kJ/mol
# GULP energy per Si atom -5599.388583 kJ/mol
# Density = 2.412187 g / cm^3
# Si number density = 24.176900 Si / 1000 Ang^3
#
#
#
# Elastic Constant Matrix: (Units=GPa)
#
#
# Indices 1 2 3 4 5 6 
#
# 1 99.5426 46.6859 11.4892 -9.8986 -1.1763 -18.1419
# 2 46.6859 185.3684 36.4007 -19.2965 1.7157 -4.6673
# 3 11.4892 36.4007 112.3877 -8.4156 13.0450 -12.9544
# 4 -9.8986 -19.2965 -8.4156 30.5931 -7.0172 6.6266
# 5 -1.1763 1.7157 13.0450 -7.0172 31.0357 -12.1183
# 6 -18.1419 -4.6673 -12.9544 6.6266 -12.1183 44.9952
#
#
#
# Elastic Compliance Matrix: (Units=1/GPa)
#
#
# Indices 1 2 3 4 5 6 
#
# 1 0.012589 -0.002882 0.000038 0.001821 0.003126 0.005361
# 2 -0.002882 0.006788 -0.001875 0.003240 0.000514 -0.001337
# 3 0.000038 -0.001875 0.010129 0.000464 -0.003359 0.001764
# 4 0.001821 0.003240 0.000464 0.037632 0.007275 -0.002379
# 5 0.003126 0.000514 -0.003359 0.007275 0.039208 0.009835
# 6 0.005361 -0.001337 0.001764 -0.002379 0.009835 0.027755
#
#
# Mechanical properties :
#
#
# Convention : Reuss Voigt Hill
#
# Bulk Modulus (GPa) = 49.83268 65.16115 57.49691
# Shear Modulus (GPa) = 33.28307 41.50631 37.39469
#
# Velocity S-wave (km/s) = 3.71435 4.14789 3.93709
# Velocity P-wave (km/s) = 6.24913 7.06756 6.67090
#
# Compressibility (1/GPa) = 0.02006715
#
# Stress axis : x y z
#
# Youngs Moduli (GPa) = 79.43752 147.32585 98.72610
#
# Poissons Ratio (x) = 0.42464 -0.00377
# Poissons Ratio (y) = 0.22897 0.18510
# Poissons Ratio (z) = -0.00303 0.27622
#
# Static dielectric constant tensor:
#      x y z
#    x 2.047090 -0.041780 -0.119970 
#    y -0.041780 1.881700 -0.004120 
#    z -0.119970 -0.004120 1.857440 
# 
# From -- ./inp_files/446513.got.cif
#   From: 2010.05.17/outbox.cif.g08.bks.cpg/sg2_224_cif.got.tgz:446513.got - 2010.06.03 11:33:40.
