data_PCOD9049002
_publ_section_title
;
Structure prediction by ZEFSAII (Michael W. Deem and Ramdas Pophale) SiO2 
 PCOD9049002
Probable space group: P -1
;
_chemical_formula_sum "Si O2"
_cell_formula_units_Z 16
_cell_length_a 13.295244
_cell_length_b 12.358763
_cell_length_c 9.770954
_cell_angle_alpha 131.626022
_cell_angle_beta 129.685209
_cell_angle_gamma 80.268652
_cell_volume 827.734923
_symmetry_space_group_name_H-M "P -1"
_symmetry_group_IT_number 2
_symmetry_cell_setting 'triclinic'
loop_
_space_group_symop_operation_xyz
x,y,z
-x,-y,-z
loop_
_atom_site_type_symbol
_atom_site_label
_atom_site_fract_x
_atom_site_fract_y
_atom_site_fract_z
Si Si1 0.640306 0.502883 0.047214
Si Si2 0.666568 0.773818 0.870969
Si Si3 0.137685 0.639938 0.823664
Si Si4 0.354811 0.539617 0.301865
Si Si5 0.845726 0.860769 0.592654
Si Si6 0.186887 0.983123 0.046415
Si Si7 0.111594 0.650573 0.137391
Si Si8 0.859671 0.016438 0.452909
O O1 0.716313 0.388350 0.060292
O O2 0.772865 0.673916 0.341995
O O3 0.500000 0.500000 0.000000
O O4 0.607766 0.491523 0.846828
O O5 0.496325 0.659251 0.608494
O O6 0.721887 0.635663 0.835909
O O7 0.725970 0.892335 0.892473
O O8 0.721312 0.902286 0.147898
O O9 0.000000 0.500000 0.500000
O O10 0.188876 0.813141 0.938356
O O11 0.088875 0.647445 0.948117
O O12 0.258996 0.633712 0.273854
O O13 0.771402 0.907895 0.691057
O O14 0.829296 0.945909 0.516857
O O15 0.016481 0.927272 0.823211
O O16 0.113478 0.802358 0.347465
O O17 0.000000 0.500000 0.000000
O O18 0.000000 0.000000 0.500000
#
# Coordination Sequence:
#
# PCOD9049002 Si02
#       8
#     2   2   2   2   2   2   2   2
#     4  11  23  44  68  95 135 181 218 272 346 398
#     4  11  23  42  69  92 133 174 220 272 342 394
#     4  11  24  45  66 103 135 168 226 282 324 398
#     4  10  24  46  65  95 134 174 226 277 329 411
#     4  11  22  39  65  95 132 169 228 269 333 396
#     4  11  23  40  66  99 131 172 218 284 329 399
#     4  11  26  43  69  97 134 177 224 275 335 393
#     4  12  23  41  67  98 130 174 219 276 333 393
#
# _framework density 19.329858000000002
#
# number of rings (size 3 to 8) (size 9 to 14) (size 15 to 20)
#    0.000    1.000    5.000    1.500    3.500    0.500 
#    9.000    1.875    0.000    0.000    0.000    0.000 
#    0.000    0.000    0.000    0.000    0.000    0.000 
#
# Total GULP energy -89139.831366 kJ/mol
# GULP energy per Si atom -5571.239460 kJ/mol
# Density = 1.928586 g / cm^3
# Si number density = 19.329858 Si / 1000 Ang^3
#
#
#
# Elastic Constant Matrix: (Units=GPa)
#
#
# Indices 1 2 3 4 5 6 
#
# 1 88.0817 44.0987 37.7714 -0.6593 -22.2985 21.8920
# 2 44.0987 160.9637 56.6753 18.3096 -20.9160 13.3882
# 3 37.7714 56.6753 132.0591 2.9692 -25.1110 0.7362
# 4 -0.6593 18.3096 2.9692 41.2869 -0.3847 -7.6646
# 5 -22.2985 -20.9160 -25.1110 -0.3847 30.9636 -7.3125
# 6 21.8920 13.3882 0.7362 -7.6646 -7.3125 47.1512
#
#
#
# Elastic Compliance Matrix: (Units=1/GPa)
#
#
# Indices 1 2 3 4 5 6 
#
# 1 0.016887 -0.002405 -0.002408 0.000476 0.007189 -0.005928
# 2 -0.002405 0.008575 -0.002609 -0.003953 0.001496 -0.001688
# 3 -0.002408 -0.002609 0.010409 0.000926 0.005598 0.002715
# 4 0.000476 -0.003953 0.000926 0.026891 0.000000 0.005258
# 5 0.007189 0.001496 0.005598 0.000000 0.043716 0.002929
# 6 -0.005928 -0.001688 0.002715 0.005258 0.002929 0.025706
#
#
# Mechanical properties :
#
#
# Convention : Reuss Voigt Hill
#
# Bulk Modulus (GPa) = 47.56192 73.13282 60.34737
# Shear Modulus (GPa) = 32.45953 40.05094 36.25524
#
# Velocity S-wave (km/s) = 4.10230 4.55683 4.33553
# Velocity P-wave (km/s) = 6.86275 8.09954 7.50666
#
# Compressibility (1/GPa) = 0.02102522
#
# Stress axis : x y z
#
# Youngs Moduli (GPa) = 59.21742 116.62198 96.06697
#
# Poissons Ratio (x) = 0.28053 0.23136
# Poissons Ratio (y) = 0.14245 0.25065
# Poissons Ratio (z) = 0.14261 0.30429
#
# Static dielectric constant tensor:
#      x y z
#    x 1.700600 -0.054470 0.017950 
#    y -0.054470 1.789490 0.044220 
#    z 0.017950 0.044220 1.651880 
# 
# From -- ./inp_files/263597.got.cif
#   From: 2010.05.17/outbox.cif.g08.bks.cpg/sg2_132_cif.got.tgz:263597.got - 2010.06.03 11:33:40.
