data_PCOD9049402
_publ_section_title
;
Structure prediction by ZEFSAII (Michael W. Deem and Ramdas Pophale) SiO2 
 PCOD9049402
Probable space group: P -1
;
_chemical_formula_sum "Si O2"
_cell_formula_units_Z 12
_cell_length_a 6.863859
_cell_length_b 7.945977
_cell_length_c 13.128865
_cell_angle_alpha 65.527830
_cell_angle_beta 137.185395
_cell_angle_gamma 102.424949
_cell_volume 438.349071
_symmetry_space_group_name_H-M "P -1"
_symmetry_group_IT_number 2
_symmetry_cell_setting 'triclinic'
loop_
_space_group_symop_operation_xyz
x,y,z
-x,-y,-z
loop_
_atom_site_type_symbol
_atom_site_label
_atom_site_fract_x
_atom_site_fract_y
_atom_site_fract_z
Si Si1 0.407525 0.029502 0.340403
Si Si2 0.514757 0.704512 0.868711
Si Si3 0.282930 0.420367 0.726887
Si Si4 0.791430 0.992326 0.176069
Si Si5 0.880838 0.454487 0.854137
Si Si6 0.735717 0.639170 0.547228
O O1 0.581618 0.842110 0.407537
O O2 0.063498 0.036071 0.204698
O O3 0.500000 0.000000 0.500000
O O4 0.493334 0.206611 0.271064
O O5 0.292611 0.854472 0.806816
O O6 0.564038 0.504366 0.129713
O O7 0.846795 0.698857 0.036454
O O8 0.156320 0.225953 0.722041
O O9 0.560576 0.403292 0.763126
O O10 0.991836 0.569804 0.584527
O O11 0.500000 0.000000 0.000000
O O12 0.854065 0.612307 0.716650
O O13 0.000000 0.500000 0.000000
O O14 0.500000 0.500000 0.500000
#
# Coordination Sequence:
#
# PCOD9049402 Si02
#       6
#     2   2   2   2   2   2
#     4  12  27  50  73 110 154 193 249 314 376 447
#     4  11  27  48  77 110 151 194 247 309 374 449
#     4  11  25  47  75 106 147 195 248 298 377 439
#     4  12  27  46  77 112 148 199 255 304 373 451
#     4  10  24  46  73 107 146 194 245 302 374 449
#     4  12  26  45  72 108 148 190 243 311 371 435
#
# _framework density 27.375440999999999
#
# number of rings (size 3 to 8) (size 9 to 14) (size 15 to 20)
#    0.000    0.667    1.667    5.000    2.333   13.333 
#    0.000    0.000    0.000    0.000    0.000    0.000 
#    0.000    0.000    0.000    0.000    0.000    0.000 
#
# Total GULP energy -67145.752482 kJ/mol
# GULP energy per Si atom -5595.479374 kJ/mol
# Density = 2.731313 g / cm^3
# Si number density = 27.375441 Si / 1000 Ang^3
#
#
#
# Elastic Constant Matrix: (Units=GPa)
#
#
# Indices 1 2 3 4 5 6 
#
# 1 177.0534 52.1323 36.7949 -4.1140 35.4672 -2.0436
# 2 52.1323 134.7725 11.1599 -13.4870 7.8769 -10.3187
# 3 36.7949 11.1599 96.6329 -5.1110 19.2485 -5.7610
# 4 -4.1140 -13.4870 -5.1110 49.8072 -11.1020 9.9293
# 5 35.4672 7.8769 19.2485 -11.1020 68.6812 1.3729
# 6 -2.0436 -10.3187 -5.7610 9.9293 1.3729 52.0259
#
#
#
# Elastic Compliance Matrix: (Units=1/GPa)
#
#
# Indices 1 2 3 4 5 6 
#
# 1 0.007439 -0.002642 -0.001964 -0.000966 -0.003140 -0.000182
# 2 -0.002642 0.008697 0.000051 0.002046 0.000659 0.001219
# 3 -0.001964 0.000051 0.011622 0.000305 -0.002224 0.001220
# 4 -0.000966 0.002046 0.000305 0.022227 0.003850 -0.003942
# 5 -0.003140 0.000659 -0.002224 0.003850 0.017381 -0.001432
# 6 -0.000182 0.001219 0.001220 -0.003942 -0.001432 0.020381
#
#
# Mechanical properties :
#
#
# Convention : Reuss Voigt Hill
#
# Bulk Modulus (GPa) = 53.62158 67.62591 60.62374
# Shear Modulus (GPa) = 48.50997 54.66096 51.58547
#
# Velocity S-wave (km/s) = 4.21411 4.47331 4.34564
# Velocity P-wave (km/s) = 6.58090 7.17199 6.88279
#
# Compressibility (1/GPa) = 0.01864921
#
# Stress axis : x y z
#
# Youngs Moduli (GPa) = 134.43551 114.98037 86.04259
#
# Poissons Ratio (x) = 0.30376 0.16896
# Poissons Ratio (y) = 0.35515 -0.00440
# Poissons Ratio (z) = 0.26398 -0.00588
#
# Static dielectric constant tensor:
#      x y z
#    x 2.050650 -0.261690 0.147170 
#    y -0.261690 1.935140 0.357040 
#    z 0.147170 0.357040 1.916540 
# 
# From -- ./inp_files/362560.got.cif
#   From: 2010.05.17/outbox.cif.g08.bks.cpg/sg2_182_cif.got.tgz:362560.got - 2010.06.03 11:33:40.
