data_PCOD9049404
_publ_section_title
;
Structure prediction by ZEFSAII (Michael W. Deem and Ramdas Pophale) SiO2 
 PCOD9049404
Probable space group: P -1
;
_chemical_formula_sum "Si O2"
_cell_formula_units_Z 14
_cell_length_a 12.589376
_cell_length_b 5.280570
_cell_length_c 25.479057
_cell_angle_alpha 70.463329
_cell_angle_beta 152.289453
_cell_angle_gamma 93.157082
_cell_volume 619.986389
_symmetry_space_group_name_H-M "P -1"
_symmetry_group_IT_number 2
_symmetry_cell_setting 'triclinic'
loop_
_space_group_symop_operation_xyz
x,y,z
-x,-y,-z
loop_
_atom_site_type_symbol
_atom_site_label
_atom_site_fract_x
_atom_site_fract_y
_atom_site_fract_z
Si Si1 0.446660 0.724247 0.010465
Si Si2 0.189329 0.622077 0.093779
Si Si3 0.474663 0.372635 0.345900
Si Si4 0.369307 0.209325 0.480926
Si Si5 0.314585 0.591892 0.753260
Si Si6 0.994183 0.361396 0.563011
Si Si7 0.141744 0.735173 0.271165
O O1 0.615311 0.520652 0.148482
O O2 0.500000 0.500000 0.000000
O O3 0.500000 0.000000 0.000000
O O4 0.127274 0.916550 0.872542
O O5 0.361194 0.421182 0.234391
O O6 0.408105 0.561301 0.149196
O O7 0.000000 0.500000 0.000000
O O8 0.000000 0.000000 0.000000
O O9 0.218438 0.559758 0.260755
O O10 0.680689 0.491026 0.430120
O O11 0.655968 0.011542 0.473387
O O12 0.121803 0.537239 0.324717
O O13 0.592545 0.264232 0.598518
O O14 0.500000 0.000000 0.500000
O O15 0.137853 0.465959 0.659573
O O16 0.160428 0.976355 0.657034
O O17 0.000000 0.500000 0.500000
#
# Coordination Sequence:
#
# PCOD9049404 Si02
#       7
#     2   2   2   2   2   2   2
#     4  12  30  49  75 106 148 202 248 307 381 447
#     4  12  28  47  77 109 149 196 249 302 374 446
#     4  11  26  43  80 108 148 197 245 313 377 441
#     4   9  22  41  70 106 140 188 243 308 363 432
#     4  12  28  50  75 111 154 197 253 314 372 456
#     4  12  27  49  77 110 156 198 255 304 384 445
#     4  10  24  46  73 107 150 185 256 301 376 441
#
# _framework density 22.581139
#
# number of rings (size 3 to 8) (size 9 to 14) (size 15 to 20)
#    0.000    0.857    1.429    3.000   12.000    4.571 
#    0.000    0.000    0.000    0.000    0.000    0.000 
#    0.000    0.000    0.000    0.000    0.000    0.000 
#
# Total GULP energy -78382.463216 kJ/mol
# GULP energy per Si atom -5598.747373 kJ/mol
# Density = 2.252974 g / cm^3
# Si number density = 22.581139 Si / 1000 Ang^3
#
#
#
# Elastic Constant Matrix: (Units=GPa)
#
#
# Indices 1 2 3 4 5 6 
#
# 1 158.6050 62.8058 70.9651 7.2491 -22.5831 5.1277
# 2 62.8058 151.3960 60.3995 7.4025 -12.9566 -4.9046
# 3 70.9651 60.3995 123.3114 8.4591 -19.8514 0.3099
# 4 7.2491 7.4025 8.4591 48.2181 -4.4753 -2.5030
# 5 -22.5831 -12.9566 -19.8514 -4.4753 56.0590 -7.4602
# 6 5.1277 -4.9046 0.3099 -2.5030 -7.4602 39.5062
#
#
#
# Elastic Compliance Matrix: (Units=1/GPa)
#
#
# Indices 1 2 3 4 5 6 
#
# 1 0.009204 -0.002115 -0.003975 -0.000268 0.001639 -0.001134
# 2 -0.002115 0.008773 -0.003013 -0.000402 0.000264 0.001412
# 3 -0.003975 -0.003013 0.012258 -0.000883 0.002022 0.000372
# 4 -0.000268 -0.000402 -0.000883 0.021208 0.001392 0.001598
# 5 0.001639 0.000264 0.002022 0.001392 0.019872 0.003645
# 6 -0.001134 0.001412 0.000372 0.001598 0.003645 0.026422
#
#
# Mechanical properties :
#
#
# Convention : Reuss Voigt Hill
#
# Bulk Modulus (GPa) = 83.14588 91.29481 87.22034
# Shear Modulus (GPa) = 41.68290 44.69946 43.19118
#
# Velocity S-wave (km/s) = 4.30107 4.45399 4.37820
# Velocity P-wave (km/s) = 7.84643 8.18341 8.01669
#
# Compressibility (1/GPa) = 0.01202705
#
# Stress axis : x y z
#
# Youngs Moduli (GPa) = 108.65277 113.98804 81.57685
#
# Poissons Ratio (x) = 0.24114 0.32430
# Poissons Ratio (y) = 0.22985 0.24579
# Poissons Ratio (z) = 0.43194 0.34345
#
# Static dielectric constant tensor:
#      x y z
#    x 1.827110 0.000240 0.011220 
#    y 0.000240 1.866390 -0.015660 
#    z 0.011220 -0.015660 1.812740 
# 
# From -- ./inp_files/609167.got.cif
#   From: 2010.05.17/outbox.cif.g08.bks.cpg/sg2_305_cif.got.tgz:609167.got - 2010.06.03 11:33:40.
