data_PCOD9049129
_publ_section_title
;
Structure prediction by ZEFSAII (Michael W. Deem and Ramdas Pophale) SiO2 
 PCOD9049129
Probable space group: P -1
;
_chemical_formula_sum "Si O2"
_cell_formula_units_Z 14
_cell_length_a 8.210574
_cell_length_b 7.399693
_cell_length_c 14.153544
_cell_angle_alpha 67.617014
_cell_angle_beta 53.973404
_cell_angle_gamma 56.261614
_cell_volume 576.444414
_symmetry_space_group_name_H-M "P -1"
_symmetry_group_IT_number 2
_symmetry_cell_setting 'triclinic'
loop_
_space_group_symop_operation_xyz
x,y,z
-x,-y,-z
loop_
_atom_site_type_symbol
_atom_site_label
_atom_site_fract_x
_atom_site_fract_y
_atom_site_fract_z
Si Si1 0.366510 0.400921 0.294069
Si Si2 0.977147 0.662728 0.250486
Si Si3 0.421398 0.677469 0.573930
Si Si4 0.430397 0.827186 0.190481
Si Si5 0.987603 0.098950 0.199974
Si Si6 0.944779 0.712804 0.037929
Si Si7 0.528322 0.079015 0.644862
O O1 0.375598 0.397247 0.405305
O O2 0.446784 0.589263 0.202875
O O3 0.497821 0.140901 0.283708
O O4 0.139658 0.467238 0.298944
O O5 0.050186 0.652696 0.117973
O O6 0.973356 0.874047 0.259926
O O7 0.718726 0.722044 0.318371
O O8 0.500000 0.500000 0.500000
O O9 0.202864 0.722071 0.705022
O O10 0.363836 0.904637 0.494236
O O11 0.673337 0.824910 0.111131
O O12 0.349973 0.874710 0.317268
O O13 0.245377 0.027410 0.155429
O O14 0.963126 0.156436 0.086219
O O15 0.000000 0.500000 0.000000
#
# Coordination Sequence:
#
# PCOD9049129 Si02
#       7
#     2   2   2   2   2   2   2
#     4  11  23  46  70 106 141 180 243 288 351 429
#     4  10  25  45  71 106 138 186 238 292 359 426
#     4  12  25  45  73 103 147 188 238 295 350 421
#     4  10  24  46  69 106 139 186 238 290 358 424
#     4  11  24  46  70 102 145 188 238 291 357 422
#     4  11  24  43  74 102 143 183 232 298 361 419
#     4  11  24  44  71  99 144 187 231 292 354 408
#
# _framework density 24.286819999999999
#
# number of rings (size 3 to 8) (size 9 to 14) (size 15 to 20)
#    0.000    1.143    2.857    2.143    4.000    1.143 
#    2.571    3.571    0.000    0.000    0.000    0.000 
#    0.000    0.000    0.000    0.000    0.000    0.000 
#
# Total GULP energy -78107.361872 kJ/mol
# GULP energy per Si atom -5579.097277 kJ/mol
# Density = 2.423154 g / cm^3
# Si number density = 24.286820 Si / 1000 Ang^3
#
#
#
# Elastic Constant Matrix: (Units=GPa)
#
#
# Indices 1 2 3 4 5 6 
#
# 1 95.5702 46.5529 27.1757 9.3095 33.6963 -20.6722
# 2 46.5529 105.6586 48.3303 -0.9370 12.4762 -5.6491
# 3 27.1757 48.3303 101.5642 3.4893 17.6909 -11.1256
# 4 9.3095 -0.9370 3.4893 31.4964 9.0196 6.6102
# 5 33.6963 12.4762 17.6909 9.0196 39.2459 -11.3293
# 6 -20.6722 -5.6491 -11.1256 6.6102 -11.3293 49.7886
#
#
#
# Elastic Compliance Matrix: (Units=1/GPa)
#
#
# Indices 1 2 3 4 5 6 
#
# 1 0.019763 -0.007502 0.001204 -0.003624 -0.012794 0.005193
# 2 -0.007502 0.015087 -0.006065 0.003008 0.002971 -0.002481
# 3 0.001204 -0.006065 0.013419 -0.001209 -0.004301 0.001992
# 4 -0.003624 0.003008 -0.001209 0.037122 -0.008207 -0.008229
# 5 -0.012794 0.002971 -0.004301 -0.008207 0.040614 0.004395
# 6 0.005193 -0.002481 0.001992 -0.008229 0.004395 0.024497
#
#
# Mechanical properties :
#
#
# Convention : Reuss Voigt Hill
#
# Bulk Modulus (GPa) = 42.47553 60.76787 51.62170
# Shear Modulus (GPa) = 27.31124 36.15512 31.73318
#
# Velocity S-wave (km/s) = 3.35704 3.86252 3.61861
# Velocity P-wave (km/s) = 5.70556 6.70577 6.22578
#
# Compressibility (1/GPa) = 0.02354297
#
# Stress axis : x y z
#
# Youngs Moduli (GPa) = 50.60076 66.28224 74.52213
#
# Poissons Ratio (x) = 0.49723 -0.08970
# Poissons Ratio (y) = 0.37959 0.45195
# Poissons Ratio (z) = -0.06091 0.40198
#
# Static dielectric constant tensor:
#      x y z
#    x 1.988890 0.011560 -0.053060 
#    y 0.011560 2.004610 -0.058640 
#    z -0.053060 -0.058640 2.063880 
# 
# From -- ./inp_files/492230.got.cif
#   From: 2010.05.17/outbox.cif.g08.bks.cpg/sg2_247_cif.got.tgz:492230.got - 2010.06.03 11:33:40.
