data_PCOD9049727
_publ_section_title
;
Structure prediction by ZEFSAII (Michael W. Deem and Ramdas Pophale) SiO2 
 PCOD9049727
Probable space group: P -1
;
_chemical_formula_sum "Si O2"
_cell_formula_units_Z 15
_cell_length_a 16.975987
_cell_length_b 9.061148
_cell_length_c 15.281290
_cell_angle_alpha 42.453092
_cell_angle_beta 23.036628
_cell_angle_gamma 51.163390
_cell_volume 608.777008
_symmetry_space_group_name_H-M "P -1"
_symmetry_group_IT_number 2
_symmetry_cell_setting 'triclinic'
loop_
_space_group_symop_operation_xyz
x,y,z
-x,-y,-z
loop_
_atom_site_type_symbol
_atom_site_label
_atom_site_fract_x
_atom_site_fract_y
_atom_site_fract_z
Si Si1 0.500000 0.000000 0.000000
Si Si2 0.247934 0.556198 0.781696
Si Si3 0.887708 0.952421 0.903566
Si Si4 0.609870 0.413094 0.572138
Si Si5 0.680529 0.753615 0.644322
Si Si6 0.313717 0.745180 0.149067
Si Si7 0.997314 0.261160 0.904413
Si Si8 0.371837 0.870867 0.767632
O O1 0.482309 0.809504 0.182822
O O2 0.330432 0.829191 0.193172
O O3 0.690087 0.356865 0.417481
O O4 0.435520 0.543723 0.660629
O O5 0.106339 0.691262 0.919491
O O6 0.142397 0.297235 0.991256
O O7 0.821897 0.117265 0.826951
O O8 0.116770 0.062343 0.646846
O O9 0.727155 0.965124 0.140328
O O10 0.526355 0.765558 0.716009
O O11 0.782981 0.575462 0.381604
O O12 0.753501 0.519368 0.673595
O O13 0.544840 0.780712 0.856448
O O14 0.830052 0.301502 0.985101
O O15 0.000000 0.000000 0.000000
O O16 0.500000 0.000000 0.500000
#
# Coordination Sequence:
#
# PCOD9049727 Si02
#       8
#     1   2   2   2   2   2   2   2
#     4  12  26  48  78 116 164 204 258 336 388 472
#     4  11  27  49  84 115 154 210 264 331 404 475
#     4  11  24  48  78 113 153 212 266 322 404 479
#     4  11  28  52  78 117 162 208 260 327 403 480
#     4  10  25  47  76 103 162 213 261 324 398 472
#     4  10  24  47  72 112 155 211 263 325 391 477
#     4  12  30  49  79 122 154 207 268 338 403 474
#     4  11  29  42  72 116 155 199 262 332 393 468
#
# _framework density 24.639565999999999
#
# number of rings (size 3 to 8) (size 9 to 14) (size 15 to 20)
#    0.000    1.067    1.333    1.600   14.933    0.000 
#    0.000    1.333    0.000    0.000    0.000    0.000 
#    0.000    0.000    0.000    0.000    0.000    0.000 
#
# Total GULP energy -83775.743240 kJ/mol
# GULP energy per Si atom -5585.049549 kJ/mol
# Density = 2.458349 g / cm^3
# Si number density = 24.639566 Si / 1000 Ang^3
#
#
#
# Elastic Constant Matrix: (Units=GPa)
#
#
# Indices 1 2 3 4 5 6 
#
# 1 135.7140 26.1648 53.3790 -26.3323 -25.0950 -13.4889
# 2 26.1648 139.5195 55.2510 -18.1946 1.7575 3.3829
# 3 53.3790 55.2510 131.1845 -25.2020 -15.4649 -10.2063
# 4 -26.3323 -18.1946 -25.2020 39.1684 -1.2821 4.0068
# 5 -25.0950 1.7575 -15.4649 -1.2821 42.9012 -12.4312
# 6 -13.4889 3.3829 -10.2063 4.0068 -12.4312 28.2895
#
#
#
# Elastic Compliance Matrix: (Units=1/GPa)
#
#
# Indices 1 2 3 4 5 6 
#
# 1 0.011822 -0.001188 -0.001458 0.005895 0.009047 0.008393
# 2 -0.001188 0.009345 -0.004063 0.001317 -0.003977 -0.005084
# 3 -0.001458 -0.004063 0.011851 0.004339 0.005404 0.005827
# 4 0.005895 0.001317 0.004339 0.032861 0.006662 0.002492
# 5 0.009047 -0.003977 0.005404 0.006662 0.037346 0.022206
# 6 0.008393 -0.005084 0.005827 0.002492 0.022206 0.051466
#
#
# Mechanical properties :
#
#
# Convention : Reuss Voigt Hill
#
# Bulk Modulus (GPa) = 51.02415 75.11195 63.06805
# Shear Modulus (GPa) = 28.63008 40.18005 34.40507
#
# Velocity S-wave (km/s) = 3.41244 4.04259 3.74081
# Velocity P-wave (km/s) = 6.02325 7.23467 6.65658
#
# Compressibility (1/GPa) = 0.01959856
#
# Stress axis : x y z
#
# Youngs Moduli (GPa) = 84.58963 107.01371 84.37929
#
# Poissons Ratio (x) = 0.12718 0.12301
# Poissons Ratio (y) = 0.10053 0.34286
# Poissons Ratio (z) = 0.12331 0.43484
#
# Static dielectric constant tensor:
#      x y z
#    x 2.009790 0.000680 -0.003790 
#    y 0.000680 1.975620 0.045790 
#    z -0.003790 0.045790 1.958680 
# 
# From -- ./inp_files/576995.got.cif
#   From: 2010.05.17/outbox.cif.g08.bks.cpg/sg2_289_cif.got.tgz:576995.got - 2010.06.03 11:33:40.
