data_PCOD9049928
_publ_section_title
;
Structure prediction by ZEFSAII (Michael W. Deem and Ramdas Pophale) SiO2 
 PCOD9049928
Probable space group: P -1
;
_chemical_formula_sum "Si O2"
_cell_formula_units_Z 12
_cell_length_a 13.105905
_cell_length_b 9.175093
_cell_length_c 8.690040
_cell_angle_alpha 136.627428
_cell_angle_beta 97.541357
_cell_angle_gamma 52.027255
_cell_volume 459.314080
_symmetry_space_group_name_H-M "P -1"
_symmetry_group_IT_number 2
_symmetry_cell_setting 'triclinic'
loop_
_space_group_symop_operation_xyz
x,y,z
-x,-y,-z
loop_
_atom_site_type_symbol
_atom_site_label
_atom_site_fract_x
_atom_site_fract_y
_atom_site_fract_z
Si Si1 0.871227 0.882351 0.160387
Si Si2 0.591763 0.488647 0.380868
Si Si3 0.158255 0.716399 0.078873
Si Si4 0.918688 0.483837 0.599879
Si Si5 0.356630 0.745078 0.304858
Si Si6 0.336455 0.199279 0.442116
O O1 0.039334 0.721031 0.117008
O O2 0.771197 0.185732 0.249652
O O3 0.762706 0.026616 0.400044
O O4 0.903292 0.627153 0.867074
O O5 0.500000 0.500000 0.500000
O O6 0.534521 0.462448 0.194344
O O7 0.535334 0.820786 0.594854
O O8 0.298583 0.610094 0.121922
O O9 0.230215 0.510848 0.777927
O O10 0.033440 0.103810 0.337008
O O11 0.748379 0.706264 0.663958
O O12 0.000000 0.500000 0.500000
O O13 0.352698 0.955151 0.352441
#
# Coordination Sequence:
#
# PCOD9049928 Si02
#       6
#     2   2   2   2   2   2
#     4  11  24  45  70  99 137 176 223 270 333 398
#     4  10  24  48  68  94 136 180 223 269 334 403
#     4  12  23  41  73  99 136 172 222 274 337 384
#     4  12  22  41  71 102 133 175 225 273 332 398
#     4  11  26  44  66 104 136 174 222 277 330 393
#     4  12  24  44  72  99 133 176 226 276 330 394
#
# _framework density 26.125913000000001
#
# number of rings (size 3 to 8) (size 9 to 14) (size 15 to 20)
#    0.000    0.667    5.000    2.500    0.000    4.667 
#    3.000    1.667    0.000    0.000    0.000    0.000 
#    0.000    0.000    0.000    0.000    0.000    0.000 
#
# Total GULP energy -67089.909411 kJ/mol
# GULP energy per Si atom -5590.825784 kJ/mol
# Density = 2.606645 g / cm^3
# Si number density = 26.125913 Si / 1000 Ang^3
#
#
#
# Elastic Constant Matrix: (Units=GPa)
#
#
# Indices 1 2 3 4 5 6 
#
# 1 161.0221 62.7506 48.2597 -35.2961 20.2119 -7.2636
# 2 62.7506 140.8354 44.9363 -7.3159 30.7272 8.1360
# 3 48.2597 44.9363 158.0826 -21.0276 18.3610 34.2455
# 4 -35.2961 -7.3159 -21.0276 25.5763 -1.9950 -5.4800
# 5 20.2119 30.7272 18.3610 -1.9950 39.4363 -15.2340
# 6 -7.2636 8.1360 34.2455 -5.4800 -15.2340 46.5095
#
#
#
# Elastic Compliance Matrix: (Units=1/GPa)
#
#
# Indices 1 2 3 4 5 6 
#
# 1 0.012020 -0.004685 -0.001893 0.015190 0.001616 0.006410
# 2 -0.004685 0.011262 -0.000091 -0.005353 -0.009003 -0.006214
# 3 -0.001893 -0.000091 0.010394 0.003175 -0.007507 -0.010018
# 4 0.015190 -0.005353 0.003175 0.063173 0.001550 0.008922
# 5 0.001616 -0.009003 -0.007507 0.001550 0.043537 0.021798
# 6 0.006410 -0.006214 -0.010018 0.008922 0.021798 0.039157
#
#
# Mechanical properties :
#
#
# Convention : Reuss Voigt Hill
#
# Bulk Modulus (GPa) = 49.17351 85.75925 67.46638
# Shear Modulus (GPa) = 25.04240 42.57066 33.80653
#
# Velocity S-wave (km/s) = 3.09937 4.04101 3.60110
# Velocity P-wave (km/s) = 5.62767 7.39389 6.57040
#
# Compressibility (1/GPa) = 0.02033615
#
# Stress axis : x y z
#
# Youngs Moduli (GPa) = 83.19770 88.79222 96.20780
#
# Poissons Ratio (x) = 0.41601 0.18216
# Poissons Ratio (y) = 0.38980 0.00879
# Poissons Ratio (z) = 0.15752 0.00811
#
# Static dielectric constant tensor:
#      x y z
#    x 2.230290 -0.033160 0.058320 
#    y -0.033160 2.199020 0.050790 
#    z 0.058320 0.050790 2.055000 
# 
# From -- ./inp_files/28894.got.cif
#   From: 2010.05.17/outbox.cif.g08.bks.cpg/sg2_15_cif.got.tgz:28894.got - 2010.06.03 11:33:40.
