data_PCOD9049648
_publ_section_title
;
Structure prediction by ZEFSAII (Michael W. Deem and Ramdas Pophale) SiO2 
 PCOD9049648
Probable space group: P -1
;
_chemical_formula_sum "Si O2"
_cell_formula_units_Z 14
_cell_length_a 17.576200
_cell_length_b 9.261458
_cell_length_c 6.057878
_cell_angle_alpha 72.563594
_cell_angle_beta 108.897519
_cell_angle_gamma 140.708528
_cell_volume 588.831424
_symmetry_space_group_name_H-M "P -1"
_symmetry_group_IT_number 2
_symmetry_cell_setting 'triclinic'
loop_
_space_group_symop_operation_xyz
x,y,z
-x,-y,-z
loop_
_atom_site_type_symbol
_atom_site_label
_atom_site_fract_x
_atom_site_fract_y
_atom_site_fract_z
Si Si1 0.561397 0.195454 0.150556
Si Si2 0.905847 0.414984 0.762683
Si Si3 0.125545 0.947050 0.257863
Si Si4 0.709574 0.674450 0.113768
Si Si5 0.920926 0.766409 0.408092
Si Si6 0.353405 0.948491 0.420655
Si Si7 0.630477 0.732027 0.418764
O O1 0.620836 0.434511 0.004212
O O2 0.648305 0.204873 0.364239
O O3 0.467786 0.114917 0.290031
O O4 0.500000 0.000000 0.000000
O O5 0.905676 0.274925 0.654997
O O6 0.927752 0.614247 0.604965
O O7 0.762476 0.210776 0.777229
O O8 0.000000 0.500000 0.000000
O O9 0.997007 0.846293 0.218217
O O10 0.236488 0.146041 0.435280
O O11 0.191597 0.085301 0.030650
O O12 0.791318 0.661757 0.313431
O O13 0.633711 0.681518 0.192203
O O14 0.000000 0.000000 0.500000
O O15 0.356916 0.084101 0.546426
O O16 0.500000 0.500000 0.500000
#
# Coordination Sequence:
#
# PCOD9049648 Si02
#       7
#     2   2   2   2   2   2   2
#     4  11  25  43  73 110 147 189 244 299 377 435
#     4  11  25  47  73 105 144 196 244 298 372 434
#     4  11  27  45  70 108 142 195 246 293 373 437
#     4  12  25  46  75 110 143 194 245 303 373 437
#     4  12  24  47  73 103 147 188 245 307 352 436
#     4  10  24  47  70 107 147 192 242 306 365 442
#     4  11  24  45  73 100 148 190 240 305 360 435
#
# _framework density 23.775904000000001
#
# number of rings (size 3 to 8) (size 9 to 14) (size 15 to 20)
#    0.000    0.857    4.286    1.714    2.000    5.143 
#    2.571    0.000    0.000    0.000    0.000    0.000 
#    0.000    0.000    0.000    0.000    0.000    0.000 
#
# Total GULP energy -78033.463237 kJ/mol
# GULP energy per Si atom -5573.818803 kJ/mol
# Density = 2.372179 g / cm^3
# Si number density = 23.775904 Si / 1000 Ang^3
#
#
#
# Elastic Constant Matrix: (Units=GPa)
#
#
# Indices 1 2 3 4 5 6 
#
# 1 131.1041 52.9160 35.5520 -7.3955 -14.1579 -18.6716
# 2 52.9160 159.4321 38.8262 -6.1748 2.4649 -31.4748
# 3 35.5520 38.8262 53.9332 -4.6671 9.4032 -16.6208
# 4 -7.3955 -6.1748 -4.6671 39.0430 3.1477 13.2749
# 5 -14.1579 2.4649 9.4032 3.1477 47.5738 9.6819
# 6 -18.6716 -31.4748 -16.6208 13.2749 9.6819 21.5833
#
#
#
# Elastic Compliance Matrix: (Units=1/GPa)
#
#
# Indices 1 2 3 4 5 6 
#
# 1 0.010742 -0.002449 -0.006966 0.001347 0.005180 -0.002795
# 2 -0.002449 0.010580 0.000065 -0.004633 -0.004713 0.018325
# 3 -0.006966 0.000065 0.034944 -0.006758 -0.015023 0.031874
# 4 0.001347 -0.004633 -0.006758 0.036031 0.006933 -0.036067
# 5 0.005180 -0.004713 -0.015023 0.006933 0.031941 -0.032552
# 6 -0.002795 0.018325 0.031874 -0.036067 -0.032552 0.131968
#
#
# Mechanical properties :
#
#
# Convention : Reuss Voigt Hill
#
# Bulk Modulus (GPa) = 26.61919 66.56200 46.59059
# Shear Modulus (GPa) = 17.39570 36.11835 26.75703
#
# Velocity S-wave (km/s) = 2.70784 3.90181 3.35831
# Velocity P-wave (km/s) = 4.58222 6.95379 5.88863
#
# Compressibility (1/GPa) = 0.03756689
#
# Stress axis : x y z
#
# Youngs Moduli (GPa) = 93.08992 94.51740 28.61761
#
# Poissons Ratio (x) = 0.23143 0.19936
# Poissons Ratio (y) = 0.22793 -0.00187
# Poissons Ratio (z) = 0.64849 -0.00618
#
# Static dielectric constant tensor:
#      x y z
#    x 2.059730 0.017130 -0.000630 
#    y 0.017130 1.967020 0.014800 
#    z -0.000630 0.014800 1.984540 
# 
# From -- ./inp_files/48317.got.cif
#   From: 2010.05.17/outbox.cif.g08.bks.cpg/sg2_25_cif.got.tgz:48317.got - 2010.06.03 11:33:40.
