data_PCOD9049042
_publ_section_title
;
Structure prediction by ZEFSAII (Michael W. Deem and Ramdas Pophale) SiO2 
 PCOD9049042
Probable space group: P -1
;
_chemical_formula_sum "Si O2"
_cell_formula_units_Z 14
_cell_length_a 11.385423
_cell_length_b 23.289057
_cell_length_c 19.859286
_cell_angle_alpha 20.277615
_cell_angle_beta 156.616938
_cell_angle_gamma 156.316311
_cell_volume 664.340512
_symmetry_space_group_name_H-M "P -1"
_symmetry_group_IT_number 2
_symmetry_cell_setting 'triclinic'
loop_
_space_group_symop_operation_xyz
x,y,z
-x,-y,-z
loop_
_atom_site_type_symbol
_atom_site_label
_atom_site_fract_x
_atom_site_fract_y
_atom_site_fract_z
Si Si1 0.845456 0.639849 0.001465
Si Si2 0.064269 0.772084 0.112300
Si Si3 0.236724 0.940942 0.366958
Si Si4 0.651256 0.454585 0.333998
Si Si5 0.829898 0.594525 0.609212
Si Si6 0.675314 0.905038 0.529718
Si Si7 0.717451 0.745138 0.527091
O O1 0.067193 0.701952 0.115539
O O2 0.000336 0.543995 0.137236
O O3 0.500000 0.500000 0.000000
O O4 0.809253 0.809898 0.761929
O O5 0.404536 0.796010 0.297838
O O6 0.752005 0.619810 0.152710
O O7 0.990582 0.949767 0.873219
O O8 0.413212 0.961610 0.366098
O O9 0.041740 0.735269 0.510074
O O10 0.500000 0.000000 0.500000
O O11 0.505796 0.259565 0.435324
O O12 0.403668 0.424262 0.298680
O O13 0.000000 0.500000 0.500000
O O14 0.500000 0.500000 0.500000
O O15 0.801931 0.689866 0.558955
O O16 0.977417 0.085900 0.469348
#
# Coordination Sequence:
#
# PCOD9049042 Si02
#       7
#     2   2   2   2   2   2   2
#     4  12  21  38  69  96 126 170 210 264 328 376
#     4  11  22  43  66  96 132 172 212 262 323 384
#     4  12  23  40  66 100 132 164 210 272 327 378
#     4  10  24  46  67  88 129 179 218 258 318 386
#     4  12  24  39  65 100 133 165 213 266 323 379
#     4  12  24  42  69  94 131 166 220 268 321 379
#     4  11  25  43  64  97 134 169 216 265 315 385
#
# _framework density 21.073530999999999
#
# number of rings (size 3 to 8) (size 9 to 14) (size 15 to 20)
#    0.000    0.571    7.143    0.429    4.000    1.143 
#    0.000    7.143    0.000    0.000    0.000    0.000 
#    0.000    0.000    0.000    0.000    0.000    0.000 
#
# Total GULP energy -78172.698641 kJ/mol
# GULP energy per Si atom -5583.764189 kJ/mol
# Density = 2.102557 g / cm^3
# Si number density = 21.073531 Si / 1000 Ang^3
#
#
#
# Elastic Constant Matrix: (Units=GPa)
#
#
# Indices 1 2 3 4 5 6 
#
# 1 62.9332 7.7594 6.7953 4.1663 4.5943 5.6187
# 2 7.7594 98.3452 -21.9844 11.9720 1.7243 4.6890
# 3 6.7953 -21.9844 49.3388 -7.3447 23.2118 -3.5207
# 4 4.1663 11.9720 -7.3447 25.3347 -0.2277 -5.4176
# 5 4.5943 1.7243 23.2118 -0.2277 34.7018 1.2506
# 6 5.6187 4.6890 -3.5207 -5.4176 1.2506 35.7077
#
#
#
# Elastic Compliance Matrix: (Units=1/GPa)
#
#
# Indices 1 2 3 4 5 6 
#
# 1 0.017087 -0.001674 -0.004338 -0.004025 0.000824 -0.003536
# 2 -0.001674 0.012670 0.007949 -0.003667 -0.005714 -0.000973
# 3 -0.004338 0.007949 0.038134 0.008993 -0.025473 0.005655
# 4 -0.004025 -0.003667 0.008993 0.046399 -0.005328 0.009228
# 5 0.000824 -0.005714 -0.025473 -0.005328 0.046151 -0.004316
# 6 -0.003536 -0.000973 0.005655 0.009228 -0.004316 0.030798
#
#
# Mechanical properties :
#
#
# Convention : Reuss Voigt Hill
#
# Bulk Modulus (GPa) = 13.93445 21.75087 17.84266
# Shear Modulus (GPa) = 23.66464 33.68531 28.67498
#
# Velocity S-wave (km/s) = 3.35469 4.00242 3.69278
# Velocity P-wave (km/s) = 4.65101 5.63054 5.16405
#
# Compressibility (1/GPa) = 0.07176459
#
# Stress axis : x y z
#
# Youngs Moduli (GPa) = 58.52502 78.92495 26.22366
#
# Poissons Ratio (x) = 0.13210 0.11377
# Poissons Ratio (y) = 0.09796 -0.20845
# Poissons Ratio (z) = 0.25390 -0.62738
#
# Static dielectric constant tensor:
#      x y z
#    x 1.791830 -0.003690 -0.011190 
#    y -0.003690 1.730770 0.010800 
#    z -0.011190 0.010800 1.743920 
# 
# From -- ./inp_files/169345.got.cif
#   From: 2010.05.17/outbox.cif.g08.bks.cpg/sg2_85_cif.got.tgz:169345.got - 2010.06.03 11:33:40.
