data_PCOD9049374
_publ_section_title
;
Structure prediction by ZEFSAII (Michael W. Deem and Ramdas Pophale) SiO2 
 PCOD9049374
Probable space group: P -1
;
_chemical_formula_sum "Si O2"
_cell_formula_units_Z 15
_cell_length_a 12.366460
_cell_length_b 6.818842
_cell_length_c 14.223081
_cell_angle_alpha 71.578465
_cell_angle_beta 42.876705
_cell_angle_gamma 53.329114
_cell_volume 638.087295
_symmetry_space_group_name_H-M "P -1"
_symmetry_group_IT_number 2
_symmetry_cell_setting 'triclinic'
loop_
_space_group_symop_operation_xyz
x,y,z
-x,-y,-z
loop_
_atom_site_type_symbol
_atom_site_label
_atom_site_fract_x
_atom_site_fract_y
_atom_site_fract_z
Si Si1 0.333604 0.280129 0.292709
Si Si2 0.287690 0.207836 0.929823
Si Si3 0.184490 0.365694 0.684698
Si Si4 0.500000 0.500000 0.500000
Si Si5 0.150690 0.833221 0.346623
Si Si6 0.193214 0.054579 0.555682
Si Si7 0.988468 0.247076 0.994387
Si Si8 0.233447 0.199461 0.176618
O O1 0.285819 0.537798 0.326691
O O2 0.205387 0.207035 0.439090
O O3 0.285565 0.320421 0.206727
O O4 0.546136 0.025482 0.199690
O O5 0.097325 0.212965 0.027065
O O6 0.327531 0.166754 0.020963
O O7 0.222383 0.491101 0.905905
O O8 0.350955 0.404906 0.596828
O O9 0.237670 0.154138 0.605234
O O10 0.106125 0.290933 0.834724
O O11 0.995971 0.615158 0.723302
O O12 0.345654 0.758576 0.501657
O O13 0.020685 0.878843 0.330582
O O14 0.274768 0.943180 0.229826
O O15 0.000000 0.000000 0.500000
O O16 0.000000 0.000000 0.000000
#
# Coordination Sequence:
#
# PCOD9049374 Si02
#       8
#     2   2   2   1   2   2   2   2
#     4  12  25  43  69 103 146 180 243 297 349 439
#     4  10  25  44  68 107 139 189 243 293 354 421
#     4  11  24  44  68 104 139 188 240 294 362 425
#     4  12  26  42  68 100 142 182 240 294 346 432
#     4  12  24  43  70 101 140 192 233 293 365 426
#     4  12  25  42  68 100 140 182 238 292 362 423
#     4  10  24  46  73 100 147 194 238 297 356 423
#     4  11  23  43  70  98 140 188 232 294 361 424
#
# _framework density 23.507757000000002
#
# number of rings (size 3 to 8) (size 9 to 14) (size 15 to 20)
#    0.000    0.800    4.000    2.800    1.867    3.733 
#    0.000    0.000    0.000    0.000    0.000    0.000 
#    0.000    0.000    0.000    0.000    0.000    0.000 
#
# Total GULP energy -83624.305816 kJ/mol
# GULP energy per Si atom -5574.953721 kJ/mol
# Density = 2.345425 g / cm^3
# Si number density = 23.507757 Si / 1000 Ang^3
#
#
#
# Elastic Constant Matrix: (Units=GPa)
#
#
# Indices 1 2 3 4 5 6 
#
# 1 79.7566 27.8646 23.6090 5.1451 0.8805 7.7456
# 2 27.8646 195.0763 40.9700 19.0132 -4.9803 13.7067
# 3 23.6090 40.9700 68.3978 11.3955 4.2553 12.4607
# 4 5.1451 19.0132 11.3955 33.0479 -2.9213 -5.9282
# 5 0.8805 -4.9803 4.2553 -2.9213 35.9832 2.3664
# 6 7.7456 13.7067 12.4607 -5.9282 2.3664 37.0538
#
#
#
# Elastic Compliance Matrix: (Units=1/GPa)
#
#
# Indices 1 2 3 4 5 6 
#
# 1 0.014241 -0.001062 -0.003959 -0.000478 0.000021 -0.001331
# 2 -0.001062 0.006254 -0.002688 -0.002712 0.001100 -0.001692
# 3 -0.003959 -0.002688 0.019768 -0.005898 -0.002724 -0.005596
# 4 -0.000478 -0.002712 -0.005898 0.035711 0.002666 0.008630
# 5 0.000021 0.001100 -0.002724 0.002666 0.028540 -0.000892
# 6 -0.001331 -0.001692 -0.005596 0.008630 -0.000892 0.031211
#
#
# Mechanical properties :
#
#
# Convention : Reuss Voigt Hill
#
# Bulk Modulus (GPa) = 40.24838 58.67977 49.46408
# Shear Modulus (GPa) = 31.36294 37.93613 34.64953
#
# Velocity S-wave (km/s) = 3.65657 4.02153 3.84339
# Velocity P-wave (km/s) = 5.91488 6.82493 6.38614
#
# Compressibility (1/GPa) = 0.02484572
#
# Stress axis : x y z
#
# Youngs Moduli (GPa) = 70.22059 159.90608 50.58591
#
# Poissons Ratio (x) = 0.16985 0.20025
# Poissons Ratio (y) = 0.07459 0.13596
# Poissons Ratio (z) = 0.27798 0.42979
#
# Static dielectric constant tensor:
#      x y z
#    x 2.851450 -1.061110 -0.043510 
#    y -1.061110 3.024910 0.124710 
#    z -0.043510 0.124710 1.962470 
# 
# From -- ./inp_files/76251.got.cif
#   From: 2010.05.17/outbox.cif.g08.bks.cpg/sg2_39_cif.got.tgz:76251.got - 2010.06.03 11:33:40.
