data_PCOD9049554
_publ_section_title
;
Structure prediction by ZEFSAII (Michael W. Deem and Ramdas Pophale) SiO2 
 PCOD9049554
Probable space group: P -1
;
_chemical_formula_sum "Si O2"
_cell_formula_units_Z 16
_cell_length_a 14.919091
_cell_length_b 12.358149
_cell_length_c 11.679871
_cell_angle_alpha 95.622931
_cell_angle_beta 117.685995
_cell_angle_gamma 31.188703
_cell_volume 747.805321
_symmetry_space_group_name_H-M "P -1"
_symmetry_group_IT_number 2
_symmetry_cell_setting 'triclinic'
loop_
_space_group_symop_operation_xyz
x,y,z
-x,-y,-z
loop_
_atom_site_type_symbol
_atom_site_label
_atom_site_fract_x
_atom_site_fract_y
_atom_site_fract_z
Si Si1 0.880016 0.238248 0.953950
Si Si2 0.711240 0.500596 0.483591
Si Si3 0.913800 0.845881 0.139703
Si Si4 0.410162 0.462888 0.957282
Si Si5 0.871583 0.597269 0.808946
Si Si6 0.012884 0.185099 0.421535
Si Si7 0.588094 0.390071 0.412088
Si Si8 0.653139 0.983080 0.550627
O O1 0.796457 0.347390 0.043910
O O2 0.609150 0.493197 0.756053
O O3 0.054448 0.146139 0.972293
O O4 0.000000 0.000000 0.000000
O O5 0.940096 0.305569 0.513719
O O6 0.590916 0.506458 0.370797
O O7 0.505383 0.794881 0.422658
O O8 0.850291 0.336339 0.668642
O O9 0.957706 0.674225 0.156019
O O10 0.663572 0.140389 0.081454
O O11 0.500000 0.500000 0.000000
O O12 0.260206 0.563399 0.771947
O O13 0.569520 0.853947 0.644575
O O14 0.849847 0.711967 0.710179
O O15 0.000000 0.500000 0.000000
O O16 0.144419 0.936581 0.473778
O O17 0.192975 0.085291 0.444023
O O18 0.500000 0.500000 0.500000
#
# Coordination Sequence:
#
# PCOD9049554 Si02
#       8
#     2   2   2   2   2   2   2   2
#     4  12  24  39  65  94 136 177 219 273 324 407
#     4  11  23  41  68  93 136 174 218 279 334 402
#     4  11  24  44  64  99 130 174 224 276 343 395
#     4  12  25  40  63 101 141 175 218 266 329 410
#     4  10  24  46  78  95 132 179 228 296 346 399
#     4  12  25  41  67  98 137 181 219 275 336 404
#     4  12  20  39  63  95 132 179 218 263 332 403
#     4  10  24  48  69 102 130 174 236 282 346 405
#
# _framework density 21.395942999999999
#
# number of rings (size 3 to 8) (size 9 to 14) (size 15 to 20)
#    0.000    0.750    3.750    4.125    3.500    0.000 
#    0.000    7.500    0.000    0.000    0.000    0.000 
#    0.000    0.000    0.000    0.000    0.000    0.000 
#
# Total GULP energy -89275.453765 kJ/mol
# GULP energy per Si atom -5579.715860 kJ/mol
# Density = 2.134725 g / cm^3
# Si number density = 21.395943 Si / 1000 Ang^3
#
#
#
# Elastic Constant Matrix: (Units=GPa)
#
#
# Indices 1 2 3 4 5 6 
#
# 1 86.2838 67.2905 16.8484 4.6761 -16.4334 -0.1570
# 2 67.2905 130.3136 3.4387 -12.5801 -25.0629 -0.9314
# 3 16.8484 3.4387 75.4586 3.5975 -8.9686 14.9498
# 4 4.6761 -12.5801 3.5975 37.0877 5.4230 -14.7781
# 5 -16.4334 -25.0629 -8.9686 5.4230 31.3998 4.2138
# 6 -0.1570 -0.9314 14.9498 -14.7781 4.2138 30.8201
#
#
#
# Elastic Compliance Matrix: (Units=1/GPa)
#
#
# Indices 1 2 3 4 5 6 
#
# 1 0.022322 -0.011609 -0.003031 -0.008218 0.003395 -0.003172
# 2 -0.011609 0.015270 0.001845 0.006439 0.005275 0.001874
# 3 -0.003031 0.001845 0.017696 -0.007045 0.007902 -0.013002
# 4 -0.008218 0.006439 -0.007045 0.042904 -0.012044 0.025789
# 5 0.003395 0.005275 0.007902 -0.012044 0.044250 -0.015482
# 6 -0.003172 0.001874 -0.013002 0.025789 -0.015482 0.053276
#
#
# Mechanical properties :
#
#
# Convention : Reuss Voigt Hill
#
# Bulk Modulus (GPa) = 33.67442 51.91236 42.79339
# Shear Modulus (GPa) = 21.62567 33.49340 27.55954
#
# Velocity S-wave (km/s) = 3.18266 3.96082 3.59287
# Velocity P-wave (km/s) = 5.41097 6.72553 6.10375
#
# Compressibility (1/GPa) = 0.02969613
#
# Stress axis : x y z
#
# Youngs Moduli (GPa) = 44.79939 65.48964 56.50988
#
# Poissons Ratio (x) = 0.76030 0.17130
# Poissons Ratio (y) = 0.52010 -0.10427
# Poissons Ratio (z) = 0.13580 -0.12084
#
# Static dielectric constant tensor:
#      x y z
#    x 1.874640 -0.016950 -0.112100 
#    y -0.016950 1.636470 0.272860 
#    z -0.112100 0.272860 1.620150 
# 
# From -- ./inp_files/255812.got.cif
#   From: 2010.05.17/outbox.cif.g08.bks.cpg/sg2_128_cif.got.tgz:255812.got - 2010.06.03 11:33:40.
