data_PCOD9049475
_publ_section_title
;
Structure prediction by ZEFSAII (Michael W. Deem and Ramdas Pophale) SiO2 
 PCOD9049475
Probable space group: P -1
;
_chemical_formula_sum "Si O2"
_cell_formula_units_Z 12
_cell_length_a 13.658405
_cell_length_b 4.835900
_cell_length_c 16.118830
_cell_angle_alpha 85.653079
_cell_angle_beta 27.283086
_cell_angle_gamma 96.790014
_cell_volume 444.699716
_symmetry_space_group_name_H-M "P -1"
_symmetry_group_IT_number 2
_symmetry_cell_setting 'triclinic'
loop_
_space_group_symop_operation_xyz
x,y,z
-x,-y,-z
loop_
_atom_site_type_symbol
_atom_site_label
_atom_site_fract_x
_atom_site_fract_y
_atom_site_fract_z
Si Si1 0.881180 0.625148 0.911117
Si Si2 0.328652 0.163874 0.787136
Si Si3 0.419787 0.009362 0.267483
Si Si4 0.764979 0.393061 0.733403
Si Si5 0.075148 0.045682 0.301294
Si Si6 0.700484 0.305302 0.305112
O O1 0.934346 0.821652 0.783774
O O2 0.102173 0.564135 0.776868
O O3 0.833651 0.812975 0.017543
O O4 0.644620 0.323687 0.088404
O O5 0.374678 0.442081 0.683493
O O6 0.554090 0.172687 0.667143
O O7 0.220166 0.842903 0.829465
O O8 0.180532 0.054758 0.461290
O O9 0.416032 0.818610 0.192054
O O10 0.748574 0.684791 0.778884
O O11 0.000000 0.500000 0.500000
O O12 0.825881 0.210287 0.764658
O O13 0.500000 0.000000 0.500000
#
# Coordination Sequence:
#
# PCOD9049475 Si02
#       6
#     2   2   2   2   2   2
#     4  12  29  45  76 108 144 188 240 295 357 424
#     4  12  27  48  72 105 149 181 237 300 354 421
#     4  11  26  47  75 105 146 190 239 295 355 416
#     4  10  24  46  75 103 146 192 237 294 353 418
#     4  11  27  47  73 106 146 190 241 288 358 425
#     4  12  28  50  75 106 142 192 237 293 360 428
#
# _framework density 26.984504000000001
#
# number of rings (size 3 to 8) (size 9 to 14) (size 15 to 20)
#    0.000    0.667    1.667    4.500   11.667    1.333 
#    0.000    0.000    0.000    0.000    0.000    0.000 
#    0.000    0.000    0.000    0.000    0.000    0.000 
#
# Total GULP energy -67364.726551 kJ/mol
# GULP energy per Si atom -5613.727213 kJ/mol
# Density = 2.692309 g / cm^3
# Si number density = 26.984504 Si / 1000 Ang^3
#
#
#
# Elastic Constant Matrix: (Units=GPa)
#
#
# Indices 1 2 3 4 5 6 
#
# 1 167.7532 22.9269 46.3623 -24.5358 11.6508 -18.1364
# 2 22.9269 94.8701 1.6494 -22.0120 1.6553 -17.1998
# 3 46.3623 1.6494 132.8927 -19.0824 8.4213 -6.4040
# 4 -24.5358 -22.0120 -19.0824 34.3194 -0.6305 11.5045
# 5 11.6508 1.6553 8.4213 -0.6305 60.6326 -10.6393
# 6 -18.1364 -17.1998 -6.4040 11.5045 -10.6393 41.7451
#
#
#
# Elastic Compliance Matrix: (Units=1/GPa)
#
#
# Indices 1 2 3 4 5 6 
#
# 1 0.007276 -0.000710 -0.001955 0.003144 -0.000812 0.001496
# 2 -0.000710 0.013009 0.001300 0.007473 0.000250 0.003255
# 3 -0.001955 0.001300 0.008874 0.004497 -0.000920 -0.000426
# 4 0.003144 0.007473 0.004497 0.040880 -0.002181 -0.006687
# 5 -0.000812 0.000250 -0.000920 -0.002181 0.017570 0.004688
# 6 0.001496 0.003255 -0.000426 -0.006687 0.004688 0.028918
#
#
# Mechanical properties :
#
#
# Convention : Reuss Voigt Hill
#
# Bulk Modulus (GPa) = 37.83384 59.71035 48.77210
# Shear Modulus (GPa) = 39.04204 48.97792 44.00998
#
# Velocity S-wave (km/s) = 3.80785 4.26495 4.04287
# Velocity P-wave (km/s) = 5.77789 6.81386 6.31715
#
# Compressibility (1/GPa) = 0.02643136
#
# Stress axis : x y z
#
# Youngs Moduli (GPa) = 137.43331 76.86772 112.68693
#
# Poissons Ratio (x) = 0.05456 0.22027
# Poissons Ratio (y) = 0.09754 -0.14652
# Poissons Ratio (z) = 0.26864 -0.09995
#
# Static dielectric constant tensor:
#      x y z
#    x 2.145270 -0.017570 -0.030910 
#    y -0.017570 2.076950 0.023670 
#    z -0.030910 0.023670 2.157550 
# 
# From -- ./inp_files/509675.got.cif
#   From: 2010.05.17/outbox.cif.g08.bks.cpg/sg2_255_cif.got.tgz:509675.got - 2010.06.03 11:33:40.
