data_PCOD9049368
_publ_section_title
;
Structure prediction by ZEFSAII (Michael W. Deem and Ramdas Pophale) SiO2 
 PCOD9049368
Probable space group: P -1
;
_chemical_formula_sum "Si O2"
_cell_formula_units_Z 11
_cell_length_a 11.962487
_cell_length_b 10.829936
_cell_length_c 12.734950
_cell_angle_alpha 135.811393
_cell_angle_beta 156.979997
_cell_angle_gamma 46.689442
_cell_volume 447.652676
_symmetry_space_group_name_H-M "P -1"
_symmetry_group_IT_number 2
_symmetry_cell_setting 'triclinic'
loop_
_space_group_symop_operation_xyz
x,y,z
-x,-y,-z
loop_
_atom_site_type_symbol
_atom_site_label
_atom_site_fract_x
_atom_site_fract_y
_atom_site_fract_z
Si Si1 0.500000 0.000000 0.500000
Si Si2 0.896778 0.854134 0.578544
Si Si3 0.518995 0.367613 0.031644
Si Si4 0.589167 0.739924 0.629075
Si Si5 0.822704 0.497360 0.981029
Si Si6 0.917951 0.132006 0.606732
O O1 0.228781 0.111201 0.393081
O O2 0.439956 0.119963 0.408811
O O3 0.649861 0.795075 0.252625
O O4 0.011255 0.025450 0.728523
O O5 0.155004 0.700148 0.704751
O O6 0.358798 0.468731 0.049867
O O7 0.500000 0.500000 0.000000
O O8 0.421926 0.820152 0.636501
O O9 0.911242 0.651528 0.864975
O O10 0.396095 0.579590 0.334988
O O11 0.938038 0.685502 0.169674
O O12 0.000000 0.000000 0.500000
#
# Coordination Sequence:
#
# PCOD9049368 Si02
#       6
#     1   2   2   2   2   2
#     4  10  24  46  72  98 144 176 232 282 358 402
#     4  11  25  43  67 102 131 185 224 281 340 414
#     4  12  24  42  69  99 138 174 232 281 346 400
#     4  11  26  46  72 103 137 184 231 288 345 415
#     4  12  25  46  70 103 141 181 233 285 346 409
#     4  11  25  47  71 102 143 187 232 286 344 414
#
# _framework density 24.572621999999999
#
# number of rings (size 3 to 8) (size 9 to 14) (size 15 to 20)
#    0.000    0.727    1.818    4.909    0.000    9.455 
#    0.000    0.000    0.000    0.000    0.000    0.000 
#    0.000    0.000    0.000    0.000    0.000    0.000 
#
# Total GULP energy -61397.237739 kJ/mol
# GULP energy per Si atom -5581.567067 kJ/mol
# Density = 2.451669 g / cm^3
# Si number density = 24.572622 Si / 1000 Ang^3
#
#
#
# Elastic Constant Matrix: (Units=GPa)
#
#
# Indices 1 2 3 4 5 6 
#
# 1 181.0486 56.5060 27.1312 -18.4527 43.6090 -53.4951
# 2 56.5060 123.9653 22.2499 -9.9309 13.9978 -23.1609
# 3 27.1312 22.2499 79.5267 -6.2552 0.9605 -32.0455
# 4 -18.4527 -9.9309 -6.2552 45.3701 -13.2716 11.2452
# 5 43.6090 13.9978 0.9605 -13.2716 28.9776 -15.1352
# 6 -53.4951 -23.1609 -32.0455 11.2452 -15.1352 54.1411
#
#
#
# Elastic Compliance Matrix: (Units=1/GPa)
#
#
# Indices 1 2 3 4 5 6 
#
# 1 0.011269 -0.002487 -0.000520 -0.001440 -0.013050 0.006414
# 2 -0.002487 0.009670 -0.001594 0.000670 -0.000301 0.000513
# 3 -0.000520 -0.001594 0.017656 0.001279 0.007317 0.011035
# 4 -0.001440 0.000670 0.001279 0.026006 0.012520 -0.002280
# 5 -0.013050 -0.000301 0.007317 0.012520 0.063101 0.006347
# 6 0.006414 0.000513 0.011035 -0.002280 0.006347 0.033806
#
#
# Mechanical properties :
#
#
# Convention : Reuss Voigt Hill
#
# Bulk Modulus (GPa) = 34.02064 66.25720 50.13892
# Shear Modulus (GPa) = 27.69951 44.27466 35.98709
#
# Velocity S-wave (km/s) = 3.36110 4.24935 3.83106
# Velocity P-wave (km/s) = 5.37937 7.14831 6.32598
#
# Compressibility (1/GPa) = 0.02939392
#
# Stress axis : x y z
#
# Youngs Moduli (GPa) = 88.73681 103.41354 56.63647
#
# Poissons Ratio (x) = 0.25717 0.02944
# Poissons Ratio (y) = 0.22068 0.09029
# Poissons Ratio (z) = 0.04613 0.16485
#
# Static dielectric constant tensor:
#      x y z
#    x 1.940490 0.014120 -0.008040 
#    y 0.014120 2.061210 0.117600 
#    z -0.008040 0.117600 2.067410 
# 
# From -- ./inp_files/21704.got.cif
#   From: 2010.05.17/outbox.cif.g08.bks.cpg/sg2_11_cif.got.tgz:21704.got - 2010.06.03 11:33:40.
