data_PCOD9049877
_publ_section_title
;
Structure prediction by ZEFSAII (Michael W. Deem and Ramdas Pophale) SiO2 
 PCOD9049877
Probable space group: P -1
;
_chemical_formula_sum "Si O2"
_cell_formula_units_Z 16
_cell_length_a 8.790487
_cell_length_b 22.594391
_cell_length_c 5.990347
_cell_angle_alpha 123.820017
_cell_angle_beta 118.626226
_cell_angle_gamma 40.726380
_cell_volume 641.302092
_symmetry_space_group_name_H-M "P -1"
_symmetry_group_IT_number 2
_symmetry_cell_setting 'triclinic'
loop_
_space_group_symop_operation_xyz
x,y,z
-x,-y,-z
loop_
_atom_site_type_symbol
_atom_site_label
_atom_site_fract_x
_atom_site_fract_y
_atom_site_fract_z
Si Si1 0.173257 0.461807 0.834311
Si Si2 0.606868 0.409626 0.228802
Si Si3 0.329841 0.889501 0.372691
Si Si4 0.984716 0.646397 0.895272
Si Si5 0.206231 0.781909 0.802800
Si Si6 0.171221 0.195280 0.639451
Si Si7 0.366165 0.033311 0.728497
Si Si8 0.525210 0.744453 0.576794
O O1 0.019174 0.553431 0.755876
O O2 0.298239 0.352232 0.647557
O O3 0.396114 0.451991 0.000509
O O4 0.000000 0.500000 0.000000
O O5 0.500000 0.500000 0.500000
O O6 0.841369 0.374960 0.213604
O O7 0.669301 0.314421 0.170374
O O8 0.592203 0.838419 0.368440
O O9 0.224246 0.997836 0.547717
O O10 0.369851 0.842180 0.538052
O O11 0.223014 0.856639 0.075654
O O12 0.710322 0.733450 0.837854
O O13 0.014393 0.688797 0.219801
O O14 0.354372 0.743563 0.598727
O O15 0.945196 0.829122 0.662300
O O16 0.200731 0.146346 0.796212
O O17 0.500000 0.000000 0.500000
O O18 0.500000 0.000000 0.000000
#
# Coordination Sequence:
#
# PCOD9049877 Si02
#       8
#     2   2   2   2   2   2   2   2
#     4  12  23  39  62  98 133 183 240 296 362 433
#     4  12  24  42  61  96 142 182 244 296 358 437
#     4  11  24  47  73 101 145 185 240 299 367 440
#     4  12  23  40  68  95 137 189 234 295 368 428
#     4  12  25  44  70 104 140 187 241 297 366 434
#     4  11  24  46  72 105 140 187 244 294 370 439
#     4  10  24  47  78 111 148 194 245 306 374 445
#     4  12  23  43  67  97 141 179 237 301 359 436
#
# _framework density 24.949238000000001
#
# number of rings (size 3 to 8) (size 9 to 14) (size 15 to 20)
#    0.000    0.500    2.500    6.750    1.750    1.500 
#    0.000    0.625    0.000    0.000    0.000    0.000 
#    0.000    0.000    0.000    0.000    0.000    0.000 
#
# Total GULP energy -89341.284718 kJ/mol
# GULP energy per Si atom -5583.830295 kJ/mol
# Density = 2.489245 g / cm^3
# Si number density = 24.949238 Si / 1000 Ang^3
#
#
#
# Elastic Constant Matrix: (Units=GPa)
#
#
# Indices 1 2 3 4 5 6 
#
# 1 115.5359 18.6729 23.8577 7.5564 -3.4288 8.7657
# 2 18.6729 100.4139 21.5792 10.2362 4.2708 27.6011
# 3 23.8577 21.5792 84.8023 9.0914 32.0403 5.3373
# 4 7.5564 10.2362 9.0914 44.8776 5.3321 10.1294
# 5 -3.4288 4.2708 32.0403 5.3321 43.7725 2.0788
# 6 8.7657 27.6011 5.3373 10.1294 2.0788 47.8487
#
#
#
# Elastic Compliance Matrix: (Units=1/GPa)
#
#
# Indices 1 2 3 4 5 6 
#
# 1 0.009822 -0.000832 -0.003838 -0.000947 0.003816 -0.000857
# 2 -0.000832 0.012610 -0.002954 -0.000782 0.001279 -0.006682
# 3 -0.003838 -0.002954 0.018862 -0.001126 -0.013736 0.001138
# 4 -0.000947 -0.000782 -0.001126 0.024035 -0.001899 -0.004256
# 5 0.003816 0.001279 -0.013736 -0.001899 0.033350 -0.000951
# 6 -0.000857 -0.006682 0.001138 -0.004256 -0.000951 0.025726
#
#
# Mechanical properties :
#
#
# Convention : Reuss Voigt Hill
#
# Bulk Modulus (GPa) = 38.39108 47.66354 43.02731
# Shear Modulus (GPa) = 33.70709 43.07592 38.39151
#
# Velocity S-wave (km/s) = 3.67962 4.15968 3.92699
# Velocity P-wave (km/s) = 5.78566 6.49740 6.15183
#
# Compressibility (1/GPa) = 0.02604772
#
# Stress axis : x y z
#
# Youngs Moduli (GPa) = 101.80718 79.29999 53.01552
#
# Poissons Ratio (x) = 0.06599 0.20347
# Poissons Ratio (y) = 0.08471 0.15659
# Poissons Ratio (z) = 0.39073 0.23423
#
# Static dielectric constant tensor:
#      x y z
#    x 1.911350 -0.015550 0.012990 
#    y -0.015550 2.105900 0.010010 
#    z 0.012990 0.010010 2.135030 
# 
# From -- ./inp_files/53856.got.cif
#   From: 2010.05.17/outbox.cif.g08.bks.cpg/sg2_27_cif.got.tgz:53856.got - 2010.06.03 11:33:40.
