data_PCOD9049982
_publ_section_title
;
Structure prediction by ZEFSAII (Michael W. Deem and Ramdas Pophale) SiO2 
 PCOD9049982
Probable space group: P -1
;
_chemical_formula_sum "Si O2"
_cell_formula_units_Z 10
_cell_length_a 8.705329
_cell_length_b 13.716964
_cell_length_c 9.641607
_cell_angle_alpha 29.169016
_cell_angle_beta 41.194143
_cell_angle_gamma 51.892794
_cell_volume 366.701005
_symmetry_space_group_name_H-M "P -1"
_symmetry_group_IT_number 2
_symmetry_cell_setting 'triclinic'
loop_
_space_group_symop_operation_xyz
x,y,z
-x,-y,-z
loop_
_atom_site_type_symbol
_atom_site_label
_atom_site_fract_x
_atom_site_fract_y
_atom_site_fract_z
Si Si1 0.544948 0.786651 0.873448
Si Si2 0.766470 0.891996 0.215536
Si Si3 0.753529 0.409491 0.215245
Si Si4 0.928173 0.046872 0.645227
Si Si5 0.218754 0.553485 0.179602
O O1 0.821173 0.859665 0.573439
O O2 0.425584 0.952506 0.832562
O O3 0.562732 0.558179 0.197873
O O4 0.374160 0.739819 0.916580
O O5 0.689869 0.667189 0.601546
O O6 0.000000 0.000000 0.000000
O O7 0.829869 0.876027 0.030317
O O8 0.730259 0.194835 0.572172
O O9 0.802906 0.403504 0.022946
O O10 0.000000 0.500000 0.000000
O O11 0.000000 0.000000 0.500000
O O12 0.000000 0.500000 0.500000
#
# Coordination Sequence:
#
# PCOD9049982 Si02
#       5
#     2   2   2   2   2
#     4  11  27  47  79 104 151 200 246 299 382 436
#     4  12  26  48  76 111 148 191 256 303 362 450
#     4  10  24  48  71 106 152 191 241 305 371 433
#     4  11  27  51  74 110 152 192 247 315 369 441
#     4  12  25  48  77 108 149 198 249 305 363 450
#
# _framework density 27.270175999999999
#
# number of rings (size 3 to 8) (size 9 to 14) (size 15 to 20)
#    0.000    0.800    2.000    4.200    2.800    4.800 
#    3.600    0.000    0.000    0.000    0.000    0.000 
#    0.000    0.000    0.000    0.000    0.000    0.000 
#
# Total GULP energy -55932.662301 kJ/mol
# GULP energy per Si atom -5593.266230 kJ/mol
# Density = 2.720811 g / cm^3
# Si number density = 27.270176 Si / 1000 Ang^3
#
#
#
# Elastic Constant Matrix: (Units=GPa)
#
#
# Indices 1 2 3 4 5 6 
#
# 1 177.3730 28.2547 46.6052 8.2883 0.1188 21.1092
# 2 28.2547 140.3979 20.1129 -10.5514 17.7240 -19.2924
# 3 46.6052 20.1129 138.2206 -7.3091 41.1856 10.9425
# 4 8.2883 -10.5514 -7.3091 46.5030 -4.0822 10.0903
# 5 0.1188 17.7240 41.1856 -4.0822 49.7643 -5.8971
# 6 21.1092 -19.2924 10.9425 10.0903 -5.8971 55.7757
#
#
#
# Elastic Compliance Matrix: (Units=1/GPa)
#
#
# Indices 1 2 3 4 5 6 
#
# 1 0.006953 -0.001724 -0.002735 -0.001369 0.002491 -0.002180
# 2 -0.001724 0.008303 -0.000078 0.001305 -0.002420 0.003048
# 3 -0.002735 -0.000078 0.011293 0.001971 -0.009454 -0.002563
# 4 -0.001369 0.001305 0.001971 0.023093 -0.000633 -0.003662
# 5 0.002491 -0.002420 -0.009454 -0.000633 0.029110 0.003267
# 6 -0.002180 0.003048 -0.002563 -0.003662 0.003267 0.021319
#
#
# Mechanical properties :
#
#
# Convention : Reuss Voigt Hill
#
# Bulk Modulus (GPa) = 57.22936 71.77077 64.50006
# Shear Modulus (GPa) = 43.48937 54.47652 48.98294
#
# Velocity S-wave (km/s) = 3.99778 4.47437 4.24277
# Velocity P-wave (km/s) = 6.50701 7.28484 6.90688
#
# Compressibility (1/GPa) = 0.01747355
#
# Stress axis : x y z
#
# Youngs Moduli (GPa) = 143.82230 120.43473 88.55405
#
# Poissons Ratio (x) = 0.20767 0.24224
# Poissons Ratio (y) = 0.24799 0.00690
# Poissons Ratio (z) = 0.39342 0.00938
#
# Static dielectric constant tensor:
#      x y z
#    x 2.203320 -0.034210 0.004440 
#    y -0.034210 2.228200 -0.054420 
#    z 0.004440 -0.054420 2.150770 
# 
# From -- ./inp_files/191188.got.cif
#   From: 2010.05.17/outbox.cif.g08.bks.cpg/sg2_96_cif.got.tgz:191188.got - 2010.06.03 11:33:40.
