data_PCOD9049057
_publ_section_title
;
Structure prediction by ZEFSAII (Michael W. Deem and Ramdas Pophale) SiO2 
 PCOD9049057
Probable space group: P -1
;
_chemical_formula_sum "Si O2"
_cell_formula_units_Z 14
_cell_length_a 14.665655
_cell_length_b 14.627409
_cell_length_c 6.689317
_cell_angle_alpha 70.493176
_cell_angle_beta 62.883833
_cell_angle_gamma 29.789640
_cell_volume 628.371883
_symmetry_space_group_name_H-M "P -1"
_symmetry_group_IT_number 2
_symmetry_cell_setting 'triclinic'
loop_
_space_group_symop_operation_xyz
x,y,z
-x,-y,-z
loop_
_atom_site_type_symbol
_atom_site_label
_atom_site_fract_x
_atom_site_fract_y
_atom_site_fract_z
Si Si1 0.781247 0.663674 0.514008
Si Si2 0.871377 0.775305 0.117497
Si Si3 0.996459 0.852223 0.190671
Si Si4 0.754523 0.220503 0.293525
Si Si5 0.515567 0.096950 0.996275
Si Si6 0.316966 0.598892 0.400900
Si Si7 0.739177 0.563561 0.261370
O O1 0.748498 0.786144 0.324588
O O2 0.627723 0.778416 0.761233
O O3 0.769842 0.582333 0.436592
O O4 0.000000 0.500000 0.500000
O O5 0.929673 0.802598 0.212604
O O6 0.736091 0.935479 0.969925
O O7 0.065717 0.577540 0.961881
O O8 0.168853 0.708146 0.286678
O O9 0.080932 0.844611 0.923946
O O10 0.820255 0.057696 0.308946
O O11 0.546857 0.411394 0.256571
O O12 0.730761 0.268963 0.513011
O O13 0.438131 0.236083 0.811113
O O14 0.500000 0.000000 0.000000
O O15 0.292399 0.525257 0.623127
#
# Coordination Sequence:
#
# PCOD9049057 Si02
#       7
#     2   2   2   2   2   2   2
#     4  12  24  44  71  96 138 178 221 281 337 400
#     4  12  25  45  68 101 139 180 227 278 339 401
#     4  11  24  45  70 101 137 174 227 282 339 397
#     4  10  24  46  68 102 132 178 228 278 341 403
#     4  12  27  46  69  99 141 180 229 278 331 408
#     4  11  24  44  72  99 137 178 225 278 343 398
#     4  12  26  45  67 102 138 180 227 276 339 404
#
# _framework density 22.279800999999999
#
# number of rings (size 3 to 8) (size 9 to 14) (size 15 to 20)
#    0.000    0.571    4.286    3.429    2.000    1.143 
#   10.286    0.000    0.000    0.000    0.000    0.000 
#    0.000    0.000    0.000    0.000    0.000    0.000 
#
# Total GULP energy -78411.428844 kJ/mol
# GULP energy per Si atom -5600.816346 kJ/mol
# Density = 2.222909 g / cm^3
# Si number density = 22.279801 Si / 1000 Ang^3
#
#
#
# Elastic Constant Matrix: (Units=GPa)
#
#
# Indices 1 2 3 4 5 6 
#
# 1 76.4462 25.5153 19.7956 21.2540 40.6465 1.6961
# 2 25.5153 103.7857 14.9567 7.3341 32.1677 -14.0237
# 3 19.7956 14.9567 43.8241 7.5830 10.8562 12.1734
# 4 21.2540 7.3341 7.5830 31.4071 1.2027 11.7967
# 5 40.6465 32.1677 10.8562 1.2027 41.1489 -2.4796
# 6 1.6961 -14.0237 12.1734 11.7967 -2.4796 39.2413
#
#
#
# Elastic Compliance Matrix: (Units=1/GPa)
#
#
# Indices 1 2 3 4 5 6 
#
# 1 0.050529 0.009656 -0.009996 -0.036509 -0.053034 0.011992
# 2 0.009656 0.016355 -0.005589 -0.011789 -0.019935 0.009445
# 3 -0.009996 -0.005589 0.030427 0.005102 0.005331 -0.012201
# 4 -0.036509 -0.011789 0.005102 0.064393 0.040786 -0.020998
# 5 -0.053034 -0.019935 0.005331 0.040786 0.088883 -0.013130
# 6 0.011992 0.009445 -0.012201 -0.020998 -0.013130 0.037608
#
#
# Mechanical properties :
#
#
# Convention : Reuss Voigt Hill
#
# Bulk Modulus (GPa) = 11.70231 38.28792 24.99512
# Shear Modulus (GPa) = 15.21898 33.27866 24.24882
#
# Velocity S-wave (km/s) = 2.61642 3.86899 3.30263
# Velocity P-wave (km/s) = 3.79360 6.09764 5.07802
#
# Compressibility (1/GPa) = 0.08545323
#
# Stress axis : x y z
#
# Youngs Moduli (GPa) = 19.79053 61.14389 32.86568
#
# Poissons Ratio (x) = -0.59040 0.32852
# Poissons Ratio (y) = -0.19110 0.18368
# Poissons Ratio (z) = 0.19782 0.34173
#
# Static dielectric constant tensor:
#      x y z
#    x 1.767190 0.001790 -0.013300 
#    y 0.001790 1.847590 -0.018800 
#    z -0.013300 -0.018800 1.819240 
# 
# From -- ./inp_files/39586.got.cif
#   From: 2010.05.17/outbox.cif.g08.bks.cpg/sg2_20_cif.got.tgz:39586.got - 2010.06.03 11:33:40.
