data_PCOD9049738
_publ_section_title
;
Structure prediction by ZEFSAII (Michael W. Deem and Ramdas Pophale) SiO2 
 PCOD9049738
Probable space group: P -1
;
_chemical_formula_sum "Si O2"
_cell_formula_units_Z 16
_cell_length_a 8.388238
_cell_length_b 11.476213
_cell_length_c 18.211985
_cell_angle_alpha 28.295790
_cell_angle_beta 122.240436
_cell_angle_gamma 131.191948
_cell_volume 620.052969
_symmetry_space_group_name_H-M "P -1"
_symmetry_group_IT_number 2
_symmetry_cell_setting 'triclinic'
loop_
_space_group_symop_operation_xyz
x,y,z
-x,-y,-z
loop_
_atom_site_type_symbol
_atom_site_label
_atom_site_fract_x
_atom_site_fract_y
_atom_site_fract_z
Si Si1 0.702537 0.633358 0.170880
Si Si2 0.276613 0.858308 0.839579
Si Si3 0.126046 0.316088 0.066116
Si Si4 0.592987 0.846793 0.551299
Si Si5 0.922282 0.393202 0.253334
Si Si6 0.630823 0.139560 0.880508
Si Si7 0.479738 0.710038 0.434616
Si Si8 0.066907 0.733887 0.323401
O O1 0.467413 0.425312 0.262063
O O2 0.768840 0.509285 0.187249
O O3 0.877098 0.661839 0.259804
O O4 0.731987 0.938782 0.995354
O O5 0.439508 0.081514 0.811368
O O6 0.049008 0.781208 0.859105
O O7 0.311524 0.997330 0.692139
O O8 0.322683 0.595640 0.990347
O O9 0.143169 0.046541 0.197756
O O10 0.053233 0.456893 0.905008
O O11 0.471764 0.703846 0.524192
O O12 0.500000 0.000000 0.500000
O O13 0.817191 0.092156 0.438779
O O14 0.176236 0.549155 0.247541
O O15 0.500000 0.000000 0.000000
O O16 0.500000 0.500000 0.500000
O O17 0.275613 0.734978 0.342127
O O18 0.000000 0.500000 0.500000
#
# Coordination Sequence:
#
# PCOD9049738 Si02
#       8
#     2   2   2   2   2   2   2   2
#     4  11  24  44  70 100 141 188 242 307 357 447
#     4  11  25  45  69 108 147 186 246 314 373 431
#     4  11  24  44  73 103 146 190 246 309 365 445
#     4  10  24  47  73 101 148 194 246 308 372 442
#     4  11  22  45  72  98 139 191 242 302 362 436
#     4  12  24  42  73 101 142 188 242 297 374 440
#     4  12  26  43  74 108 147 194 244 312 378 447
#     4  12  24  44  72 104 144 192 248 301 381 445
#
# _framework density 25.804248999999999
#
# number of rings (size 3 to 8) (size 9 to 14) (size 15 to 20)
#    0.000    0.750    5.000    1.875    3.500    2.500 
#    0.000    0.625    2.750    0.000    0.000    0.000 
#    0.000    0.000    0.000    0.000    0.000    0.000 
#
# Total GULP energy -89218.865764 kJ/mol
# GULP energy per Si atom -5576.179110 kJ/mol
# Density = 2.574552 g / cm^3
# Si number density = 25.804249 Si / 1000 Ang^3
#
#
#
# Elastic Constant Matrix: (Units=GPa)
#
#
# Indices 1 2 3 4 5 6 
#
# 1 98.7637 -1.0160 17.8102 -15.1631 -16.8689 -18.2920
# 2 -1.0160 18.5270 14.6583 -2.2165 -4.7763 -3.7631
# 3 17.8102 14.6583 103.8491 -16.9402 -22.9198 -11.7620
# 4 -15.1631 -2.2165 -16.9402 48.4454 -4.5555 -11.9476
# 5 -16.8689 -4.7763 -22.9198 -4.5555 60.9324 -8.3563
# 6 -18.2920 -3.7631 -11.7620 -11.9476 -8.3563 35.6710
#
#
#
# Elastic Compliance Matrix: (Units=1/GPa)
#
#
# Indices 1 2 3 4 5 6 
#
# 1 0.015415 0.005761 0.001520 0.009868 0.007974 0.014187
# 2 0.005761 0.063896 -0.006501 0.005710 0.006078 0.010888
# 3 0.001520 -0.006501 0.014209 0.008072 0.007114 0.009149
# 4 0.009868 0.005710 0.008072 0.033414 0.011769 0.022273
# 5 0.007974 0.006078 0.007114 0.011769 0.024965 0.016866
# 6 0.014187 0.010888 0.009149 0.022273 0.016866 0.050885
#
#
# Mechanical properties :
#
#
# Convention : Reuss Voigt Hill
#
# Bulk Modulus (GPa) = 10.51742 31.56054 21.03898
# Shear Modulus (GPa) = 21.46669 41.65559 31.56114
#
# Velocity S-wave (km/s) = 2.88741 4.02218 3.50108
# Velocity P-wave (km/s) = 3.89883 5.81618 4.95120
#
# Compressibility (1/GPa) = 0.09508035
#
# Stress axis : x y z
#
# Youngs Moduli (GPa) = 64.87178 15.65033 70.37556
#
# Poissons Ratio (x) = -0.09016 -0.10695
# Poissons Ratio (y) = -0.37373 0.45751
# Poissons Ratio (z) = -0.09858 0.10174
#
# Static dielectric constant tensor:
#      x y z
#    x 1.985720 -0.327430 -0.069320 
#    y -0.327430 1.615810 -0.011690 
#    z -0.069320 -0.011690 2.189370 
# 
# From -- ./inp_files/559566.got.cif
#   From: 2010.05.17/outbox.cif.g08.bks.cpg/sg2_280_cif.got.tgz:559566.got - 2010.06.03 11:33:40.
