data_PCOD9049775
_publ_section_title
;
Structure prediction by ZEFSAII (Michael W. Deem and Ramdas Pophale) SiO2 
 PCOD9049775
Probable space group: P -1
;
_chemical_formula_sum "Si O2"
_cell_formula_units_Z 14
_cell_length_a 7.055501
_cell_length_b 7.438267
_cell_length_c 17.098619
_cell_angle_alpha 68.626586
_cell_angle_beta 46.775639
_cell_angle_gamma 84.941150
_cell_volume 591.428268
_symmetry_space_group_name_H-M "P -1"
_symmetry_group_IT_number 2
_symmetry_cell_setting 'triclinic'
loop_
_space_group_symop_operation_xyz
x,y,z
-x,-y,-z
loop_
_atom_site_type_symbol
_atom_site_label
_atom_site_fract_x
_atom_site_fract_y
_atom_site_fract_z
Si Si1 0.195813 0.923404 0.786978
Si Si2 0.166687 0.355345 0.765790
Si Si3 0.147511 0.215790 0.962704
Si Si4 0.702271 0.801847 0.683989
Si Si5 0.199418 0.004560 0.603007
Si Si6 0.251019 0.404663 0.460642
Si Si7 0.395496 0.540956 0.110226
O O1 0.106345 0.124770 0.796349
O O2 0.127447 0.883263 0.722548
O O3 0.510846 0.953268 0.707369
O O4 0.054361 0.760342 0.915051
O O5 0.194037 0.357573 0.852200
O O6 0.454111 0.455377 0.630749
O O7 0.909814 0.438469 0.806624
O O8 0.423204 0.263505 0.927415
O O9 0.000000 0.000000 0.000000
O O10 0.703951 0.701092 0.616261
O O11 0.593797 0.643269 0.807732
O O12 0.999993 0.906102 0.607795
O O13 0.183053 0.234337 0.573003
O O14 0.500000 0.000000 0.500000
O O15 0.000000 0.500000 0.500000
O O16 0.500000 0.500000 0.000000
#
# Coordination Sequence:
#
# PCOD9049775 Si02
#       7
#     2   2   2   2   2   2   2
#     4  11  26  45  74 102 141 189 235 290 365 424
#     4  11  26  48  73 107 143 189 243 293 364 434
#     4  10  24  47  74 104 150 185 240 297 368 430
#     4  12  26  46  70 103 146 183 242 294 364 422
#     4  12  26  45  70 102 143 188 243 292 356 431
#     4  12  27  46  74 102 145 192 239 297 358 423
#     4  12  26  43  78 112 146 188 243 303 365 433
#
# _framework density 23.671507999999999
#
# number of rings (size 3 to 8) (size 9 to 14) (size 15 to 20)
#    0.000    0.571    2.857    3.857    6.000    6.286 
#    0.000    0.000    0.000    0.000    0.000    0.000 
#    0.000    0.000    0.000    0.000    0.000    0.000 
#
# Total GULP energy -78242.867683 kJ/mol
# GULP energy per Si atom -5588.776263 kJ/mol
# Density = 2.361763 g / cm^3
# Si number density = 23.671508 Si / 1000 Ang^3
#
#
#
# Elastic Constant Matrix: (Units=GPa)
#
#
# Indices 1 2 3 4 5 6 
#
# 1 136.9773 35.8304 27.4148 1.3493 -16.3165 -6.3888
# 2 35.8304 79.4359 14.9415 1.6683 -9.5566 -20.7527
# 3 27.4148 14.9415 85.6268 -2.4762 0.4213 -3.1062
# 4 1.3493 1.6683 -2.4762 29.4947 3.8028 -10.7908
# 5 -16.3165 -9.5566 0.4213 3.8028 54.9308 6.7188
# 6 -6.3888 -20.7527 -3.1062 -10.7908 6.7188 49.3327
#
#
#
# Elastic Compliance Matrix: (Units=1/GPa)
#
#
# Indices 1 2 3 4 5 6 
#
# 1 0.008927 -0.003567 -0.002315 -0.001068 0.002249 -0.001030
# 2 -0.003567 0.016230 -0.001420 0.001373 0.000890 0.006455
# 3 -0.002315 -0.001420 0.012733 0.001558 -0.001190 0.000407
# 4 -0.001068 0.001373 0.001558 0.037928 -0.003861 0.009359
# 5 0.002249 0.000890 -0.001190 -0.003861 0.019663 -0.002932
# 6 -0.001030 0.006455 0.000407 0.009359 -0.002932 0.025325
#
#
# Mechanical properties :
#
#
# Convention : Reuss Voigt Hill
#
# Bulk Modulus (GPa) = 42.94688 50.93483 46.94085
# Shear Modulus (GPa) = 34.92278 41.67520 38.29899
#
# Velocity S-wave (km/s) = 3.84514 4.20046 4.02672
# Velocity P-wave (km/s) = 6.15595 6.71485 6.44147
#
# Compressibility (1/GPa) = 0.02328458
#
# Stress axis : x y z
#
# Youngs Moduli (GPa) = 112.01557 61.61548 78.53423
#
# Poissons Ratio (x) = 0.21981 0.18181
# Poissons Ratio (y) = 0.39961 0.11155
# Poissons Ratio (z) = 0.25932 0.08752
#
# Static dielectric constant tensor:
#      x y z
#    x 1.887830 0.033690 -0.007210 
#    y 0.033690 1.917140 -0.048150 
#    z -0.007210 -0.048150 1.957290 
# 
# From -- ./inp_files/134064.got.cif
#   From: 2010.05.17/outbox.cif.g08.bks.cpg/sg2_68_cif.got.tgz:134064.got - 2010.06.03 11:33:40.
