data_PCOD9049147
_publ_section_title
;
Structure prediction by ZEFSAII (Michael W. Deem and Ramdas Pophale) SiO2 
 PCOD9049147
Probable space group: P -1
;
_chemical_formula_sum "Si O2"
_cell_formula_units_Z 16
_cell_length_a 11.209719
_cell_length_b 8.923368
_cell_length_c 13.719209
_cell_angle_alpha 97.275443
_cell_angle_beta 146.758597
_cell_angle_gamma 89.479669
_cell_volume 734.271885
_symmetry_space_group_name_H-M "P -1"
_symmetry_group_IT_number 2
_symmetry_cell_setting 'triclinic'
loop_
_space_group_symop_operation_xyz
x,y,z
-x,-y,-z
loop_
_atom_site_type_symbol
_atom_site_label
_atom_site_fract_x
_atom_site_fract_y
_atom_site_fract_z
Si Si1 0.949895 0.402146 0.154454
Si Si2 0.145668 0.348235 0.481236
Si Si3 0.709915 0.313375 0.309998
Si Si4 0.561881 0.211547 0.761396
Si Si5 0.619670 0.072432 0.487473
Si Si6 0.041344 0.895769 0.427271
Si Si7 0.672591 0.634838 0.076191
Si Si8 0.662947 0.393563 0.643383
O O1 0.843176 0.538566 0.138943
O O2 0.097585 0.340098 0.332816
O O3 0.106391 0.488552 0.185719
O O4 0.752401 0.273435 0.972284
O O5 0.248658 0.521365 0.596653
O O6 0.321530 0.247052 0.629251
O O7 0.905900 0.313674 0.364997
O O8 0.759518 0.189094 0.409599
O O9 0.474943 0.291431 0.095554
O O10 0.610389 0.314883 0.705326
O O11 0.542675 0.033185 0.708166
O O12 0.861049 0.043944 0.608107
O O13 0.654029 0.253230 0.549036
O O14 0.500000 0.000000 0.500000
O O15 0.820593 0.768843 0.250035
O O16 0.000000 0.000000 0.500000
O O17 0.500000 0.500000 0.000000
O O18 0.500000 0.500000 0.500000
#
# Coordination Sequence:
#
# PCOD9049147 Si02
#       8
#     2   2   2   2   2   2   2   2
#     4  12  22  39  67  99 131 175 232 283 347 415
#     4  11  20  36  63  97 130 171 223 279 342 409
#     4  11  22  37  64  98 131 178 230 278 344 412
#     4  11  24  40  69  96 132 179 230 284 351 410
#     4  10  24  46  69  98 143 187 225 287 359 413
#     4  12  26  44  69 100 144 186 231 290 358 416
#     4  12  23  40  68 101 140 175 231 294 347 418
#     4  11  22  43  72  97 131 180 236 289 342 419
#
# _framework density 21.790293999999999
#
# number of rings (size 3 to 8) (size 9 to 14) (size 15 to 20)
#    0.000    0.750    6.250    1.875    1.750    0.500 
#    0.000    1.875    2.750    0.000    0.000    0.000 
#    0.000    0.000    0.000    0.000    0.000    0.000 
#
# Total GULP energy -89244.385537 kJ/mol
# GULP energy per Si atom -5577.774096 kJ/mol
# Density = 2.174070 g / cm^3
# Si number density = 21.790294 Si / 1000 Ang^3
#
#
#
# Elastic Constant Matrix: (Units=GPa)
#
#
# Indices 1 2 3 4 5 6 
#
# 1 95.0906 11.2386 29.3979 11.7966 3.8991 5.6494
# 2 11.2386 51.3792 36.7412 18.3475 -0.1661 -4.2847
# 3 29.3979 36.7412 155.6426 19.9690 -5.4367 -0.7527
# 4 11.7966 18.3475 19.9690 42.3734 -3.4339 -7.2504
# 5 3.8991 -0.1661 -5.4367 -3.4339 28.9851 3.8827
# 6 5.6494 -4.2847 -0.7527 -7.2504 3.8827 32.5779
#
#
#
# Elastic Compliance Matrix: (Units=1/GPa)
#
#
# Indices 1 2 3 4 5 6 
#
# 1 0.011709 -0.000484 -0.001820 -0.002780 -0.001910 -0.002527
# 2 -0.000484 0.026494 -0.005095 -0.008803 -0.002014 0.001732
# 3 -0.001820 -0.005095 0.008170 -0.001105 0.001699 -0.000614
# 4 -0.002780 -0.008803 -0.001105 0.029901 0.002908 0.005607
# 5 -0.001910 -0.002014 0.001699 0.002908 0.035881 -0.003524
# 6 -0.002527 0.001732 -0.000614 0.005607 -0.003524 0.033015
#
#
# Mechanical properties :
#
#
# Convention : Reuss Voigt Hill
#
# Bulk Modulus (GPa) = 31.67114 50.76308 41.21711
# Shear Modulus (GPa) = 29.32663 35.76959 32.54811
#
# Velocity S-wave (km/s) = 3.67257 4.05598 3.86903
# Velocity P-wave (km/s) = 5.70524 6.72915 6.23824
#
# Compressibility (1/GPa) = 0.03157448
#
# Stress axis : x y z
#
# Youngs Moduli (GPa) = 85.40140 37.74430 122.40520
#
# Poissons Ratio (x) = 0.01828 0.22273
# Poissons Ratio (y) = 0.04136 0.62370
# Poissons Ratio (z) = 0.15540 0.19232
#
# Static dielectric constant tensor:
#      x y z
#    x 1.965570 0.075380 0.028300 
#    y 0.075380 1.829110 0.041340 
#    z 0.028300 0.041340 1.807970 
# 
# From -- ./inp_files/273725.got.cif
#   From: 2010.05.17/outbox.cif.g08.bks.cpg/sg2_137_cif.got.tgz:273725.got - 2010.06.03 11:33:40.
