data_PCOD9049694
_publ_section_title
;
Structure prediction by ZEFSAII (Michael W. Deem and Ramdas Pophale) SiO2 
 PCOD9049694
Probable space group: P -1
;
_chemical_formula_sum "Si O2"
_cell_formula_units_Z 16
_cell_length_a 20.867400
_cell_length_b 7.977014
_cell_length_c 8.867099
_cell_angle_alpha 50.757168
_cell_angle_beta 55.206563
_cell_angle_gamma 36.956225
_cell_volume 680.503941
_symmetry_space_group_name_H-M "P -1"
_symmetry_group_IT_number 2
_symmetry_cell_setting 'triclinic'
loop_
_space_group_symop_operation_xyz
x,y,z
-x,-y,-z
loop_
_atom_site_type_symbol
_atom_site_label
_atom_site_fract_x
_atom_site_fract_y
_atom_site_fract_z
Si Si1 0.511074 0.284427 0.399195
Si Si2 0.539241 0.148021 0.791048
Si Si3 0.125796 0.714190 0.459733
Si Si4 0.735483 0.734748 0.962458
Si Si5 0.041109 0.265599 0.879956
Si Si6 0.833984 0.900861 0.927744
Si Si7 0.322505 0.343719 0.623814
Si Si8 0.057083 0.743627 0.236367
O O1 0.533734 0.164846 0.608751
O O2 0.519943 0.525927 0.250633
O O3 0.390273 0.429518 0.441546
O O4 0.595734 0.001637 0.340593
O O5 0.500000 0.000000 0.000000
O O6 0.659750 0.935787 0.811907
O O7 0.206266 0.525336 0.598363
O O8 0.108020 0.583435 0.419265
O O9 0.180074 0.823632 0.251700
O O10 0.000000 0.000000 0.500000
O O11 0.693442 0.629101 0.190351
O O12 0.748581 0.911206 0.957978
O O13 0.848168 0.454601 0.899477
O O14 0.945938 0.607163 0.865597
O O15 0.035482 0.225819 0.732330
O O16 0.146757 0.149687 0.889775
O O17 0.022802 0.062066 0.098073
#
# Coordination Sequence:
#
# PCOD9049694 Si02
#       8
#     2   2   2   2   2   2   2   2
#     4  10  24  47  71  97 145 167 230 293 333 408
#     4  11  22  45  70 102 127 177 219 283 354 402
#     4  11  24  39  62  91 137 177 218 278 345 397
#     4  11  22  39  68  93 129 170 230 272 343 416
#     4   8  16  32  59  78 112 160 219 256 313 369
#     4   9  19  36  57  87 120 173 219 277 318 403
#     4  11  24  43  65 103 131 182 221 287 343 402
#     4   9  19  36  59  88 120 171 214 280 318 403
#
# _framework density 23.511987000000001
#
# number of rings (size 3 to 8) (size 9 to 14) (size 15 to 20)
#    0.000    2.000    1.250    1.500   10.500    0.500 
#    6.750    2.500    5.500    0.000    0.000    0.000 
#    0.000    0.000    0.000    0.000    0.000    0.000 
#
# Total GULP energy -89283.647182 kJ/mol
# GULP energy per Si atom -5580.227949 kJ/mol
# Density = 2.345847 g / cm^3
# Si number density = 23.511987 Si / 1000 Ang^3
#
#
#
# Elastic Constant Matrix: (Units=GPa)
#
#
# Indices 1 2 3 4 5 6 
#
# 1 130.4772 18.9188 31.2647 -5.1793 16.5861 -9.4648
# 2 18.9188 53.0467 23.4039 5.4706 3.5117 -1.8433
# 3 31.2647 23.4039 68.2651 -8.8373 3.7448 0.7187
# 4 -5.1793 5.4706 -8.8373 30.4001 -0.0054 3.8302
# 5 16.5861 3.5117 3.7448 -0.0054 47.9127 -11.6951
# 6 -9.4648 -1.8433 0.7187 3.8302 -11.6951 41.1162
#
#
#
# Elastic Compliance Matrix: (Units=1/GPa)
#
#
# Indices 1 2 3 4 5 6 
#
# 1 0.009157 -0.001613 -0.003431 0.000685 -0.002458 0.001332
# 2 -0.001613 0.023944 -0.008409 -0.007213 -0.000181 0.001469
# 3 -0.003431 -0.008409 0.020056 0.007044 -0.000315 -0.002263
# 4 0.000685 -0.007213 0.007044 0.036871 -0.001250 -0.004079
# 5 -0.002458 -0.000181 -0.000315 -0.001250 0.023265 0.006166
# 6 0.001332 0.001469 -0.002263 -0.004079 0.006166 0.026867
#
#
# Mechanical properties :
#
#
# Convention : Reuss Voigt Hill
#
# Bulk Modulus (GPa) = 38.09657 44.32932 41.21294
# Shear Modulus (GPa) = 28.43873 35.76590 32.10231
#
# Velocity S-wave (km/s) = 3.48162 3.90446 3.69909
# Velocity P-wave (km/s) = 5.69214 6.26269 5.98422
#
# Compressibility (1/GPa) = 0.02624908
#
# Stress axis : x y z
#
# Youngs Moduli (GPa) = 109.21140 41.76447 49.86004
#
# Poissons Ratio (x) = 0.06739 0.17107
# Poissons Ratio (y) = 0.17621 0.41928
# Poissons Ratio (z) = 0.37470 0.35121
#
# Static dielectric constant tensor:
#      x y z
#    x 2.001890 -0.018160 0.001670 
#    y -0.018160 1.875640 -0.021210 
#    z 0.001670 -0.021210 1.957430 
# 
# From -- ./inp_files/343310.got.cif
#   From: 2010.05.17/outbox.cif.g08.bks.cpg/sg2_172_cif.got.tgz:343310.got - 2010.06.03 11:33:40.
