data_PCOD9049969
_publ_section_title
;
Structure prediction by ZEFSAII (Michael W. Deem and Ramdas Pophale) SiO2 
 PCOD9049969
Probable space group: P -1
;
_chemical_formula_sum "Si O2"
_cell_formula_units_Z 16
_cell_length_a 5.937394
_cell_length_b 10.373377
_cell_length_c 24.762495
_cell_angle_alpha 146.604352
_cell_angle_beta 128.735633
_cell_angle_gamma 61.239934
_cell_volume 651.785101
_symmetry_space_group_name_H-M "P -1"
_symmetry_group_IT_number 2
_symmetry_cell_setting 'triclinic'
loop_
_space_group_symop_operation_xyz
x,y,z
-x,-y,-z
loop_
_atom_site_type_symbol
_atom_site_label
_atom_site_fract_x
_atom_site_fract_y
_atom_site_fract_z
Si Si1 0.823462 0.420227 0.527995
Si Si2 0.284861 0.769726 0.104509
Si Si3 0.861350 0.189143 0.081391
Si Si4 0.386077 0.743672 0.718818
Si Si5 0.758414 0.991824 0.108330
Si Si6 0.887794 0.016446 0.620088
Si Si7 0.283850 0.709356 0.413809
Si Si8 0.850576 0.571299 0.137994
O O1 0.500000 0.500000 0.500000
O O2 0.876103 0.362175 0.578936
O O3 0.059836 0.629176 0.616897
O O4 0.889123 0.181696 0.423975
O O5 0.519703 0.626428 0.118128
O O6 0.470340 0.017321 0.203921
O O7 0.172506 0.606812 0.978957
O O8 0.997845 0.837447 0.115117
O O9 0.907827 0.132937 0.130250
O O10 0.972891 0.431434 0.156699
O O11 0.515673 0.163783 0.011204
O O12 0.000000 0.000000 0.000000
O O13 0.361378 0.830712 0.806572
O O14 0.577509 0.526647 0.666146
O O15 0.884051 0.165768 0.615222
O O16 0.965165 0.178203 0.740791
O O17 0.564537 0.890191 0.533111
#
# Coordination Sequence:
#
# PCOD9049969 Si02
#       8
#     2   2   2   2   2   2   2   2
#     4  11  26  44  72 102 130 177 233 285 348 415
#     4  11  25  46  65 102 144 182 231 275 348 413
#     4  11  23  43  65 102 137 179 232 278 333 412
#     4  11  24  42  73  96 133 183 226 288 335 406
#     4  11  23  41  71  97 135 178 236 273 335 416
#     4  10  25  44  69 100 136 181 226 283 350 406
#     4  10  24  48  70  97 138 175 233 290 344 403
#     4  11  25  44  67  98 148 183 217 292 341 406
#
# _framework density 24.547968000000001
#
# number of rings (size 3 to 8) (size 9 to 14) (size 15 to 20)
#    0.000    1.250    2.500    1.125   10.500    1.500 
#    2.250    0.000    0.000    0.000    0.000    0.000 
#    0.000    0.000    0.000    0.000    0.000    0.000 
#
# Total GULP energy -89455.787687 kJ/mol
# GULP energy per Si atom -5590.986730 kJ/mol
# Density = 2.449210 g / cm^3
# Si number density = 24.547968 Si / 1000 Ang^3
#
#
#
# Elastic Constant Matrix: (Units=GPa)
#
#
# Indices 1 2 3 4 5 6 
#
# 1 62.0287 27.0158 18.8165 8.8650 2.3158 -3.2099
# 2 27.0158 108.0430 39.4446 14.4264 6.1248 -3.7885
# 3 18.8165 39.4446 152.3676 13.9017 13.9556 -14.1035
# 4 8.8650 14.4264 13.9017 34.8833 -4.8771 2.1727
# 5 2.3158 6.1248 13.9556 -4.8771 35.5537 -4.9756
# 6 -3.2099 -3.7885 -14.1035 2.1727 -4.9756 36.1403
#
#
#
# Elastic Compliance Matrix: (Units=1/GPa)
#
#
# Indices 1 2 3 4 5 6 
#
# 1 0.018559 -0.003869 -0.000893 -0.002886 -0.000447 0.001006
# 2 -0.003869 0.011477 -0.002082 -0.003123 -0.001329 0.000052
# 3 -0.000893 -0.002082 0.007937 -0.002613 -0.002695 0.002586
# 4 -0.002886 -0.003123 -0.002613 0.032724 0.005853 -0.002765
# 5 -0.000447 -0.001329 -0.002695 0.005853 0.030614 0.002632
# 6 0.001006 0.000052 0.002586 -0.002765 0.002632 0.029302
#
#
# Mechanical properties :
#
#
# Convention : Reuss Voigt Hill
#
# Bulk Modulus (GPa) = 41.17692 54.77700 47.97696
# Shear Modulus (GPa) = 32.80953 37.12628 34.96791
#
# Velocity S-wave (km/s) = 3.65985 3.89317 3.77831
# Velocity P-wave (km/s) = 5.88811 6.52471 6.21456
#
# Compressibility (1/GPa) = 0.02428545
#
# Stress axis : x y z
#
# Youngs Moduli (GPa) = 53.88357 87.12996 125.99317
#
# Poissons Ratio (x) = 0.33707 0.11252
# Poissons Ratio (y) = 0.20845 0.26232
# Poissons Ratio (z) = 0.04812 0.18140
#
# Static dielectric constant tensor:
#      x y z
#    x 1.912100 0.030700 0.024640 
#    y 0.030700 1.968650 -0.012360 
#    z 0.024640 -0.012360 1.999020 
# 
# From -- ./inp_files/477372.got.cif
#   From: 2010.05.17/outbox.cif.g08.bks.cpg/sg2_239_cif.got.tgz:477372.got - 2010.06.03 11:33:40.
