data_PCOD9049167
_publ_section_title
;
Structure prediction by ZEFSAII (Michael W. Deem and Ramdas Pophale) SiO2 
 PCOD9049167
Probable space group: P -1
;
_chemical_formula_sum "Si O2"
_cell_formula_units_Z 14
_cell_length_a 5.495510
_cell_length_b 8.961504
_cell_length_c 18.693215
_cell_angle_alpha 117.547847
_cell_angle_beta 47.293461
_cell_angle_gamma 102.963848
_cell_volume 594.130259
_symmetry_space_group_name_H-M "P -1"
_symmetry_group_IT_number 2
_symmetry_cell_setting 'triclinic'
loop_
_space_group_symop_operation_xyz
x,y,z
-x,-y,-z
loop_
_atom_site_type_symbol
_atom_site_label
_atom_site_fract_x
_atom_site_fract_y
_atom_site_fract_z
Si Si1 0.101882 0.004232 0.063860
Si Si2 0.399944 0.987579 0.434651
Si Si3 0.641453 0.355008 0.694065
Si Si4 0.844968 0.348564 0.958550
Si Si5 0.646153 0.351329 0.264530
Si Si6 0.809653 0.442001 0.822979
Si Si7 0.665967 0.658325 0.531299
O O1 0.869168 0.171194 0.175354
O O2 0.013009 0.833785 0.080624
O O3 0.500000 0.000000 0.000000
O O4 0.000000 0.000000 0.000000
O O5 0.530735 0.798795 0.339085
O O6 0.500000 0.000000 0.500000
O O7 0.515985 0.153270 0.411541
O O8 0.000000 0.000000 0.500000
O O9 0.482642 0.553929 0.762158
O O10 0.679857 0.320901 0.763062
O O11 0.974811 0.350385 0.579028
O O12 0.877013 0.363106 0.870248
O O13 0.455535 0.393950 0.067416
O O14 0.000000 0.500000 0.000000
O O15 0.357491 0.350195 0.380116
O O16 0.894401 0.487601 0.264112
O O17 0.500000 0.500000 0.500000
#
# Coordination Sequence:
#
# PCOD9049167 Si02
#       7
#     2   2   2   2   2   2   2
#     4  12  27  50  76 110 151 191 251 319 375 451
#     4  10  24  46  70 103 145 196 250 306 363 435
#     4  11  24  45  75 108 153 200 252 308 373 454
#     4  11  25  47  76 105 145 197 251 312 383 452
#     4  12  25  44  73 108 150 199 249 308 382 441
#     4  11  23  43  73 106 145 194 249 307 381 444
#     4  11  23  45  74 108 149 199 250 308 372 445
#
# _framework density 23.563856999999999
#
# number of rings (size 3 to 8) (size 9 to 14) (size 15 to 20)
#    0.000    0.857    2.857    3.857    4.000    3.429 
#    0.000    0.000    3.143    0.000    0.000    0.000 
#    0.000    0.000    0.000    0.000    0.000    0.000 
#
# Total GULP energy -78149.193371 kJ/mol
# GULP energy per Si atom -5582.085241 kJ/mol
# Density = 2.351023 g / cm^3
# Si number density = 23.563857 Si / 1000 Ang^3
#
#
#
# Elastic Constant Matrix: (Units=GPa)
#
#
# Indices 1 2 3 4 5 6 
#
# 1 113.4643 52.8793 48.1608 3.2113 35.8576 -19.9567
# 2 52.8793 204.7033 53.4882 24.4506 24.9970 -22.7267
# 3 48.1608 53.4882 129.8368 -0.2735 15.1049 -13.1820
# 4 3.2113 24.4506 -0.2735 45.3080 -5.4107 -1.3199
# 5 35.8576 24.9970 15.1049 -5.4107 55.7725 -6.7882
# 6 -19.9567 -22.7267 -13.1820 -1.3199 -6.7882 43.1793
#
#
#
# Elastic Compliance Matrix: (Units=1/GPa)
#
#
# Indices 1 2 3 4 5 6 
#
# 1 0.013704 -0.001292 -0.003386 -0.001028 -0.006990 0.003490
# 2 -0.001292 0.006551 -0.001833 -0.003605 -0.001727 0.001910
# 3 -0.003386 -0.001833 0.009707 0.001372 0.000571 0.000566
# 4 -0.001028 -0.003605 0.001372 0.024587 0.004225 -0.000538
# 5 -0.006990 -0.001727 0.000571 0.004225 0.023435 -0.000152
# 6 0.003490 0.001910 0.000566 -0.000538 -0.000152 0.025910
#
#
# Mechanical properties :
#
#
# Convention : Reuss Voigt Hill
#
# Bulk Modulus (GPa) = 59.02440 84.11788 71.57114
# Shear Modulus (GPa) = 40.79588 48.41703 44.60646
#
# Velocity S-wave (km/s) = 4.16539 4.53781 4.35559
# Velocity P-wave (km/s) = 6.94529 7.95179 7.46552
#
# Compressibility (1/GPa) = 0.01694215
#
# Stress axis : x y z
#
# Youngs Moduli (GPa) = 72.96910 152.64439 103.02125
#
# Poissons Ratio (x) = 0.19715 0.34883
# Poissons Ratio (y) = 0.09425 0.18879
# Poissons Ratio (z) = 0.24707 0.27973
#
# Static dielectric constant tensor:
#      x y z
#    x 2.318810 -0.091140 -0.211240 
#    y -0.091140 1.913210 0.066090 
#    z -0.211240 0.066090 1.978500 
# 
# From -- ./inp_files/548258.got.cif
#   From: 2010.05.17/outbox.cif.g08.bks.cpg/sg2_275_cif.got.tgz:548258.got - 2010.06.03 11:33:40.
