data_PCOD9049008
_publ_section_title
;
Structure prediction by ZEFSAII (Michael W. Deem and Ramdas Pophale) SiO2 
 PCOD9049008
Probable space group: P -1
;
_chemical_formula_sum "Si O2"
_cell_formula_units_Z 14
_cell_length_a 12.077208
_cell_length_b 9.524559
_cell_length_c 26.099156
_cell_angle_alpha 141.202902
_cell_angle_beta 21.281998
_cell_angle_gamma 138.510013
_cell_volume 679.292824
_symmetry_space_group_name_H-M "P -1"
_symmetry_group_IT_number 2
_symmetry_cell_setting 'triclinic'
loop_
_space_group_symop_operation_xyz
x,y,z
-x,-y,-z
loop_
_atom_site_type_symbol
_atom_site_label
_atom_site_fract_x
_atom_site_fract_y
_atom_site_fract_z
Si Si1 0.195416 0.310524 0.841430
Si Si2 0.259209 0.524955 0.765272
Si Si3 0.666642 0.034783 0.590223
Si Si4 0.386865 0.035044 0.290993
Si Si5 0.594486 0.176387 0.464039
Si Si6 0.547398 0.538453 0.050532
Si Si7 0.215931 0.119440 0.134002
O O1 0.280294 0.383838 0.767998
O O2 0.505709 0.266995 0.724110
O O3 0.977852 0.076186 0.870698
O O4 0.000000 0.500000 0.000000
O O5 0.455867 0.404343 0.604290
O O6 0.399575 0.782552 0.781178
O O7 0.902582 0.518367 0.904062
O O8 0.566156 0.924189 0.656593
O O9 0.548362 0.905956 0.552769
O O10 0.032566 0.063166 0.440200
O O11 0.456789 0.782619 0.175666
O O12 0.961942 0.189372 0.303592
O O13 0.500000 0.000000 0.500000
O O14 0.344572 0.338846 0.110241
O O15 0.500000 0.500000 0.000000
O O16 0.500000 0.000000 0.000000
#
# Coordination Sequence:
#
# PCOD9049008 Si02
#       7
#     2   2   2   2   2   2   2
#     4  11  24  44  71 100 137 181 230 289 346 406
#     4  12  25  45  70 104 139 180 240 292 345 416
#     4  10  24  46  66 100 141 184 232 280 357 412
#     4  11  27  44  67 102 142 185 229 286 352 424
#     4  11  22  45  71 103 137 176 237 292 348 410
#     4  12  27  46  69 102 142 187 234 280 352 425
#     4  11  24  44  71  99 136 182 227 289 343 412
#
# _framework density 20.609669
#
# number of rings (size 3 to 8) (size 9 to 14) (size 15 to 20)
#    0.000    0.857    4.286    2.143   10.000    1.143 
#    0.000    0.000    0.000    0.000    0.000    0.000 
#    0.000    0.000    0.000    0.000    0.000    0.000 
#
# Total GULP energy -78244.578059 kJ/mol
# GULP energy per Si atom -5588.898433 kJ/mol
# Density = 2.056276 g / cm^3
# Si number density = 20.609669 Si / 1000 Ang^3
#
#
#
# Elastic Constant Matrix: (Units=GPa)
#
#
# Indices 1 2 3 4 5 6 
#
# 1 93.5722 27.1508 46.3699 1.3220 -10.6177 -7.5247
# 2 27.1508 161.7244 67.0369 1.2107 4.7137 -12.7511
# 3 46.3699 67.0369 177.6880 7.9020 -6.3606 -14.6936
# 4 1.3220 1.2107 7.9020 38.9652 0.4374 6.4497
# 5 -10.6177 4.7137 -6.3606 0.4374 37.0811 12.3308
# 6 -7.5247 -12.7511 -14.6936 6.4497 12.3308 19.1131
#
#
#
# Elastic Compliance Matrix: (Units=1/GPa)
#
#
# Indices 1 2 3 4 5 6 
#
# 1 0.012767 -0.001078 -0.002817 0.000143 0.003325 -0.000051
# 2 -0.001078 0.007874 -0.002332 -0.000610 -0.003540 0.005526
# 3 -0.002817 -0.002332 0.007673 -0.002099 -0.000611 0.004336
# 4 0.000143 -0.000610 -0.002099 0.028413 0.004157 -0.014234
# 5 0.003325 -0.003540 -0.000611 0.004157 0.037161 -0.026900
# 6 -0.000051 0.005526 0.004336 -0.014234 -0.026900 0.081478
#
#
# Mechanical properties :
#
#
# Convention : Reuss Voigt Hill
#
# Bulk Modulus (GPa) = 63.04903 79.34441 71.19672
# Shear Modulus (GPa) = 25.89258 38.52703 32.20980
#
# Velocity S-wave (km/s) = 3.54832 4.32831 3.95758
# Velocity P-wave (km/s) = 6.88809 7.97253 7.45007
#
# Compressibility (1/GPa) = 0.01586067
#
# Stress axis : x y z
#
# Youngs Moduli (GPa) = 78.32986 126.99288 130.33088
#
# Poissons Ratio (x) = 0.13688 0.36708
# Poissons Ratio (y) = 0.08443 0.30396
# Poissons Ratio (z) = 0.22062 0.29617
#
# Static dielectric constant tensor:
#      x y z
#    x 1.743080 0.018670 0.014710 
#    y 0.018670 1.732620 0.023790 
#    z 0.014710 0.023790 1.754340 
# 
# From -- ./inp_files/274148.got.cif
#   From: 2010.05.17/outbox.cif.g08.bks.cpg/sg2_138_cif.got.tgz:274148.got - 2010.06.03 11:33:40.
