data_PCOD9049191
_publ_section_title
;
Structure prediction by ZEFSAII (Michael W. Deem and Ramdas Pophale) SiO2 
 PCOD9049191
Probable space group: P -1
;
_chemical_formula_sum "Si O2"
_cell_formula_units_Z 14
_cell_length_a 13.911638
_cell_length_b 12.178395
_cell_length_c 8.985227
_cell_angle_alpha 146.963443
_cell_angle_beta 56.297574
_cell_angle_gamma 133.367554
_cell_volume 602.486946
_symmetry_space_group_name_H-M "P -1"
_symmetry_group_IT_number 2
_symmetry_cell_setting 'triclinic'
loop_
_space_group_symop_operation_xyz
x,y,z
-x,-y,-z
loop_
_atom_site_type_symbol
_atom_site_label
_atom_site_fract_x
_atom_site_fract_y
_atom_site_fract_z
Si Si1 0.759256 0.491998 0.851738
Si Si2 0.111848 0.227842 0.238167
Si Si3 0.241740 0.017908 0.098521
Si Si4 0.510251 0.076830 0.907585
Si Si5 0.483675 0.696031 0.326385
Si Si6 0.617351 0.602225 0.338245
Si Si7 0.992143 0.479517 0.162190
O O1 0.816525 0.608671 0.776473
O O2 0.619743 0.288972 0.681597
O O3 0.867841 0.457947 0.809664
O O4 0.720806 0.648261 0.167714
O O5 0.198232 0.145448 0.162592
O O6 0.056409 0.351350 0.535284
O O7 0.000000 0.000000 0.000000
O O8 0.312470 0.197154 0.375580
O O9 0.355890 0.974947 0.883413
O O10 0.116847 0.781242 0.992760
O O11 0.570027 0.959066 0.611854
O O12 0.583446 0.351758 0.143304
O O13 0.500000 0.000000 0.000000
O O14 0.483714 0.588627 0.369796
O O15 0.500000 0.500000 0.000000
O O16 0.000000 0.500000 0.000000
#
# Coordination Sequence:
#
# PCOD9049191 Si02
#       7
#     2   2   2   2   2   2   2
#     4  11  25  47  75 105 152 189 248 302 373 434
#     4  12  27  47  72 108 151 192 247 304 367 435
#     4  12  27  47  79 107 155 196 246 306 374 441
#     4  12  26  44  76 110 147 194 249 300 370 442
#     4  10  24  46  70 107 147 186 241 302 370 428
#     4  11  26  47  74 113 148 196 246 307 372 440
#     4  12  29  49  76 112 148 198 251 301 370 446
#
# _framework density 23.237017999999999
#
# number of rings (size 3 to 8) (size 9 to 14) (size 15 to 20)
#    0.000    0.571    2.857    3.429   10.000    3.429 
#    2.571    0.000    0.000    0.000    0.000    0.000 
#    0.000    0.000    0.000    0.000    0.000    0.000 
#
# Total GULP energy -78059.991128 kJ/mol
# GULP energy per Si atom -5575.713652 kJ/mol
# Density = 2.318413 g / cm^3
# Si number density = 23.237018 Si / 1000 Ang^3
#
#
#
# Elastic Constant Matrix: (Units=GPa)
#
#
# Indices 1 2 3 4 5 6 
#
# 1 179.9944 36.3130 35.3718 -2.8752 2.6372 -33.6651
# 2 36.3130 75.8377 39.4519 -10.3538 -7.1842 -18.9296
# 3 35.3718 39.4519 150.6600 -9.2124 14.8258 -16.8616
# 4 -2.8752 -10.3538 -9.2124 46.1816 -0.2352 3.4993
# 5 2.6372 -7.1842 14.8258 -0.2352 38.6756 -1.5595
# 6 -33.6651 -18.9296 -16.8616 3.4993 -1.5595 37.3078
#
#
#
# Elastic Compliance Matrix: (Units=1/GPa)
#
#
# Indices 1 2 3 4 5 6 
#
# 1 0.007006 -0.001882 -0.000567 -0.000490 -0.000406 0.005140
# 2 -0.001882 0.018591 -0.004135 0.002812 0.005419 0.005828
# 3 -0.000567 -0.004135 0.008382 0.000617 -0.003900 0.000958
# 4 -0.000490 0.002812 0.000617 0.022441 0.000422 -0.000824
# 5 -0.000406 0.005419 -0.003900 0.000422 0.028459 0.001771
# 6 0.005140 0.005828 0.000958 -0.000824 0.001771 0.034983
#
#
# Mechanical properties :
#
#
# Convention : Reuss Voigt Hill
#
# Bulk Modulus (GPa) = 48.05353 69.86282 58.95817
# Shear Modulus (GPa) = 35.72229 44.12337 39.92283
#
# Velocity S-wave (km/s) = 3.92510 4.36230 4.14946
# Velocity P-wave (km/s) = 6.42390 7.45006 6.95593
#
# Compressibility (1/GPa) = 0.02081013
#
# Stress axis : x y z
#
# Youngs Moduli (GPa) = 142.72779 53.79086 119.30118
#
# Poissons Ratio (x) = 0.10125 0.06762
# Poissons Ratio (y) = 0.26867 0.49334
# Poissons Ratio (z) = 0.08090 0.22244
#
# Static dielectric constant tensor:
#      x y z
#    x 1.981320 0.039890 -0.054220 
#    y 0.039890 1.856930 -0.047490 
#    z -0.054220 -0.047490 1.862180 
# 
# From -- ./inp_files/261236.got.cif
#   From: 2010.05.17/outbox.cif.g08.bks.cpg/sg2_131_cif.got.tgz:261236.got - 2010.06.03 11:33:40.
