data_PCOD9049117
_publ_section_title
;
Structure prediction by ZEFSAII (Michael W. Deem and Ramdas Pophale) SiO2 
 PCOD9049117
Probable space group: P -1
;
_chemical_formula_sum "Si O2"
_cell_formula_units_Z 14
_cell_length_a 11.173216
_cell_length_b 6.060748
_cell_length_c 8.062314
_cell_angle_alpha 99.372083
_cell_angle_beta 86.893470
_cell_angle_gamma 104.407857
_cell_volume 521.681127
_symmetry_space_group_name_H-M "P -1"
_symmetry_group_IT_number 2
_symmetry_cell_setting 'triclinic'
loop_
_space_group_symop_operation_xyz
x,y,z
-x,-y,-z
loop_
_atom_site_type_symbol
_atom_site_label
_atom_site_fract_x
_atom_site_fract_y
_atom_site_fract_z
Si Si1 0.218884 0.493182 0.548935
Si Si2 0.822786 0.348219 0.876467
Si Si3 0.378954 0.329233 0.788984
Si Si4 0.923180 0.953522 0.665365
Si Si5 0.064302 0.721194 0.820651
Si Si6 0.389916 0.826511 0.331964
Si Si7 0.568242 0.817198 0.893480
O O1 0.273653 0.365358 0.677270
O O2 0.166708 0.298640 0.390597
O O3 0.110205 0.595893 0.646157
O O4 0.319875 0.707687 0.487148
O O5 0.687838 0.348543 0.823939
O O6 0.934754 0.569978 0.881999
O O7 0.860544 0.157998 0.733524
O O8 0.829018 0.259474 0.050812
O O9 0.467934 0.185812 0.677266
O O10 0.469807 0.580701 0.836621
O O11 0.345860 0.225537 0.963650
O O12 0.025942 0.949025 0.796160
O O13 0.000000 0.000000 0.500000
O O14 0.385658 0.069757 0.275231
O O15 0.500000 0.000000 0.000000
#
# Coordination Sequence:
#
# PCOD9049117 Si02
#       7
#     2   2   2   2   2   2   2
#     4  12  25  45  73 105 149 181 230 299 359 412
#     4  11  25  45  73 101 137 189 237 286 347 423
#     4  10  24  46  69 102 143 186 233 288 352 427
#     4  12  24  46  68 103 140 185 233 290 352 414
#     4  11  25  47  69 102 141 183 239 289 348 421
#     4  11  24  45  70 103 142 183 230 294 353 419
#     4   9  22  44  68  98 139 184 238 284 342 421
#
# _framework density 26.836317999999999
#
# number of rings (size 3 to 8) (size 9 to 14) (size 15 to 20)
#    0.000    1.143    2.857    2.143    8.000    1.714 
#   10.286    0.000    0.000    0.000    0.000    0.000 
#    0.000    0.000    0.000    0.000    0.000    0.000 
#
# Total GULP energy -78345.986404 kJ/mol
# GULP energy per Si atom -5596.141886 kJ/mol
# Density = 2.677524 g / cm^3
# Si number density = 26.836318 Si / 1000 Ang^3
#
#
#
# Elastic Constant Matrix: (Units=GPa)
#
#
# Indices 1 2 3 4 5 6 
#
# 1 82.1680 11.0978 17.3718 -15.7405 17.5048 -12.9308
# 2 11.0978 90.1354 29.1388 -30.7910 -10.0215 21.4843
# 3 17.3718 29.1388 101.5602 -25.4858 23.8825 -5.1759
# 4 -15.7405 -30.7910 -25.4858 47.8068 -12.3978 2.3462
# 5 17.5048 -10.0215 23.8825 -12.3978 55.0643 -3.6106
# 6 -12.9308 21.4843 -5.1759 2.3462 -3.6106 42.9207
#
#
#
# Elastic Compliance Matrix: (Units=1/GPa)
#
#
# Indices 1 2 3 4 5 6 
#
# 1 0.014713 -0.003254 0.000134 0.001336 -0.004659 0.005613
# 2 -0.003254 0.021659 -0.005194 0.013149 0.009378 -0.012378
# 3 0.000134 -0.005194 0.013467 0.002114 -0.006115 0.003634
# 4 0.001336 0.013149 0.002114 0.033403 0.008109 -0.007068
# 5 -0.004659 0.009378 -0.006115 0.008109 0.025489 -0.005134
# 6 0.005613 -0.012378 0.003634 -0.007068 -0.005134 0.031579
#
#
# Mechanical properties :
#
#
# Convention : Reuss Voigt Hill
#
# Bulk Modulus (GPa) = 30.11064 43.23117 36.67091
# Shear Modulus (GPa) = 29.76008 43.57535 36.66772
#
# Velocity S-wave (km/s) = 3.33370 4.03394 3.70042
# Velocity P-wave (km/s) = 5.10515 6.15151 5.65259
#
# Compressibility (1/GPa) = 0.03321085
#
# Stress axis : x y z
#
# Youngs Moduli (GPa) = 67.96658 46.16959 74.25361
#
# Poissons Ratio (x) = 0.15024 -0.00994
# Poissons Ratio (y) = 0.22117 0.38568
# Poissons Ratio (z) = -0.00910 0.23981
#
# Static dielectric constant tensor:
#      x y z
#    x 2.056190 0.028620 0.014500 
#    y 0.028620 2.140260 -0.026730 
#    z 0.014500 -0.026730 2.157760 
# 
# From -- ./inp_files/229757.got.cif
#   From: 2010.05.17/outbox.cif.g08.bks.cpg/sg2_115_cif.got.tgz:229757.got - 2010.06.03 11:33:40.
