data_PCOD9049234
_publ_section_title
;
Structure prediction by ZEFSAII (Michael W. Deem and Ramdas Pophale) SiO2 
 PCOD9049234
Probable space group: P -1
;
_chemical_formula_sum "Si O2"
_cell_formula_units_Z 14
_cell_length_a 21.891505
_cell_length_b 7.615535
_cell_length_c 20.405991
_cell_angle_alpha 46.214552
_cell_angle_beta 160.929428
_cell_angle_gamma 144.545021
_cell_volume 587.774245
_symmetry_space_group_name_H-M "P -1"
_symmetry_group_IT_number 2
_symmetry_cell_setting 'triclinic'
loop_
_space_group_symop_operation_xyz
x,y,z
-x,-y,-z
loop_
_atom_site_type_symbol
_atom_site_label
_atom_site_fract_x
_atom_site_fract_y
_atom_site_fract_z
Si Si1 0.642437 0.870459 0.179196
Si Si2 0.302773 0.058984 0.937480
Si Si3 0.616329 0.620208 0.513472
Si Si4 0.182560 0.169106 0.955058
Si Si5 0.948549 0.483835 0.874706
Si Si6 0.802884 0.574141 0.960673
Si Si7 0.110830 0.343159 0.627467
O O1 0.705055 0.896912 0.159986
O O2 0.431873 0.511079 0.090709
O O3 0.897665 0.087504 0.424178
O O4 0.500000 0.000000 0.000000
O O5 0.139402 0.160494 0.761098
O O6 0.600734 0.338398 0.185943
O O7 0.211361 0.703695 0.947414
O O8 0.500000 0.500000 0.500000
O O9 0.431572 0.578669 0.285396
O O10 0.890258 0.999252 0.692101
O O11 0.691797 0.410650 0.624835
O O12 0.195177 0.222511 0.032994
O O13 0.169248 0.885819 0.983246
O O14 0.973498 0.280473 0.903630
O O15 0.000000 0.500000 0.000000
O O16 0.000000 0.500000 0.500000
#
# Coordination Sequence:
#
# PCOD9049234 Si02
#       7
#     2   2   2   2   2   2   2
#     4  12  23  45  66 101 150 187 234 284 345 423
#     4  11  27  41  69 105 137 197 236 279 354 422
#     4  10  24  47  73  99 137 181 235 303 362 416
#     4  10  26  44  71 106 141 185 239 287 356 426
#     4  10  24  46  71 101 137 176 240 299 355 428
#     4  12  23  46  71 103 142 182 236 291 362 426
#     4  11  24  42  67  93 146 188 235 287 336 405
#
# _framework density 23.818670000000001
#
# number of rings (size 3 to 8) (size 9 to 14) (size 15 to 20)
#    0.857    0.286    4.286    0.429    6.000    5.714 
#    5.143    1.429    0.000    0.000    0.000    0.000 
#    0.000    0.000    0.000    0.000    0.000    0.000 
#
# Total GULP energy -78040.523361 kJ/mol
# GULP energy per Si atom -5574.323097 kJ/mol
# Density = 2.376446 g / cm^3
# Si number density = 23.818670 Si / 1000 Ang^3
#
#
#
# Elastic Constant Matrix: (Units=GPa)
#
#
# Indices 1 2 3 4 5 6 
#
# 1 120.1300 1.9306 32.4661 11.3941 -2.4831 -5.3822
# 2 1.9306 51.0700 13.7366 5.1605 -3.0506 13.6235
# 3 32.4661 13.7366 163.8028 7.2778 6.3437 3.8137
# 4 11.3941 5.1605 7.2778 39.1333 -5.3760 0.3343
# 5 -2.4831 -3.0506 6.3437 -5.3760 25.3075 -1.3107
# 6 -5.3822 13.6235 3.8137 0.3343 -1.3107 33.5824
#
#
#
# Elastic Compliance Matrix: (Units=1/GPa)
#
#
# Indices 1 2 3 4 5 6 
#
# 1 0.009113 -0.000051 -0.001782 -0.002199 0.000958 0.001743
# 2 -0.000051 0.022786 -0.001676 -0.002298 0.002210 -0.008952
# 3 -0.001782 -0.001676 0.006733 -0.000819 -0.002262 -0.000451
# 4 -0.002199 -0.002298 -0.000819 0.027409 0.005567 0.000617
# 5 0.000958 0.002210 -0.002262 0.005567 0.041680 0.001085
# 6 0.001743 -0.008952 -0.000451 0.000617 0.001085 0.033776
#
#
# Mechanical properties :
#
#
# Convention : Reuss Voigt Hill
#
# Bulk Modulus (GPa) = 31.63031 47.91883 39.77457
# Shear Modulus (GPa) = 31.43613 38.72926 35.08270
#
# Velocity S-wave (km/s) = 3.63686 4.03675 3.84201
# Velocity P-wave (km/s) = 5.56274 6.47217 6.03461
#
# Compressibility (1/GPa) = 0.03161525
#
# Stress axis : x y z
#
# Youngs Moduli (GPa) = 109.73162 43.88651 148.51951
#
# Poissons Ratio (x) = 0.00223 0.26466
# Poissons Ratio (y) = 0.00556 0.24889
# Poissons Ratio (z) = 0.19554 0.07355
#
# Static dielectric constant tensor:
#      x y z
#    x 2.499420 -0.183680 0.255180 
#    y -0.183680 2.191700 -0.168750 
#    z 0.255180 -0.168750 1.984980 
# 
# From -- ./inp_files/577281.got.cif
#   From: 2010.05.17/outbox.cif.g08.bks.cpg/sg2_289_cif.got.tgz:577281.got - 2010.06.03 11:33:40.
