data_PCOD9049763
_publ_section_title
;
Structure prediction by ZEFSAII (Michael W. Deem and Ramdas Pophale) SiO2 
 PCOD9049763
Probable space group: P -1
;
_chemical_formula_sum "Si O2"
_cell_formula_units_Z 11
_cell_length_a 10.001622
_cell_length_b 8.313842
_cell_length_c 5.229868
_cell_angle_alpha 102.491278
_cell_angle_beta 79.038777
_cell_angle_gamma 100.325892
_cell_volume 412.483275
_symmetry_space_group_name_H-M "P -1"
_symmetry_group_IT_number 2
_symmetry_cell_setting 'triclinic'
loop_
_space_group_symop_operation_xyz
x,y,z
-x,-y,-z
loop_
_atom_site_type_symbol
_atom_site_label
_atom_site_fract_x
_atom_site_fract_y
_atom_site_fract_z
Si Si1 0.088641 0.542306 0.232232
Si Si2 0.776634 0.103563 0.835538
Si Si3 0.000000 0.000000 0.000000
Si Si4 0.347753 0.448873 0.321312
Si Si5 0.231479 0.184039 0.647617
Si Si6 0.504995 0.226678 0.839803
O O1 0.149560 0.736065 0.283281
O O2 0.220746 0.447098 0.173007
O O3 0.000000 0.500000 0.500000
O O4 0.000000 0.500000 0.000000
O O5 0.616777 0.121625 0.877407
O O6 0.861868 0.097334 0.062198
O O7 0.801275 0.932654 0.631377
O O8 0.093609 0.145237 0.847406
O O9 0.281862 0.367963 0.576757
O O10 0.421890 0.638575 0.347501
O O11 0.451807 0.334820 0.124689
O O12 0.366721 0.136655 0.726581
#
# Coordination Sequence:
#
# PCOD9049763 Si02
#       6
#     2   2   1   2   2   2
#     4  11  27  47  77 108 154 202 254 315 380 455
#     4  11  27  46  70 109 143 196 251 308 382 448
#     4  12  28  44  70 102 156 188 246 308 374 452
#     4  10  24  47  73 111 141 195 250 306 379 452
#     4  12  25  44  74 105 148 192 247 313 377 449
#     4  10  24  48  75 103 146 191 250 315 378 451
#
# _framework density 26.667749000000001
#
# number of rings (size 3 to 8) (size 9 to 14) (size 15 to 20)
#    0.000    1.091    0.000    3.818   10.182    4.364 
#    6.545    0.000    0.000    0.000    0.000    0.000 
#    0.000    0.000    0.000    0.000    0.000    0.000 
#
# Total GULP energy -61398.123293 kJ/mol
# GULP energy per Si atom -5581.647572 kJ/mol
# Density = 2.660705 g / cm^3
# Si number density = 26.667749 Si / 1000 Ang^3
#
#
#
# Elastic Constant Matrix: (Units=GPa)
#
#
# Indices 1 2 3 4 5 6 
#
# 1 182.0668 48.1503 51.9669 -29.5319 -4.9176 3.9920
# 2 48.1503 90.8729 41.5266 -41.9629 -26.6290 15.4877
# 3 51.9669 41.5266 106.6423 -31.2005 -1.9746 17.3180
# 4 -29.5319 -41.9629 -31.2005 50.2217 13.7077 -6.2498
# 5 -4.9176 -26.6290 -1.9746 13.7077 32.7213 -15.4154
# 6 3.9920 15.4877 17.3180 -6.2498 -15.4154 48.0776
#
#
#
# Elastic Compliance Matrix: (Units=1/GPa)
#
#
# Indices 1 2 3 4 5 6 
#
# 1 0.006948 -0.002832 -0.002196 0.000827 -0.001364 0.000796
# 2 -0.002832 0.024038 -0.004207 0.012027 0.013849 0.000011
# 3 -0.002196 -0.004207 0.014476 0.005640 -0.007809 -0.005447
# 4 0.000827 0.012027 0.005640 0.035191 -0.006065 -0.003345
# 5 -0.001364 0.013849 -0.007809 -0.006065 0.050182 0.013767
# 6 0.000796 0.000011 -0.005447 -0.003345 0.013767 0.026671
#
#
# Mechanical properties :
#
#
# Convention : Reuss Voigt Hill
#
# Bulk Modulus (GPa) = 37.04736 73.65218 55.34977
# Shear Modulus (GPa) = 27.03119 42.06664 34.54892
#
# Velocity S-wave (km/s) = 3.18721 3.97600 3.60325
# Velocity P-wave (km/s) = 5.24087 6.98259 6.17346
#
# Compressibility (1/GPa) = 0.02699248
#
# Stress axis : x y z
#
# Youngs Moduli (GPa) = 143.92839 41.60150 69.08206
#
# Poissons Ratio (x) = 0.11780 0.15169
# Poissons Ratio (y) = 0.40755 0.29062
# Poissons Ratio (z) = 0.31603 0.17501
#
# Static dielectric constant tensor:
#      x y z
#    x 2.117730 -0.014340 0.075520 
#    y -0.014340 2.081070 0.051620 
#    z 0.075520 0.051620 2.151070 
# 
# From -- ./inp_files/17226.got.cif
#   From: 2010.05.17/outbox.cif.g08.bks.cpg/sg2_9_cif.got.tgz:17226.got - 2010.06.03 11:33:40.
