data_PCOD9049497
_publ_section_title
;
Structure prediction by ZEFSAII (Michael W. Deem and Ramdas Pophale) SiO2 
 PCOD9049497
Probable space group: P -1
;
_chemical_formula_sum "Si O2"
_cell_formula_units_Z 12
_cell_length_a 6.969106
_cell_length_b 18.166940
_cell_length_c 5.195967
_cell_angle_alpha 125.897220
_cell_angle_beta 102.717137
_cell_angle_gamma 103.669418
_cell_volume 460.916154
_symmetry_space_group_name_H-M "P -1"
_symmetry_group_IT_number 2
_symmetry_cell_setting 'triclinic'
loop_
_space_group_symop_operation_xyz
x,y,z
-x,-y,-z
loop_
_atom_site_type_symbol
_atom_site_label
_atom_site_fract_x
_atom_site_fract_y
_atom_site_fract_z
Si Si1 0.156112 0.143587 0.729928
Si Si2 0.257191 0.978226 0.299556
Si Si3 0.447121 0.718447 0.523473
Si Si4 0.154801 0.524319 0.347719
Si Si5 0.344613 0.399253 0.907611
Si Si6 0.063915 0.772359 0.504820
O O1 0.913219 0.067186 0.607849
O O2 0.109891 0.230221 0.763966
O O3 0.241161 0.081478 0.439231
O O4 0.335165 0.188403 0.101754
O O5 0.500000 0.000000 0.500000
O O6 0.166980 0.885787 0.882776
O O7 0.338940 0.639032 0.566836
O O8 0.512573 0.662224 0.204719
O O9 0.264606 0.751075 0.442656
O O10 0.000000 0.500000 0.500000
O O11 0.267193 0.448393 0.218336
O O12 0.000000 0.500000 0.000000
O O13 0.105267 0.318921 0.548614
O O14 0.500000 0.500000 0.000000
#
# Coordination Sequence:
#
# PCOD9049497 Si02
#       6
#     2   2   2   2   2   2
#     4  11  26  45  73 107 148 201 257 323 391 474
#     4  11  24  47  71 107 150 194 258 327 388 472
#     4  11  24  48  75 112 155 206 263 320 395 477
#     4  11  25  48  80 114 160 210 266 330 397 470
#     4  10  24  46  75 112 156 199 260 319 386 474
#     4  12  24  45  76 108 153 198 262 314 404 459
#
# _framework density 26.035101999999998
#
# number of rings (size 3 to 8) (size 9 to 14) (size 15 to 20)
#    0.000    1.000    5.000    0.500    0.000    7.333 
#    0.000    5.833    0.000    0.000    0.000    0.000 
#    0.000    0.000    0.000    0.000    0.000    0.000 
#
# Total GULP energy -67121.169924 kJ/mol
# GULP energy per Si atom -5593.430827 kJ/mol
# Density = 2.597585 g / cm^3
# Si number density = 26.035102 Si / 1000 Ang^3
#
#
#
# Elastic Constant Matrix: (Units=GPa)
#
#
# Indices 1 2 3 4 5 6 
#
# 1 264.7954 75.5375 62.5280 1.1269 -19.5191 -23.6337
# 2 75.5375 84.7075 46.3136 3.6046 -9.6972 -6.9399
# 3 62.5280 46.3136 63.2035 -1.1344 3.7013 -8.7745
# 4 1.1269 3.6046 -1.1344 37.8401 0.5323 -10.2091
# 5 -19.5191 -9.6972 3.7013 0.5323 72.0860 12.7948
# 6 -23.6337 -6.9399 -8.7745 -10.2091 12.7948 59.2036
#
#
#
# Elastic Compliance Matrix: (Units=1/GPa)
#
#
# Indices 1 2 3 4 5 6 
#
# 1 0.005577 -0.003027 -0.003183 0.000345 0.001045 0.001233
# 2 -0.003027 0.022517 -0.014012 -0.003028 0.003284 -0.001878
# 3 -0.003183 -0.014012 0.030020 0.003248 -0.004871 0.003149
# 4 0.000345 -0.003028 0.003248 0.028312 -0.001667 0.005506
# 5 0.001045 0.003284 -0.004871 -0.001667 0.015491 -0.003555
# 6 0.001233 -0.001878 0.003149 0.005506 -0.003555 0.019348
#
#
# Mechanical properties :
#
#
# Convention : Reuss Voigt Hill
#
# Bulk Modulus (GPa) = 56.59805 86.82941 71.71373
# Shear Modulus (GPa) = 29.83312 49.04776 39.44044
#
# Velocity S-wave (km/s) = 3.38876 4.34511 3.89639
# Velocity P-wave (km/s) = 6.09080 7.65484 6.91717
#
# Compressibility (1/GPa) = 0.01766845
#
# Stress axis : x y z
#
# Youngs Moduli (GPa) = 179.29496 44.41100 33.31140
#
# Poissons Ratio (x) = 0.13444 0.10604
# Poissons Ratio (y) = 0.54274 0.46677
# Poissons Ratio (z) = 0.57077 0.62230
#
# Static dielectric constant tensor:
#      x y z
#    x 2.003530 -0.032280 0.017790 
#    y -0.032280 2.382940 0.044300 
#    z 0.017790 0.044300 2.117020 
# 
# From -- ./inp_files/11729.got.cif
#   From: 2010.05.17/outbox.cif.g08.bks.cpg/sg2_6_cif.got.tgz:11729.got - 2010.06.03 11:33:40.
