data_PCOD9049043
_publ_section_title
;
Structure prediction by ZEFSAII (Michael W. Deem and Ramdas Pophale) SiO2 
 PCOD9049043
Probable space group: P -1
;
_chemical_formula_sum "Si O2"
_cell_formula_units_Z 14
_cell_length_a 22.737501
_cell_length_b 11.615052
_cell_length_c 14.529815
_cell_angle_alpha 30.614644
_cell_angle_beta 21.590351
_cell_angle_gamma 30.286828
_cell_volume 676.833988
_symmetry_space_group_name_H-M "P -1"
_symmetry_group_IT_number 2
_symmetry_cell_setting 'triclinic'
loop_
_space_group_symop_operation_xyz
x,y,z
-x,-y,-z
loop_
_atom_site_type_symbol
_atom_site_label
_atom_site_fract_x
_atom_site_fract_y
_atom_site_fract_z
Si Si1 0.022137 0.894265 0.297491
Si Si2 0.522901 0.122168 0.102129
Si Si3 0.853010 0.233984 0.595621
Si Si4 0.322756 0.150763 0.107384
Si Si5 0.874139 0.646637 0.158388
Si Si6 0.269990 0.534419 0.062900
Si Si7 0.502146 0.867369 0.491357
O O1 0.128264 0.783432 0.310665
O O2 0.089946 0.699871 0.252022
O O3 0.827159 0.947186 0.574626
O O4 0.071778 0.129073 0.043822
O O5 0.369089 0.311849 0.139486
O O6 0.463261 0.037039 0.342062
O O7 0.666974 0.237629 0.835973
O O8 0.628244 0.896898 0.038186
O O9 0.874950 0.473625 0.360315
O O10 0.000000 0.000000 0.500000
O O11 0.265880 0.416631 0.050302
O O12 0.500000 0.000000 0.000000
O O13 0.699128 0.713355 0.311018
O O14 0.000000 0.500000 0.000000
O O15 0.384530 0.704658 0.776026
O O16 0.500000 0.000000 0.500000
#
# Coordination Sequence:
#
# PCOD9049043 Si02
#       7
#     2   2   2   2   2   2   2
#     4  12  24  42  67  97 131 168 219 272 328 381
#     4  11  22  42  66  96 135 170 217 265 325 385
#     4  12  21  38  65 100 128 163 213 270 328 383
#     4  10  24  46  67  90 127 181 225 266 317 384
#     4  12  23  37  64  99 133 164 207 270 326 388
#     4  11  25  42  67  93 136 178 215 265 320 392
#     4  12  24  41  64 102 136 166 211 268 338 385
#
# _framework density 20.684540999999999
#
# number of rings (size 3 to 8) (size 9 to 14) (size 15 to 20)
#    0.000    0.571    7.143    0.429    4.000    1.714 
#    0.000    2.857    0.000    6.000    0.000    0.000 
#    0.000    0.000    0.000    0.000    0.000    0.000 
#
# Total GULP energy -78205.730411 kJ/mol
# GULP energy per Si atom -5586.123601 kJ/mol
# Density = 2.063746 g / cm^3
# Si number density = 20.684541 Si / 1000 Ang^3
#
#
#
# Elastic Constant Matrix: (Units=GPa)
#
#
# Indices 1 2 3 4 5 6 
#
# 1 71.0120 26.3292 34.5743 -19.7447 18.4776 17.4709
# 2 26.3292 72.2402 27.5399 -12.7296 21.1427 10.3916
# 3 34.5743 27.5399 64.8735 -20.8660 14.7881 2.6707
# 4 -19.7447 -12.7296 -20.8660 50.2404 -6.1981 -2.5684
# 5 18.4776 21.1427 14.7881 -6.1981 37.0484 4.2923
# 6 17.4709 10.3916 2.6707 -2.5684 4.2923 39.4806
#
#
#
# Elastic Compliance Matrix: (Units=1/GPa)
#
#
# Indices 1 2 3 4 5 6 
#
# 1 0.023810 -0.001615 -0.009056 0.004048 -0.005663 -0.008620
# 2 -0.001615 0.019232 -0.005117 0.001017 -0.007597 -0.003109
# 3 -0.009056 -0.005117 0.024358 0.005244 -0.001902 0.004254
# 4 0.004048 0.001017 0.005244 0.023814 -0.000616 -0.000797
# 5 -0.005663 -0.007597 -0.001902 -0.000616 0.034712 0.000820
# 6 -0.008620 -0.003109 0.004254 -0.000797 0.000820 0.029533
#
#
# Mechanical properties :
#
#
# Convention : Reuss Voigt Hill
#
# Bulk Modulus (GPa) = 27.91425 42.77917 35.34671
# Shear Modulus (GPa) = 25.12865 33.33269 29.23067
#
# Velocity S-wave (km/s) = 3.48925 4.01868 3.76329
# Velocity P-wave (km/s) = 5.45506 6.50074 6.00072
#
# Compressibility (1/GPa) = 0.03582399
#
# Stress axis : x y z
#
# Youngs Moduli (GPa) = 41.99953 51.99725 41.05388
#
# Poissons Ratio (x) = 0.08397 0.37179
# Poissons Ratio (y) = 0.06783 0.21006
# Poissons Ratio (z) = 0.38036 0.26606
#
# Static dielectric constant tensor:
#      x y z
#    x 1.758580 0.024000 0.004110 
#    y 0.024000 1.761310 -0.007670 
#    z 0.004110 -0.007670 1.695360 
# 
# From -- ./inp_files/255737.got.cif
#   From: 2010.05.17/outbox.cif.g08.bks.cpg/sg2_128_cif.got.tgz:255737.got - 2010.06.03 11:33:40.
