data_PCOD9049828
_publ_section_title
;
Structure prediction by ZEFSAII (Michael W. Deem and Ramdas Pophale) SiO2 
 PCOD9049828
Probable space group: P -1
;
_chemical_formula_sum "Si O2"
_cell_formula_units_Z 14
_cell_length_a 11.418411
_cell_length_b 10.558482
_cell_length_c 12.182643
_cell_angle_alpha 90.610136
_cell_angle_beta 130.859296
_cell_angle_gamma 52.303197
_cell_volume 667.454787
_symmetry_space_group_name_H-M "P -1"
_symmetry_group_IT_number 2
_symmetry_cell_setting 'triclinic'
loop_
_space_group_symop_operation_xyz
x,y,z
-x,-y,-z
loop_
_atom_site_type_symbol
_atom_site_label
_atom_site_fract_x
_atom_site_fract_y
_atom_site_fract_z
Si Si1 0.316350 0.769787 0.771407
Si Si2 0.543680 0.385845 0.375262
Si Si3 0.956039 0.534539 0.344828
Si Si4 0.817260 0.187943 0.975065
Si Si5 0.644237 0.075993 0.020903
Si Si6 0.881742 0.316780 0.203807
Si Si7 0.143335 0.618092 0.304115
O O1 0.321384 0.775307 0.643521
O O2 0.259343 0.937415 0.800983
O O3 0.153183 0.758634 0.718307
O O4 0.602557 0.545862 0.989317
O O5 0.328601 0.455778 0.316888
O O6 0.737908 0.328146 0.576547
O O7 0.384661 0.598677 0.216018
O O8 0.009341 0.362263 0.322348
O O9 0.000000 0.500000 0.500000
O O10 0.128389 0.525140 0.389535
O O11 0.652225 0.768136 0.148253
O O12 0.667217 0.184858 0.958325
O O13 0.977703 0.172205 0.157538
O O14 0.000000 0.000000 0.000000
O O15 0.847683 0.843327 0.095109
#
# Coordination Sequence:
#
# PCOD9049828 Si02
#       7
#     2   2   2   2   2   2   2
#     4   8  15  32  55  79 106 136 182 232 269 314
#     4  10  20  35  54  84 109 146 183 222 283 321
#     4  11  21  37  58  76 114 152 184 220 275 330
#     4  10  17  34  61  83 106 142 183 229 274 317
#     4  10  20  35  57  87 104 141 190 229 267 325
#     4   8  16  30  54  83 103 139 190 219 261 331
#     4  11  22  34  54  83 114 142 183 226 272 333
#
# _framework density 20.975204000000002
#
# number of rings (size 3 to 8) (size 9 to 14) (size 15 to 20)
#    0.000    2.286    1.429    4.714    0.000    0.571 
#    0.000    6.429    0.000    1.714    0.000    0.000 
#    0.000    0.000    0.000    0.000    0.000    0.000 
#
# Total GULP energy -78130.942619 kJ/mol
# GULP energy per Si atom -5580.781616 kJ/mol
# Density = 2.092746 g / cm^3
# Si number density = 20.975204 Si / 1000 Ang^3
#
#
#
# Elastic Constant Matrix: (Units=GPa)
#
#
# Indices 1 2 3 4 5 6 
#
# 1 106.1854 21.1272 16.4247 6.5459 -3.5439 -16.6707
# 2 21.1272 86.4710 13.5113 8.4963 4.9734 -24.8674
# 3 16.4247 13.5113 41.8468 1.9357 -2.8971 -7.3270
# 4 6.5459 8.4963 1.9357 19.6881 -1.6255 -4.1816
# 5 -3.5439 4.9734 -2.8971 -1.6255 23.7224 3.7521
# 6 -16.6707 -24.8674 -7.3270 -4.1816 3.7521 32.5177
#
#
#
# Elastic Compliance Matrix: (Units=1/GPa)
#
#
# Indices 1 2 3 4 5 6 
#
# 1 0.010831 -0.000894 -0.003153 -0.002038 0.000677 0.003818
# 2 -0.000894 0.016365 -0.003136 -0.004522 -0.006071 0.011469
# 3 -0.003153 -0.003136 0.026642 0.000401 0.003203 0.001671
# 4 -0.002038 -0.004522 0.000401 0.054160 0.004074 0.002082
# 5 0.000677 -0.006071 0.003203 0.004074 0.045512 -0.008301
# 6 0.003818 0.011469 0.001671 0.002082 -0.008301 0.043082
#
#
# Mechanical properties :
#
#
# Convention : Reuss Voigt Hill
#
# Bulk Modulus (GPa) = 25.33426 37.40331 31.36878
# Shear Modulus (GPa) = 22.30998 27.41498 24.86248
#
# Velocity S-wave (km/s) = 3.26488 3.61919 3.44659
# Velocity P-wave (km/s) = 5.13001 5.94438 5.55214
#
# Compressibility (1/GPa) = 0.03947224
#
# Stress axis : x y z
#
# Youngs Moduli (GPa) = 92.32988 61.10708 37.53429
#
# Poissons Ratio (x) = 0.05465 0.11833
# Poissons Ratio (y) = 0.08257 0.11770
# Poissons Ratio (z) = 0.29108 0.19162
#
# Static dielectric constant tensor:
#      x y z
#    x 1.747830 -0.024060 0.009870 
#    y -0.024060 1.842390 -0.029810 
#    z 0.009870 -0.029810 1.794280 
# 
# From -- ./inp_files/226633.got.cif
#   From: 2010.05.17/outbox.cif.g08.bks.cpg/sg2_114_cif.got.tgz:226633.got - 2010.06.03 11:33:40.
