data_PCOD9049817
_publ_section_title
;
Structure prediction by ZEFSAII (Michael W. Deem and Ramdas Pophale) SiO2 
 PCOD9049817
Probable space group: P -1
;
_chemical_formula_sum "Si O2"
_cell_formula_units_Z 11
_cell_length_a 16.160615
_cell_length_b 12.823104
_cell_length_c 4.708692
_cell_angle_alpha 119.392778
_cell_angle_beta 113.269130
_cell_angle_gamma 28.722126
_cell_volume 407.101395
_symmetry_space_group_name_H-M "P -1"
_symmetry_group_IT_number 2
_symmetry_cell_setting 'triclinic'
loop_
_space_group_symop_operation_xyz
x,y,z
-x,-y,-z
loop_
_atom_site_type_symbol
_atom_site_label
_atom_site_fract_x
_atom_site_fract_y
_atom_site_fract_z
Si Si1 0.325503 0.840621 0.632895
Si Si2 0.538038 0.685975 0.196161
Si Si3 0.950746 0.312461 0.502773
Si Si4 0.500000 0.000000 0.500000
Si Si5 0.882670 0.541323 0.223551
Si Si6 0.799106 0.268141 0.557139
O O1 0.467108 0.694337 0.381019
O O2 0.299817 0.745373 0.639179
O O3 0.384420 0.867200 0.988388
O O4 0.146162 0.062865 0.523351
O O5 0.568281 0.790984 0.441512
O O6 0.687901 0.446707 0.907195
O O7 0.932887 0.360657 0.212590
O O8 0.824770 0.348895 0.482215
O O9 0.909786 0.477971 0.849262
O O10 0.686146 0.804147 0.335449
O O11 0.000000 0.500000 0.500000
O O12 0.000000 0.000000 0.500000
#
# Coordination Sequence:
#
# PCOD9049817 Si02
#       6
#     2   2   2   1   2   2
#     4  11  25  46  77 106 145 192 243 307 365 433
#     4  12  26  47  70 112 143 193 247 296 370 433
#     4  11  24  46  70 106 143 186 246 291 371 427
#     4  12  28  46  78 104 156 188 248 300 366 442
#     4  12  26  46  71 105 148 197 239 299 359 440
#     4  10  24  47  75 105 148 190 242 306 364 436
#
# _framework density 27.020298
#
# number of rings (size 3 to 8) (size 9 to 14) (size 15 to 20)
#    0.000    0.727    1.818    4.909    2.545    4.364 
#    0.000    8.182    0.000    0.000    0.000    0.000 
#    0.000    0.000    0.000    0.000    0.000    0.000 
#
# Total GULP energy -61342.644462 kJ/mol
# GULP energy per Si atom -5576.604042 kJ/mol
# Density = 2.695880 g / cm^3
# Si number density = 27.020298 Si / 1000 Ang^3
#
#
#
# Elastic Constant Matrix: (Units=GPa)
#
#
# Indices 1 2 3 4 5 6 
#
# 1 122.9978 9.5487 23.8300 12.6214 -18.6603 -0.1818
# 2 9.5487 94.7706 24.6803 30.3383 -13.3336 -1.5481
# 3 23.8300 24.6803 72.0302 0.3536 -19.4177 7.8894
# 4 12.6214 30.3383 0.3536 57.3274 3.1703 -4.2552
# 5 -18.6603 -13.3336 -19.4177 3.1703 41.0162 2.4216
# 6 -0.1818 -1.5481 7.8894 -4.2552 2.4216 50.7427
#
#
#
# Elastic Compliance Matrix: (Units=1/GPa)
#
#
# Indices 1 2 3 4 5 6 
#
# 1 0.009374 0.001133 -0.002490 -0.002848 0.003672 0.000041
# 2 0.001133 0.014759 -0.004379 -0.008227 0.003861 0.000261
# 3 -0.002490 -0.004379 0.018166 0.002191 0.006055 -0.003072
# 4 -0.002848 -0.008227 0.002191 0.022790 -0.004785 0.001538
# 5 0.003672 0.003861 0.006055 -0.004785 0.030701 -0.002677
# 6 0.000041 0.000261 -0.003072 0.001538 -0.002677 0.020450
#
#
# Mechanical properties :
#
#
# Convention : Reuss Voigt Hill
#
# Bulk Modulus (GPa) = 32.44025 45.10184 38.77105
# Shear Modulus (GPa) = 36.23505 45.26656 40.75081
#
# Velocity S-wave (km/s) = 3.66598 4.09746 3.88771
# Velocity P-wave (km/s) = 5.47277 6.25409 5.87643
#
# Compressibility (1/GPa) = 0.03082590
#
# Stress axis : x y z
#
# Youngs Moduli (GPa) = 106.67680 67.75367 55.04923
#
# Poissons Ratio (x) = -0.07677 0.13708
# Poissons Ratio (y) = -0.12087 0.24108
# Poissons Ratio (z) = 0.26564 0.29672
#
# Static dielectric constant tensor:
#      x y z
#    x 2.116230 -0.017450 0.080150 
#    y -0.017450 2.212550 -0.032360 
#    z 0.080150 -0.032360 2.076870 
# 
# From -- ./inp_files/94121.got.cif
#   From: 2010.05.17/outbox.cif.g08.bks.cpg/sg2_48_cif.got.tgz:94121.got - 2010.06.03 11:33:40.
