data_PCOD9049946
_publ_section_title
;
Structure prediction by ZEFSAII (Michael W. Deem and Ramdas Pophale) SiO2 
 PCOD9049946
Probable space group: P -1
;
_chemical_formula_sum "Si O2"
_cell_formula_units_Z 14
_cell_length_a 8.267166
_cell_length_b 11.836288
_cell_length_c 5.002690
_cell_angle_alpha 84.432191
_cell_angle_beta 100.274351
_cell_angle_gamma 80.330021
_cell_volume 470.746128
_symmetry_space_group_name_H-M "P -1"
_symmetry_group_IT_number 2
_symmetry_cell_setting 'triclinic'
loop_
_space_group_symop_operation_xyz
x,y,z
-x,-y,-z
loop_
_atom_site_type_symbol
_atom_site_label
_atom_site_fract_x
_atom_site_fract_y
_atom_site_fract_z
Si Si1 0.501474 0.115588 0.642695
Si Si2 0.314908 0.629130 0.162229
Si Si3 0.693227 0.141481 0.212933
Si Si4 0.308475 0.413222 0.834906
Si Si5 0.220661 0.241950 0.232176
Si Si6 0.976204 0.334611 0.526107
Si Si7 0.090200 0.080851 0.826098
O O1 0.565755 0.105710 0.962299
O O2 0.317622 0.191561 0.538620
O O3 0.500000 0.000000 0.500000
O O4 0.621836 0.175452 0.476095
O O5 0.259562 0.750873 0.957960
O O6 0.517508 0.609308 0.275901
O O7 0.197409 0.614553 0.385455
O O8 0.294725 0.531818 0.962544
O O9 0.817510 0.019022 0.318931
O O10 0.126853 0.395596 0.673932
O O11 0.334568 0.315784 0.095002
O O12 0.044704 0.321327 0.243677
O O13 0.197208 0.137149 0.062203
O O14 0.991974 0.196612 0.632120
O O15 0.000000 0.000000 0.000000
#
# Coordination Sequence:
#
# PCOD9049946 Si02
#       7
#     2   2   2   2   2   2   2
#     4  12  24  42  72 105 150 196 247 304 373 441
#     4  11  23  47  73 101 147 191 247 308 370 442
#     4  12  25  44  69 111 146 197 249 299 377 449
#     4  10  24  48  70 103 139 192 249 307 370 443
#     4  11  24  42  70 103 146 188 250 308 367 450
#     4  11  24  45  71 103 143 189 246 308 372 444
#     4  11  24  42  65 101 150 189 237 302 370 448
#
# _framework density 29.740019
#
# number of rings (size 3 to 8) (size 9 to 14) (size 15 to 20)
#    0.000    0.857    4.286    2.571    2.000    2.286 
#    2.571    2.143    0.000    0.000    0.000    0.000 
#    0.000    0.000    0.000    0.000    0.000    0.000 
#
# Total GULP energy -78469.571984 kJ/mol
# GULP energy per Si atom -5604.969427 kJ/mol
# Density = 2.967233 g / cm^3
# Si number density = 29.740019 Si / 1000 Ang^3
#
#
#
# Elastic Constant Matrix: (Units=GPa)
#
#
# Indices 1 2 3 4 5 6 
#
# 1 220.5986 62.9285 48.0393 24.9162 -41.9398 -7.1589
# 2 62.9285 169.3651 22.0961 30.2186 -4.0167 24.1044
# 3 48.0393 22.0961 109.2656 8.0425 -26.8340 0.5902
# 4 24.9162 30.2186 8.0425 49.5211 -5.2538 -6.5975
# 5 -41.9398 -4.0167 -26.8340 -5.2538 66.3955 7.1456
# 6 -7.1589 24.1044 0.5902 -6.5975 7.1456 72.0701
#
#
#
# Elastic Compliance Matrix: (Units=1/GPa)
#
#
# Indices 1 2 3 4 5 6 
#
# 1 0.006137 -0.001913 -0.001496 -0.001249 0.002966 0.000853
# 2 -0.001913 0.007881 -0.000669 -0.004259 -0.001004 -0.003111
# 3 -0.001496 -0.000669 0.010802 -0.000283 0.003399 -0.000376
# 4 -0.001249 -0.004259 -0.000283 0.023966 0.000363 0.003461
# 5 0.002966 -0.001004 0.003399 0.000363 0.018404 -0.001189
# 6 0.000853 -0.003111 -0.000376 0.003461 -0.001189 0.015438
#
#
# Mechanical properties :
#
#
# Convention : Reuss Voigt Hill
#
# Bulk Modulus (GPa) = 60.00593 85.03968 72.52281
# Shear Modulus (GPa) = 51.89885 62.00836 56.95361
#
# Velocity S-wave (km/s) = 4.18195 4.57115 4.38088
# Velocity P-wave (km/s) = 6.59840 7.51778 7.07304
#
# Compressibility (1/GPa) = 0.01666502
#
# Stress axis : x y z
#
# Youngs Moduli (GPa) = 162.93800 126.87965 92.57193
#
# Poissons Ratio (x) = 0.24278 0.13846
# Poissons Ratio (y) = 0.31178 0.06192
# Poissons Ratio (z) = 0.24370 0.08487
#
# Static dielectric constant tensor:
#      x y z
#    x 2.591720 -0.048570 0.083060 
#    y -0.048570 2.323150 -0.050340 
#    z 0.083060 -0.050340 2.226230 
# 
# From -- ./inp_files/27676.got.cif
#   From: 2010.05.17/outbox.cif.g08.bks.cpg/sg2_14_cif.got.tgz:27676.got - 2010.06.03 11:33:40.
