data_PCOD9049532
_publ_section_title
;
Structure prediction by ZEFSAII (Michael W. Deem and Ramdas Pophale) SiO2 
 PCOD9049532
Probable space group: P -1
;
_chemical_formula_sum "Si O2"
_cell_formula_units_Z 12
_cell_length_a 8.423407
_cell_length_b 11.700438
_cell_length_c 9.438189
_cell_angle_alpha 134.464187
_cell_angle_beta 74.669343
_cell_angle_gamma 132.118612
_cell_volume 453.862656
_symmetry_space_group_name_H-M "P -1"
_symmetry_group_IT_number 2
_symmetry_cell_setting 'triclinic'
loop_
_space_group_symop_operation_xyz
x,y,z
-x,-y,-z
loop_
_atom_site_type_symbol
_atom_site_label
_atom_site_fract_x
_atom_site_fract_y
_atom_site_fract_z
Si Si1 0.281530 0.872791 0.620649
Si Si2 0.083630 0.447935 0.153002
Si Si3 0.774864 0.049691 0.676782
Si Si4 0.941893 0.777202 0.787357
Si Si5 0.204006 0.308065 0.575230
Si Si6 0.520533 0.355944 0.966664
O O1 0.095700 0.628052 0.378244
O O2 0.174684 0.825914 0.760816
O O3 0.525011 0.950463 0.609093
O O4 0.318512 0.087178 0.761046
O O5 0.179987 0.388442 0.194809
O O6 0.258355 0.581275 0.096703
O O7 0.860938 0.215854 0.932750
O O8 0.981457 0.186551 0.628725
O O9 0.745852 0.845983 0.551133
O O10 0.824718 0.686994 0.582209
O O11 0.000000 0.000000 0.000000
O O12 0.411433 0.552384 0.809942
O O13 0.500000 0.500000 0.000000
#
# Coordination Sequence:
#
# PCOD9049532 Si02
#       6
#     2   2   2   2   2   2
#     4  12  28  45  78 108 147 189 253 299 365 437
#     4  11  25  47  72 106 154 184 241 306 371 422
#     4  10  24  47  76 112 138 198 246 302 356 436
#     4  12  26  49  71 107 153 200 232 305 372 431
#     4  10  24  46  77 105 154 188 246 301 366 426
#     4  11  25  47  77 108 139 195 253 300 357 442
#
# _framework density 26.439719
#
# number of rings (size 3 to 8) (size 9 to 14) (size 15 to 20)
#    0.000    1.000    1.667    3.000   11.667    2.000 
#    3.000    2.500    0.000    0.000    0.000    0.000 
#    0.000    0.000    0.000    0.000    0.000    0.000 
#
# Total GULP energy -67114.572512 kJ/mol
# GULP energy per Si atom -5592.881043 kJ/mol
# Density = 2.637954 g / cm^3
# Si number density = 26.439719 Si / 1000 Ang^3
#
#
#
# Elastic Constant Matrix: (Units=GPa)
#
#
# Indices 1 2 3 4 5 6 
#
# 1 100.1940 25.2866 60.2227 -9.2505 -11.9405 -12.8045
# 2 25.2866 78.6210 60.6819 2.7597 1.1436 -30.0110
# 3 60.2227 60.6819 276.7218 8.3560 7.1506 -20.1791
# 4 -9.2505 2.7597 8.3560 47.8871 -7.5612 -5.8923
# 5 -11.9405 1.1436 7.1506 -7.5612 50.1134 -6.8539
# 6 -12.8045 -30.0110 -20.1791 -5.8923 -6.8539 51.7575
#
#
#
# Elastic Compliance Matrix: (Units=1/GPa)
#
#
# Indices 1 2 3 4 5 6 
#
# 1 0.013140 -0.001510 -0.002591 0.004083 0.004483 0.002424
# 2 -0.001510 0.019441 -0.003262 0.000539 0.001088 0.009833
# 3 -0.002591 -0.003262 0.004908 -0.001548 -0.001615 -0.001009
# 4 0.004083 0.000539 -0.001548 0.023238 0.005243 0.004059
# 5 0.004483 0.001088 -0.001615 0.005243 0.022663 0.004708
# 6 0.002424 0.009833 -0.001009 0.004059 0.004708 0.026314
#
#
# Mechanical properties :
#
#
# Convention : Reuss Voigt Hill
#
# Bulk Modulus (GPa) = 43.93003 83.10213 63.51608
# Shear Modulus (GPa) = 37.87381 50.57464 44.22422
#
# Velocity S-wave (km/s) = 3.78889 4.37833 4.09423
# Velocity P-wave (km/s) = 5.98265 7.55373 6.81362
#
# Compressibility (1/GPa) = 0.02276347
#
# Stress axis : x y z
#
# Youngs Moduli (GPa) = 76.10392 51.43715 203.75656
#
# Poissons Ratio (x) = 0.07766 0.52792
# Poissons Ratio (y) = 0.11490 0.66466
# Poissons Ratio (z) = 0.19718 0.16779
#
# Static dielectric constant tensor:
#      x y z
#    x 2.275690 0.033630 0.000290 
#    y 0.033630 2.076660 -0.028910 
#    z 0.000290 -0.028910 2.025900 
# 
# From -- ./inp_files/183537.got.cif
#   From: 2010.05.17/outbox.cif.g08.bks.cpg/sg2_92_cif.got.tgz:183537.got - 2010.06.03 11:33:40.
