data_PCOD9049315
_publ_section_title
;
Structure prediction by ZEFSAII (Michael W. Deem and Ramdas Pophale) SiO2 
 PCOD9049315
Probable space group: P -1
;
_chemical_formula_sum "Si O2"
_cell_formula_units_Z 14
_cell_length_a 21.290909
_cell_length_b 15.737090
_cell_length_c 12.484787
_cell_angle_alpha 142.633019
_cell_angle_beta 30.733955
_cell_angle_gamma 163.823614
_cell_volume 581.518061
_symmetry_space_group_name_H-M "P -1"
_symmetry_group_IT_number 2
_symmetry_cell_setting 'triclinic'
loop_
_space_group_symop_operation_xyz
x,y,z
-x,-y,-z
loop_
_atom_site_type_symbol
_atom_site_label
_atom_site_fract_x
_atom_site_fract_y
_atom_site_fract_z
Si Si1 0.628338 0.408411 0.668680
Si Si2 0.302740 0.295529 0.306091
Si Si3 0.629519 0.352926 0.853070
Si Si4 0.541073 0.197375 0.183168
Si Si5 0.694979 0.771127 0.397452
Si Si6 0.986899 0.789895 0.967618
Si Si7 0.715230 0.273433 0.230367
O O1 0.692911 0.621539 0.730472
O O2 0.715958 0.474588 0.727938
O O3 0.746228 0.408063 0.419203
O O4 0.297082 0.062203 0.804183
O O5 0.524735 0.592635 0.357197
O O6 0.395808 0.229889 0.098544
O O7 0.000000 0.000000 0.500000
O O8 0.870019 0.619473 0.853751
O O9 0.495872 0.064912 0.770494
O O10 0.294525 0.059775 0.404168
O O11 0.605764 0.244816 0.259976
O O12 0.791872 0.521312 0.074202
O O13 0.500000 0.000000 0.000000
O O14 0.500000 0.500000 0.500000
O O15 0.939559 0.909602 0.161059
O O16 0.000000 0.500000 0.000000
#
# Coordination Sequence:
#
# PCOD9049315 Si02
#       7
#     2   2   2   2   2   2   2
#     4  12  26  48  71 101 146 187 227 306 361 413
#     4  11  24  45  68 101 137 184 241 289 347 423
#     4  11  25  45  67 108 143 183 239 284 362 429
#     4  11  21  45  72 103 139 189 239 287 342 421
#     4   9  21  41  69 102 135 182 234 293 348 408
#     4  10  24  46  72 104 145 181 238 297 355 419
#     4  12  25  46  69 100 143 191 240 289 356 425
#
# _framework density 24.074919000000001
#
# number of rings (size 3 to 8) (size 9 to 14) (size 15 to 20)
#    0.000    1.143    2.857    2.571    4.000    2.857 
#    5.143    0.000    0.000    0.000    0.000    0.000 
#    0.000    0.000    0.000    0.000    0.000    0.000 
#
# Total GULP energy -78471.615910 kJ/mol
# GULP energy per Si atom -5605.115422 kJ/mol
# Density = 2.402012 g / cm^3
# Si number density = 24.074919 Si / 1000 Ang^3
#
#
#
# Elastic Constant Matrix: (Units=GPa)
#
#
# Indices 1 2 3 4 5 6 
#
# 1 125.9259 51.4588 9.5774 7.7939 30.7960 -33.1862
# 2 51.4588 81.5535 10.3267 -5.8288 -9.5934 -0.0284
# 3 9.5774 10.3267 86.2466 3.2993 -17.8107 2.6305
# 4 7.7939 -5.8288 3.2993 50.1582 -8.4732 4.2623
# 5 30.7960 -9.5934 -17.8107 -8.4732 40.3897 8.9169
# 6 -33.1862 -0.0284 2.6305 4.2623 8.9169 17.8526
#
#
#
# Elastic Compliance Matrix: (Units=1/GPa)
#
#
# Indices 1 2 3 4 5 6 
#
# 1 -0.010143 0.008821 0.005042 0.008529 0.020922 -0.032069
# 2 0.008821 0.005301 -0.005189 -0.005031 -0.014460 0.025594
# 3 0.005042 -0.005189 0.010790 -0.003533 -0.003330 0.010282
# 4 0.008529 -0.005031 -0.003533 0.015056 -0.010022 0.017778
# 5 0.020922 -0.014460 -0.003330 -0.010022 -0.008336 0.045915
# 6 -0.032069 0.025594 0.010282 0.017778 0.045915 -0.032252
#
#
# Mechanical properties :
#
#
# Convention : Reuss Voigt Hill
#
# Bulk Modulus (GPa) = 42.92230 48.49463 45.70847
# Shear Modulus (GPa) = -171.42689 36.50430 -67.46129
#
# Velocity S-wave (km/s) = -8.44750 3.89817 -5.29927
# Velocity P-wave (km/s) = 8.79088 6.35987 4.29137
#
# Compressibility (1/GPa) = 0.02329791
#
# Stress axis : x y z
#
# Youngs Moduli (GPa) = -98.59211 188.62977 92.68033
#
# Poissons Ratio (x) = -1.66389 -0.46734
# Poissons Ratio (y) = 0.86967 0.48088
# Poissons Ratio (z) = 0.49715 0.97873
#
# Static dielectric constant tensor:
#      x y z
#    x 2.177300 0.294740 -0.093810 
#    y 0.294740 2.202080 -0.053900 
#    z -0.093810 -0.053900 1.942280 
# 
# From -- ./inp_files/471955.got.cif
#   From: 2010.05.17/outbox.cif.g08.bks.cpg/sg2_236_cif.got.tgz:471955.got - 2010.06.03 11:33:40.
