data_PCOD9049774
_publ_section_title
;
Structure prediction by ZEFSAII (Michael W. Deem and Ramdas Pophale) SiO2 
 PCOD9049774
Probable space group: P -1
;
_chemical_formula_sum "Si O2"
_cell_formula_units_Z 16
_cell_length_a 5.715323
_cell_length_b 11.473258
_cell_length_c 23.730990
_cell_angle_alpha 27.489985
_cell_angle_beta 109.109740
_cell_angle_gamma 118.281108
_cell_volume 615.805802
_symmetry_space_group_name_H-M "P -1"
_symmetry_group_IT_number 2
_symmetry_cell_setting 'triclinic'
loop_
_space_group_symop_operation_xyz
x,y,z
-x,-y,-z
loop_
_atom_site_type_symbol
_atom_site_label
_atom_site_fract_x
_atom_site_fract_y
_atom_site_fract_z
Si Si1 0.299027 0.660432 0.925351
Si Si2 0.642489 0.565394 0.718949
Si Si3 0.422426 0.094779 0.341807
Si Si4 0.038487 0.224459 0.635795
Si Si5 0.599189 0.596570 0.568049
Si Si6 0.111956 0.569292 0.830643
Si Si7 0.135250 0.052670 0.926656
Si Si8 0.196549 0.807900 0.250421
O O1 0.218272 0.735942 0.825212
O O2 0.506526 0.949857 0.845804
O O3 0.500000 0.500000 0.000000
O O4 0.000000 0.500000 0.000000
O O5 0.573476 0.807589 0.636362
O O6 0.604623 0.559798 0.651673
O O7 0.448424 0.262129 0.857685
O O8 0.933743 0.627236 0.743417
O O9 0.607642 0.375576 0.202679
O O10 0.126515 0.979592 0.339370
O O11 0.554047 0.874580 0.436421
O O12 0.893948 0.105502 0.735117
O O13 0.000000 0.500000 0.500000
O O14 0.357587 0.355603 0.617549
O O15 0.840285 0.509871 0.606835
O O16 0.943763 0.253423 0.972291
O O17 0.994097 0.197742 0.813408
O O18 0.000000 0.000000 0.000000
#
# Coordination Sequence:
#
# PCOD9049774 Si02
#       8
#     2   2   2   2   2   2   2   2
#     4  12  30  49  78 115 160 205 261 330 396 477
#     4  12  27  46  75 105 148 201 256 325 390 472
#     4  11  26  48  72 108 149 195 260 323 392 469
#     4  10  24  47  74 104 147 194 259 316 391 461
#     4  11  27  47  75 107 147 201 255 319 397 471
#     4  12  27  45  73 108 148 197 256 314 399 463
#     4  12  25  47  71 103 151 196 256 313 389 472
#     4  12  26  46  78 109 154 201 261 325 400 475
#
# _framework density 25.982216000000001
#
# number of rings (size 3 to 8) (size 9 to 14) (size 15 to 20)
#    0.000    0.500    5.000    1.500    8.750    4.500 
#    0.000    0.000    0.000    0.000    0.000    0.000 
#    0.000    0.000    0.000    0.000    0.000    0.000 
#
# Total GULP energy -89416.592921 kJ/mol
# GULP energy per Si atom -5588.537058 kJ/mol
# Density = 2.592308 g / cm^3
# Si number density = 25.982216 Si / 1000 Ang^3
#
#
#
# Elastic Constant Matrix: (Units=GPa)
#
#
# Indices 1 2 3 4 5 6 
#
# 1 49.4081 16.6497 36.0030 0.0824 3.9606 15.8583
# 2 16.6497 133.4288 20.9320 6.1916 -14.9952 14.9786
# 3 36.0030 20.9320 76.8172 5.8685 13.6598 12.3900
# 4 0.0824 6.1916 5.8685 56.5468 -3.6799 -2.8239
# 5 3.9606 -14.9952 13.6598 -3.6799 53.2696 2.7740
# 6 15.8583 14.9786 12.3900 -2.8239 2.7740 45.2765
#
#
#
# Elastic Compliance Matrix: (Units=1/GPa)
#
#
# Indices 1 2 3 4 5 6 
#
# 1 0.033444 -0.000949 -0.014578 0.001293 0.001460 -0.007420
# 2 -0.000949 0.008549 -0.002032 -0.000632 0.003067 -0.002167
# 3 -0.014578 -0.002032 0.021488 -0.002319 -0.005162 0.000070
# 4 0.001293 -0.000632 -0.002319 0.018162 0.001501 0.001432
# 5 0.001460 0.003067 -0.005162 0.001501 0.021023 -0.001308
# 6 -0.007420 -0.002167 0.000070 0.001432 -0.001308 0.025553
#
#
# Mechanical properties :
#
#
# Convention : Reuss Voigt Hill
#
# Bulk Modulus (GPa) = 35.25761 45.20263 40.23012
# Shear Modulus (GPa) = 28.93657 43.42319 36.17988
#
# Velocity S-wave (km/s) = 3.34084 4.09255 3.73565
# Velocity P-wave (km/s) = 5.33676 6.30613 5.84159
#
# Compressibility (1/GPa) = 0.02836267
#
# Stress axis : x y z
#
# Youngs Moduli (GPa) = 29.90040 116.96907 46.53774
#
# Poissons Ratio (x) = 0.11105 0.67842
# Poissons Ratio (y) = 0.02839 0.09458
# Poissons Ratio (z) = 0.43588 0.23771
#
# Static dielectric constant tensor:
#      x y z
#    x 2.300040 0.013180 0.126070 
#    y 0.013180 1.996410 -0.026360 
#    z 0.126070 -0.026360 2.053710 
# 
# From -- ./inp_files/525857.got.cif
#   From: 2010.05.17/outbox.cif.g08.bks.cpg/sg2_263_cif.got.tgz:525857.got - 2010.06.03 11:33:40.
