data_PCOD9049071
_publ_section_title
;
Structure prediction by ZEFSAII (Michael W. Deem and Ramdas Pophale) SiO2 
 PCOD9049071
Probable space group: P -1
;
_chemical_formula_sum "Si O2"
_cell_formula_units_Z 9
_cell_length_a 8.452098
_cell_length_b 8.719533
_cell_length_c 8.892066
_cell_angle_alpha 127.349543
_cell_angle_beta 80.762339
_cell_angle_gamma 131.970062
_cell_volume 352.428594
_symmetry_space_group_name_H-M "P -1"
_symmetry_group_IT_number 2
_symmetry_cell_setting 'triclinic'
loop_
_space_group_symop_operation_xyz
x,y,z
-x,-y,-z
loop_
_atom_site_type_symbol
_atom_site_label
_atom_site_fract_x
_atom_site_fract_y
_atom_site_fract_z
Si Si1 0.307769 0.828396 0.291062
Si Si2 0.414700 0.222225 0.284077
Si Si3 0.548453 0.397710 0.065117
Si Si4 0.000000 0.000000 0.500000
Si Si5 0.074901 0.456438 0.611629
O O1 0.060464 0.558172 0.240572
O O2 0.500000 0.000000 0.500000
O O3 0.267558 0.998470 0.310068
O O4 0.385578 0.743724 0.107092
O O5 0.500000 0.500000 0.500000
O O6 0.349105 0.197326 0.105569
O O7 0.646600 0.294925 0.279789
O O8 0.772623 0.683581 0.284160
O O9 0.500000 0.500000 0.000000
O O10 0.018976 0.845875 0.542934
O O11 0.000000 0.500000 0.500000
#
# Coordination Sequence:
#
# PCOD9049071 Si02
#       5
#     2   2   2   1   2
#     4  12  23  44  75 107 147 193 249 308 374 450
#     4  11  24  44  74 107 149 195 246 313 378 451
#     4  11  25  45  74 108 147 201 246 310 384 445
#     4  10  24  46  68 104 154 178 256 304 362 448
#     4  11  23  43  75 103 146 196 245 309 374 441
#
# _framework density 25.537087
#
# number of rings (size 3 to 8) (size 9 to 14) (size 15 to 20)
#    0.000    0.889    2.222    6.000    0.000    3.556 
#    0.000    5.556    0.000    0.000    0.000    0.000 
#    0.000    0.000    0.000    0.000    0.000    0.000 
#
# Total GULP energy -50160.419970 kJ/mol
# GULP energy per Si atom -5573.379997 kJ/mol
# Density = 2.547896 g / cm^3
# Si number density = 25.537087 Si / 1000 Ang^3
#
#
#
# Elastic Constant Matrix: (Units=GPa)
#
#
# Indices 1 2 3 4 5 6 
#
# 1 68.6106 34.5613 8.1473 -8.4394 18.5245 -30.1912
# 2 34.5613 198.9042 39.6003 -30.6493 1.9579 -38.2378
# 3 8.1473 39.6003 127.6271 -14.8005 -3.4602 -16.6314
# 4 -8.4394 -30.6493 -14.8005 56.9348 -7.8640 -0.7449
# 5 18.5245 1.9579 -3.4602 -7.8640 41.4526 -1.7034
# 6 -30.1912 -38.2378 -16.6314 -0.7449 -1.7034 68.9551
#
#
#
# Elastic Compliance Matrix: (Units=1/GPa)
#
#
# Indices 1 2 3 4 5 6 
#
# 1 0.021768 -0.001976 0.000178 0.001064 -0.009078 0.008265
# 2 -0.001976 0.006569 -0.001184 0.003131 0.001173 0.002555
# 3 0.000178 -0.001184 0.008633 0.001806 0.001103 0.001550
# 4 0.001064 0.003131 0.001806 0.020401 0.003519 0.002945
# 5 -0.009078 0.001173 0.001103 0.003519 0.028790 -0.002309
# 6 0.008265 0.002555 0.001550 0.002945 -0.002309 0.019886
#
#
# Mechanical properties :
#
#
# Convention : Reuss Voigt Hill
#
# Bulk Modulus (GPa) = 32.25264 62.19552 47.22408
# Shear Modulus (GPa) = 40.86765 54.32404 47.59584
#
# Velocity S-wave (km/s) = 4.00475 4.61723 4.32185
# Velocity P-wave (km/s) = 5.83448 7.26862 6.59068
#
# Compressibility (1/GPa) = 0.03100521
#
# Stress axis : x y z
#
# Youngs Moduli (GPa) = 45.93885 152.23994 115.83829
#
# Poissons Ratio (x) = 0.30076 -0.02058
# Poissons Ratio (y) = 0.09075 0.13718
# Poissons Ratio (z) = -0.00816 0.18029
#
# Static dielectric constant tensor:
#      x y z
#    x 2.136670 -0.054970 -0.005100 
#    y -0.054970 2.137450 -0.112250 
#    z -0.005100 -0.112250 2.023150 
# 
# From -- ./inp_files/144061.got.cif
#   From: 2010.05.17/outbox.cif.g08.bks.cpg/sg2_73_cif.got.tgz:144061.got - 2010.06.03 11:33:40.
