data_PCOD9049529
_publ_section_title
;
Structure prediction by ZEFSAII (Michael W. Deem and Ramdas Pophale) SiO2 
 PCOD9049529
Probable space group: P -1
;
_chemical_formula_sum "Si O2"
_cell_formula_units_Z 14
_cell_length_a 23.874537
_cell_length_b 16.572986
_cell_length_c 7.298372
_cell_angle_alpha 143.054291
_cell_angle_beta 45.504112
_cell_angle_gamma 159.155999
_cell_volume 603.128909
_symmetry_space_group_name_H-M "P -1"
_symmetry_group_IT_number 2
_symmetry_cell_setting 'triclinic'
loop_
_space_group_symop_operation_xyz
x,y,z
-x,-y,-z
loop_
_atom_site_type_symbol
_atom_site_label
_atom_site_fract_x
_atom_site_fract_y
_atom_site_fract_z
Si Si1 0.155850 0.651827 0.837029
Si Si2 0.523327 0.684085 0.354852
Si Si3 0.660834 0.826620 0.685171
Si Si4 0.129453 0.394678 0.114137
Si Si5 0.168889 0.197230 0.217256
Si Si6 0.337983 0.840101 0.129585
Si Si7 0.133447 0.108401 0.708200
O O1 0.118752 0.477321 0.462937
O O2 0.245644 0.725089 0.941040
O O3 0.000000 0.500000 0.000000
O O4 0.271726 0.929096 0.962122
O O5 0.630495 0.820636 0.533919
O O6 0.340766 0.464636 0.399838
O O7 0.610170 0.934532 0.505234
O O8 0.500000 0.500000 0.000000
O O9 0.500000 0.500000 0.500000
O O10 0.796283 0.920315 0.586096
O O11 0.230462 0.607889 0.106774
O O12 0.200077 0.352751 0.932528
O O13 0.945082 0.078548 0.918077
O O14 0.176578 0.165216 0.928324
O O15 0.055857 0.159080 0.387276
O O16 0.500000 0.000000 0.000000
#
# Coordination Sequence:
#
# PCOD9049529 Si02
#       7
#     2   2   2   2   2   2   2
#     4  11  27  45  69 102 142 176 230 289 343 411
#     4  11  24  42  68  96 138 176 220 294 342 399
#     4  11  25  42  63 100 134 173 228 282 343 405
#     4  10  24  46  76  96 139 190 226 282 353 401
#     4   9  20  40  74  97 124 182 235 266 340 416
#     4  11  29  46  67 106 142 177 235 287 343 413
#     4   9  20  40  73  95 129 180 237 269 336 420
#
# _framework density 23.212285999999999
#
# number of rings (size 3 to 8) (size 9 to 14) (size 15 to 20)
#    0.857    0.857    1.429    0.857   10.000    2.286 
#    0.000    1.429    0.000    0.000    0.000    0.000 
#    0.000    0.000    0.000    0.000    0.000    0.000 
#
# Total GULP energy -78084.127149 kJ/mol
# GULP energy per Si atom -5577.437654 kJ/mol
# Density = 2.315945 g / cm^3
# Si number density = 23.212286 Si / 1000 Ang^3
#
#
#
# Elastic Constant Matrix: (Units=GPa)
#
#
# Indices 1 2 3 4 5 6 
#
# 1 132.8338 74.2573 46.5690 -3.7704 -21.1546 1.0251
# 2 74.2573 90.7905 18.8372 15.3644 -13.0510 -4.1653
# 3 46.5690 18.8372 93.6510 17.8501 -20.0708 -11.6065
# 4 -3.7704 15.3644 17.8501 31.6299 -13.3049 -13.4541
# 5 -21.1546 -13.0510 -20.0708 -13.3049 38.6159 13.7294
# 6 1.0251 -4.1653 -11.6065 -13.4541 13.7294 62.0689
#
#
#
# Elastic Compliance Matrix: (Units=1/GPa)
#
#
# Indices 1 2 3 4 5 6 
#
# 1 0.025022 -0.020784 -0.010707 0.022604 0.009246 -0.000956
# 2 -0.020784 0.029615 0.007682 -0.023547 -0.005451 -0.000131
# 3 -0.010707 0.007682 0.017394 -0.014266 0.000600 0.000720
# 4 0.022604 -0.023547 -0.014266 0.063169 0.016877 0.005338
# 5 0.009246 -0.005451 0.000600 0.016877 0.036999 -0.004932
# 6 -0.000956 -0.000131 0.000720 0.005338 -0.004932 0.018501
#
#
# Mechanical properties :
#
#
# Convention : Reuss Voigt Hill
#
# Bulk Modulus (GPa) = 40.96251 66.28914 53.62582
# Shear Modulus (GPa) = 20.28745 38.30373 29.29559
#
# Velocity S-wave (km/s) = 2.95955 4.06661 3.55642
# Velocity P-wave (km/s) = 5.41884 7.11825 6.32587
#
# Compressibility (1/GPa) = 0.02441257
#
# Stress axis : x y z
#
# Youngs Moduli (GPa) = 39.96410 33.76637 57.49098
#
# Poissons Ratio (x) = 0.70181 0.61558
# Poissons Ratio (y) = 0.83063 -0.44165
# Poissons Ratio (z) = 0.42791 -0.25940
#
# Static dielectric constant tensor:
#      x y z
#    x 1.830100 -0.036220 -0.026330 
#    y -0.036220 1.915700 0.016110 
#    z -0.026330 0.016110 1.957640 
# 
# From -- ./inp_files/355059.got.cif
#   From: 2010.05.17/outbox.cif.g08.bks.cpg/sg2_178_cif.got.tgz:355059.got - 2010.06.03 11:33:40.
