data_PCOD9049751
_publ_section_title
;
Structure prediction by ZEFSAII (Michael W. Deem and Ramdas Pophale) SiO2 
 PCOD9049751
Probable space group: P -1
;
_chemical_formula_sum "Si O2"
_cell_formula_units_Z 14
_cell_length_a 15.498146
_cell_length_b 8.729235
_cell_length_c 4.774433
_cell_angle_alpha 101.697960
_cell_angle_beta 77.843632
_cell_angle_gamma 60.766004
_cell_volume 514.441364
_symmetry_space_group_name_H-M "P -1"
_symmetry_group_IT_number 2
_symmetry_cell_setting 'triclinic'
loop_
_space_group_symop_operation_xyz
x,y,z
-x,-y,-z
loop_
_atom_site_type_symbol
_atom_site_label
_atom_site_fract_x
_atom_site_fract_y
_atom_site_fract_z
Si Si1 0.426825 0.423367 0.610845
Si Si2 0.058576 0.713291 0.318104
Si Si3 0.614308 0.011212 0.270530
Si Si4 0.920653 0.488239 0.265199
Si Si5 0.687458 0.738417 0.638374
Si Si6 0.272958 0.817167 0.068641
Si Si7 0.860678 0.077257 0.317605
O O1 0.500000 0.500000 0.500000
O O2 0.348294 0.405389 0.449808
O O3 0.348392 0.591565 0.936342
O O4 0.510474 0.202254 0.531256
O O5 0.011643 0.650479 0.575226
O O6 0.118328 0.778357 0.495489
O O7 0.129407 0.570738 0.971995
O O8 0.963129 0.878099 0.259747
O O9 0.667858 0.869255 0.435722
O O10 0.672902 0.090913 0.087356
O O11 0.614035 0.875630 0.986618
O O12 0.813612 0.638143 0.562009
O O13 0.000000 0.500000 0.000000
O O14 0.168874 0.887766 0.972483
O O15 0.238199 0.892846 0.431469
#
# Coordination Sequence:
#
# PCOD9049751 Si02
#       7
#     2   2   2   2   2   2   2
#     4  10  24  47  73 106 138 180 233 290 349 419
#     4  11  24  43  65  99 136 178 239 287 340 401
#     4  11  26  44  71 105 139 181 230 285 354 418
#     4  12  27  43  68 100 143 186 233 277 341 418
#     4  12  25  46  72 100 144 184 228 288 350 412
#     4  11  24  42  70 100 140 178 233 283 350 415
#     4  11  23  41  71  97 135 183 228 292 343 407
#
# _framework density 27.213986999999999
#
# number of rings (size 3 to 8) (size 9 to 14) (size 15 to 20)
#    0.000    0.857    0.000    6.429    6.000    4.571 
#    0.000    7.857    0.000    0.000    0.000    0.000 
#    0.000    0.000    0.000    0.000    0.000    0.000 
#
# Total GULP energy -78242.247977 kJ/mol
# GULP energy per Si atom -5588.731998 kJ/mol
# Density = 2.715205 g / cm^3
# Si number density = 27.213987 Si / 1000 Ang^3
#
#
#
# Elastic Constant Matrix: (Units=GPa)
#
#
# Indices 1 2 3 4 5 6 
#
# 1 98.5358 22.3774 13.8177 9.6223 -28.0968 19.6504
# 2 22.3774 63.7793 46.3607 -0.3621 -20.1616 2.5060
# 3 13.8177 46.3607 121.0956 -13.2677 0.7955 -0.2437
# 4 9.6223 -0.3621 -13.2677 45.6153 0.8641 -4.7218
# 5 -28.0968 -20.1616 0.7955 0.8641 36.3714 6.6178
# 6 19.6504 2.5060 -0.2437 -4.7218 6.6178 47.6479
#
#
#
# Elastic Compliance Matrix: (Units=1/GPa)
#
#
# Indices 1 2 3 4 5 6 
#
# 1 0.017693 0.002221 -0.003680 -0.006185 0.017021 -0.010410
# 2 0.002221 0.030723 -0.012698 -0.004911 0.020213 -0.005891
# 3 -0.003680 -0.012698 0.014221 0.005472 -0.011113 0.004344
# 4 -0.006185 -0.004911 0.005472 0.025651 -0.009447 0.006691
# 5 0.017021 0.020213 -0.011113 -0.009447 0.055365 -0.016765
# 6 -0.010410 -0.005891 0.004344 0.006691 -0.016765 0.028604
#
#
# Mechanical properties :
#
#
# Convention : Reuss Voigt Hill
#
# Bulk Modulus (GPa) = 29.13428 49.83581 39.48504
# Shear Modulus (GPa) = 23.58351 39.31723 31.45037
#
# Velocity S-wave (km/s) = 2.94699 3.80510 3.40320
# Velocity P-wave (km/s) = 4.72319 6.13656 5.47567
#
# Compressibility (1/GPa) = 0.03432382
#
# Stress axis : x y z
#
# Youngs Moduli (GPa) = 56.51806 32.54867 70.32070
#
# Poissons Ratio (x) = -0.07230 0.25877
# Poissons Ratio (y) = -0.12555 0.89296
# Poissons Ratio (z) = 0.20797 0.41331
#
# Static dielectric constant tensor:
#      x y z
#    x 2.374150 0.164310 0.006860 
#    y 0.164310 2.233470 0.084780 
#    z 0.006860 0.084780 2.065360 
# 
# From -- ./inp_files/105307.got.cif
#   From: 2010.05.17/outbox.cif.g08.bks.cpg/sg2_53_cif.got.tgz:105307.got - 2010.06.03 11:33:40.
