data_PCOD9049282
_publ_section_title
;
Structure prediction by ZEFSAII (Michael W. Deem and Ramdas Pophale) SiO2 
 PCOD9049282
Probable space group: P -1
;
_chemical_formula_sum "Si O2"
_cell_formula_units_Z 15
_cell_length_a 12.210429
_cell_length_b 14.691315
_cell_length_c 16.304379
_cell_angle_alpha 20.854962
_cell_angle_beta 35.491506
_cell_angle_gamma 40.860747
_cell_volume 604.377601
_symmetry_space_group_name_H-M "P -1"
_symmetry_group_IT_number 2
_symmetry_cell_setting 'triclinic'
loop_
_space_group_symop_operation_xyz
x,y,z
-x,-y,-z
loop_
_atom_site_type_symbol
_atom_site_label
_atom_site_fract_x
_atom_site_fract_y
_atom_site_fract_z
Si Si1 0.000000 0.000000 0.000000
Si Si2 0.589451 0.145670 0.656273
Si Si3 0.173773 0.958270 0.265127
Si Si4 0.949927 0.526224 0.104801
Si Si5 0.398589 0.249238 0.315292
Si Si6 0.230584 0.436931 0.575948
Si Si7 0.204164 0.173852 0.329089
Si Si8 0.218965 0.578957 0.285130
O O1 0.939195 0.763434 0.172874
O O2 0.800987 0.144584 0.975573
O O3 0.630863 0.009227 0.832391
O O4 0.760080 0.354302 0.373988
O O5 0.396689 0.289319 0.643340
O O6 0.638192 0.949184 0.719541
O O7 0.166862 0.688486 0.451049
O O8 0.000649 0.966320 0.429890
O O9 0.119262 0.207020 0.039686
O O10 0.139593 0.445470 0.104829
O O11 0.000000 0.500000 0.000000
O O12 0.265082 0.161709 0.395939
O O13 0.297665 0.370494 0.352527
O O14 0.500000 0.000000 0.500000
O O15 0.500000 0.500000 0.000000
O O16 0.305949 0.546113 0.349647
O O17 0.000000 0.500000 0.500000
#
# Coordination Sequence:
#
# PCOD9049282 Si02
#       8
#     1   2   2   2   2   2   2   2
#     4  10  24  46  72  94 142 198 246 300 392 446
#     4  11  23  40  67 103 137 183 243 306 377 455
#     4  11  23  43  67 104 140 186 246 301 383 462
#     4  11  21  41  70  99 143 186 240 305 390 454
#     4  12  30  48  74 116 155 201 269 326 388 463
#     4  11  25  43  71 100 144 187 248 311 379 459
#     4  11  23  42  71  99 143 195 240 316 377 460
#     4  10  24  46  71  98 144 199 254 308 379 462
#
# _framework density 24.818921
#
# number of rings (size 3 to 8) (size 9 to 14) (size 15 to 20)
#    0.000    1.067    2.667    3.600    7.467    5.867 
#    0.000    0.000    0.000    0.000    0.000    0.000 
#    0.000    0.000    0.000    0.000    0.000    0.000 
#
# Total GULP energy -83512.172223 kJ/mol
# GULP energy per Si atom -5567.478148 kJ/mol
# Density = 2.476243 g / cm^3
# Si number density = 24.818921 Si / 1000 Ang^3
#
#
#
# Elastic Constant Matrix: (Units=GPa)
#
#
# Indices 1 2 3 4 5 6 
#
# 1 143.4078 63.2547 41.8369 -31.4546 18.8193 -6.6290
# 2 63.2547 171.3844 59.7125 -49.0751 16.7751 7.7225
# 3 41.8369 59.7125 66.6634 -37.6266 0.2260 -14.7266
# 4 -31.4546 -49.0751 -37.6266 64.3401 -7.7286 4.2800
# 5 18.8193 16.7751 0.2260 -7.7286 36.5467 -9.0033
# 6 -6.6290 7.7225 -14.7266 4.2800 -9.0033 48.4651
#
#
#
# Elastic Compliance Matrix: (Units=1/GPa)
#
#
# Indices 1 2 3 4 5 6 
#
# 1 0.009567 -0.001272 -0.004782 0.000432 -0.004419 -0.000801
# 2 -0.001272 0.010795 -0.008905 0.002162 -0.005206 -0.005758
# 3 -0.004782 -0.008905 0.035748 0.012378 0.012095 0.012781
# 4 0.000432 0.002162 0.012378 0.025045 0.004523 0.002104
# 5 -0.004419 -0.005206 0.012095 0.004523 0.035391 0.010076
# 6 -0.000801 -0.005758 0.012781 0.002104 0.010076 0.027011
#
#
# Mechanical properties :
#
#
# Convention : Reuss Voigt Hill
#
# Bulk Modulus (GPa) = 38.18285 79.00708 58.59497
# Shear Modulus (GPa) = 27.44135 44.31381 35.87758
#
# Velocity S-wave (km/s) = 3.32876 4.23008 3.80620
# Velocity P-wave (km/s) = 5.49474 7.46731 6.55564
#
# Compressibility (1/GPa) = 0.02618977
#
# Stress axis : x y z
#
# Youngs Moduli (GPa) = 104.52333 92.63353 27.97396
#
# Poissons Ratio (x) = 0.11787 0.13378
# Poissons Ratio (y) = 0.13300 0.24912
# Poissons Ratio (z) = 0.49987 0.82493
#
# Static dielectric constant tensor:
#      x y z
#    x 1.178030 0.244780 0.354040 
#    y 0.244780 1.843380 -0.037230 
#    z 0.354040 -0.037230 2.259260 
# 
# From -- ./inp_files/441700.got.cif
#   From: 2010.05.17/outbox.cif.g08.bks.cpg/sg2_221_cif.got.tgz:441700.got - 2010.06.03 11:33:40.
