data_PCOD9049899
_publ_section_title
;
Structure prediction by ZEFSAII (Michael W. Deem and Ramdas Pophale) SiO2 
 PCOD9049899
Probable space group: P -1
;
_chemical_formula_sum "Si O2"
_cell_formula_units_Z 12
_cell_length_a 12.270969
_cell_length_b 10.320361
_cell_length_c 12.286363
_cell_angle_alpha 51.803577
_cell_angle_beta 23.802584
_cell_angle_gamma 51.362191
_cell_volume 485.007439
_symmetry_space_group_name_H-M "P -1"
_symmetry_group_IT_number 2
_symmetry_cell_setting 'triclinic'
loop_
_space_group_symop_operation_xyz
x,y,z
-x,-y,-z
loop_
_atom_site_type_symbol
_atom_site_label
_atom_site_fract_x
_atom_site_fract_y
_atom_site_fract_z
Si Si1 0.111522 0.987343 0.183840
Si Si2 0.514866 0.210815 0.608652
Si Si3 0.198751 0.430359 0.950882
Si Si4 0.179957 0.313179 0.431025
Si Si5 0.490456 0.384520 0.312963
Si Si6 0.477135 0.255726 0.956543
O O1 0.015198 0.823205 0.306353
O O2 0.289990 0.907938 0.166185
O O3 0.827854 0.118407 0.382331
O O4 0.318273 0.078443 0.880301
O O5 0.463338 0.352338 0.675524
O O6 0.435142 0.294383 0.521278
O O7 0.203821 0.583797 0.950869
O O8 0.224342 0.275668 0.091589
O O9 0.000000 0.500000 0.000000
O O10 0.400632 0.295979 0.336236
O O11 0.341655 0.282970 0.185113
O O12 0.000000 0.500000 0.500000
O O13 0.381051 0.583817 0.286991
#
# Coordination Sequence:
#
# PCOD9049899 Si02
#       6
#     2   2   2   2   2   2
#     4  12  27  49  76 113 162 193 252 316 392 439
#     4  12  27  50  71 120 156 201 244 319 385 446
#     4  10  24  47  82 111 151 202 261 308 372 463
#     4  12  24  47  79 111 150 198 267 306 377 456
#     4  10  25  45  80 106 147 208 251 314 362 460
#     4  10  25  49  75 115 142 207 255 310 375 454
#
# _framework density 24.741889
#
# number of rings (size 3 to 8) (size 9 to 14) (size 15 to 20)
#    1.000    0.000    3.333    2.000    2.333    2.667 
#    3.000    0.000    0.000    0.000    0.000    0.000 
#    0.000    0.000    0.000    0.000    0.000    0.000 
#
# Total GULP energy -66844.995989 kJ/mol
# GULP energy per Si atom -5570.416332 kJ/mol
# Density = 2.468558 g / cm^3
# Si number density = 24.741889 Si / 1000 Ang^3
#
#
#
# Elastic Constant Matrix: (Units=GPa)
#
#
# Indices 1 2 3 4 5 6 
#
# 1 214.7337 36.4319 63.8192 -8.1995 -3.3002 -26.1272
# 2 36.4319 109.8489 84.8086 -16.8615 -7.9008 -21.4768
# 3 63.8192 84.8086 113.8506 -9.9125 2.7844 -32.5609
# 4 -8.1995 -16.8615 -9.9125 55.0997 -3.5641 -2.9790
# 5 -3.3002 -7.9008 2.7844 -3.5641 39.4681 -5.3414
# 6 -26.1272 -21.4768 -32.5609 -2.9790 -5.3414 39.0722
#
#
#
# Elastic Compliance Matrix: (Units=1/GPa)
#
#
# Indices 1 2 3 4 5 6 
#
# 1 0.005827 0.001767 -0.004037 0.000871 0.001444 0.001768
# 2 0.001767 0.024250 -0.018758 0.004757 0.006778 0.000168
# 3 -0.004037 -0.018758 0.027702 -0.001170 -0.004892 0.009317
# 4 0.000871 0.004757 -0.001170 0.019977 0.003483 0.004221
# 5 0.001444 0.006778 -0.004892 0.003483 0.028113 0.004723
# 6 0.001768 0.000168 0.009317 0.004221 0.004723 0.035600
#
#
# Mechanical properties :
#
#
# Convention : Reuss Voigt Hill
#
# Bulk Modulus (GPa) = 63.59900 89.83920 76.71910
# Shear Modulus (GPa) = 26.48766 43.61958 35.05362
#
# Velocity S-wave (km/s) = 3.27549 4.20335 3.76809
# Velocity P-wave (km/s) = 6.32976 7.74254 7.07152
#
# Compressibility (1/GPa) = 0.01572352
#
# Stress axis : x y z
#
# Youngs Moduli (GPa) = 171.60382 41.23691 36.09860
#
# Poissons Ratio (x) = -0.07286 0.14572
# Poissons Ratio (y) = -0.30321 0.67714
# Poissons Ratio (z) = 0.69271 0.77353
#
# Static dielectric constant tensor:
#      x y z
#    x 2.067010 0.014970 -0.105340 
#    y 0.014970 2.001130 -0.031180 
#    z -0.105340 -0.031180 2.041540 
# 
# From -- ./inp_files/420472.got.cif
#   From: 2010.05.17/outbox.cif.g08.bks.cpg/sg2_211_cif.got.tgz:420472.got - 2010.06.03 11:33:40.
