data_PCOD9049449
_publ_section_title
;
Structure prediction by ZEFSAII (Michael W. Deem and Ramdas Pophale) SiO2 
 PCOD9049449
Probable space group: P -1
;
_chemical_formula_sum "Si O2"
_cell_formula_units_Z 14
_cell_length_a 11.780216
_cell_length_b 8.457605
_cell_length_c 10.064534
_cell_angle_alpha 34.502671
_cell_angle_beta 94.717284
_cell_angle_gamma 95.738401
_cell_volume 565.158121
_symmetry_space_group_name_H-M "P -1"
_symmetry_group_IT_number 2
_symmetry_cell_setting 'triclinic'
loop_
_space_group_symop_operation_xyz
x,y,z
-x,-y,-z
loop_
_atom_site_type_symbol
_atom_site_label
_atom_site_fract_x
_atom_site_fract_y
_atom_site_fract_z
Si Si1 0.125142 0.869232 0.266407
Si Si2 0.863387 0.762608 0.240059
Si Si3 0.218962 0.210917 0.507443
Si Si4 0.545769 0.775435 0.973231
Si Si5 0.406482 0.667795 0.298740
Si Si6 0.114089 0.346167 0.151340
Si Si7 0.665125 0.309045 0.183699
O O1 0.171020 0.570630 0.524403
O O2 0.999283 0.784425 0.255073
O O3 0.115454 0.067695 0.255597
O O4 0.171059 0.068582 0.010128
O O5 0.816891 0.904440 0.271407
O O6 0.300218 0.475776 0.371463
O O7 0.117017 0.292385 0.346909
O O8 0.285531 0.990540 0.579723
O O9 0.467444 0.758031 0.106214
O O10 0.626136 0.517904 0.148346
O O11 0.453269 0.762188 0.856117
O O12 0.614122 0.072603 0.786845
O O13 0.500000 0.500000 0.500000
O O14 0.232154 0.522802 0.002390
O O15 0.000000 0.500000 0.000000
#
# Coordination Sequence:
#
# PCOD9049449 Si02
#       7
#     2   2   2   2   2   2   2
#     4  10  25  48  71 107 148 208 262 323 383 457
#     4  10  25  46  77 104 150 200 270 319 384 468
#     4  12  27  45  76 112 151 203 260 323 396 467
#     4  10  24  46  74 107 150 192 254 318 397 466
#     4  11  23  45  74 109 143 195 250 323 389 467
#     4  12  29  47  73 109 159 206 258 317 398 468
#     4  11  25  46  72 107 150 199 252 322 388 474
#
# _framework density 24.771827999999999
#
# number of rings (size 3 to 8) (size 9 to 14) (size 15 to 20)
#    0.000    1.143    2.857    0.857   12.000    4.000 
#    0.000    0.000    0.000    0.000    0.000    0.000 
#    0.000    0.000    0.000    0.000    0.000    0.000 
#
# Total GULP energy -78288.453284 kJ/mol
# GULP energy per Si atom -5592.032377 kJ/mol
# Density = 2.471545 g / cm^3
# Si number density = 24.771828 Si / 1000 Ang^3
#
#
#
# Elastic Constant Matrix: (Units=GPa)
#
#
# Indices 1 2 3 4 5 6 
#
# 1 76.9534 36.2224 52.3438 -4.1988 16.5707 5.1908
# 2 36.2224 140.2734 77.6520 -21.6230 14.0522 7.3618
# 3 52.3438 77.6520 116.8829 -30.6523 4.1480 19.4144
# 4 -4.1988 -21.6230 -30.6523 44.8919 -9.1746 10.9264
# 5 16.5707 14.0522 4.1480 -9.1746 41.1403 3.5126
# 6 5.1908 7.3618 19.4144 10.9264 3.5126 37.8381
#
#
#
# Elastic Compliance Matrix: (Units=1/GPa)
#
#
# Indices 1 2 3 4 5 6 
#
# 1 0.025351 0.001689 -0.017349 -0.013823 -0.013000 0.010294
# 2 0.001689 0.012042 -0.009909 -0.002675 -0.004708 0.003719
# 3 -0.017349 -0.009909 0.031750 0.022994 0.014000 -0.019922
# 4 -0.013823 -0.002675 0.022994 0.044457 0.016102 -0.023714
# 5 -0.013000 -0.004708 0.014000 0.016102 0.034383 -0.012325
# 6 0.010294 0.003719 -0.019922 -0.023714 -0.012325 0.042507
#
#
# Mechanical properties :
#
#
# Convention : Reuss Voigt Hill
#
# Bulk Modulus (GPa) = 55.53553 74.06067 64.79810
# Shear Modulus (GPa) = 20.19136 35.96683 28.07909
#
# Velocity S-wave (km/s) = 2.85808 3.81455 3.37042
# Velocity P-wave (km/s) = 5.77573 7.02589 6.43125
#
# Compressibility (1/GPa) = 0.01800649
#
# Stress axis : x y z
#
# Youngs Moduli (GPa) = 39.44550 83.04084 31.49597
#
# Poissons Ratio (x) = -0.14022 0.54641
# Poissons Ratio (y) = -0.06661 0.31208
# Poissons Ratio (z) = 0.68432 0.82282
#
# Static dielectric constant tensor:
#      x y z
#    x 1.954980 -0.057840 -0.072940 
#    y -0.057840 1.918520 -0.043900 
#    z -0.072940 -0.043900 2.000280 
# 
# From -- ./inp_files/418735.got.cif
#   From: 2010.05.17/outbox.cif.g08.bks.cpg/sg2_210_cif.got.tgz:418735.got - 2010.06.03 11:33:40.
