data_PCOD9049417
_publ_section_title
;
Structure prediction by ZEFSAII (Michael W. Deem and Ramdas Pophale) SiO2 
 PCOD9049417
Probable space group: P -1
;
_chemical_formula_sum "Si O2"
_cell_formula_units_Z 11
_cell_length_a 7.869740
_cell_length_b 8.132376
_cell_length_c 11.598721
_cell_angle_alpha 84.255443
_cell_angle_beta 137.326579
_cell_angle_gamma 120.753918
_cell_volume 380.830637
_symmetry_space_group_name_H-M "P -1"
_symmetry_group_IT_number 2
_symmetry_cell_setting 'triclinic'
loop_
_space_group_symop_operation_xyz
x,y,z
-x,-y,-z
loop_
_atom_site_type_symbol
_atom_site_label
_atom_site_fract_x
_atom_site_fract_y
_atom_site_fract_z
Si Si1 0.500000 0.500000 0.000000
Si Si2 0.717210 0.499546 0.900289
Si Si3 0.357495 0.047172 0.749355
Si Si4 0.975078 0.434177 0.358308
Si Si5 0.572580 0.852019 0.496586
Si Si6 0.012868 0.117935 0.111908
O O1 0.807989 0.628169 0.053726
O O2 0.332917 0.589009 0.840167
O O3 0.406061 0.257927 0.805023
O O4 0.689408 0.624294 0.781740
O O5 0.000000 0.500000 0.000000
O O6 0.375986 0.100597 0.617837
O O7 0.089093 0.790684 0.653740
O O8 0.683043 0.086863 0.951528
O O9 0.000000 0.500000 0.500000
O O10 0.275459 0.609359 0.410754
O O11 0.895852 0.929392 0.721191
O O12 0.500000 0.000000 0.500000
O O13 0.000000 0.000000 0.000000
#
# Coordination Sequence:
#
# PCOD9049417 Si02
#       6
#     1   2   2   2   2   2
#     4  12  26  46  76 104 152 198 250 308 386 438
#     4  10  24  46  73 111 151 196 255 312 376 458
#     4  11  25  45  71 106 151 192 254 313 369 456
#     4  12  25  43  72 111 147 192 254 313 368 454
#     4  12  24  42  74 107 145 198 248 306 384 441
#     4  11  21  43  73 105 145 199 250 303 378 453
#
# _framework density 28.884228
#
# number of rings (size 3 to 8) (size 9 to 14) (size 15 to 20)
#    0.000    0.727    3.636    4.364    2.545    1.455 
#    0.000    9.091    0.000    0.000    0.000    0.000 
#    0.000    0.000    0.000    0.000    0.000    0.000 
#
# Total GULP energy -61386.083771 kJ/mol
# GULP energy per Si atom -5580.553070 kJ/mol
# Density = 2.881849 g / cm^3
# Si number density = 28.884228 Si / 1000 Ang^3
#
#
#
# Elastic Constant Matrix: (Units=GPa)
#
#
# Indices 1 2 3 4 5 6 
#
# 1 62.8592 28.6367 15.1853 -4.6372 0.4543 23.4005
# 2 28.6367 290.3456 64.0721 3.0509 -5.8507 24.7424
# 3 15.1853 64.0721 179.0351 -44.6721 -9.6525 3.0880
# 4 -4.6372 3.0509 -44.6721 66.2810 3.6928 1.2132
# 5 0.4543 -5.8507 -9.6525 3.6928 35.6593 -7.6215
# 6 23.4005 24.7424 3.0880 1.2132 -7.6215 51.5942
#
#
#
# Elastic Compliance Matrix: (Units=1/GPa)
#
#
# Indices 1 2 3 4 5 6 
#
# 1 0.020079 -0.001049 -0.001057 0.001058 -0.002741 -0.008970
# 2 -0.001049 0.004045 -0.001673 -0.001367 0.000084 -0.001319
# 3 -0.001057 -0.001673 0.007589 0.005019 0.001472 0.000927
# 4 0.001058 -0.001367 0.005019 0.018674 -0.000964 -0.000706
# 5 -0.002741 0.000084 0.001472 -0.000964 0.029773 0.005535
# 6 -0.008970 -0.001319 0.000927 -0.000706 0.005535 0.024862
#
#
# Mechanical properties :
#
#
# Convention : Reuss Voigt Hill
#
# Bulk Modulus (GPa) = 41.39630 83.11424 62.25527
# Shear Modulus (GPa) = 41.44850 58.99663 50.22256
#
# Velocity S-wave (km/s) = 3.79223 4.52433 4.17436
# Velocity P-wave (km/s) = 5.79117 7.49201 6.69581
#
# Compressibility (1/GPa) = 0.02415675
#
# Stress axis : x y z
#
# Youngs Moduli (GPa) = 49.80345 247.20346 131.76170
#
# Poissons Ratio (x) = 0.25935 0.13923
# Poissons Ratio (y) = 0.05225 0.22039
# Poissons Ratio (z) = 0.05263 0.41348
#
# Static dielectric constant tensor:
#      x y z
#    x 2.324250 -0.019860 0.071460 
#    y -0.019860 2.404480 0.106020 
#    z 0.071460 0.106020 2.147910 
# 
# From -- ./inp_files/378518.got.cif
#   From: 2010.05.17/outbox.cif.g08.bks.cpg/sg2_190_cif.got.tgz:378518.got - 2010.06.03 11:33:40.
