data_PCOD9049359
_publ_section_title
;
Structure prediction by ZEFSAII (Michael W. Deem and Ramdas Pophale) SiO2 
 PCOD9049359
Probable space group: P -1
;
_chemical_formula_sum "Si O2"
_cell_formula_units_Z 15
_cell_length_a 12.720352
_cell_length_b 21.274810
_cell_length_c 6.677663
_cell_angle_alpha 113.779658
_cell_angle_beta 127.632289
_cell_angle_gamma 28.693522
_cell_volume 644.132979
_symmetry_space_group_name_H-M "P -1"
_symmetry_group_IT_number 2
_symmetry_cell_setting 'triclinic'
loop_
_space_group_symop_operation_xyz
x,y,z
-x,-y,-z
loop_
_atom_site_type_symbol
_atom_site_label
_atom_site_fract_x
_atom_site_fract_y
_atom_site_fract_z
Si Si1 0.186550 0.023895 0.568934
Si Si2 0.160696 0.553605 0.180054
Si Si3 0.600837 0.881570 0.542268
Si Si4 0.955353 0.254393 0.834851
Si Si5 0.282680 0.401157 0.788629
Si Si6 0.000000 0.000000 0.500000
Si Si7 0.380184 0.714397 0.350377
Si Si8 0.385882 0.225591 0.948821
O O1 0.375528 0.947069 0.501742
O O2 0.330631 0.916517 0.787577
O O3 0.107058 0.133461 0.705227
O O4 0.953825 0.074026 0.341645
O O5 0.196298 0.619721 0.309727
O O6 0.359495 0.422837 0.389012
O O7 0.855294 0.673779 0.044716
O O8 0.222743 0.498083 0.960753
O O9 0.657825 0.810222 0.323132
O O10 0.500000 0.000000 0.500000
O O11 0.841851 0.791955 0.856192
O O12 0.790773 0.279250 0.823872
O O13 0.497832 0.317907 0.759715
O O14 0.369924 0.305230 0.927464
O O15 0.000000 0.500000 0.500000
O O16 0.809663 0.140907 0.597115
#
# Coordination Sequence:
#
# PCOD9049359 Si02
#       8
#     2   2   2   2   2   1   2   2
#     4  11  23  45  67 101 139 179 230 284 338 408
#     4  12  25  45  71  98 139 184 226 283 342 406
#     4  12  23  42  69 102 137 181 230 279 340 405
#     4  11  24  46  67 102 142 180 228 286 340 408
#     4  12  26  44  70 104 136 179 231 280 338 408
#     4  10  24  46  72  94 140 176 220 290 336 400
#     4  11  26  48  68 103 141 179 229 281 345 406
#     4  12  24  41  73  99 134 182 232 281 340 402
#
# _framework density 23.287118
#
# number of rings (size 3 to 8) (size 9 to 14) (size 15 to 20)
#    0.000    0.533    4.000    4.400    1.867    0.533 
#    9.600    4.000    0.000    0.000    0.000    0.000 
#    0.000    0.000    0.000    0.000    0.000    0.000 
#
# Total GULP energy -83763.454925 kJ/mol
# GULP energy per Si atom -5584.230328 kJ/mol
# Density = 2.323412 g / cm^3
# Si number density = 23.287118 Si / 1000 Ang^3
#
#
#
# Elastic Constant Matrix: (Units=GPa)
#
#
# Indices 1 2 3 4 5 6 
#
# 1 175.3852 76.8165 20.2559 15.1060 -17.7702 -16.5363
# 2 76.8165 156.0214 28.1045 17.0875 -11.0852 4.9187
# 3 20.2559 28.1045 31.7386 -2.9332 -5.7544 5.5626
# 4 15.1060 17.0875 -2.9332 36.8886 0.7267 1.7608
# 5 -17.7702 -11.0852 -5.7544 0.7267 31.1454 3.9796
# 6 -16.5363 4.9187 5.5626 1.7608 3.9796 60.5021
#
#
#
# Elastic Compliance Matrix: (Units=1/GPa)
#
#
# Indices 1 2 3 4 5 6 
#
# 1 0.008097 -0.003176 -0.002516 -0.002222 0.002746 0.002587
# 2 -0.003176 0.009627 -0.006551 -0.003645 0.000614 -0.000983
# 3 -0.002516 -0.006551 0.041147 0.007465 0.004228 -0.004433
# 4 -0.002222 -0.003645 0.007465 0.030418 -0.001669 -0.001773
# 5 0.002746 0.000614 0.004228 -0.001669 0.034961 -0.001939
# 6 0.002587 -0.000983 -0.004433 -0.001773 -0.001939 0.017902
#
#
# Mechanical properties :
#
#
# Convention : Reuss Voigt Hill
#
# Bulk Modulus (GPa) = 29.08215 68.16656 48.62436
# Shear Modulus (GPa) = 28.07424 41.57176 34.82300
#
# Velocity S-wave (km/s) = 3.47590 4.22973 3.87120
# Velocity P-wave (km/s) = 5.35021 7.29314 6.39588
#
# Compressibility (1/GPa) = 0.03438535
#
# Stress axis : x y z
#
# Youngs Moduli (GPa) = 123.50235 103.87322 24.30312
#
# Poissons Ratio (x) = 0.32995 0.06114
# Poissons Ratio (y) = 0.39230 0.15920
# Poissons Ratio (z) = 0.31069 0.68044
#
# Static dielectric constant tensor:
#      x y z
#    x 0.230650 0.588930 -1.431580 
#    y 0.588930 1.686680 0.481530 
#    z -1.431580 0.481530 0.721870 
# 
# From -- ./inp_files/68387.got.cif
#   From: 2010.05.17/outbox.cif.g08.bks.cpg/sg2_35_cif.got.tgz:68387.got - 2010.06.03 11:33:40.
