data_PCOD9049760
_publ_section_title
;
Structure prediction by ZEFSAII (Michael W. Deem and Ramdas Pophale) SiO2 
 PCOD9049760
Probable space group: P -1
;
_chemical_formula_sum "Si O2"
_cell_formula_units_Z 12
_cell_length_a 5.177023
_cell_length_b 11.952208
_cell_length_c 9.456452
_cell_angle_alpha 61.277126
_cell_angle_beta 98.702105
_cell_angle_gamma 77.417756
_cell_volume 477.889669
_symmetry_space_group_name_H-M "P -1"
_symmetry_group_IT_number 2
_symmetry_cell_setting 'triclinic'
loop_
_space_group_symop_operation_xyz
x,y,z
-x,-y,-z
loop_
_atom_site_type_symbol
_atom_site_label
_atom_site_fract_x
_atom_site_fract_y
_atom_site_fract_z
Si Si1 0.681210 0.072945 0.555852
Si Si2 0.723617 0.989131 0.907163
Si Si3 0.543853 0.363366 0.820642
Si Si4 0.972872 0.650308 0.355445
Si Si5 0.812750 0.323988 0.352264
Si Si6 0.964515 0.196496 0.173192
O O1 0.013467 0.045654 0.332050
O O2 0.653807 0.215712 0.399964
O O3 0.500000 0.000000 0.500000
O O4 0.612856 0.093476 0.705122
O O5 0.814387 0.850013 0.907370
O O6 0.500000 0.000000 0.000000
O O7 0.000000 0.000000 0.000000
O O8 0.321447 0.303985 0.771895
O O9 0.383902 0.521232 0.748761
O O10 0.780146 0.356075 0.728130
O O11 0.685143 0.279028 0.020329
O O12 0.000000 0.500000 0.500000
O O13 0.012461 0.717679 0.464020
O O14 0.995395 0.290889 0.245668
#
# Coordination Sequence:
#
# PCOD9049760 Si02
#       6
#     2   2   2   2   2   2
#     4  10  26  46  73 109 149 190 248 301 369 435
#     4  10  26  50  72 102 146 197 243 300 366 433
#     4  11  25  49  73 112 147 194 243 303 362 439
#     4  10  24  47  73 108 149 193 246 297 363 436
#     4  11  23  47  76 109 149 197 243 302 369 435
#     4  10  26  46  71 112 146 195 241 306 366 440
#
# _framework density 25.110396999999999
#
# number of rings (size 3 to 8) (size 9 to 14) (size 15 to 20)
#    1.000    0.667    0.000    3.000    4.667    6.667 
#    3.000    5.833    0.000    0.000    0.000    0.000 
#    0.000    0.000    0.000    0.000    0.000    0.000 
#
# Total GULP energy -67057.080449 kJ/mol
# GULP energy per Si atom -5588.090037 kJ/mol
# Density = 2.505324 g / cm^3
# Si number density = 25.110397 Si / 1000 Ang^3
#
#
#
# Elastic Constant Matrix: (Units=GPa)
#
#
# Indices 1 2 3 4 5 6 
#
# 1 141.7632 60.1917 63.3133 19.9534 8.9147 -13.8130
# 2 60.1917 178.1277 81.4083 19.7741 4.7586 -16.9161
# 3 63.3133 81.4083 159.7495 8.7484 1.7994 -10.2669
# 4 19.9534 19.7741 8.7484 66.2738 -4.7991 -8.4537
# 5 8.9147 4.7586 1.7994 -4.7991 31.9949 6.5715
# 6 -13.8130 -16.9161 -10.2669 -8.4537 6.5715 36.5694
#
#
#
# Elastic Compliance Matrix: (Units=1/GPa)
#
#
# Indices 1 2 3 4 5 6 
#
# 1 0.009611 -0.001457 -0.002776 -0.002027 -0.003073 0.002261
# 2 -0.001457 0.007983 -0.003266 -0.001328 -0.001236 0.002140
# 3 -0.002776 -0.003266 0.008975 0.000683 0.000865 -0.000037
# 4 -0.002027 -0.001328 0.000683 0.016476 0.002759 0.002125
# 5 -0.003073 -0.001236 0.000865 0.002759 0.034094 -0.006979
# 6 0.002261 0.002140 -0.000037 0.002125 -0.006979 0.030924
#
#
# Mechanical properties :
#
#
# Convention : Reuss Voigt Hill
#
# Bulk Modulus (GPa) = 86.42768 98.82969 92.62868
# Shear Modulus (GPa) = 39.39536 45.28275 42.33905
#
# Velocity S-wave (km/s) = 3.96521 4.25119 4.11069
# Velocity P-wave (km/s) = 7.44699 7.97122 7.71356
#
# Compressibility (1/GPa) = 0.01157037
#
# Stress axis : x y z
#
# Youngs Moduli (GPa) = 104.04449 125.26693 111.42332
#
# Poissons Ratio (x) = 0.18258 0.30927
# Poissons Ratio (y) = 0.15164 0.36393
# Poissons Ratio (z) = 0.28878 0.40915
#
# Static dielectric constant tensor:
#      x y z
#    x 2.574550 -0.064790 0.897800 
#    y -0.064790 2.034810 -0.009570 
#    z 0.897800 -0.009570 3.660600 
# 
# From -- ./inp_files/135370.got.cif
#   From: 2010.05.17/outbox.cif.g08.bks.cpg/sg2_68_cif.got.tgz:135370.got - 2010.06.03 11:33:40.
