data_PCOD9049710
_publ_section_title
;
Structure prediction by ZEFSAII (Michael W. Deem and Ramdas Pophale) SiO2 
 PCOD9049710
Probable space group: P -1
;
_chemical_formula_sum "Si O2"
_cell_formula_units_Z 16
_cell_length_a 8.888475
_cell_length_b 17.762223
_cell_length_c 8.614189
_cell_angle_alpha 119.991476
_cell_angle_beta 33.135290
_cell_angle_gamma 99.296515
_cell_volume 540.696335
_symmetry_space_group_name_H-M "P -1"
_symmetry_group_IT_number 2
_symmetry_cell_setting 'triclinic'
loop_
_space_group_symop_operation_xyz
x,y,z
-x,-y,-z
loop_
_atom_site_type_symbol
_atom_site_label
_atom_site_fract_x
_atom_site_fract_y
_atom_site_fract_z
Si Si1 0.959647 0.389953 0.672516
Si Si2 0.446375 0.157166 0.478176
Si Si3 0.756252 0.657418 0.952913
Si Si4 0.769009 0.041380 0.353040
Si Si5 0.465058 0.714077 0.728840
Si Si6 0.845644 0.223634 0.594285
Si Si7 0.273086 0.013246 0.350030
Si Si8 0.669385 0.441997 0.450092
O O1 0.042794 0.395440 0.429853
O O2 0.191367 0.384765 0.605371
O O3 0.065911 0.270146 0.472968
O O4 0.590156 0.479930 0.119799
O O5 0.813944 0.063955 0.132629
O O6 0.492183 0.211940 0.348464
O O7 0.220194 0.116542 0.580884
O O8 0.308939 0.230675 0.823112
O O9 0.971132 0.587366 0.838865
O O10 0.400798 0.691688 0.237075
O O11 0.500000 0.000000 0.500000
O O12 0.611991 0.062649 0.685228
O O13 0.904953 0.120589 0.365338
O O14 0.285996 0.761621 0.097993
O O15 0.307673 0.665236 0.708321
O O16 0.000000 0.000000 0.500000
O O17 0.500000 0.000000 0.000000
O O18 0.500000 0.500000 0.500000
#
# Coordination Sequence:
#
# PCOD9049710 Si02
#       8
#     2   2   2   2   2   2   2   2
#     4  11  24  46  71 102 145 193 240 309 362 453
#     4  11  26  49  74 108 148 194 249 310 389 456
#     4  10  26  43  69 104 142 192 242 299 373 447
#     4  11  26  48  79 112 155 199 260 323 389 472
#     4  11  25  47  73 106 147 197 248 306 378 460
#     4  10  24  47  72 103 146 194 243 306 382 446
#     4  12  28  50  80 116 153 205 258 328 393 472
#     4  12  24  45  71 107 146 194 250 307 377 447
#
# _framework density 29.591473000000001
#
# number of rings (size 3 to 8) (size 9 to 14) (size 15 to 20)
#    0.000    1.000    1.250    3.375    7.000    1.500 
#    2.250    0.000    0.000    0.000    0.000    0.000 
#    0.000    0.000    0.000    0.000    0.000    0.000 
#
# Total GULP energy -89195.689194 kJ/mol
# GULP energy per Si atom -5574.730575 kJ/mol
# Density = 2.952412 g / cm^3
# Si number density = 29.591473 Si / 1000 Ang^3
#
#
#
# Elastic Constant Matrix: (Units=GPa)
#
#
# Indices 1 2 3 4 5 6 
#
# 1 218.0674 65.3373 46.4184 -1.8667 2.2699 0.4718
# 2 65.3373 157.9868 33.9637 -6.6896 7.0755 14.9245
# 3 46.4184 33.9637 127.3193 16.7440 18.9404 13.5143
# 4 -1.8667 -6.6896 16.7440 59.5872 6.7991 9.8140
# 5 2.2699 7.0755 18.9404 6.7991 56.2895 10.7115
# 6 0.4718 14.9245 13.5143 9.8140 10.7115 77.1635
#
#
#
# Elastic Compliance Matrix: (Units=1/GPa)
#
#
# Indices 1 2 3 4 5 6 
#
# 1 0.005529 -0.001993 -0.001644 0.000271 0.000444 0.000543
# 2 -0.001993 0.007639 -0.001301 0.001427 -0.000354 -0.001370
# 3 -0.001644 -0.001301 0.009586 -0.002476 -0.002554 -0.000748
# 4 0.000271 0.001427 -0.002476 0.018107 -0.001166 -0.001985
# 5 0.000444 -0.000354 -0.002554 -0.001166 0.019173 -0.002000
# 6 0.000543 -0.001370 -0.000748 -0.001985 -0.002000 0.013882
#
#
# Mechanical properties :
#
#
# Convention : Reuss Voigt Hill
#
# Bulk Modulus (GPa) = 77.64601 88.31249 82.97925
# Shear Modulus (GPa) = 56.76417 62.45164 59.60791
#
# Velocity S-wave (km/s) = 4.38455 4.59896 4.49303
# Velocity P-wave (km/s) = 7.20615 7.62294 7.41748
#
# Compressibility (1/GPa) = 0.01287896
#
# Stress axis : x y z
#
# Youngs Moduli (GPa) = 180.85440 130.90341 104.32403
#
# Poissons Ratio (x) = 0.26091 0.17147
# Poissons Ratio (y) = 0.36046 0.13570
# Poissons Ratio (z) = 0.29726 0.17027
#
# Static dielectric constant tensor:
#      x y z
#    x 2.309940 -0.080610 -0.111590 
#    y -0.080610 2.484800 0.002240 
#    z -0.111590 0.002240 2.507630 
# 
# From -- ./inp_files/218161.got.cif
#   From: 2010.05.17/outbox.cif.g08.bks.cpg/sg2_110_cif.got.tgz:218161.got - 2010.06.03 11:33:40.
