data_PCOD9049812
_publ_section_title
;
Structure prediction by ZEFSAII (Michael W. Deem and Ramdas Pophale) SiO2 
 PCOD9049812
Probable space group: P -1
;
_chemical_formula_sum "Si O2"
_cell_formula_units_Z 16
_cell_length_a 9.224544
_cell_length_b 14.211703
_cell_length_c 5.487460
_cell_angle_alpha 82.442737
_cell_angle_beta 107.198216
_cell_angle_gamma 73.593644
_cell_volume 640.833388
_symmetry_space_group_name_H-M "P -1"
_symmetry_group_IT_number 2
_symmetry_cell_setting 'triclinic'
loop_
_space_group_symop_operation_xyz
x,y,z
-x,-y,-z
loop_
_atom_site_type_symbol
_atom_site_label
_atom_site_fract_x
_atom_site_fract_y
_atom_site_fract_z
Si Si1 0.152505 0.744973 0.568941
Si Si2 0.825280 0.849078 0.636476
Si Si3 0.616282 0.407194 0.938714
Si Si4 0.754669 0.699619 0.961953
Si Si5 0.885181 0.426241 0.746605
Si Si6 0.497486 0.940536 0.263764
Si Si7 0.653348 0.635547 0.431955
Si Si8 0.837579 0.053524 0.749547
O O1 0.308431 0.692700 0.828974
O O2 0.138470 0.662594 0.399122
O O3 0.155395 0.847006 0.410658
O O4 0.991976 0.774763 0.643627
O O5 0.790953 0.803714 0.892157
O O6 0.672281 0.856024 0.394221
O O7 0.834817 0.960728 0.609749
O O8 0.500000 0.500000 0.000000
O O9 0.769120 0.434465 0.916098
O O10 0.511029 0.388916 0.670795
O O11 0.660419 0.683491 0.681643
O O12 0.667059 0.691734 0.169463
O O13 0.928397 0.611112 0.079980
O O14 0.808556 0.532748 0.539531
O O15 0.332277 0.915907 0.199437
O O16 0.500000 0.000000 0.500000
O O17 0.500000 0.000000 0.000000
O O18 0.000000 0.000000 0.000000
#
# Coordination Sequence:
#
# PCOD9049812 Si02
#       8
#     2   2   2   2   2   2   2   2
#     4  12  26  47  81 112 155 211 264 326 396 471
#     4  11  25  51  73 112 158 204 260 323 385 462
#     4  12  27  50  77 111 163 203 264 327 402 467
#     4  12  27  47  76 113 150 205 259 317 393 468
#     4  12  26  50  75 110 154 206 259 331 393 471
#     4  10  24  47  75 104 148 198 248 314 381 444
#     4  12  28  46  78 109 155 200 263 321 392 466
#     4  11  25  47  81 116 154 206 264 322 390 467
#
# _framework density 24.967489
#
# number of rings (size 3 to 8) (size 9 to 14) (size 15 to 20)
#    0.000    0.500    2.500    4.500    3.500    4.000 
#    2.250    0.000    0.000    0.000    0.000    0.000 
#    0.000    0.000    0.000    0.000    0.000    0.000 
#
# Total GULP energy -89662.822635 kJ/mol
# GULP energy per Si atom -5603.926415 kJ/mol
# Density = 2.491066 g / cm^3
# Si number density = 24.967489 Si / 1000 Ang^3
#
#
#
# Elastic Constant Matrix: (Units=GPa)
#
#
# Indices 1 2 3 4 5 6 
#
# 1 122.0357 -0.1024 46.9717 7.3205 5.0518 0.4717
# 2 -0.1024 106.3082 45.6668 3.3647 -9.5746 8.4971
# 3 46.9717 45.6668 153.6180 -12.7275 8.3086 13.3446
# 4 7.3205 3.3647 -12.7275 47.2582 3.5897 -3.6825
# 5 5.0518 -9.5746 8.3086 3.5897 63.9058 -10.4959
# 6 0.4717 8.4971 13.3446 -3.6825 -10.4959 35.9457
#
#
#
# Elastic Compliance Matrix: (Units=1/GPa)
#
#
# Indices 1 2 3 4 5 6 
#
# 1 0.009798 0.001685 -0.003785 -0.002622 0.000228 0.000676
# 2 0.001685 0.011546 -0.004195 -0.002439 0.002145 -0.000818
# 3 -0.003785 -0.004195 0.009561 0.003410 -0.002225 -0.002809
# 4 -0.002622 -0.002439 0.003410 0.022880 -0.001690 0.001195
# 5 0.000228 0.002145 -0.002225 -0.001690 0.017183 0.005160
# 6 0.000676 -0.000818 -0.002809 0.001195 0.005160 0.030676
#
#
# Mechanical properties :
#
#
# Convention : Reuss Voigt Hill
#
# Bulk Modulus (GPa) = 54.60012 63.00379 58.80195
# Shear Modulus (GPa) = 41.54963 48.71700 45.13331
#
# Velocity S-wave (km/s) = 4.08382 4.42205 4.25630
# Velocity P-wave (km/s) = 6.64476 7.16672 6.91067
#
# Compressibility (1/GPa) = 0.01831498
#
# Stress axis : x y z
#
# Youngs Moduli (GPa) = 102.06358 86.61143 104.59390
#
# Poissons Ratio (x) = -0.14593 0.39590
# Poissons Ratio (y) = -0.17196 0.43872
# Poissons Ratio (z) = 0.38632 0.36329
#
# Static dielectric constant tensor:
#      x y z
#    x 1.978180 0.031720 -0.018790 
#    y 0.031720 2.073410 0.019350 
#    z -0.018790 0.019350 1.987080 
# 
# From -- ./inp_files/38192.got.cif
#   From: 2010.05.17/outbox.cif.g08.bks.cpg/sg2_20_cif.got.tgz:38192.got - 2010.06.03 11:33:40.
