data_PCOD9049801
_publ_section_title
;
Structure prediction by ZEFSAII (Michael W. Deem and Ramdas Pophale) SiO2 
 PCOD9049801
Probable space group: P -1
;
_chemical_formula_sum "Si O2"
_cell_formula_units_Z 13
_cell_length_a 9.127784
_cell_length_b 8.870235
_cell_length_c 15.632925
_cell_angle_alpha 133.717145
_cell_angle_beta 39.433196
_cell_angle_gamma 113.118299
_cell_volume 552.925917
_symmetry_space_group_name_H-M "P -1"
_symmetry_group_IT_number 2
_symmetry_cell_setting 'triclinic'
loop_
_space_group_symop_operation_xyz
x,y,z
-x,-y,-z
loop_
_atom_site_type_symbol
_atom_site_label
_atom_site_fract_x
_atom_site_fract_y
_atom_site_fract_z
Si Si1 0.585396 0.207400 0.241796
Si Si2 0.237238 0.024705 0.443778
Si Si3 0.061855 0.225217 0.130053
Si Si4 0.000000 0.500000 0.000000
Si Si5 0.149412 0.593474 0.535795
Si Si6 0.377836 0.413115 0.938343
Si Si7 0.213840 0.060345 0.654877
O O1 0.387989 0.136142 0.358343
O O2 0.426348 0.433782 0.359036
O O3 0.799218 0.221791 0.214305
O O4 0.741102 0.012198 0.032992
O O5 0.155112 0.146530 0.618186
O O6 0.409141 0.775994 0.276990
O O7 0.000000 0.000000 0.500000
O O8 0.999359 0.384635 0.300512
O O9 0.186379 0.315143 0.033221
O O10 0.782250 0.455086 0.016040
O O11 0.867547 0.760782 0.164784
O O12 0.000000 0.500000 0.500000
O O13 0.143406 0.840835 0.614819
O O14 0.500000 0.500000 0.000000
O O15 0.500000 0.000000 0.500000
#
# Coordination Sequence:
#
# PCOD9049801 Si02
#       7
#     2   2   2   1   2   2   2
#     4  10  24  47  75 102 142 202 251 309 382 458
#     4  11  23  46  75 106 151 197 257 318 382 466
#     4  10  25  46  73 103 147 194 254 305 377 461
#     4  12  28  48  78 110 156 204 258 324 392 450
#     4  12  28  45  73 114 153 198 249 320 393 458
#     4  11  26  46  76 114 148 204 258 318 390 455
#     4  12  27  45  72 111 150 195 261 315 385 466
#
# _framework density 23.511286999999999
#
# number of rings (size 3 to 8) (size 9 to 14) (size 15 to 20)
#    0.000    0.923    1.538    3.231   12.923    1.846 
#    0.000    0.000    0.000    0.000    0.000    0.000 
#    0.000    0.000    0.000    0.000    0.000    0.000 
#
# Total GULP energy -72375.264086 kJ/mol
# GULP energy per Si atom -5567.328007 kJ/mol
# Density = 2.345777 g / cm^3
# Si number density = 23.511287 Si / 1000 Ang^3
#
#
#
# Elastic Constant Matrix: (Units=GPa)
#
#
# Indices 1 2 3 4 5 6 
#
# 1 147.4734 22.7853 56.9506 3.0113 -4.0652 17.3589
# 2 22.7853 69.8910 39.7924 1.2914 -10.5832 25.9901
# 3 56.9506 39.7924 145.0181 22.0468 -3.2153 -4.2116
# 4 3.0113 1.2914 22.0468 44.9906 7.4356 -2.5386
# 5 -4.0652 -10.5832 -3.2153 7.4356 36.8929 3.4962
# 6 17.3589 25.9901 -4.2116 -2.5386 3.4962 23.5542
#
#
#
# Elastic Compliance Matrix: (Units=1/GPa)
#
#
# Indices 1 2 3 4 5 6 
#
# 1 0.010434 0.007884 -0.006790 0.000647 0.004413 -0.018188
# 2 0.007884 0.050613 -0.018495 -0.000098 0.020238 -0.067979
# 3 -0.006790 -0.018495 0.015955 -0.004124 -0.006561 0.028793
# 4 0.000647 -0.000098 -0.004124 0.025279 -0.005644 0.002456
# 5 0.004413 0.020238 -0.006561 -0.005644 0.037078 -0.032868
# 6 -0.018188 -0.067979 0.028793 0.002456 -0.032868 0.141161
#
#
# Mechanical properties :
#
#
# Convention : Reuss Voigt Hill
#
# Bulk Modulus (GPa) = 23.69619 66.82656 45.26137
# Shear Modulus (GPa) = 15.17971 37.27783 26.22877
#
# Velocity S-wave (km/s) = 2.54369 3.98619 3.34366
# Velocity P-wave (km/s) = 4.32755 7.04778 5.84803
#
# Compressibility (1/GPa) = 0.04220087
#
# Stress axis : x y z
#
# Youngs Moduli (GPa) = 95.83933 19.75766 62.67736
#
# Poissons Ratio (x) = -0.15577 0.42556
# Poissons Ratio (y) = -0.75559 1.15921
# Poissons Ratio (z) = 0.65072 0.36542
#
# Static dielectric constant tensor:
#      x y z
#    x 1.890280 -0.053840 -0.010850 
#    y -0.053840 1.888800 -0.045370 
#    z -0.010850 -0.045370 1.788860 
# 
# From -- ./inp_files/493747.got.cif
#   From: 2010.05.17/outbox.cif.g08.bks.cpg/sg2_247_cif.got.tgz:493747.got - 2010.06.03 11:33:40.
