data_PCOD9049360
_publ_section_title
;
Structure prediction by ZEFSAII (Michael W. Deem and Ramdas Pophale) SiO2 
 PCOD9049360
Probable space group: P -1
;
_chemical_formula_sum "Si O2"
_cell_formula_units_Z 15
_cell_length_a 8.112340
_cell_length_b 14.206627
_cell_length_c 10.225571
_cell_angle_alpha 53.218737
_cell_angle_beta 83.877287
_cell_angle_gamma 125.488326
_cell_volume 551.420502
_symmetry_space_group_name_H-M "P -1"
_symmetry_group_IT_number 2
_symmetry_cell_setting 'triclinic'
loop_
_space_group_symop_operation_xyz
x,y,z
-x,-y,-z
loop_
_atom_site_type_symbol
_atom_site_label
_atom_site_fract_x
_atom_site_fract_y
_atom_site_fract_z
Si Si1 0.916142 0.782895 0.419348
Si Si2 0.832991 0.277988 0.413278
Si Si3 0.397390 0.264814 0.716716
Si Si4 0.615357 0.626680 0.095989
Si Si5 0.500000 0.000000 0.500000
Si Si6 0.022043 0.428167 0.683912
Si Si7 0.246250 0.932068 0.871583
Si Si8 0.713348 0.873751 0.701063
O O1 0.848715 0.798083 0.272624
O O2 0.621362 0.609325 0.668645
O O3 0.036591 0.722408 0.479872
O O4 0.154451 0.996863 0.285571
O O5 0.923807 0.459998 0.286302
O O6 0.848942 0.225267 0.318179
O O7 0.487322 0.052491 0.639182
O O8 0.430019 0.313313 0.823972
O O9 0.687919 0.472426 0.452651
O O10 0.348575 0.104799 0.800536
O O11 0.555037 0.667067 0.937816
O O12 0.942191 0.777990 0.959990
O O13 0.538188 0.875829 0.646739
O O14 0.000000 0.500000 0.500000
O O15 0.778682 0.196689 0.928525
O O16 0.000000 0.000000 0.500000
#
# Coordination Sequence:
#
# PCOD9049360 Si02
#       8
#     2   2   2   2   1   2   2   2
#     4  11  24  44  72 104 140 181 230 296 350 428
#     4  10  25  45  68 101 141 184 234 293 352 419
#     4  11  24  42  70 104 145 179 230 288 351 434
#     4  12  24  41  75 104 137 188 232 285 363 428
#     4  10  24  46  72  94 142 190 234 306 346 412
#     4  11  25  42  65 101 146 184 227 288 352 431
#     4  11  24  42  67  99 138 190 226 281 359 421
#     4  11  26  47  72 102 142 186 246 299 355 420
#
# _framework density 27.202472
#
# number of rings (size 3 to 8) (size 9 to 14) (size 15 to 20)
#    0.000    1.067    2.667    2.400    3.733    8.000 
#    0.000    6.000    0.000    0.000    0.000    0.000 
#    0.000    0.000    0.000    0.000    0.000    0.000 
#
# Total GULP energy -83793.388964 kJ/mol
# GULP energy per Si atom -5586.225931 kJ/mol
# Density = 2.714056 g / cm^3
# Si number density = 27.202472 Si / 1000 Ang^3
#
#
#
# Elastic Constant Matrix: (Units=GPa)
#
#
# Indices 1 2 3 4 5 6 
#
# 1 83.6902 22.9400 21.6570 6.8071 15.1224 11.1921
# 2 22.9400 100.9078 28.3378 -2.9292 18.1881 4.1225
# 3 21.6570 28.3378 122.8370 4.7184 18.6677 19.6876
# 4 6.8071 -2.9292 4.7184 42.6691 6.5776 4.0301
# 5 15.1224 18.1881 18.6677 6.5776 46.1207 0.4944
# 6 11.1921 4.1225 19.6876 4.0301 0.4944 52.9230
#
#
#
# Elastic Compliance Matrix: (Units=1/GPa)
#
#
# Indices 1 2 3 4 5 6 
#
# 1 0.013798 -0.002265 -0.001047 -0.001577 -0.002959 -0.002205
# 2 -0.002265 0.011599 -0.001865 0.001864 -0.003344 0.000159
# 3 -0.001047 -0.001865 0.009700 -0.000305 -0.002770 -0.003193
# 4 -0.001577 0.001864 -0.000305 0.024546 -0.003579 -0.001534
# 5 -0.002959 -0.003344 -0.002770 -0.003579 0.025582 0.001950
# 6 -0.002205 0.000159 -0.003193 -0.001534 0.001950 0.020636
#
#
# Mechanical properties :
#
#
# Convention : Reuss Voigt Hill
#
# Bulk Modulus (GPa) = 40.41530 50.36718 45.39124
# Shear Modulus (GPa) = 40.17254 43.97590 42.07422
#
# Velocity S-wave (km/s) = 3.84708 4.02508 3.93708
# Velocity P-wave (km/s) = 5.88412 6.33700 6.11475
#
# Compressibility (1/GPa) = 0.02474311
#
# Stress axis : x y z
#
# Youngs Moduli (GPa) = 72.47266 86.21239 103.09224
#
# Poissons Ratio (x) = 0.19530 0.10789
# Poissons Ratio (y) = 0.16418 0.19230
# Poissons Ratio (z) = 0.07585 0.16082
#
# Static dielectric constant tensor:
#      x y z
#    x 2.299340 -0.174350 -0.042850 
#    y -0.174350 2.624250 0.176790 
#    z -0.042850 0.176790 2.196330 
# 
# From -- ./inp_files/402853.got.cif
#   From: 2010.05.17/outbox.cif.g08.bks.cpg/sg2_202_cif.got.tgz:402853.got - 2010.06.03 11:33:40.
