data_PCOD9049958
_publ_section_title
;
Structure prediction by ZEFSAII (Michael W. Deem and Ramdas Pophale) SiO2 
 PCOD9049958
Probable space group: P -1
;
_chemical_formula_sum "Si O2"
_cell_formula_units_Z 15
_cell_length_a 13.618892
_cell_length_b 5.842507
_cell_length_c 8.346947
_cell_angle_alpha 83.436036
_cell_angle_beta 64.550328
_cell_angle_gamma 103.199326
_cell_volume 566.559849
_symmetry_space_group_name_H-M "P -1"
_symmetry_group_IT_number 2
_symmetry_cell_setting 'triclinic'
loop_
_space_group_symop_operation_xyz
x,y,z
-x,-y,-z
loop_
_atom_site_type_symbol
_atom_site_label
_atom_site_fract_x
_atom_site_fract_y
_atom_site_fract_z
Si Si1 0.471076 0.195516 0.890688
Si Si2 0.164876 0.389757 0.130298
Si Si3 0.244817 0.847457 0.571703
Si Si4 0.000000 0.000000 0.500000
Si Si5 0.403293 0.317152 0.253397
Si Si6 0.867425 0.878444 0.129858
Si Si7 0.950041 0.566087 0.317958
Si Si8 0.633831 0.225314 0.207298
O O1 0.587808 0.404295 0.745194
O O2 0.406324 0.056498 0.794759
O O3 0.401515 0.296546 0.063058
O O4 0.500000 0.000000 0.000000
O O5 0.052727 0.483336 0.179161
O O6 0.186602 0.213546 0.992825
O O7 0.269630 0.631126 0.999779
O O8 0.118029 0.210724 0.327311
O O9 0.145553 0.681822 0.536823
O O10 0.328856 0.754971 0.634924
O O11 0.312176 0.088659 0.410376
O O12 0.176657 0.942073 0.749932
O O13 0.999762 0.800737 0.374348
O O14 0.523301 0.310740 0.247032
O O15 0.867883 0.641895 0.245801
O O16 0.000000 0.000000 0.000000
#
# Coordination Sequence:
#
# PCOD9049958 Si02
#       8
#     2   2   2   1   2   2   2   2
#     4   9  22  47  70  99 141 196 239 302 361 428
#     4  12  26  47  71 105 147 185 249 296 373 430
#     4  12  26  43  76 109 146 193 249 304 359 433
#     4  12  28  44  74 104 146 188 244 298 370 438
#     4  10  24  48  70 106 147 190 246 299 366 433
#     4  12  23  45  70 103 142 195 241 299 362 427
#     4  12  25  48  69 107 142 193 237 308 360 435
#     4  11  25  43  74 105 143 197 238 308 363 431
#
# _framework density 26.475577999999999
#
# number of rings (size 3 to 8) (size 9 to 14) (size 15 to 20)
#    0.000    0.800    4.000    2.000    3.733    2.667 
#   12.000    0.000    0.000    0.000    0.000    0.000 
#    0.000    0.000    0.000    0.000    0.000    0.000 
#
# Total GULP energy -83537.127752 kJ/mol
# GULP energy per Si atom -5569.141850 kJ/mol
# Density = 2.641532 g / cm^3
# Si number density = 26.475578 Si / 1000 Ang^3
#
#
#
# Elastic Constant Matrix: (Units=GPa)
#
#
# Indices 1 2 3 4 5 6 
#
# 1 75.8476 2.6643 -0.6116 5.5980 15.0735 1.8546
# 2 2.6643 132.5348 21.7825 -14.1454 -5.0012 37.1312
# 3 -0.6116 21.7825 77.7967 -19.6668 4.3279 9.9347
# 4 5.5980 -14.1454 -19.6668 49.6870 7.4066 -10.4057
# 5 15.0735 -5.0012 4.3279 7.4066 31.9097 -6.1114
# 6 1.8546 37.1312 9.9347 -10.4057 -6.1114 43.9498
#
#
#
# Elastic Compliance Matrix: (Units=1/GPa)
#
#
# Indices 1 2 3 4 5 6 
#
# 1 0.014737 -0.000271 0.000619 -0.000774 -0.007238 -0.001722
# 2 -0.000271 0.010140 -0.001703 0.000523 0.000294 -0.008006
# 3 0.000619 -0.001703 0.015201 0.005833 -0.004210 -0.001228
# 4 -0.000774 0.000523 0.005833 0.024145 -0.005325 0.003249
# 5 -0.007238 0.000294 -0.004210 -0.005325 0.037563 0.004971
# 6 -0.001722 -0.008006 -0.001228 0.003249 0.004971 0.031328
#
#
# Mechanical properties :
#
#
# Convention : Reuss Voigt Hill
#
# Bulk Modulus (GPa) = 26.76176 37.09441 31.92808
# Shear Modulus (GPa) = 33.71980 42.59887 38.15934
#
# Velocity S-wave (km/s) = 3.57265 4.01557 3.80057
# Velocity P-wave (km/s) = 5.21042 5.96162 5.59864
#
# Compressibility (1/GPa) = 0.03736676
#
# Stress axis : x y z
#
# Youngs Moduli (GPa) = 67.85865 98.61485 65.78413
#
# Poissons Ratio (x) = 0.02674 -0.04069
# Poissons Ratio (y) = 0.01840 0.11204
# Poissons Ratio (z) = -0.04198 0.16796
#
# Static dielectric constant tensor:
#      x y z
#    x 2.183490 -0.066350 -0.022300 
#    y -0.066350 2.358960 -0.018530 
#    z -0.022300 -0.018530 2.042870 
# 
# From -- ./inp_files/288771.got.cif
#   From: 2010.05.17/outbox.cif.g08.bks.cpg/sg2_145_cif.got.tgz:288771.got - 2010.06.03 11:33:40.
