data_PCOD9049995
_publ_section_title
;
Structure prediction by ZEFSAII (Michael W. Deem and Ramdas Pophale) SiO2 
 PCOD9049995
Probable space group: P -1
;
_chemical_formula_sum "Si O2"
_cell_formula_units_Z 16
_cell_length_a 9.011447
_cell_length_b 8.512004
_cell_length_c 20.433571
_cell_angle_alpha 59.841621
_cell_angle_beta 124.096384
_cell_angle_gamma 146.882715
_cell_volume 707.255927
_symmetry_space_group_name_H-M "P -1"
_symmetry_group_IT_number 2
_symmetry_cell_setting 'triclinic'
loop_
_space_group_symop_operation_xyz
x,y,z
-x,-y,-z
loop_
_atom_site_type_symbol
_atom_site_label
_atom_site_fract_x
_atom_site_fract_y
_atom_site_fract_z
Si Si1 0.951960 0.708016 0.405799
Si Si2 0.320153 0.702683 0.052254
Si Si3 0.534539 0.932019 0.633969
Si Si4 0.188703 0.934611 0.187619
Si Si5 0.392539 0.742428 0.216029
Si Si6 0.026243 0.201970 0.316684
Si Si7 0.447582 0.477937 0.914372
Si Si8 0.035267 0.809817 0.551740
O O1 0.694667 0.405455 0.369053
O O2 0.982380 0.950167 0.356358
O O3 0.245931 0.869707 0.412732
O O4 0.914916 0.644894 0.487470
O O5 0.373690 0.737077 0.135215
O O6 0.399919 0.571740 0.070453
O O7 0.000000 0.500000 0.000000
O O8 0.500000 0.000000 0.000000
O O9 0.715806 0.012506 0.724899
O O10 0.349789 0.967493 0.596472
O O11 0.192651 0.738363 0.198489
O O12 0.882382 0.781722 0.132689
O O13 0.415028 0.232100 0.141427
O O14 0.270275 0.458804 0.274261
O O15 0.715866 0.031410 0.256661
O O16 0.095510 0.331080 0.379678
O O17 0.500000 0.500000 0.000000
O O18 0.000000 0.000000 0.500000
#
# Coordination Sequence:
#
# PCOD9049995 Si02
#       8
#     2   2   2   2   2   2   2   2
#     4  11  26  44  72 101 143 184 246 293 358 419
#     4  12  26  47  73 104 141 185 234 285 350 426
#     4  12  25  45  70 107 146 187 240 296 363 418
#     4  12  26  44  72 106 147 186 233 296 357 420
#     4  12  25  45  71 100 147 182 234 284 356 414
#     4  11  25  44  69 103 138 189 235 292 345 428
#     4  12  26  47  75 108 143 185 237 289 356 428
#     4  10  24  48  72 103 141 195 242 295 357 425
#
# _framework density 22.622644999999999
#
# number of rings (size 3 to 8) (size 9 to 14) (size 15 to 20)
#    0.000    0.500    1.250    6.375    7.000    1.000 
#    0.000    5.625    0.000    0.000    0.000    0.000 
#    0.000    0.000    0.000    0.000    0.000    0.000 
#
# Total GULP energy -89611.645090 kJ/mol
# GULP energy per Si atom -5600.727818 kJ/mol
# Density = 2.257115 g / cm^3
# Si number density = 22.622645 Si / 1000 Ang^3
#
#
#
# Elastic Constant Matrix: (Units=GPa)
#
#
# Indices 1 2 3 4 5 6 
#
# 1 115.3462 33.9117 52.2176 9.5905 -7.3316 -9.1074
# 2 33.9117 120.6569 53.2463 -7.8805 -18.2072 1.9468
# 3 52.2176 53.2463 159.3312 9.8784 -29.3174 -9.4472
# 4 9.5905 -7.8805 9.8784 42.4905 -1.0307 2.2832
# 5 -7.3316 -18.2072 -29.3174 -1.0307 39.7684 1.9543
# 6 -9.1074 1.9468 -9.4472 2.2832 1.9543 28.5534
#
#
#
# Elastic Compliance Matrix: (Units=1/GPa)
#
#
# Indices 1 2 3 4 5 6 
#
# 1 0.010932 -0.002267 -0.002723 -0.002447 -0.001242 0.003021
# 2 -0.002267 0.010815 -0.002745 0.003374 0.002737 -0.002826
# 3 -0.002723 -0.002745 0.009244 -0.002043 0.004895 0.002205
# 4 -0.002447 0.003374 -0.002043 0.025400 0.000430 -0.003747
# 5 -0.001242 0.002737 0.004895 0.000430 0.029840 -0.001040
# 6 0.003021 -0.002826 0.002205 -0.003747 -0.001040 0.037279
#
#
# Mechanical properties :
#
#
# Convention : Reuss Voigt Hill
#
# Bulk Modulus (GPa) = 64.42241 74.89841 69.66041
# Shear Modulus (GPa) = 34.68568 39.22637 36.95603
#
# Velocity S-wave (km/s) = 3.91989 4.16858 4.04615
# Velocity P-wave (km/s) = 7.00187 7.50660 7.25862
#
# Compressibility (1/GPa) = 0.01552255
#
# Stress axis : x y z
#
# Youngs Moduli (GPa) = 91.47727 92.46291 108.18033
#
# Poissons Ratio (x) = 0.20960 0.29454
# Poissons Ratio (y) = 0.20737 0.29690
# Poissons Ratio (z) = 0.24906 0.25377
#
# Static dielectric constant tensor:
#      x y z
#    x 1.857310 0.015890 0.013280 
#    y 0.015890 1.694740 0.108870 
#    z 0.013280 0.108870 1.723300 
# 
# From -- ./inp_files/587916.got.cif
#   From: 2010.05.17/outbox.cif.g08.bks.cpg/sg2_294_cif.got.tgz:587916.got - 2010.06.03 11:33:40.
