data_PCOD9049082
_publ_section_title
;
Structure prediction by ZEFSAII (Michael W. Deem and Ramdas Pophale) SiO2 
 PCOD9049082
Probable space group: P -1
;
_chemical_formula_sum "Si O2"
_cell_formula_units_Z 16
_cell_length_a 9.711618
_cell_length_b 15.995431
_cell_length_c 8.146090
_cell_angle_alpha 68.848836
_cell_angle_beta 64.566632
_cell_angle_gamma 30.595889
_cell_volume 581.548051
_symmetry_space_group_name_H-M "P -1"
_symmetry_group_IT_number 2
_symmetry_cell_setting 'triclinic'
loop_
_space_group_symop_operation_xyz
x,y,z
-x,-y,-z
loop_
_atom_site_type_symbol
_atom_site_label
_atom_site_fract_x
_atom_site_fract_y
_atom_site_fract_z
Si Si1 0.871587 0.742409 0.156168
Si Si2 0.429319 0.546169 0.691948
Si Si3 0.004628 0.501125 0.799915
Si Si4 0.664109 0.171366 0.662317
Si Si5 0.891929 0.196339 0.778792
Si Si6 0.929287 0.158022 0.120630
Si Si7 0.350340 0.970853 0.472441
Si Si8 0.851117 0.750929 0.804462
O O1 0.079785 0.553796 0.190717
O O2 0.668432 0.829167 0.353473
O O3 0.710353 0.806037 0.015794
O O4 0.956507 0.803350 0.039596
O O5 0.500000 0.500000 0.500000
O O6 0.711688 0.376501 0.755477
O O7 0.301487 0.699302 0.728254
O O8 0.174798 0.601626 0.801736
O O9 0.330337 0.349367 0.695759
O O10 0.833582 0.677168 0.738616
O O11 0.000000 0.500000 0.000000
O O12 0.769127 0.209844 0.667980
O O13 0.726958 0.089752 0.515879
O O14 0.822263 0.021512 0.805527
O O15 0.217945 0.041952 0.670319
O O16 0.819411 0.174113 0.992836
O O17 0.212855 0.122780 0.336447
#
# Coordination Sequence:
#
# PCOD9049082 Si02
#       8
#     2   2   2   2   2   2   2   2
#     4   9  20  36  58  85 114 151 199 242 291 337
#     4  11  20  39  61  86 112 150 200 242 285 344
#     4   9  19  31  60  91 110 142 200 256 281 330
#     4  11  21  38  59  88 116 155 201 244 285 345
#     4  12  24  38  57  89 123 159 190 238 302 351
#     4  11  24  40  59  83 125 160 191 235 299 360
#     4  11  21  36  63  89 115 151 201 250 284 340
#     4  10  17  34  59  90 110 142 194 254 286 330
#
# _framework density 27.512772999999999
#
# number of rings (size 3 to 8) (size 9 to 14) (size 15 to 20)
#    0.000    1.500    5.000    1.500    3.500    0.500 
#    0.000    0.000    0.000    0.750    0.000    0.000 
#    0.000    0.000    0.000    0.000    0.000    0.000 
#
# Total GULP energy -89238.638884 kJ/mol
# GULP energy per Si atom -5577.414930 kJ/mol
# Density = 2.745015 g / cm^3
# Si number density = 27.512773 Si / 1000 Ang^3
#
#
#
# Elastic Constant Matrix: (Units=GPa)
#
#
# Indices 1 2 3 4 5 6 
#
# 1 61.5833 24.0883 -2.2125 3.3846 -5.1189 36.0660
# 2 24.0883 141.1891 21.9119 5.3023 8.0195 34.0211
# 3 -2.2125 21.9119 115.2417 24.2557 22.3821 -4.6734
# 4 3.3846 5.3023 24.2557 38.2918 9.7559 -2.1107
# 5 -5.1189 8.0195 22.3821 9.7559 35.7157 1.0989
# 6 36.0660 34.0211 -4.6734 -2.1107 1.0989 47.3019
#
#
#
# Elastic Compliance Matrix: (Units=1/GPa)
#
#
# Indices 1 2 3 4 5 6 
#
# 1 0.031461 0.000539 -0.000715 -0.005589 0.007128 -0.024861
# 2 0.000539 0.009022 -0.001811 -0.000418 -0.000482 -0.007087
# 3 -0.000715 -0.001811 0.011291 -0.005302 -0.005411 0.002852
# 4 -0.005589 -0.000418 -0.005302 0.031935 -0.006280 0.005609
# 5 0.007128 -0.000482 -0.005411 -0.006280 0.034441 -0.006703
# 6 -0.024861 -0.007087 0.002852 0.005609 -0.006703 0.045881
#
#
# Mechanical properties :
#
#
# Convention : Reuss Voigt Hill
#
# Bulk Modulus (GPa) = 20.92021 45.06549 32.99285
# Shear Modulus (GPa) = 27.18298 42.54364 34.86331
#
# Velocity S-wave (km/s) = 3.14668 3.93660 3.56359
# Velocity P-wave (km/s) = 4.56316 6.08915 5.38053
#
# Compressibility (1/GPa) = 0.04780067
#
# Stress axis : x y z
#
# Youngs Moduli (GPa) = 31.78522 110.83460 88.56938
#
# Poissons Ratio (x) = -0.05974 0.06329
# Poissons Ratio (y) = -0.01713 0.16041
# Poissons Ratio (z) = 0.02271 0.20073
#
# Static dielectric constant tensor:
#      x y z
#    x 2.477930 0.030600 -0.103110 
#    y 0.030600 2.209080 0.074540 
#    z -0.103110 0.074540 2.314170 
# 
# From -- ./inp_files/176401.got.cif
#   From: 2010.05.17/outbox.cif.g08.bks.cpg/sg2_89_cif.got.tgz:176401.got - 2010.06.03 11:33:40.
