data_PCOD9049088
_publ_section_title
;
Structure prediction by ZEFSAII (Michael W. Deem and Ramdas Pophale) SiO2 
 PCOD9049088
Probable space group: P -1
;
_chemical_formula_sum "Si O2"
_cell_formula_units_Z 15
_cell_length_a 13.368871
_cell_length_b 15.675823
_cell_length_c 6.800057
_cell_angle_alpha 91.335308
_cell_angle_beta 126.177467
_cell_angle_gamma 129.223555
_cell_volume 688.999849
_symmetry_space_group_name_H-M "P -1"
_symmetry_group_IT_number 2
_symmetry_cell_setting 'triclinic'
loop_
_space_group_symop_operation_xyz
x,y,z
-x,-y,-z
loop_
_atom_site_type_symbol
_atom_site_label
_atom_site_fract_x
_atom_site_fract_y
_atom_site_fract_z
Si Si1 0.618347 0.890058 0.402755
Si Si2 0.278476 0.360715 0.629763
Si Si3 0.748189 0.478412 0.616832
Si Si4 0.685751 0.757342 0.681223
Si Si5 0.002908 0.161085 0.664619
Si Si6 0.225721 0.646548 0.690588
Si Si7 0.121063 0.728726 0.297447
Si Si8 0.500000 0.000000 0.500000
O O1 0.717199 0.870905 0.649838
O O2 0.578868 0.954444 0.479856
O O3 0.401970 0.736173 0.061969
O O4 0.772177 0.995775 0.404614
O O5 0.213048 0.413193 0.454546
O O6 0.301762 0.300812 0.489738
O O7 0.106545 0.235706 0.579599
O O8 0.500000 0.500000 0.000000
O O9 0.540327 0.375027 0.493162
O O10 0.723533 0.388318 0.431233
O O11 0.941163 0.571546 0.989493
O O12 0.848725 0.818076 0.036942
O O13 0.986325 0.242792 0.759817
O O14 0.219868 0.739031 0.603655
O O15 0.000000 0.500000 0.500000
O O16 0.298318 0.839731 0.350033
#
# Coordination Sequence:
#
# PCOD9049088 Si02
#       8
#     2   2   2   2   2   2   2   1
#     4  11  26  46  70 101 136 182 230 285 345 405
#     4  12  23  41  69 101 142 181 225 275 336 412
#     4  12  23  42  71 102 140 180 225 286 345 402
#     4  12  24  46  68 104 143 177 229 280 345 412
#     4  11  25  45  69 103 140 183 227 280 345 414
#     4  12  25  44  70 102 137 176 239 285 333 409
#     4  11  23  43  68 100 136 184 226 281 346 402
#     4  10  24  46  68  92 138 178 228 280 348 400
#
# _framework density 21.770688
#
# number of rings (size 3 to 8) (size 9 to 14) (size 15 to 20)
#    0.000    0.533    2.667    6.000    0.000    3.733 
#    2.400    0.000    0.000    0.000    0.000    0.000 
#    0.000    0.000    0.000    0.000    0.000    0.000 
#
# Total GULP energy -83738.095933 kJ/mol
# GULP energy per Si atom -5582.539729 kJ/mol
# Density = 2.172114 g / cm^3
# Si number density = 21.770688 Si / 1000 Ang^3
#
#
#
# Elastic Constant Matrix: (Units=GPa)
#
#
# Indices 1 2 3 4 5 6 
#
# 1 75.9817 43.9610 9.8749 -0.7953 16.1652 23.1851
# 2 43.9610 104.1459 15.1613 7.3600 14.3908 29.8874
# 3 9.8749 15.1613 24.6610 -7.1699 10.0514 4.3111
# 4 -0.7953 7.3600 -7.1699 27.4479 -0.4714 7.0931
# 5 16.1652 14.3908 10.0514 -0.4714 22.4707 5.7129
# 6 23.1851 29.8874 4.3111 7.0931 5.7129 46.2312
#
#
#
# Elastic Compliance Matrix: (Units=1/GPa)
#
#
# Indices 1 2 3 4 5 6 
#
# 1 0.020416 -0.006114 0.001878 0.004059 -0.010041 -0.005843
# 2 -0.006114 0.015166 -0.006930 -0.004715 -0.000979 -0.005248
# 3 0.001878 -0.006930 0.058461 0.017271 -0.022239 -0.001815
# 4 0.004059 -0.004715 0.017271 0.043979 -0.004993 -0.006729
# 5 -0.010041 -0.000979 -0.022239 -0.004993 0.061980 0.000850
# 6 -0.005843 -0.005248 -0.001815 -0.006729 0.000850 0.029050
#
#
# Mechanical properties :
#
#
# Convention : Reuss Voigt Hill
#
# Bulk Modulus (GPa) = 13.94483 38.08699 26.01591
# Shear Modulus (GPa) = 18.16281 28.28272 23.22276
#
# Velocity S-wave (km/s) = 2.89152 3.60824 3.26958
# Velocity P-wave (km/s) = 4.19131 5.90693 5.12147
#
# Compressibility (1/GPa) = 0.07171119
#
# Stress axis : x y z
#
# Youngs Moduli (GPa) = 48.98128 65.93755 17.10535
#
# Poissons Ratio (x) = 0.40311 -0.03212
# Poissons Ratio (y) = 0.29945 0.11854
# Poissons Ratio (z) = -0.09196 0.45694
#
# Static dielectric constant tensor:
#      x y z
#    x 1.746390 -0.009330 0.011770 
#    y -0.009330 1.798050 -0.021940 
#    z 0.011770 -0.021940 1.783680 
# 
# From -- ./inp_files/27638.got.cif
#   From: 2010.05.17/outbox.cif.g08.bks.cpg/sg2_14_cif.got.tgz:27638.got - 2010.06.03 11:33:40.
