data_PCOD9049802
_publ_section_title
;
Structure prediction by ZEFSAII (Michael W. Deem and Ramdas Pophale) SiO2 
 PCOD9049802
Probable space group: P -1
;
_chemical_formula_sum "Si O2"
_cell_formula_units_Z 12
_cell_length_a 5.709098
_cell_length_b 13.461454
_cell_length_c 13.377120
_cell_angle_alpha 139.665458
_cell_angle_beta 99.841810
_cell_angle_gamma 104.003236
_cell_volume 532.322973
_symmetry_space_group_name_H-M "P -1"
_symmetry_group_IT_number 2
_symmetry_cell_setting 'triclinic'
loop_
_space_group_symop_operation_xyz
x,y,z
-x,-y,-z
loop_
_atom_site_type_symbol
_atom_site_label
_atom_site_fract_x
_atom_site_fract_y
_atom_site_fract_z
Si Si1 0.417113 0.222635 0.129008
Si Si2 0.853001 0.610716 0.398234
Si Si3 0.041635 0.787717 0.760417
Si Si4 0.803925 0.636279 0.069786
Si Si5 0.880597 0.957442 0.571112
Si Si6 0.772486 0.332509 0.703811
O O1 0.561648 0.400815 0.202682
O O2 0.705357 0.234591 0.198775
O O3 0.213013 0.244934 0.208376
O O4 0.210659 0.008038 0.910359
O O5 0.867741 0.783684 0.483118
O O6 0.901506 0.653379 0.551514
O O7 0.103901 0.619071 0.361672
O O8 0.036703 0.679387 0.206285
O O9 0.500000 0.500000 0.000000
O O10 0.786728 0.509820 0.882520
O O11 0.908844 0.844229 0.205405
O O12 0.538823 0.868061 0.476126
O O13 0.000000 0.000000 0.500000
#
# Coordination Sequence:
#
# PCOD9049802 Si02
#       6
#     2   2   2   2   2   2
#     4  10  24  48  72 106 142 182 229 297 367 422
#     4  12  26  40  73 103 134 181 239 281 353 426
#     4  10  24  47  75 102 144 180 231 298 360 429
#     4  11  23  45  66  89 137 188 233 289 345 406
#     4  12  25  44  64 100 143 180 237 286 346 415
#     4  11  25  41  68  97 136 187 232 294 344 417
#
# _framework density 22.542705999999999
#
# number of rings (size 3 to 8) (size 9 to 14) (size 15 to 20)
#    0.000    1.000    3.333    1.500    4.667    4.000 
#    3.000    0.000    0.000    0.000    0.000    0.000 
#    0.000    0.000    0.000    0.000    0.000    0.000 
#
# Total GULP energy -66992.777863 kJ/mol
# GULP energy per Si atom -5582.731489 kJ/mol
# Density = 2.249140 g / cm^3
# Si number density = 22.542706 Si / 1000 Ang^3
#
#
#
# Elastic Constant Matrix: (Units=GPa)
#
#
# Indices 1 2 3 4 5 6 
#
# 1 111.9123 37.2921 44.0486 11.5662 -5.2008 19.2806
# 2 37.2921 77.6640 38.3485 47.9187 -4.0035 12.0802
# 3 44.0486 38.3485 131.2147 42.5580 -15.8023 14.6534
# 4 11.5662 47.9187 42.5580 51.7228 4.3839 1.3030
# 5 -5.2008 -4.0035 -15.8023 4.3839 43.0909 6.1596
# 6 19.2806 12.0802 14.6534 1.3030 6.1596 45.8858
#
#
#
# Elastic Compliance Matrix: (Units=1/GPa)
#
#
# Indices 1 2 3 4 5 6 
#
# 1 0.013639 -0.011322 -0.005370 0.012092 -0.002455 -0.001049
# 2 -0.011322 0.045734 0.008519 -0.047633 0.012326 -0.010305
# 3 -0.005370 0.008519 0.014846 -0.019479 0.008326 -0.005292
# 4 0.012092 -0.047633 -0.019479 0.078133 -0.020082 0.014157
# 5 -0.002455 0.012326 0.008326 -0.020082 0.030349 -0.008376
# 6 -0.001049 -0.010305 -0.005292 0.014157 -0.008376 0.027359
#
#
# Mechanical properties :
#
#
# Convention : Reuss Voigt Hill
#
# Bulk Modulus (GPa) = 17.27927 62.24102 39.76015
# Shear Modulus (GPa) = 20.35036 41.54669 30.94853
#
# Velocity S-wave (km/s) = 3.00783 4.29770 3.70926
# Velocity P-wave (km/s) = 4.44348 7.23168 6.00174
#
# Compressibility (1/GPa) = 0.05787283
#
# Stress axis : x y z
#
# Youngs Moduli (GPa) = 73.32000 21.86563 67.36035
#
# Poissons Ratio (x) = 0.24756 0.36174
# Poissons Ratio (y) = 0.83010 -0.57386
# Poissons Ratio (z) = 0.39375 -0.18628
#
# Static dielectric constant tensor:
#      x y z
#    x 1.984220 -0.045060 -0.063210 
#    y -0.045060 1.858740 0.002540 
#    z -0.063210 0.002540 1.900630 
# 
# From -- ./inp_files/35985.got.cif
#   From: 2010.05.17/outbox.cif.g08.bks.cpg/sg2_18_cif.got.tgz:35985.got - 2010.06.03 11:33:40.
