data_PCOD9049297
_publ_section_title
;
Structure prediction by ZEFSAII (Michael W. Deem and Ramdas Pophale) SiO2 
 PCOD9049297
Probable space group: P -1
;
_chemical_formula_sum "Si O2"
_cell_formula_units_Z 16
_cell_length_a 11.544957
_cell_length_b 11.756273
_cell_length_c 7.319461
_cell_angle_alpha 81.948318
_cell_angle_beta 57.082740
_cell_angle_gamma 114.265579
_cell_volume 669.088395
_symmetry_space_group_name_H-M "P -1"
_symmetry_group_IT_number 2
_symmetry_cell_setting 'triclinic'
loop_
_space_group_symop_operation_xyz
x,y,z
-x,-y,-z
loop_
_atom_site_type_symbol
_atom_site_label
_atom_site_fract_x
_atom_site_fract_y
_atom_site_fract_z
Si Si1 0.083446 0.590871 0.593161
Si Si2 0.703463 0.894626 0.064816
Si Si3 0.059394 0.164566 0.749921
Si Si4 0.101352 0.279088 0.306625
Si Si5 0.238199 0.451867 0.674657
Si Si6 0.203052 0.023099 0.464287
Si Si7 0.573159 0.583900 0.191986
Si Si8 0.407726 0.907921 0.279402
O O1 0.131987 0.513655 0.709889
O O2 0.258958 0.747514 0.382288
O O3 0.000000 0.500000 0.500000
O O4 0.953340 0.627155 0.756690
O O5 0.736509 0.921801 0.809207
O O6 0.636765 0.734892 0.191763
O O7 0.554594 0.908013 0.251409
O O8 0.880903 0.017030 0.974844
O O9 0.036842 0.239387 0.578469
O O10 0.119610 0.282020 0.823713
O O11 0.189656 0.131527 0.570274
O O12 0.988802 0.121975 0.350636
O O13 0.302862 0.362539 0.099278
O O14 0.371070 0.498329 0.381027
O O15 0.368630 0.497811 0.720165
O O16 0.321243 0.974884 0.436031
O O17 0.500000 0.000000 0.000000
#
# Coordination Sequence:
#
# PCOD9049297 Si02
#       8
#     2   2   2   2   2   2   2   2
#     4  11  21  38  58  87 119 144 188 245 284 326
#     4  10  17  34  60  81 112 150 192 229 278 341
#     4  11  19  36  59  90 111 139 198 247 273 323
#     4  10  19  36  63  83 112 151 192 235 284 336
#     4  11  26  38  56  85 123 151 186 238 287 345
#     4   9  17  32  57  88 112 138 192 243 277 325
#     4  11  22  42  56  82 116 163 191 218 295 352
#     4   9  19  32  56  85 111 150 181 232 290 336
#
# _framework density 23.913132000000001
#
# number of rings (size 3 to 8) (size 9 to 14) (size 15 to 20)
#    0.000    1.750    5.000    1.500    0.000    1.500 
#    4.500    0.000    0.000    0.750    0.000    0.000 
#    0.000    0.000    0.000    0.000    0.000    0.000 
#
# Total GULP energy -89314.705239 kJ/mol
# GULP energy per Si atom -5582.169077 kJ/mol
# Density = 2.385870 g / cm^3
# Si number density = 23.913132 Si / 1000 Ang^3
#
#
#
# Elastic Constant Matrix: (Units=GPa)
#
#
# Indices 1 2 3 4 5 6 
#
# 1 106.6603 34.8447 14.4789 3.0399 -3.5803 -40.3921
# 2 34.8447 98.3285 19.5641 -18.4654 -3.3685 -24.0035
# 3 14.4789 19.5641 84.4894 -14.5608 -11.2943 3.4544
# 4 3.0399 -18.4654 -14.5608 28.2718 -3.8714 -6.2471
# 5 -3.5803 -3.3685 -11.2943 -3.8714 43.9103 -2.9846
# 6 -40.3921 -24.0035 3.4544 -6.2471 -2.9846 39.1821
#
#
#
# Elastic Compliance Matrix: (Units=1/GPa)
#
#
# Indices 1 2 3 4 5 6 
#
# 1 0.016566 -0.001160 -0.003078 -0.000211 0.001588 0.016725
# 2 -0.001160 0.015993 -0.001428 0.012611 0.002620 0.010938
# 3 -0.003078 -0.001428 0.014460 0.006459 0.003655 -0.004015
# 4 -0.000211 0.012611 0.006459 0.051573 0.008232 0.015788
# 5 0.001588 0.002620 0.003655 0.008232 0.025188 0.006151
# 6 0.016725 0.010938 -0.004015 0.015788 0.006151 0.052804
#
#
# Mechanical properties :
#
#
# Convention : Reuss Voigt Hill
#
# Bulk Modulus (GPa) = 28.02242 47.47265 37.74753
# Shear Modulus (GPa) = 25.02358 36.97887 31.00122
#
# Velocity S-wave (km/s) = 3.23838 3.93667 3.60448
# Velocity P-wave (km/s) = 5.07214 6.36855 5.75696
#
# Compressibility (1/GPa) = 0.03568571
#
# Stress axis : x y z
#
# Youngs Moduli (GPa) = 60.36642 62.52583 69.15686
#
# Poissons Ratio (x) = 0.07255 0.21287
# Poissons Ratio (y) = 0.07005 0.09876
# Poissons Ratio (z) = 0.18581 0.08929
#
# Static dielectric constant tensor:
#      x y z
#    x 2.000320 0.020050 0.040080 
#    y 0.020050 1.946640 0.055710 
#    z 0.040080 0.055710 1.943590 
# 
# From -- ./inp_files/205172.got.cif
#   From: 2010.05.17/outbox.cif.g08.bks.cpg/sg2_103_cif.got.tgz:205172.got - 2010.06.03 11:33:40.
