data_PCOD9049885
_publ_section_title
;
Structure prediction by ZEFSAII (Michael W. Deem and Ramdas Pophale) SiO2 
 PCOD9049885
Probable space group: P -1
;
_chemical_formula_sum "Si O2"
_cell_formula_units_Z 12
_cell_length_a 9.381131
_cell_length_b 7.022634
_cell_length_c 14.789473
_cell_angle_alpha 117.428371
_cell_angle_beta 137.323883
_cell_angle_gamma 94.324271
_cell_volume 425.305857
_symmetry_space_group_name_H-M "P -1"
_symmetry_group_IT_number 2
_symmetry_cell_setting 'triclinic'
loop_
_space_group_symop_operation_xyz
x,y,z
-x,-y,-z
loop_
_atom_site_type_symbol
_atom_site_label
_atom_site_fract_x
_atom_site_fract_y
_atom_site_fract_z
Si Si1 0.304300 0.817899 0.114442
Si Si2 0.146946 0.099174 0.191708
Si Si3 0.279603 0.730307 0.743454
Si Si4 0.650211 0.340258 0.651664
Si Si5 0.954836 0.911629 0.665082
Si Si6 0.347625 0.344706 0.798476
O O1 0.360427 0.047531 0.262212
O O2 0.486390 0.729505 0.191003
O O3 0.000000 0.000000 0.000000
O O4 0.439497 0.006757 0.125641
O O5 0.241445 0.412984 0.320825
O O6 0.002517 0.937969 0.185283
O O7 0.959466 0.529338 0.887353
O O8 0.320596 0.544646 0.776976
O O9 0.000000 0.500000 0.500000
O O10 0.160507 0.852681 0.766337
O O11 0.392598 0.318474 0.560082
O O12 0.500000 0.000000 0.500000
O O13 0.049409 0.056670 0.641147
O O14 0.500000 0.500000 0.000000
#
# Coordination Sequence:
#
# PCOD9049885 Si02
#       6
#     2   2   2   2   2   2
#     4  10  25  52  82 125 170 217 280 357 426 503
#     4  10  24  47  78 118 171 220 276 352 431 496
#     4  11  27  53  87 119 173 224 285 349 432 509
#     4  11  24  47  77 119 165 218 279 341 418 504
#     4  11  26  48  82 118 165 228 278 352 427 508
#     4  11  27  49  84 121 167 220 292 344 426 511
#
# _framework density 28.214988999999999
#
# number of rings (size 3 to 8) (size 9 to 14) (size 15 to 20)
#    0.000    1.333    0.000    2.500   11.667    4.000 
#    9.000    2.500    0.000    0.000    0.000    0.000 
#    0.000    0.000    0.000    0.000    0.000    0.000 
#
# Total GULP energy -66975.999067 kJ/mol
# GULP energy per Si atom -5581.333256 kJ/mol
# Density = 2.815077 g / cm^3
# Si number density = 28.214989 Si / 1000 Ang^3
#
#
#
# Elastic Constant Matrix: (Units=GPa)
#
#
# Indices 1 2 3 4 5 6 
#
# 1 202.7483 92.0527 58.2943 -18.2149 22.8899 -25.6173
# 2 92.0527 280.6402 78.1716 -29.1015 2.3646 -16.5479
# 3 58.2943 78.1716 161.8614 -6.1287 10.9333 6.3387
# 4 -18.2149 -29.1015 -6.1287 70.2026 4.7734 -5.1443
# 5 22.8899 2.3646 10.9333 4.7734 59.6596 -2.4074
# 6 -25.6173 -16.5479 6.3387 -5.1443 -2.4074 49.4202
#
#
#
# Elastic Compliance Matrix: (Units=1/GPa)
#
#
# Indices 1 2 3 4 5 6 
#
# 1 0.006874 -0.001409 -0.001720 0.001448 -0.002247 0.003353
# 2 -0.001409 0.004760 -0.001827 0.001500 0.000618 0.001284
# 3 -0.001720 -0.001827 0.007808 -0.000662 -0.000751 -0.002610
# 4 0.001448 0.001500 -0.000662 0.015505 -0.001618 0.002873
# 5 -0.002247 0.000618 -0.000751 -0.001618 0.017860 -0.000160
# 6 0.003353 0.001284 -0.002610 0.002873 -0.000160 0.023029
#
#
# Mechanical properties :
#
#
# Convention : Reuss Voigt Hill
#
# Bulk Modulus (GPa) = 104.92527 122.47633 113.70080
# Shear Modulus (GPa) = 56.22794 63.63857 59.93325
#
# Velocity S-wave (km/s) = 4.46897 4.75435 4.61387
# Velocity P-wave (km/s) = 7.99358 8.58143 8.29272
#
# Compressibility (1/GPa) = 0.00953059
#
# Stress axis : x y z
#
# Youngs Moduli (GPa) = 145.48037 210.06776 128.07801
#
# Poissons Ratio (x) = 0.29594 0.22029
# Poissons Ratio (y) = 0.20495 0.23399
# Poissons Ratio (z) = 0.25022 0.38378
#
# Static dielectric constant tensor:
#      x y z
#    x 2.236640 -0.043480 -0.117060 
#    y -0.043480 2.828410 0.723790 
#    z -0.117060 0.723790 3.133510 
# 
# From -- ./inp_files/374382.got.cif
#   From: 2010.05.17/outbox.cif.g08.bks.cpg/sg2_188_cif.got.tgz:374382.got - 2010.06.03 11:33:40.
