data_PCOD9049463
_publ_section_title
;
Structure prediction by ZEFSAII (Michael W. Deem and Ramdas Pophale) SiO2 
 PCOD9049463
Probable space group: P -1
;
_chemical_formula_sum "Si O2"
_cell_formula_units_Z 16
_cell_length_a 15.435418
_cell_length_b 11.388151
_cell_length_c 7.478959
_cell_angle_alpha 43.044040
_cell_angle_beta 71.093466
_cell_angle_gamma 47.648080
_cell_volume 625.138567
_symmetry_space_group_name_H-M "P -1"
_symmetry_group_IT_number 2
_symmetry_cell_setting 'triclinic'
loop_
_space_group_symop_operation_xyz
x,y,z
-x,-y,-z
loop_
_atom_site_type_symbol
_atom_site_label
_atom_site_fract_x
_atom_site_fract_y
_atom_site_fract_z
Si Si1 0.675827 0.719862 0.321899
Si Si2 0.118260 0.342301 0.894997
Si Si3 0.444066 0.486585 0.810423
Si Si4 0.721109 0.005290 0.498066
Si Si5 0.025389 0.143913 0.019148
Si Si6 0.585262 0.849317 0.823020
Si Si7 0.034370 0.147585 0.602491
Si Si8 0.689001 0.314984 0.707816
O O1 0.787988 0.713198 0.262072
O O2 0.702150 0.485967 0.598030
O O3 0.556453 0.925074 0.285823
O O4 0.643311 0.767541 0.076469
O O5 0.013113 0.344820 0.893470
O O6 0.052462 0.602183 0.714992
O O7 0.198945 0.142118 0.212167
O O8 0.591944 0.321511 0.874228
O O9 0.381951 0.573505 0.558142
O O10 0.384817 0.721642 0.690552
O O11 0.408398 0.343211 0.060127
O O12 0.656081 0.908542 0.604647
O O13 0.826572 0.957634 0.361525
O O14 0.983391 0.203865 0.775697
O O15 0.174286 0.925509 0.156923
O O16 0.968730 0.043213 0.255493
#
# Coordination Sequence:
#
# PCOD9049463 Si02
#       8
#     2   2   2   2   2   2   2   2
#     4   9  16  30  56  88 111 141 188 238 287 331
#     4  11  21  38  63  84 111 151 200 242 284 331
#     4  10  19  32  59  93 116 142 187 238 295 341
#     4  11  22  37  57  89 121 149 186 244 295 333
#     4  11  23  42  61  82 112 159 201 235 280 345
#     4   9  18  30  53  86 121 142 175 239 295 340
#     4  11  26  41  56  82 120 157 198 237 282 340
#     4  10  17  34  60  86 116 145 190 242 279 340
#
# _framework density 25.594327
#
# number of rings (size 3 to 8) (size 9 to 14) (size 15 to 20)
#    0.000    1.750    3.750    1.500    3.500    1.500 
#    0.000    0.625    0.000    1.500    0.000    0.000 
#    0.000    0.000    0.000    0.000    0.000    0.000 
#
# Total GULP energy -89554.184860 kJ/mol
# GULP energy per Si atom -5597.136554 kJ/mol
# Density = 2.553607 g / cm^3
# Si number density = 25.594327 Si / 1000 Ang^3
#
#
#
# Elastic Constant Matrix: (Units=GPa)
#
#
# Indices 1 2 3 4 5 6 
#
# 1 132.2661 28.5637 59.0826 5.0421 -45.1380 -12.1888
# 2 28.5637 29.9850 22.7171 0.8691 -15.7640 -24.5323
# 3 59.0826 22.7171 75.8003 -7.2900 -30.3241 2.4318
# 4 5.0421 0.8691 -7.2900 29.5372 0.0092 7.0514
# 5 -45.1380 -15.7640 -30.3241 0.0092 64.5802 -1.1701
# 6 -12.1888 -24.5323 2.4318 7.0514 -1.1701 42.7944
#
#
#
# Elastic Compliance Matrix: (Units=1/GPa)
#
#
# Indices 1 2 3 4 5 6 
#
# 1 0.015258 0.009051 -0.013066 -0.008949 0.006956 0.011942
# 2 0.009051 0.184658 -0.061243 -0.050986 0.024843 0.120995
# 3 -0.013066 -0.061243 0.043971 0.025795 -0.004266 -0.045695
# 4 -0.008949 -0.050986 0.025795 0.053334 -0.007361 -0.042232
# 5 0.006956 0.024843 -0.004266 -0.007361 0.024741 0.018355
# 6 0.011942 0.120995 -0.045695 -0.042232 0.018355 0.106188
#
#
# Mechanical properties :
#
#
# Convention : Reuss Voigt Hill
#
# Bulk Modulus (GPa) = 8.82062 50.97535 29.89798
# Shear Modulus (GPa) = 8.38284 35.89489 22.13886
#
# Velocity S-wave (km/s) = 1.81173 3.74900 2.94426
# Velocity P-wave (km/s) = 2.79827 6.22092 4.82339
#
# Compressibility (1/GPa) = 0.11337076
#
# Stress axis : x y z
#
# Youngs Moduli (GPa) = 65.53892 5.41543 22.74208
#
# Poissons Ratio (x) = -0.04901 0.29716
# Poissons Ratio (y) = -0.59318 1.39278
# Poissons Ratio (z) = 0.85636 0.33165
#
# Static dielectric constant tensor:
#      x y z
#    x 2.027200 0.010310 0.000640 
#    y 0.010310 1.976640 0.023570 
#    z 0.000640 0.023570 2.049290 
# 
# From -- ./inp_files/279218.got.cif
#   From: 2010.05.17/outbox.cif.g08.bks.cpg/sg2_140_cif.got.tgz:279218.got - 2010.06.03 11:33:40.
