data_PCOD9049250
_publ_section_title
;
Structure prediction by ZEFSAII (Michael W. Deem and Ramdas Pophale) SiO2 
 PCOD9049250
Probable space group: P -1
;
_chemical_formula_sum "Si O2"
_cell_formula_units_Z 16
_cell_length_a 5.813443
_cell_length_b 18.038725
_cell_length_c 9.007638
_cell_angle_alpha 114.945335
_cell_angle_beta 50.884915
_cell_angle_gamma 98.575240
_cell_volume 655.278917
_symmetry_space_group_name_H-M "P -1"
_symmetry_group_IT_number 2
_symmetry_cell_setting 'triclinic'
loop_
_space_group_symop_operation_xyz
x,y,z
-x,-y,-z
loop_
_atom_site_type_symbol
_atom_site_label
_atom_site_fract_x
_atom_site_fract_y
_atom_site_fract_z
Si Si1 0.588306 0.784123 0.871497
Si Si2 0.049389 0.689313 0.417631
Si Si3 0.015220 0.713590 0.117875
Si Si4 0.601294 0.161149 0.556618
Si Si5 0.243237 0.543688 0.756933
Si Si6 0.240663 0.515376 0.288188
Si Si7 0.673174 0.920228 0.152516
Si Si8 0.333952 0.922011 0.861551
O O1 0.514484 0.851851 0.830112
O O2 0.766966 0.702321 0.654560
O O3 0.289923 0.764085 0.051115
O O4 0.752578 0.830238 0.966880
O O5 0.974254 0.676576 0.266531
O O6 0.168414 0.776565 0.451545
O O7 0.268052 0.611089 0.328870
O O8 0.717456 0.777661 0.261303
O O9 0.114643 0.641875 0.896168
O O10 0.561616 0.091211 0.634175
O O11 0.667417 0.118882 0.335441
O O12 0.500000 0.500000 0.500000
O O13 0.436627 0.528652 0.818946
O O14 0.939000 0.509376 0.804813
O O15 0.000000 0.500000 0.500000
O O16 0.547879 0.992100 0.146688
O O17 0.997060 0.941550 0.082271
#
# Coordination Sequence:
#
# PCOD9049250 Si02
#       8
#     2   2   2   2   2   2   2   2
#     4  12  23  46  68 104 140 190 240 290 358 438
#     4  12  27  44  74 102 143 187 236 302 365 435
#     4  12  27  44  74 102 143 187 236 302 365 435
#     4  12  25  46  68 108 142 182 244 298 364 430
#     4  10  24  46  71 103 141 189 242 295 367 439
#     4  10  24  46  71 103 141 189 242 295 367 439
#     4  11  24  43  69 102 143 189 235 296 361 430
#     4  11  24  43  69 102 143 189 235 296 361 430
#
# _framework density 24.417083999999999
#
# number of rings (size 3 to 8) (size 9 to 14) (size 15 to 20)
#    0.000    0.750    5.000    2.250    3.500    5.000 
#    0.000    1.250    0.000    0.000    0.000    0.000 
#    0.000    0.000    0.000    0.000    0.000    0.000 
#
# Total GULP energy -89386.372907 kJ/mol
# GULP energy per Si atom -5586.648307 kJ/mol
# Density = 2.436151 g / cm^3
# Si number density = 24.417084 Si / 1000 Ang^3
#
#
#
# Elastic Constant Matrix: (Units=GPa)
#
#
# Indices 1 2 3 4 5 6 
#
# 1 90.2674 7.8361 9.6438 -0.0137 -6.7082 3.2357
# 2 7.8361 84.8156 7.2773 -1.8795 9.6062 -1.6548
# 3 9.6438 7.2773 94.3888 2.2944 -1.8415 13.9854
# 4 -0.0137 -1.8795 2.2944 47.2425 -4.2751 -3.0194
# 5 -6.7082 9.6062 -1.8415 -4.2751 27.4996 8.1337
# 6 3.2357 -1.6548 13.9854 -3.0194 8.1337 30.3446
#
#
#
# Elastic Compliance Matrix: (Units=1/GPa)
#
#
# Indices 1 2 3 4 5 6 
#
# 1 0.011650 -0.001499 -0.000700 0.000205 0.003954 -0.002041
# 2 -0.001499 0.012772 -0.001407 0.000249 -0.005795 0.003083
# 3 -0.000700 -0.001407 0.011778 -0.000772 0.002844 -0.006269
# 4 0.000205 0.000249 -0.000772 0.021576 0.002746 0.001758
# 5 0.003954 -0.005795 0.002844 0.002746 0.043982 -0.013564
# 6 -0.002041 0.003083 -0.006269 0.001758 -0.013564 0.040041
#
#
# Mechanical properties :
#
#
# Convention : Reuss Voigt Hill
#
# Bulk Modulus (GPa) = 34.50000 35.44292 34.97146
# Shear Modulus (GPa) = 31.51118 37.33164 34.42141
#
# Velocity S-wave (km/s) = 3.59630 3.91438 3.75871
# Velocity P-wave (km/s) = 5.60399 5.91413 5.76114
#
# Compressibility (1/GPa) = 0.02898551
#
# Stress axis : x y z
#
# Youngs Moduli (GPa) = 85.83526 78.29923 84.90640
#
# Poissons Ratio (x) = 0.11740 0.05945
# Poissons Ratio (y) = 0.12870 0.11949
# Poissons Ratio (z) = 0.06010 0.11020
#
# Static dielectric constant tensor:
#      x y z
#    x 1.921740 0.014320 0.041250 
#    y 0.014320 1.937480 -0.005000 
#    z 0.041250 -0.005000 1.925090 
# 
# From -- ./inp_files/47579.got.cif
#   From: 2010.05.17/outbox.cif.g08.bks.cpg/sg2_24_cif.got.tgz:47579.got - 2010.06.03 11:33:40.
