data_PCOD9049708
_publ_section_title
;
Structure prediction by ZEFSAII (Michael W. Deem and Ramdas Pophale) SiO2 
 PCOD9049708
Probable space group: P -1
;
_chemical_formula_sum "Si O2"
_cell_formula_units_Z 16
_cell_length_a 6.239596
_cell_length_b 18.382012
_cell_length_c 11.409717
_cell_angle_alpha 136.737899
_cell_angle_beta 131.353788
_cell_angle_gamma 59.706496
_cell_volume 672.538622
_symmetry_space_group_name_H-M "P -1"
_symmetry_group_IT_number 2
_symmetry_cell_setting 'triclinic'
loop_
_space_group_symop_operation_xyz
x,y,z
-x,-y,-z
loop_
_atom_site_type_symbol
_atom_site_label
_atom_site_fract_x
_atom_site_fract_y
_atom_site_fract_z
Si Si1 0.612528 0.714531 0.940088
Si Si2 0.739200 0.802195 0.838892
Si Si3 0.724110 0.074068 0.519906
Si Si4 0.820724 0.404055 0.901772
Si Si5 0.246309 0.366880 0.757085
Si Si6 0.717329 0.094008 0.820233
Si Si7 0.967211 0.391209 0.429757
Si Si8 0.798157 0.236691 0.532783
O O1 0.732174 0.771055 0.935293
O O2 0.364237 0.637983 0.720901
O O3 0.465076 0.804155 0.075721
O O4 0.873906 0.649506 0.017869
O O5 0.412368 0.814888 0.694380
O O6 0.872072 0.704233 0.695749
O O7 0.954942 0.896159 0.010050
O O8 0.718352 0.096095 0.681903
O O9 0.763099 0.172122 0.563138
O O10 0.440027 0.009964 0.317077
O O11 0.000000 0.000000 0.500000
O O12 0.585143 0.363376 0.860313
O O13 0.714128 0.357692 0.684786
O O14 0.811061 0.530094 0.060950
O O15 0.096479 0.394514 0.610755
O O16 0.111759 0.256987 0.619865
O O17 0.000000 0.500000 0.500000
#
# Coordination Sequence:
#
# PCOD9049708 Si02
#       8
#     2   2   2   2   2   2   2   2
#     4  11  24  45  72 102 139 192 234 288 350 423
#     4  11  23  43  69 102 143 182 238 287 357 418
#     4  11  25  48  75 106 136 180 236 292 361 427
#     4  11  25  42  68 101 146 193 238 290 348 409
#     4  11  25  45  64 104 147 187 244 292 349 413
#     4  10  24  47  72 103 140 175 240 290 349 436
#     4  11  24  41  68 100 142 191 239 287 343 417
#     4  12  25  43  73 100 143 187 229 300 360 413
#
# _framework density 23.790455000000001
#
# number of rings (size 3 to 8) (size 9 to 14) (size 15 to 20)
#    0.000    1.000    2.500    3.375    1.750   10.500 
#    0.000    2.500    0.000    0.000    0.000    0.000 
#    0.000    0.000    0.000    0.000    0.000    0.000 
#
# Total GULP energy -89555.668278 kJ/mol
# GULP energy per Si atom -5597.229267 kJ/mol
# Density = 2.373631 g / cm^3
# Si number density = 23.790455 Si / 1000 Ang^3
#
#
#
# Elastic Constant Matrix: (Units=GPa)
#
#
# Indices 1 2 3 4 5 6 
#
# 1 112.1035 32.7538 54.2837 -0.2383 28.4346 17.8463
# 2 32.7538 49.5803 31.1380 -0.6511 7.0612 14.6781
# 3 54.2837 31.1380 131.2123 1.6263 26.0923 2.5935
# 4 -0.2383 -0.6511 1.6263 29.4060 8.8814 7.4692
# 5 28.4346 7.0612 26.0923 8.8814 71.3331 5.1519
# 6 17.8463 14.6781 2.5935 7.4692 5.1519 44.2163
#
#
#
# Elastic Compliance Matrix: (Units=1/GPa)
#
#
# Indices 1 2 3 4 5 6 
#
# 1 0.013693 -0.005136 -0.003683 0.002197 -0.003619 -0.003555
# 2 -0.005136 0.028736 -0.004814 0.002460 0.001216 -0.007741
# 3 -0.003683 -0.004814 0.010650 -0.000827 -0.002053 0.002839
# 4 0.002197 0.002460 -0.000827 0.037503 -0.004951 -0.007413
# 5 -0.003619 0.001216 -0.002053 -0.004951 0.016704 0.000068
# 6 -0.003555 -0.007741 0.002839 -0.007413 0.000068 0.027699
#
#
# Mechanical properties :
#
#
# Convention : Reuss Voigt Hill
#
# Bulk Modulus (GPa) = 38.74043 58.80522 48.77282
# Shear Modulus (GPa) = 29.26446 40.63912 34.95179
#
# Velocity S-wave (km/s) = 3.51107 4.13754 3.83711
# Velocity P-wave (km/s) = 5.72330 6.89908 6.33851
#
# Compressibility (1/GPa) = 0.02581283
#
# Stress axis : x y z
#
# Youngs Moduli (GPa) = 73.02881 34.79903 93.89780
#
# Poissons Ratio (x) = 0.17872 0.34587
# Poissons Ratio (y) = 0.37507 0.45203
# Poissons Ratio (z) = 0.26900 0.16752
#
# Static dielectric constant tensor:
#      x y z
#    x 1.987640 -0.005070 0.019270 
#    y -0.005070 1.880960 0.008280 
#    z 0.019270 0.008280 1.934410 
# 
# From -- ./inp_files/370477.got.cif
#   From: 2010.05.17/outbox.cif.g08.bks.cpg/sg2_186_cif.got.tgz:370477.got - 2010.06.03 11:33:40.
