data_PCOD9049371
_publ_section_title
;
Structure prediction by ZEFSAII (Michael W. Deem and Ramdas Pophale) SiO2 
 PCOD9049371
Probable space group: P -1
;
_chemical_formula_sum "Si O2"
_cell_formula_units_Z 14
_cell_length_a 22.781144
_cell_length_b 16.674232
_cell_length_c 13.059627
_cell_angle_alpha 154.514207
_cell_angle_beta 26.195970
_cell_angle_gamma 162.882081
_cell_volume 604.407567
_symmetry_space_group_name_H-M "P -1"
_symmetry_group_IT_number 2
_symmetry_cell_setting 'triclinic'
loop_
_space_group_symop_operation_xyz
x,y,z
-x,-y,-z
loop_
_atom_site_type_symbol
_atom_site_label
_atom_site_fract_x
_atom_site_fract_y
_atom_site_fract_z
Si Si1 0.052337 0.303887 0.968189
Si Si2 0.246860 0.194955 0.832339
Si Si3 0.539267 0.202586 0.789649
Si Si4 0.682567 0.077002 0.744919
Si Si5 0.109081 0.776162 0.079648
Si Si6 0.731466 0.827237 0.533752
Si Si7 0.633944 0.908702 0.278389
O O1 0.134031 0.193528 0.744790
O O2 0.051443 0.325171 0.871321
O O3 0.183025 0.617735 0.165180
O O4 0.822583 0.067209 0.092722
O O5 0.315673 0.097378 0.537340
O O6 0.346462 0.224683 0.817983
O O7 0.365562 0.510838 0.980024
O O8 0.000000 0.000000 0.000000
O O9 0.662520 0.145890 0.552756
O O10 0.543738 0.249047 0.712311
O O11 0.312644 0.920185 0.867449
O O12 0.775366 0.066235 0.682978
O O13 0.500000 0.000000 0.000000
O O14 0.196565 0.043606 0.316396
O O15 0.000000 0.500000 0.000000
O O16 0.500000 0.500000 0.500000
#
# Coordination Sequence:
#
# PCOD9049371 Si02
#       7
#     2   2   2   2   2   2   2
#     4  11  24  45  67 102 138 184 240 293 353 425
#     4  12  26  45  74 106 143 192 242 292 365 433
#     4  10  24  47  72 104 139 184 243 300 355 425
#     4  12  26  42  67 105 145 185 234 298 358 421
#     4  11  24  45  72 102 140 187 234 294 361 427
#     4  12  24  43  69  98 143 184 234 288 357 427
#     4  10  24  46  72  99 138 186 241 302 350 426
#
# _framework density 23.163179
#
# number of rings (size 3 to 8) (size 9 to 14) (size 15 to 20)
#    0.000    0.857    2.857    3.429    2.000    3.429 
#    7.714    0.000    0.000    0.000    0.000    0.000 
#    0.000    0.000    0.000    0.000    0.000    0.000 
#
# Total GULP energy -77973.378619 kJ/mol
# GULP energy per Si atom -5569.527044 kJ/mol
# Density = 2.311046 g / cm^3
# Si number density = 23.163179 Si / 1000 Ang^3
#
#
#
# Elastic Constant Matrix: (Units=GPa)
#
#
# Indices 1 2 3 4 5 6 
#
# 1 61.3491 19.9165 43.8351 4.8668 -10.0287 -9.5148
# 2 19.9165 47.7776 15.1861 10.0006 -2.3912 -3.2013
# 3 43.8351 15.1861 147.3813 24.2729 -20.4536 2.0534
# 4 4.8668 10.0006 24.2729 35.4555 1.7462 0.7384
# 5 -10.0287 -2.3912 -20.4536 1.7462 55.1650 7.0364
# 6 -9.5148 -3.2013 2.0534 0.7384 7.0364 23.4793
#
#
#
# Elastic Compliance Matrix: (Units=1/GPa)
#
#
# Indices 1 2 3 4 5 6 
#
# 1 0.025621 -0.008432 -0.007487 0.003777 0.000157 0.009722
# 2 -0.008432 0.025556 0.001004 -0.006748 0.000141 0.000150
# 3 -0.007487 0.001004 0.010517 -0.006525 0.003378 -0.004624
# 4 0.003777 -0.006748 -0.006525 0.034194 -0.003245 0.001078
# 5 0.000157 0.000141 0.003378 -0.003245 0.020308 -0.006197
# 6 0.009722 0.000150 -0.004624 0.001078 -0.006197 0.048778
#
#
# Mechanical properties :
#
#
# Convention : Reuss Voigt Hill
#
# Bulk Modulus (GPa) = 31.38538 46.04260 38.71399
# Shear Modulus (GPa) = 24.33975 34.65797 29.49886
#
# Velocity S-wave (km/s) = 3.24511 3.87234 3.57252
# Velocity P-wave (km/s) = 5.25548 6.31775 5.81094
#
# Compressibility (1/GPa) = 0.03186197
#
# Stress axis : x y z
#
# Youngs Moduli (GPa) = 39.03017 39.13003 95.08860
#
# Poissons Ratio (x) = 0.32994 0.71197
# Poissons Ratio (y) = 0.32910 -0.09542
# Poissons Ratio (z) = 0.29223 -0.03927
#
# Static dielectric constant tensor:
#      x y z
#    x 2.030070 0.023550 0.057270 
#    y 0.023550 1.853970 -0.001450 
#    z 0.057270 -0.001450 1.868820 
# 
# From -- ./inp_files/471986.got.cif
#   From: 2010.05.17/outbox.cif.g08.bks.cpg/sg2_236_cif.got.tgz:471986.got - 2010.06.03 11:33:40.
