data_PCOD9049747
_publ_section_title
;
Structure prediction by ZEFSAII (Michael W. Deem and Ramdas Pophale) SiO2 
 PCOD9049747
Probable space group: P -1
;
_chemical_formula_sum "Si O2"
_cell_formula_units_Z 12
_cell_length_a 7.819745
_cell_length_b 9.065250
_cell_length_c 11.812544
_cell_angle_alpha 123.121092
_cell_angle_beta 117.716301
_cell_angle_gamma 100.955371
_cell_volume 497.098314
_symmetry_space_group_name_H-M "P -1"
_symmetry_group_IT_number 2
_symmetry_cell_setting 'triclinic'
loop_
_space_group_symop_operation_xyz
x,y,z
-x,-y,-z
loop_
_atom_site_type_symbol
_atom_site_label
_atom_site_fract_x
_atom_site_fract_y
_atom_site_fract_z
Si Si1 0.828948 0.168437 0.264370
Si Si2 0.583190 0.899185 0.570602
Si Si3 0.737539 0.551698 0.653271
Si Si4 0.154961 0.222482 0.568670
Si Si5 0.391792 0.687529 0.907090
Si Si6 0.062353 0.679592 0.999329
O O1 0.674638 0.250709 0.206981
O O2 0.039192 0.270763 0.279448
O O3 0.968731 0.249596 0.458796
O O4 0.658816 0.904119 0.104506
O O5 0.773902 0.082304 0.793223
O O6 0.500000 0.000000 0.500000
O O7 0.343333 0.695477 0.470458
O O8 0.702506 0.811103 0.495445
O O9 0.500000 0.500000 0.500000
O O10 0.829170 0.633923 0.844567
O O11 0.338625 0.451747 0.785729
O O12 0.000000 0.000000 0.500000
O O13 0.220544 0.672332 0.946791
O O14 0.000000 0.500000 0.000000
#
# Coordination Sequence:
#
# PCOD9049747 Si02
#       6
#     2   2   2   2   2   2
#     4  10  24  47  73 105 146 192 243 303 373 440
#     4  12  27  48  73 109 151 193 246 309 377 443
#     4  11  24  48  73 107 144 196 251 307 365 443
#     4  12  27  45  74 109 149 190 244 304 373 445
#     4  10  25  48  74 107 145 191 245 305 370 445
#     4  11  24  45  78 106 144 194 247 303 373 439
#
# _framework density 24.140094999999999
#
# number of rings (size 3 to 8) (size 9 to 14) (size 15 to 20)
#    0.000    1.000    3.333    1.500    4.667    6.667 
#    0.000    0.000    0.000    0.000    0.000    0.000 
#    0.000    0.000    0.000    0.000    0.000    0.000 
#
# Total GULP energy -67130.166640 kJ/mol
# GULP energy per Si atom -5594.180553 kJ/mol
# Density = 2.408515 g / cm^3
# Si number density = 24.140095 Si / 1000 Ang^3
#
#
#
# Elastic Constant Matrix: (Units=GPa)
#
#
# Indices 1 2 3 4 5 6 
#
# 1 106.8251 22.9368 38.5974 9.9269 -16.4205 12.6467
# 2 22.9368 138.2004 48.4023 16.7112 -0.9405 25.0027
# 3 38.5974 48.4023 180.4315 26.3933 3.6694 1.8714
# 4 9.9269 16.7112 26.3933 64.4615 -10.5961 6.0743
# 5 -16.4205 -0.9405 3.6694 -10.5961 41.1331 6.9248
# 6 12.6467 25.0027 1.8714 6.0743 6.9248 31.3321
#
#
#
# Elastic Compliance Matrix: (Units=1/GPa)
#
#
# Indices 1 2 3 4 5 6 
#
# 1 0.011984 0.000054 -0.002774 0.000909 0.006326 -0.006289
# 2 0.000054 0.009565 -0.002460 -0.000477 0.001646 -0.007779
# 3 -0.002774 -0.002460 0.007227 -0.002784 -0.003181 0.003894
# 4 0.000909 -0.000477 -0.002784 0.018068 0.006039 -0.004658
# 5 0.006326 0.001646 -0.003181 0.006039 0.030671 -0.011626
# 6 -0.006289 -0.007779 0.003894 -0.004658 -0.011626 0.043902
#
#
# Mechanical properties :
#
#
# Convention : Reuss Voigt Hill
#
# Bulk Modulus (GPa) = 54.30616 71.70334 63.00475
# Shear Modulus (GPa) = 36.25341 48.42003 42.33672
#
# Velocity S-wave (km/s) = 3.87950 4.48347 4.19237
# Velocity P-wave (km/s) = 6.52782 7.52127 7.04208
#
# Compressibility (1/GPa) = 0.01841412
#
# Stress axis : x y z
#
# Youngs Moduli (GPa) = 83.44162 104.54951 138.36380
#
# Poissons Ratio (x) = -0.00560 0.38388
# Poissons Ratio (y) = -0.00447 0.34042
# Poissons Ratio (z) = 0.23150 0.25723
#
# Static dielectric constant tensor:
#      x y z
#    x 1.967150 -0.016330 0.023790 
#    y -0.016330 2.094820 0.009900 
#    z 0.023790 0.009900 1.886590 
# 
# From -- ./inp_files/383029.got.cif
#   From: 2010.05.17/outbox.cif.g08.bks.cpg/sg2_192_cif.got.tgz:383029.got - 2010.06.03 11:33:40.
