data_PCOD9049153
_publ_section_title
;
Structure prediction by ZEFSAII (Michael W. Deem and Ramdas Pophale) SiO2 
 PCOD9049153
Probable space group: P -1
;
_chemical_formula_sum "Si O2"
_cell_formula_units_Z 14
_cell_length_a 14.763063
_cell_length_b 30.052798
_cell_length_c 24.597066
_cell_angle_alpha 168.859244
_cell_angle_beta 18.337216
_cell_angle_gamma 160.871754
_cell_volume 646.937150
_symmetry_space_group_name_H-M "P -1"
_symmetry_group_IT_number 2
_symmetry_cell_setting 'triclinic'
loop_
_space_group_symop_operation_xyz
x,y,z
-x,-y,-z
loop_
_atom_site_type_symbol
_atom_site_label
_atom_site_fract_x
_atom_site_fract_y
_atom_site_fract_z
Si Si1 0.807292 0.957510 0.753795
Si Si2 0.161480 0.485390 0.168798
Si Si3 0.135169 0.282728 0.681797
Si Si4 0.800142 0.542835 0.343262
Si Si5 0.301567 0.661688 0.498530
Si Si6 0.973679 0.737668 0.676517
Si Si7 0.410604 0.819535 0.062814
O O1 0.789202 0.850681 0.574976
O O2 0.875886 0.774687 0.540319
O O3 0.500000 0.000000 0.000000
O O4 0.010799 0.217858 0.949981
O O5 0.063022 0.531411 0.219874
O O6 0.058267 0.678961 0.497574
O O7 0.500000 0.500000 0.000000
O O8 0.408076 0.377608 0.681948
O O9 0.848091 0.120496 0.680944
O O10 0.000000 0.500000 0.000000
O O11 0.500000 0.500000 0.500000
O O12 0.745639 0.330440 0.077479
O O13 0.000000 0.500000 0.500000
O O14 0.204860 0.631018 0.453256
O O15 0.374347 0.947266 0.804532
O O16 0.614450 0.664998 0.792583
O O17 0.000000 0.000000 0.000000
#
# Coordination Sequence:
#
# PCOD9049153 Si02
#       7
#     2   2   2   2   2   2   2
#     4  12  27  48  79 106 145 200 251 301 371 448
#     4  12  29  47  73 110 152 188 245 311 375 432
#     4  12  26  46  74 107 145 188 255 302 352 444
#     4  12  24  47  78 104 143 200 248 298 370 442
#     4  11  26  41  71 107 145 189 240 297 375 426
#     4  10  24  46  70 100 147 188 234 296 370 429
#     4  11  23  47  74 104 143 193 250 300 359 439
#
# _framework density 21.640433999999999
#
# number of rings (size 3 to 8) (size 9 to 14) (size 15 to 20)
#    0.000    0.571    4.286    2.143    8.000    0.571 
#    0.000    0.000    0.000    0.000    0.000    0.000 
#    0.000    0.000    0.000    0.000    0.000    0.000 
#
# Total GULP energy -78014.570390 kJ/mol
# GULP energy per Si atom -5572.469314 kJ/mol
# Density = 2.159118 g / cm^3
# Si number density = 21.640434 Si / 1000 Ang^3
#
#
#
# Elastic Constant Matrix: (Units=GPa)
#
#
# Indices 1 2 3 4 5 6 
#
# 1 195.2330 63.5834 56.6092 -11.3276 -11.9704 30.2797
# 2 63.5834 145.3328 57.1615 -7.4032 -1.4007 19.1093
# 3 56.6092 57.1615 97.0137 -4.4544 11.1202 -0.4951
# 4 -11.3276 -7.4032 -4.4544 43.6858 -3.7432 -11.4989
# 5 -11.9704 -1.4007 11.1202 -3.7432 46.9657 -8.1012
# 6 30.2797 19.1093 -0.4951 -11.4989 -8.1012 42.4117
#
#
#
# Elastic Compliance Matrix: (Units=1/GPa)
#
#
# Indices 1 2 3 4 5 6 
#
# 1 0.007450 -0.001093 -0.003946 0.000370 0.002075 -0.004375
# 2 -0.001093 0.009929 -0.005307 -0.000046 0.000642 -0.003646
# 3 -0.003946 -0.005307 0.016266 0.000640 -0.004140 0.004781
# 4 0.000370 -0.000046 0.000640 0.025216 0.003195 0.007211
# 5 0.002075 0.000642 -0.004140 0.003195 0.023691 0.003573
# 6 -0.004375 -0.003646 0.004781 0.007211 0.003573 0.031038
#
#
# Mechanical properties :
#
#
# Convention : Reuss Voigt Hill
#
# Bulk Modulus (GPa) = 77.20593 88.03197 82.61895
# Shear Modulus (GPa) = 36.07504 43.96100 40.01802
#
# Velocity S-wave (km/s) = 4.08735 4.51203 4.30493
# Velocity P-wave (km/s) = 7.61770 8.24089 7.93541
#
# Compressibility (1/GPa) = 0.01295237
#
# Stress axis : x y z
#
# Youngs Moduli (GPa) = 134.23534 100.71081 61.47889
#
# Poissons Ratio (x) = 0.11007 0.24261
# Poissons Ratio (y) = 0.14671 0.32627
# Poissons Ratio (z) = 0.52972 0.53448
#
# Static dielectric constant tensor:
#      x y z
#    x 1.889580 -0.043180 -0.093720 
#    y -0.043180 1.867400 0.015450 
#    z -0.093720 0.015450 1.816970 
# 
# From -- ./inp_files/612474.got.cif
#   From: 2010.05.17/outbox.cif.g08.bks.cpg/sg2_307_cif.got.tgz:612474.got - 2010.06.03 11:33:40.
