data_PCOD9049164
_publ_section_title
;
Structure prediction by ZEFSAII (Michael W. Deem and Ramdas Pophale) SiO2 
 PCOD9049164
Probable space group: P -1
;
_chemical_formula_sum "Si O2"
_cell_formula_units_Z 13
_cell_length_a 13.862004
_cell_length_b 9.628342
_cell_length_c 7.646311
_cell_angle_alpha 118.067193
_cell_angle_beta 108.401576
_cell_angle_gamma 38.969817
_cell_volume 564.030949
_symmetry_space_group_name_H-M "P -1"
_symmetry_group_IT_number 2
_symmetry_cell_setting 'triclinic'
loop_
_space_group_symop_operation_xyz
x,y,z
-x,-y,-z
loop_
_atom_site_type_symbol
_atom_site_label
_atom_site_fract_x
_atom_site_fract_y
_atom_site_fract_z
Si Si1 0.415270 0.313444 0.235993
Si Si2 0.141124 0.781565 0.571878
Si Si3 0.100762 0.032051 0.017048
Si Si4 0.898154 0.477905 0.354784
Si Si5 0.412487 0.727334 0.205716
Si Si6 0.422368 0.162410 0.780148
Si Si7 0.500000 0.500000 0.500000
O O1 0.294884 0.570929 0.419917
O O2 0.550506 0.281149 0.279713
O O3 0.464366 0.108386 0.257037
O O4 0.365061 0.309690 0.016862
O O5 0.164188 0.895075 0.789644
O O6 0.110703 0.655192 0.587096
O O7 0.000000 0.000000 0.500000
O O8 0.016527 0.687379 0.868068
O O9 0.235674 0.916116 0.159678
O O10 0.000000 0.000000 0.000000
O O11 0.724938 0.720734 0.344498
O O12 0.000000 0.500000 0.500000
O O13 0.437427 0.659826 0.380524
O O14 0.485484 0.811051 0.253537
O O15 0.500000 0.500000 0.000000
#
# Coordination Sequence:
#
# PCOD9049164 Si02
#       7
#     2   2   2   2   2   2   1
#     4  11  26  45  74 109 147 194 255 309 372 447
#     4  11  25  44  72 106 144 192 251 304 368 456
#     4  10  24  46  70 102 148 190 237 310 370 441
#     4  11  26  47  71 102 144 199 242 307 382 441
#     4  12  24  46  76 109 147 194 252 306 375 447
#     4  11  26  50  72 105 156 192 247 319 373 442
#     4  12  26  38  78 104 138 198 250 296 372 446
#
# _framework density 23.048380000000002
#
# number of rings (size 3 to 8) (size 9 to 14) (size 15 to 20)
#    0.000    0.923    1.538    4.615    8.615    1.231 
#    2.769    1.538    0.000    0.000    0.000    0.000 
#    0.000    0.000    0.000    0.000    0.000    0.000 
#
# Total GULP energy -72525.751208 kJ/mol
# GULP energy per Si atom -5578.903939 kJ/mol
# Density = 2.299592 g / cm^3
# Si number density = 23.048380 Si / 1000 Ang^3
#
#
#
# Elastic Constant Matrix: (Units=GPa)
#
#
# Indices 1 2 3 4 5 6 
#
# 1 132.4968 60.3568 51.2957 -16.6846 8.5350 5.8357
# 2 60.3568 126.7332 59.7560 -28.2182 -10.8378 -1.6390
# 3 51.2957 59.7560 155.5546 -9.7938 1.0039 -2.1818
# 4 -16.6846 -28.2182 -9.7938 61.5405 -5.1318 -2.6509
# 5 8.5350 -10.8378 1.0039 -5.1318 42.2766 0.8988
# 6 5.8357 -1.6390 -2.1818 -2.6509 0.8988 45.5794
#
#
#
# Elastic Compliance Matrix: (Units=1/GPa)
#
#
# Indices 1 2 3 4 5 6 
#
# 1 0.010548 -0.004435 -0.001762 0.000216 -0.003166 -0.001519
# 2 -0.004435 0.013013 -0.003257 0.004697 0.004856 0.001057
# 3 -0.001762 -0.003257 0.008228 -0.000706 -0.000771 0.000476
# 4 0.000216 0.004697 -0.000706 0.018683 0.003421 0.001127
# 5 -0.003166 0.004856 -0.000771 0.003421 0.025967 0.000230
# 6 -0.001519 0.001057 0.000476 0.001127 0.000230 0.022256
#
#
# Mechanical properties :
#
#
# Convention : Reuss Voigt Hill
#
# Bulk Modulus (GPa) = 77.63361 84.17793 80.90577
# Shear Modulus (GPa) = 41.01819 46.10436 43.56128
#
# Velocity S-wave (km/s) = 4.22317 4.47736 4.35212
# Velocity P-wave (km/s) = 7.58527 7.95805 7.77389
#
# Compressibility (1/GPa) = 0.01288102
#
# Stress axis : x y z
#
# Youngs Moduli (GPa) = 94.80665 76.84411 121.53390
#
# Poissons Ratio (x) = 0.34080 0.21412
# Poissons Ratio (y) = 0.42046 0.39589
# Poissons Ratio (z) = 0.16703 0.25031
#
# Static dielectric constant tensor:
#      x y z
#    x 1.682370 0.018740 -0.088700 
#    y 0.018740 1.786250 -0.000960 
#    z -0.088700 -0.000960 1.838470 
# 
# From -- ./inp_files/332571.got.cif
#   From: 2010.05.17/outbox.cif.g08.bks.cpg/sg2_167_cif.got.tgz:332571.got - 2010.06.03 11:33:40.
