data_PCOD9049586
_publ_section_title
;
Structure prediction by ZEFSAII (Michael W. Deem and Ramdas Pophale) SiO2 
 PCOD9049586
Probable space group: P -1
;
_chemical_formula_sum "Si O2"
_cell_formula_units_Z 14
_cell_length_a 4.771810
_cell_length_b 19.116871
_cell_length_c 9.009389
_cell_angle_alpha 131.765055
_cell_angle_beta 58.544241
_cell_angle_gamma 112.731955
_cell_volume 521.946890
_symmetry_space_group_name_H-M "P -1"
_symmetry_group_IT_number 2
_symmetry_cell_setting 'triclinic'
loop_
_space_group_symop_operation_xyz
x,y,z
-x,-y,-z
loop_
_atom_site_type_symbol
_atom_site_label
_atom_site_fract_x
_atom_site_fract_y
_atom_site_fract_z
Si Si1 0.225395 0.722185 0.106454
Si Si2 0.349557 0.166294 0.629905
Si Si3 0.073284 0.921181 0.128708
Si Si4 0.468605 0.527128 0.876401
Si Si5 0.209857 0.251048 0.234300
Si Si6 0.725682 0.891245 0.755231
Si Si7 0.852111 0.542608 0.406577
O O1 0.361401 0.805774 0.296253
O O2 0.848319 0.739387 0.206795
O O3 0.327453 0.625925 0.013125
O O4 0.423072 0.731419 0.909239
O O5 0.426736 0.128331 0.393091
O O6 0.089789 0.096004 0.690893
O O7 0.005814 0.022633 0.222512
O O8 0.466028 0.921736 0.995447
O O9 0.950893 0.829920 0.940221
O O10 0.230155 0.455903 0.745197
O O11 0.853924 0.521109 0.718977
O O12 0.500000 0.500000 0.000000
O O13 0.181028 0.207480 0.343718
O O14 0.059810 0.351632 0.415981
O O15 0.500000 0.500000 0.500000
#
# Coordination Sequence:
#
# PCOD9049586 Si02
#       7
#     2   2   2   2   2   2   2
#     4  11  25  46  69 100 146 183 232 289 363 412
#     4  11  25  44  71 104 140 188 229 294 349 430
#     4  10  24  47  67 107 140 189 232 303 351 428
#     4  12  28  46  70 105 148 187 239 303 357 427
#     4  11  25  43  73  98 144 182 241 293 353 424
#     4  11  24  43  74 101 142 186 243 287 363 423
#     4  12  27  46  74 105 139 192 245 290 361 432
#
# _framework density 26.822654
#
# number of rings (size 3 to 8) (size 9 to 14) (size 15 to 20)
#    0.000    0.857    2.857    2.571    8.000    0.000 
#    0.000    2.143    0.000    0.000    0.000    0.000 
#    0.000    0.000    0.000    0.000    0.000    0.000 
#
# Total GULP energy -78424.397461 kJ/mol
# GULP energy per Si atom -5601.742676 kJ/mol
# Density = 2.676160 g / cm^3
# Si number density = 26.822654 Si / 1000 Ang^3
#
#
#
# Elastic Constant Matrix: (Units=GPa)
#
#
# Indices 1 2 3 4 5 6 
#
# 1 103.9211 22.1078 10.1955 2.8439 4.6031 -9.1875
# 2 22.1078 177.6916 50.9982 0.0244 -0.6267 -23.0250
# 3 10.1955 50.9982 84.2737 -2.8655 15.0098 2.5663
# 4 2.8439 0.0244 -2.8655 61.4303 -0.5832 4.6494
# 5 4.6031 -0.6267 15.0098 -0.5832 49.2399 -1.5266
# 6 -9.1875 -23.0250 2.5663 4.6494 -1.5266 32.8378
#
#
#
# Elastic Compliance Matrix: (Units=1/GPa)
#
#
# Indices 1 2 3 4 5 6 
#
# 1 0.010117 -0.000723 -0.000769 -0.000696 -0.000653 0.002452
# 2 -0.000723 0.008038 -0.005335 -0.000657 0.001975 0.006035
# 3 -0.000769 -0.005335 0.016313 0.001176 -0.005129 -0.005635
# 4 -0.000696 -0.000657 0.001176 0.016599 -0.000202 -0.003107
# 5 -0.000653 0.001975 -0.005129 -0.000202 0.022038 0.002656
# 6 0.002452 0.006035 -0.005635 -0.003107 0.002656 0.036374
#
#
# Mechanical properties :
#
#
# Convention : Reuss Voigt Hill
#
# Bulk Modulus (GPa) = 48.04185 59.16549 53.60367
# Shear Modulus (GPa) = 38.44117 47.54061 42.99089
#
# Velocity S-wave (km/s) = 3.78982 4.21456 4.00782
# Velocity P-wave (km/s) = 6.09098 6.76678 6.43776
#
# Compressibility (1/GPa) = 0.02081519
#
# Stress axis : x y z
#
# Youngs Moduli (GPa) = 98.84797 124.41237 61.30258
#
# Poissons Ratio (x) = 0.08989 0.04713
# Poissons Ratio (y) = 0.07142 0.32702
# Poissons Ratio (z) = 0.07599 0.66369
#
# Static dielectric constant tensor:
#      x y z
#    x 2.109540 -0.004230 -0.066500 
#    y -0.004230 2.121270 -0.044070 
#    z -0.066500 -0.044070 2.231430 
# 
# From -- ./inp_files/55707.got.cif
#   From: 2010.05.17/outbox.cif.g08.bks.cpg/sg2_28_cif.got.tgz:55707.got - 2010.06.03 11:33:40.
