data_PCOD9049543
_publ_section_title
;
Structure prediction by ZEFSAII (Michael W. Deem and Ramdas Pophale) SiO2 
 PCOD9049543
Probable space group: P -1
;
_chemical_formula_sum "Si O2"
_cell_formula_units_Z 11
_cell_length_a 7.909453
_cell_length_b 11.835402
_cell_length_c 4.807118
_cell_angle_alpha 82.853751
_cell_angle_beta 85.787206
_cell_angle_gamma 56.544545
_cell_volume 372.520131
_symmetry_space_group_name_H-M "P -1"
_symmetry_group_IT_number 2
_symmetry_cell_setting 'triclinic'
loop_
_space_group_symop_operation_xyz
x,y,z
-x,-y,-z
loop_
_atom_site_type_symbol
_atom_site_label
_atom_site_fract_x
_atom_site_fract_y
_atom_site_fract_z
Si Si1 0.073860 0.854383 0.695882
Si Si2 0.266810 0.657470 0.217093
Si Si3 0.261612 0.021359 0.825702
Si Si4 0.318026 0.201560 0.313238
Si Si5 0.000000 0.500000 0.000000
Si Si6 0.331254 0.414752 0.536343
O O1 0.128202 0.777808 0.414689
O O2 0.149316 0.957379 0.694982
O O3 0.226000 0.723073 0.906218
O O4 0.864816 0.918676 0.888430
O O5 0.235806 0.532876 0.275293
O O6 0.496930 0.590887 0.298979
O O7 0.272944 0.123942 0.580088
O O8 0.497124 0.901389 0.878876
O O9 0.420105 0.270334 0.438636
O O10 0.122797 0.332595 0.160282
O O11 0.153144 0.447690 0.745288
#
# Coordination Sequence:
#
# PCOD9049543 Si02
#       6
#     2   2   2   2   1   2
#     4  11  24  49  74 112 144 205 247 309 373 457
#     4  11  26  46  78 108 153 192 258 308 376 441
#     4  10  24  46  78 102 160 187 259 295 395 437
#     4  11  24  50  68 117 142 205 240 324 364 463
#     4  12  26  44  76 104 150 192 260 298 386 424
#     4  11  26  43  73 107 151 196 251 313 374 444
#
# _framework density 29.528603
#
# number of rings (size 3 to 8) (size 9 to 14) (size 15 to 20)
#    0.000    1.091    1.818    2.727    5.091    4.364 
#    6.545    2.727    0.000    0.000    0.000    0.000 
#    0.000    0.000    0.000    0.000    0.000    0.000 
#
# Total GULP energy -61579.588773 kJ/mol
# GULP energy per Si atom -5598.144434 kJ/mol
# Density = 2.946139 g / cm^3
# Si number density = 29.528603 Si / 1000 Ang^3
#
#
#
# Elastic Constant Matrix: (Units=GPa)
#
#
# Indices 1 2 3 4 5 6 
#
# 1 88.7474 38.3423 24.4189 -0.2425 -33.4852 -16.3257
# 2 38.3423 202.7432 59.4966 7.5787 -34.2527 0.7615
# 3 24.4189 59.4966 133.7945 2.7923 -28.2456 11.7787
# 4 -0.2425 7.5787 2.7923 70.0902 6.8180 -9.5448
# 5 -33.4852 -34.2527 -28.2456 6.8180 49.1734 -2.8877
# 6 -16.3257 0.7615 11.7787 -9.5448 -2.8877 70.5154
#
#
#
# Elastic Compliance Matrix: (Units=1/GPa)
#
#
# Indices 1 2 3 4 5 6 
#
# 1 0.016728 -0.001205 -0.000697 -0.000200 0.010438 0.004403
# 2 -0.001205 0.006193 -0.001995 -0.000837 0.002462 -0.000025
# 3 -0.000697 -0.001995 0.009397 -0.000732 0.003537 -0.001664
# 4 -0.000200 -0.000837 -0.000732 0.014958 -0.003097 0.001983
# 5 0.010438 0.002462 0.003537 -0.003097 0.031778 0.002681
# 6 0.004403 -0.000025 -0.001664 0.001983 0.002681 0.015857
#
#
# Mechanical properties :
#
#
# Convention : Reuss Voigt Hill
#
# Bulk Modulus (GPa) = 40.77497 74.42229 57.59863
# Shear Modulus (GPa) = 45.09484 58.15763 51.62623
#
# Velocity S-wave (km/s) = 3.91213 4.44276 4.18586
# Velocity P-wave (km/s) = 5.85192 7.18162 6.55059
#
# Compressibility (1/GPa) = 0.02452485
#
# Stress axis : x y z
#
# Youngs Moduli (GPa) = 59.78084 161.47604 106.41886
#
# Poissons Ratio (x) = 0.19451 0.07420
# Poissons Ratio (y) = 0.07201 0.21225
# Poissons Ratio (z) = 0.04168 0.32206
#
# Static dielectric constant tensor:
#      x y z
#    x 2.485440 0.057220 0.083000 
#    y 0.057220 2.292140 -0.096900 
#    z 0.083000 -0.096900 2.182400 
# 
# From -- ./inp_files/17592.got.cif
#   From: 2010.05.17/outbox.cif.g08.bks.cpg/sg2_9_cif.got.tgz:17592.got - 2010.06.03 11:33:40.
