data_PCOD9049017
_publ_section_title
;
Structure prediction by ZEFSAII (Michael W. Deem and Ramdas Pophale) SiO2 
 PCOD9049017
Probable space group: P -1
;
_chemical_formula_sum "Si O2"
_cell_formula_units_Z 15
_cell_length_a 14.567483
_cell_length_b 7.915745
_cell_length_c 9.285671
_cell_angle_alpha 77.441120
_cell_angle_beta 92.429933
_cell_angle_gamma 142.798880
_cell_volume 616.187188
_symmetry_space_group_name_H-M "P -1"
_symmetry_group_IT_number 2
_symmetry_cell_setting 'triclinic'
loop_
_space_group_symop_operation_xyz
x,y,z
-x,-y,-z
loop_
_atom_site_type_symbol
_atom_site_label
_atom_site_fract_x
_atom_site_fract_y
_atom_site_fract_z
Si Si1 0.323340 0.862904 0.369071
Si Si2 0.286002 0.196938 0.281445
Si Si3 0.126888 0.049831 0.039999
Si Si4 0.500000 0.500000 0.500000
Si Si5 0.917560 0.419284 0.159067
Si Si6 0.633748 0.149927 0.306292
Si Si7 0.019770 0.793370 0.575924
Si Si8 0.774600 0.732353 0.296845
O O1 0.363752 0.959095 0.524764
O O2 0.159675 0.515893 0.411781
O O3 0.315996 0.041456 0.265895
O O4 0.459407 0.947243 0.302738
O O5 0.255002 0.273757 0.129494
O O6 0.427870 0.459282 0.346133
O O7 0.133086 0.959630 0.416915
O O8 0.203029 0.129571 0.875879
O O9 0.024392 0.740746 0.155403
O O10 0.000000 0.000000 0.000000
O O11 0.643863 0.623221 0.402940
O O12 0.739844 0.216009 0.184412
O O13 0.931813 0.292535 0.300873
O O14 0.000000 0.500000 0.000000
O O15 0.720253 0.459370 0.298974
O O16 0.068655 0.027200 0.639795
#
# Coordination Sequence:
#
# PCOD9049017 Si02
#       8
#     2   2   2   1   2   2   2   2
#     4  11  22  41  72 104 137 189 238 309 355 430
#     4  11  22  43  74 104 144 195 244 294 370 435
#     4  12  25  42  71 104 144 190 246 299 366 434
#     4  10  24  46  66 106 142 186 244 298 370 424
#     4  12  23  43  72 102 143 196 239 300 361 444
#     4  11  24  43  69 104 147 183 244 305 365 418
#     4  11  23  42  73 104 135 197 254 287 362 435
#     4  11  24  43  70 102 148 184 237 306 356 436
#
# _framework density 24.343253000000001
#
# number of rings (size 3 to 8) (size 9 to 14) (size 15 to 20)
#    0.000    0.800    6.667    1.200    0.000    1.067 
#    2.400    0.667    0.000    0.000    0.000    0.000 
#    0.000    0.000    0.000    0.000    0.000    0.000 
#
# Total GULP energy -83703.278717 kJ/mol
# GULP energy per Si atom -5580.218581 kJ/mol
# Density = 2.428785 g / cm^3
# Si number density = 24.343253 Si / 1000 Ang^3
#
#
#
# Elastic Constant Matrix: (Units=GPa)
#
#
# Indices 1 2 3 4 5 6 
#
# 1 144.8859 20.4967 47.3853 3.2284 -17.9342 37.0142
# 2 20.4967 71.1440 19.9943 14.4421 1.5503 29.9199
# 3 47.3853 19.9943 123.1937 18.9169 -9.2858 22.2947
# 4 3.2284 14.4421 18.9169 38.1607 11.9459 14.7551
# 5 -17.9342 1.5503 -9.2858 11.9459 49.2665 -11.9145
# 6 37.0142 29.9199 22.2947 14.7551 -11.9145 44.4090
#
#
#
# Elastic Compliance Matrix: (Units=1/GPa)
#
#
# Indices 1 2 3 4 5 6 
#
# 1 0.009827 0.000809 -0.002923 0.003529 0.000111 -0.008411
# 2 0.000809 0.020602 -0.001232 -0.000142 -0.004182 -0.015011
# 3 -0.002923 -0.001232 0.010351 -0.005326 0.002330 0.000464
# 4 0.003529 -0.000142 -0.005326 0.039247 -0.013289 -0.016777
# 5 0.000111 -0.004182 0.002330 -0.013289 0.027350 0.013308
# 6 -0.008411 -0.015011 0.000464 -0.016777 0.013308 0.048554
#
#
# Mechanical properties :
#
#
# Convention : Reuss Voigt Hill
#
# Bulk Modulus (GPa) = 29.33493 57.21959 43.27726
# Shear Modulus (GPa) = 28.73818 43.12371 35.93094
#
# Velocity S-wave (km/s) = 3.43963 4.21347 3.84606
# Velocity P-wave (km/s) = 5.27744 6.87222 6.12694
#
# Compressibility (1/GPa) = 0.03408905
#
# Stress axis : x y z
#
# Youngs Moduli (GPa) = 101.75675 48.53923 96.61073
#
# Poissons Ratio (x) = -0.03925 0.28235
# Poissons Ratio (y) = -0.08229 0.11899
# Poissons Ratio (z) = 0.29738 0.05978
#
# Static dielectric constant tensor:
#      x y z
#    x 2.052790 -0.174790 0.024380 
#    y -0.174790 1.890080 -0.033640 
#    z 0.024380 -0.033640 1.909670 
# 
# From -- ./inp_files/298256.got.cif
#   From: 2010.05.17/outbox.cif.g08.bks.cpg/sg2_150_cif.got.tgz:298256.got - 2010.06.03 11:33:40.
