data_PCOD9049003
_publ_section_title
;
Structure prediction by ZEFSAII (Michael W. Deem and Ramdas Pophale) SiO2 
 PCOD9049003
Probable space group: P -1
;
_chemical_formula_sum "Si O2"
_cell_formula_units_Z 14
_cell_length_a 7.506929
_cell_length_b 11.920051
_cell_length_c 8.327098
_cell_angle_alpha 60.747584
_cell_angle_beta 75.899527
_cell_angle_gamma 62.932689
_cell_volume 578.688805
_symmetry_space_group_name_H-M "P -1"
_symmetry_group_IT_number 2
_symmetry_cell_setting 'triclinic'
loop_
_space_group_symop_operation_xyz
x,y,z
-x,-y,-z
loop_
_atom_site_type_symbol
_atom_site_label
_atom_site_fract_x
_atom_site_fract_y
_atom_site_fract_z
Si Si1 0.188194 0.014387 0.542283
Si Si2 0.473751 0.259160 0.797723
Si Si3 0.371493 0.558830 0.790178
Si Si4 0.755341 0.562497 0.545630
Si Si5 0.830915 0.548282 0.868338
Si Si6 0.452326 0.135887 0.212371
Si Si7 0.143996 0.731318 0.443790
O O1 0.340587 0.038291 0.365374
O O2 0.075733 0.149673 0.586344
O O3 0.339440 0.900586 0.711329
O O4 0.000000 0.000000 0.500000
O O5 0.424456 0.406131 0.803153
O O6 0.306146 0.312597 0.656653
O O7 0.689396 0.215664 0.696651
O O8 0.474077 0.147813 0.007816
O O9 0.552752 0.598509 0.669061
O O10 0.190680 0.677395 0.653689
O O11 0.295163 0.545908 0.993286
O O12 0.908071 0.535110 0.678754
O O13 0.803685 0.410570 0.567983
O O14 0.699109 0.709867 0.812420
O O15 0.000000 0.500000 0.000000
#
# Coordination Sequence:
#
# PCOD9049003 Si02
#       7
#     2   2   2   2   2   2   2
#     4  11  25  45  72  90 130 186 229 268 325 392
#     4   8  17  37  66  95 135 160 210 277 335 383
#     4   8  16  33  59  95 127 164 204 260 323 396
#     4   9  18  35  67  97 130 171 201 271 343 384
#     4  11  21  36  64 100 134 164 215 268 335 401
#     4  10  24  46  65  97 135 170 225 281 316 400
#     4   9  18  38  66  98 132 167 222 262 321 402
#
# _framework density 24.192623999999999
#
# number of rings (size 3 to 8) (size 9 to 14) (size 15 to 20)
#    0.000    2.571    0.000    3.000    4.000    0.571 
#    7.714   12.143    6.286    0.000    0.000    0.000 
#    0.000    0.000    0.000    0.000    0.000    0.000 
#
# Total GULP energy -78115.811359 kJ/mol
# GULP energy per Si atom -5579.700811 kJ/mol
# Density = 2.413756 g / cm^3
# Si number density = 24.192624 Si / 1000 Ang^3
#
#
#
# Elastic Constant Matrix: (Units=GPa)
#
#
# Indices 1 2 3 4 5 6 
#
# 1 123.8160 11.1219 54.3878 0.5358 10.9182 -15.1408
# 2 11.1219 56.0614 26.4627 -9.6098 15.5144 -14.2223
# 3 54.3878 26.4627 197.7778 10.8436 15.7675 -6.0904
# 4 0.5358 -9.6098 10.8436 28.0234 -10.3992 12.0622
# 5 10.9182 15.5144 15.7675 -10.3992 45.3587 0.6387
# 6 -15.1408 -14.2223 -6.0904 12.0622 0.6387 35.5244
#
#
#
# Elastic Compliance Matrix: (Units=1/GPa)
#
#
# Indices 1 2 3 4 5 6 
#
# 1 0.009846 0.000670 -0.002361 -0.001944 -0.002291 0.004761
# 2 0.000670 0.023449 -0.002701 0.003026 -0.006666 0.008303
# 3 -0.002361 -0.002701 0.006451 -0.004226 -0.001726 0.000484
# 4 -0.001944 0.003026 -0.004226 0.050820 0.012805 -0.017828
# 5 -0.002291 -0.006666 -0.001726 0.012805 0.028538 -0.008802
# 6 0.004761 0.008303 0.000484 -0.017828 -0.008802 0.039798
#
#
# Mechanical properties :
#
#
# Convention : Reuss Voigt Hill
#
# Bulk Modulus (GPa) = 32.29685 62.40001 47.34843
# Shear Modulus (GPa) = 28.08874 40.82682 34.45778
#
# Velocity S-wave (km/s) = 3.41111 4.11246 3.77810
# Velocity P-wave (km/s) = 5.37523 6.95693 6.21659
#
# Compressibility (1/GPa) = 0.03096277
#
# Stress axis : x y z
#
# Youngs Moduli (GPa) = 101.56088 42.64523 155.01141
#
# Poissons Ratio (x) = -0.02857 0.36605
# Poissons Ratio (y) = -0.06804 0.41861
# Poissons Ratio (z) = 0.23983 0.11516
#
# Static dielectric constant tensor:
#      x y z
#    x 2.268430 0.083410 0.054610 
#    y 0.083410 1.934060 0.043210 
#    z 0.054610 0.043210 1.966850 
# 
# From -- ./inp_files/195162.got.cif
#   From: 2010.05.17/outbox.cif.g08.bks.cpg/sg2_98_cif.got.tgz:195162.got - 2010.06.03 11:33:40.
