data_PCOD9049385
_publ_section_title
;
Structure prediction by ZEFSAII (Michael W. Deem and Ramdas Pophale) SiO2 
 PCOD9049385
Probable space group: P -1
;
_chemical_formula_sum "Si O2"
_cell_formula_units_Z 16
_cell_length_a 7.372624
_cell_length_b 17.332142
_cell_length_c 17.084368
_cell_angle_alpha 29.406489
_cell_angle_beta 145.767514
_cell_angle_gamma 134.542038
_cell_volume 601.603824
_symmetry_space_group_name_H-M "P -1"
_symmetry_group_IT_number 2
_symmetry_cell_setting 'triclinic'
loop_
_space_group_symop_operation_xyz
x,y,z
-x,-y,-z
loop_
_atom_site_type_symbol
_atom_site_label
_atom_site_fract_x
_atom_site_fract_y
_atom_site_fract_z
Si Si1 0.577412 0.738985 0.618173
Si Si2 0.826097 0.097382 0.940804
Si Si3 0.283695 0.647896 0.211725
Si Si4 0.792159 0.148294 0.463145
Si Si5 0.255063 0.615986 0.455540
Si Si6 0.332032 0.868358 0.898259
Si Si7 0.312580 0.526091 0.829738
Si Si8 0.456545 0.935563 0.715274
O O1 0.434965 0.846885 0.545625
O O2 0.427239 0.675876 0.541187
O O3 0.567521 0.576313 0.810476
O O4 0.739737 0.891189 0.503287
O O5 0.615725 0.200882 0.837969
O O6 0.867696 0.228144 0.772933
O O7 0.634602 0.956352 0.962656
O O8 0.162776 0.039479 0.153310
O O9 0.529319 0.496865 0.426070
O O10 0.935211 0.605470 0.157825
O O11 0.254231 0.714708 0.053880
O O12 0.928663 0.318173 0.375552
O O13 0.607955 0.149508 0.313879
O O14 0.042745 0.001289 0.687071
O O15 0.000000 0.500000 0.500000
O O16 0.370878 0.835428 0.849486
O O17 0.500000 0.500000 0.000000
#
# Coordination Sequence:
#
# PCOD9049385 Si02
#       8
#     2   2   2   2   2   2   2   2
#     4  10  25  43  76 100 146 184 252 287 371 420
#     4  12  26  46  75 105 151 192 249 300 369 435
#     4  12  27  45  72 108 149 192 246 299 374 436
#     4  10  25  46  76 103 144 191 245 297 371 431
#     4  12  26  45  73 109 152 192 242 307 369 439
#     4  12  26  45  75 111 143 190 251 308 361 437
#     4  10  24  46  73 103 145 195 241 293 370 439
#     4  12  24  47  76 108 144 192 249 307 361 438
#
# _framework density 26.595575
#
# number of rings (size 3 to 8) (size 9 to 14) (size 15 to 20)
#    0.750    0.000    1.250    5.625    5.250    1.000 
#    0.000    1.250    0.000    0.000    0.000    0.000 
#    0.000    0.000    0.000    0.000    0.000    0.000 
#
# Total GULP energy -89316.794652 kJ/mol
# GULP energy per Si atom -5582.299666 kJ/mol
# Density = 2.653504 g / cm^3
# Si number density = 26.595575 Si / 1000 Ang^3
#
#
#
# Elastic Constant Matrix: (Units=GPa)
#
#
# Indices 1 2 3 4 5 6 
#
# 1 89.9705 22.2155 20.9707 1.7040 -23.7091 -15.6667
# 2 22.2155 107.3288 14.1565 -1.4188 -8.1970 -13.3585
# 3 20.9707 14.1565 88.6047 5.2338 -14.4014 4.7227
# 4 1.7040 -1.4188 5.2338 42.9154 -1.7053 -17.6093
# 5 -23.7091 -8.1970 -14.4014 -1.7053 61.5877 -8.0322
# 6 -15.6667 -13.3585 4.7227 -17.6093 -8.0322 53.6854
#
#
#
# Elastic Compliance Matrix: (Units=1/GPa)
#
#
# Indices 1 2 3 4 5 6 
#
# 1 0.014531 -0.001485 -0.002735 0.002261 0.005561 0.005685
# 2 -0.001485 0.010275 -0.001410 0.001831 0.000906 0.002984
# 3 -0.002735 -0.001410 0.012677 -0.002640 0.001267 -0.002941
# 4 0.002261 0.001831 -0.002640 0.028220 0.002714 0.011010
# 5 0.005561 0.000906 0.001267 0.002714 0.019595 0.005559
# 6 0.005685 0.002984 -0.002941 0.011010 0.005559 0.025730
#
#
# Mechanical properties :
#
#
# Convention : Reuss Voigt Hill
#
# Bulk Modulus (GPa) = 38.13231 44.50995 41.32113
# Shear Modulus (GPa) = 38.15904 46.87511 42.51707
#
# Velocity S-wave (km/s) = 3.79197 4.20279 4.00265
# Velocity P-wave (km/s) = 5.79146 6.35007 6.07719
#
# Compressibility (1/GPa) = 0.02622448
#
# Stress axis : x y z
#
# Youngs Moduli (GPa) = 68.81604 97.32112 78.88097
#
# Poissons Ratio (x) = 0.14451 0.21572
# Poissons Ratio (y) = 0.10218 0.11124
# Poissons Ratio (z) = 0.18820 0.13724
#
# Static dielectric constant tensor:
#      x y z
#    x 2.160860 0.101670 -0.013800 
#    y 0.101670 2.105480 -0.081280 
#    z -0.013800 -0.081280 2.217390 
# 
# From -- ./inp_files/562070.got.cif
#   From: 2010.05.17/outbox.cif.g08.bks.cpg/sg2_282_cif.got.tgz:562070.got - 2010.06.03 11:33:40.
