data_PCOD9049220
_publ_section_title
;
Structure prediction by ZEFSAII (Michael W. Deem and Ramdas Pophale) SiO2 
 PCOD9049220
Probable space group: P -1
;
_chemical_formula_sum "Si O2"
_cell_formula_units_Z 15
_cell_length_a 8.960812
_cell_length_b 19.198927
_cell_length_c 11.198955
_cell_angle_alpha 147.377857
_cell_angle_beta 52.989404
_cell_angle_gamma 143.083584
_cell_volume 608.498005
_symmetry_space_group_name_H-M "P -1"
_symmetry_group_IT_number 2
_symmetry_cell_setting 'triclinic'
loop_
_space_group_symop_operation_xyz
x,y,z
-x,-y,-z
loop_
_atom_site_type_symbol
_atom_site_label
_atom_site_fract_x
_atom_site_fract_y
_atom_site_fract_z
Si Si1 0.928588 0.346663 0.896545
Si Si2 0.675307 0.430818 0.481456
Si Si3 0.500000 0.500000 0.500000
Si Si4 0.452300 0.905037 0.007890
Si Si5 0.751094 0.571784 0.910443
Si Si6 0.119999 0.968060 0.296133
Si Si7 0.365501 0.150787 0.956662
Si Si8 0.118001 0.183655 0.429681
O O1 0.625690 0.212700 0.867746
O O2 0.019548 0.257656 0.659903
O O3 0.000000 0.500000 0.000000
O O4 0.079250 0.416223 0.051093
O O5 0.780039 0.561129 0.509212
O O6 0.710926 0.297380 0.244769
O O7 0.709178 0.475225 0.668027
O O8 0.378410 0.348130 0.472417
O O9 0.569078 0.669341 0.796014
O O10 0.330262 0.963947 0.228379
O O11 0.668010 0.936769 0.025245
O O12 0.500000 0.000000 0.000000
O O13 0.500000 0.500000 0.000000
O O14 0.894912 0.767316 0.075397
O O15 0.221118 0.115413 0.363581
O O16 0.000000 0.000000 0.500000
O O17 0.118913 0.991879 0.774559
#
# Coordination Sequence:
#
# PCOD9049220 Si02
#       8
#     2   2   1   2   2   2   2   2
#     4  12  26  46  70 105 145 187 245 298 368 430
#     4  11  24  46  70 104 144 188 242 290 363 432
#     4  10  24  46  70  98 146 184 234 292 368 430
#     4  11  24  45  69 105 142 181 241 295 356 428
#     4  12  25  46  75 104 143 190 241 300 364 430
#     4  12  23  45  75 101 141 182 239 299 358 427
#     4  11  25  47  69 104 142 187 239 297 361 436
#     4  12  24  45  72 102 141 186 238 295 361 426
#
# _framework density 24.650860000000002
#
# number of rings (size 3 to 8) (size 9 to 14) (size 15 to 20)
#    0.000    0.533    5.333    2.000    1.867    3.733 
#    4.800    0.000    0.000    0.000    0.000    0.000 
#    0.000    0.000    0.000    0.000    0.000    0.000 
#
# Total GULP energy -83625.166145 kJ/mol
# GULP energy per Si atom -5575.011076 kJ/mol
# Density = 2.459475 g / cm^3
# Si number density = 24.650860 Si / 1000 Ang^3
#
#
#
# Elastic Constant Matrix: (Units=GPa)
#
#
# Indices 1 2 3 4 5 6 
#
# 1 142.4441 52.3621 93.2847 12.8361 -12.5652 -16.6435
# 2 52.3621 95.2919 31.0513 9.0782 -6.0306 -3.7485
# 3 93.2847 31.0513 193.0283 -4.7259 -15.5758 -5.4079
# 4 12.8361 9.0782 -4.7259 43.8261 -3.4625 -10.1699
# 5 -12.5652 -6.0306 -15.5758 -3.4625 62.6256 8.2779
# 6 -16.6435 -3.7485 -5.4079 -10.1699 8.2779 50.1368
#
#
#
# Elastic Compliance Matrix: (Units=1/GPa)
#
#
# Indices 1 2 3 4 5 6 
#
# 1 0.013019 -0.004993 -0.005456 -0.002704 0.000259 0.002769
# 2 -0.004993 0.013283 0.000244 -0.001464 0.000389 -0.000999
# 3 -0.005456 0.000244 0.007907 0.002337 0.001110 -0.000649
# 4 -0.002704 -0.001464 0.002337 0.025206 0.000731 0.004237
# 5 0.000259 0.000389 0.001110 0.000731 0.016687 -0.002372
# 6 0.002769 -0.000999 -0.000649 0.004237 -0.002372 0.021971
#
#
# Mechanical properties :
#
#
# Convention : Reuss Voigt Hill
#
# Bulk Modulus (GPa) = 72.47475 87.12893 79.80184
# Shear Modulus (GPa) = 40.62300 48.25545 44.43923
#
# Velocity S-wave (km/s) = 4.06388 4.42923 4.25048
# Velocity P-wave (km/s) = 7.17527 7.84725 7.51877
#
# Compressibility (1/GPa) = 0.01379791
#
# Stress axis : x y z
#
# Youngs Moduli (GPa) = 76.81127 75.28413 126.47300
#
# Poissons Ratio (x) = 0.37589 0.69006
# Poissons Ratio (y) = 0.38351 -0.03083
# Poissons Ratio (z) = 0.41910 -0.01835
#
# Static dielectric constant tensor:
#      x y z
#    x 2.030600 -0.001740 0.052450 
#    y -0.001740 2.276220 0.003140 
#    z 0.052450 0.003140 1.988470 
# 
# From -- ./inp_files/389695.got.cif
#   From: 2010.05.17/outbox.cif.g08.bks.cpg/sg2_195_cif.got.tgz:389695.got - 2010.06.03 11:33:40.
