data_PCOD9049827
_publ_section_title
;
Structure prediction by ZEFSAII (Michael W. Deem and Ramdas Pophale) SiO2 
 PCOD9049827
Probable space group: P -1
;
_chemical_formula_sum "Si O2"
_cell_formula_units_Z 10
_cell_length_a 5.107127
_cell_length_b 8.281784
_cell_length_c 12.879112
_cell_angle_alpha 55.043517
_cell_angle_beta 116.581188
_cell_angle_gamma 99.959287
_cell_volume 396.674082
_symmetry_space_group_name_H-M "P -1"
_symmetry_group_IT_number 2
_symmetry_cell_setting 'triclinic'
loop_
_space_group_symop_operation_xyz
x,y,z
-x,-y,-z
loop_
_atom_site_type_symbol
_atom_site_label
_atom_site_fract_x
_atom_site_fract_y
_atom_site_fract_z
Si Si1 0.418306 0.990001 0.108801
Si Si2 0.284245 0.600990 0.331336
Si Si3 0.535498 0.224635 0.390584
Si Si4 0.703387 0.637487 0.924703
Si Si5 0.119640 0.245822 0.611040
O O1 0.268169 0.791849 0.180021
O O2 0.724492 0.960829 0.241460
O O3 0.243581 0.181960 0.057066
O O4 0.500000 0.000000 0.000000
O O5 0.326666 0.400254 0.346752
O O6 0.605078 0.644799 0.419269
O O7 0.020544 0.649896 0.348020
O O8 0.462019 0.268801 0.241859
O O9 0.867576 0.240513 0.483968
O O10 0.500000 0.000000 0.500000
O O11 0.500000 0.500000 0.000000
O O12 0.000000 0.500000 0.000000
#
# Coordination Sequence:
#
# PCOD9049827 Si02
#       5
#     2   2   2   2   2
#     4  10  25  48  80 105 158 207 259 311 386 478
#     4  10  24  47  75 111 149 203 263 305 382 468
#     4  12  27  50  81 115 163 199 260 334 387 459
#     4  12  31  50  75 119 160 204 256 326 402 453
#     4  10  25  46  76 110 146 201 268 302 387 454
#
# _framework density 25.209612
#
# number of rings (size 3 to 8) (size 9 to 14) (size 15 to 20)
#    1.200    0.000    0.000    3.600    8.400    3.200 
#    0.000    0.000    0.000    0.000    0.000    0.000 
#    0.000    0.000    0.000    0.000    0.000    0.000 
#
# Total GULP energy -55959.834398 kJ/mol
# GULP energy per Si atom -5595.983440 kJ/mol
# Density = 2.515223 g / cm^3
# Si number density = 25.209612 Si / 1000 Ang^3
#
#
#
# Elastic Constant Matrix: (Units=GPa)
#
#
# Indices 1 2 3 4 5 6 
#
# 1 165.3447 71.6289 69.8647 1.8113 -9.7859 -6.5107
# 2 71.6289 201.1492 82.5400 -21.3409 -5.6244 -26.6608
# 3 69.8647 82.5400 191.8476 14.3876 1.5705 -6.0658
# 4 1.8113 -21.3409 14.3876 51.9597 -4.5750 -3.2731
# 5 -9.7859 -5.6244 1.5705 -4.5750 50.3576 -3.2512
# 6 -6.5107 -26.6608 -6.0658 -3.2731 -3.2512 48.0808
#
#
#
# Elastic Compliance Matrix: (Units=1/GPa)
#
#
# Indices 1 2 3 4 5 6 
#
# 1 0.007828 -0.002030 -0.001961 -0.000466 0.001297 -0.000257
# 2 -0.002030 0.007948 -0.002898 0.004511 0.001262 0.004159
# 3 -0.001961 -0.002898 0.007397 -0.003366 -0.001322 -0.001258
# 4 -0.000466 0.004511 -0.003366 0.022529 0.002806 0.003737
# 5 0.001297 0.001262 -0.001322 0.002806 0.020696 0.002299
# 6 -0.000257 0.004159 -0.001258 0.003737 0.002299 0.023321
#
#
# Mechanical properties :
#
#
# Convention : Reuss Voigt Hill
#
# Bulk Modulus (GPa) = 106.43157 111.82318 109.12737
# Shear Modulus (GPa) = 46.89214 52.36682 49.62948
#
# Velocity S-wave (km/s) = 4.31755 4.56264 4.44179
# Velocity P-wave (km/s) = 8.19545 8.49768 8.34793
#
# Compressibility (1/GPa) = 0.00939571
#
# Stress axis : x y z
#
# Youngs Moduli (GPa) = 127.75124 125.81051 135.19475
#
# Poissons Ratio (x) = 0.25539 0.26513
# Poissons Ratio (y) = 0.25933 0.39174
# Poissons Ratio (z) = 0.25053 0.36455
#
# Static dielectric constant tensor:
#      x y z
#    x 1.943500 0.026380 0.043820 
#    y 0.026380 1.995440 -0.047370 
#    z 0.043820 -0.047370 2.279260 
# 
# From -- ./inp_files/18409.got.cif
#   From: 2010.05.17/outbox.cif.g08.bks.cpg/sg2_10_cif.got.tgz:18409.got - 2010.06.03 11:33:40.
