data_PCOD9049079
_publ_section_title
;
Structure prediction by ZEFSAII (Michael W. Deem and Ramdas Pophale) SiO2 
 PCOD9049079
Probable space group: P -1
;
_chemical_formula_sum "Si O2"
_cell_formula_units_Z 16
_cell_length_a 14.791819
_cell_length_b 12.270189
_cell_length_c 9.546532
_cell_angle_alpha 116.498930
_cell_angle_beta 75.450158
_cell_angle_gamma 152.027399
_cell_volume 683.931757
_symmetry_space_group_name_H-M "P -1"
_symmetry_group_IT_number 2
_symmetry_cell_setting 'triclinic'
loop_
_space_group_symop_operation_xyz
x,y,z
-x,-y,-z
loop_
_atom_site_type_symbol
_atom_site_label
_atom_site_fract_x
_atom_site_fract_y
_atom_site_fract_z
Si Si1 0.780208 0.741864 0.511423
Si Si2 0.393737 0.950007 0.387141
Si Si3 0.041721 0.105263 0.195343
Si Si4 0.461134 0.172671 0.977081
Si Si5 0.574062 0.343213 0.721958
Si Si6 0.042544 0.553306 0.847523
Si Si7 0.602261 0.609635 0.232009
Si Si8 0.310612 0.643658 0.738474
O O1 0.639665 0.657951 0.413820
O O2 0.717474 0.527057 0.401082
O O3 0.831156 0.829301 0.703386
O O4 0.000000 0.000000 0.500000
O O5 0.163348 0.649998 0.269137
O O6 0.500000 0.000000 0.500000
O O7 0.414175 0.108841 0.535934
O O8 0.528462 0.107005 0.285051
O O9 0.192598 0.394800 0.273216
O O10 0.824380 0.876323 0.222639
O O11 0.000000 0.000000 0.000000
O O12 0.501075 0.361448 0.100272
O O13 0.598917 0.261405 0.086602
O O14 0.535052 0.239268 0.827882
O O15 0.229632 0.860525 0.914173
O O16 0.530253 0.435458 0.803502
O O17 0.112889 0.499877 0.740706
O O18 0.000000 0.500000 0.000000
#
# Coordination Sequence:
#
# PCOD9049079 Si02
#       8
#     2   2   2   2   2   2   2   2
#     4   9  21  43  68 103 142 189 228 297 358 431
#     4  12  29  50  75 107 144 195 245 304 370 428
#     4  11  22  42  68 101 143 190 233 291 370 417
#     4  11  24  48  73 108 151 189 239 312 359 428
#     4  12  26  45  71 108 147 187 238 298 367 440
#     4  12  28  50  79 106 137 201 253 298 365 432
#     4  10  24  46  68 106 150 184 237 295 362 442
#     4  11  24  50  74 104 150 184 248 304 359 439
#
# _framework density 23.394147
#
# number of rings (size 3 to 8) (size 9 to 14) (size 15 to 20)
#    0.000    1.000    3.750    1.500    5.250    3.500 
#    6.750    0.000    0.000    0.000    0.000    0.000 
#    0.000    0.000    0.000    0.000    0.000    0.000 
#
# Total GULP energy -89502.789036 kJ/mol
# GULP energy per Si atom -5593.924315 kJ/mol
# Density = 2.334090 g / cm^3
# Si number density = 23.394147 Si / 1000 Ang^3
#
#
#
# Elastic Constant Matrix: (Units=GPa)
#
#
# Indices 1 2 3 4 5 6 
#
# 1 107.3185 36.5303 26.3161 -2.4698 23.1589 -5.6146
# 2 36.5303 172.6245 45.7966 -5.8555 25.9846 -8.8303
# 3 26.3161 45.7966 143.3721 -20.5510 38.5217 -1.3241
# 4 -2.4698 -5.8555 -20.5510 53.7538 -3.9455 6.9633
# 5 23.1589 25.9846 38.5217 -3.9455 36.1269 2.0983
# 6 -5.6146 -8.8303 -1.3241 6.9633 2.0983 33.3853
#
#
#
# Elastic Compliance Matrix: (Units=1/GPa)
#
#
# Indices 1 2 3 4 5 6 
#
# 1 0.011251 -0.001332 0.000074 -0.000338 -0.006487 0.002021
# 2 -0.001332 0.006922 -0.001174 -0.000208 -0.003000 0.001792
# 3 0.000074 -0.001174 0.010486 0.003135 -0.010047 0.000095
# 4 -0.000338 -0.000208 0.003135 0.020267 -0.000520 -0.004182
# 5 -0.006487 -0.003000 -0.010047 -0.000520 0.044943 -0.004999
# 6 0.002021 0.001792 0.000095 -0.004182 -0.004999 0.031957
#
#
# Mechanical properties :
#
#
# Convention : Reuss Voigt Hill
#
# Bulk Modulus (GPa) = 42.02575 71.17789 56.60182
# Shear Modulus (GPa) = 36.06867 45.63136 40.85001
#
# Velocity S-wave (km/s) = 3.93081 4.42129 4.18325
# Velocity P-wave (km/s) = 6.21329 7.52033 6.89783
#
# Compressibility (1/GPa) = 0.02379493
#
# Stress axis : x y z
#
# Youngs Moduli (GPa) = 88.87863 144.45690 95.36489
#
# Poissons Ratio (x) = 0.19243 -0.00701
# Poissons Ratio (y) = 0.11839 0.11195
# Poissons Ratio (z) = -0.00653 0.16958
#
# Static dielectric constant tensor:
#      x y z
#    x 1.877980 -0.008130 -0.011920 
#    y -0.008130 1.890010 0.009170 
#    z -0.011920 0.009170 1.888490 
# 
# From -- ./inp_files/308014.got.cif
#   From: 2010.05.17/outbox.cif.g08.bks.cpg/sg2_155_cif.got.tgz:308014.got - 2010.06.03 11:33:40.
