data_PCOD9049929
_publ_section_title
;
Structure prediction by ZEFSAII (Michael W. Deem and Ramdas Pophale) SiO2 
 PCOD9049929
Probable space group: P -1
;
_chemical_formula_sum "Si O2"
_cell_formula_units_Z 13
_cell_length_a 9.363888
_cell_length_b 14.462210
_cell_length_c 11.437293
_cell_angle_alpha 33.035956
_cell_angle_beta 85.122369
_cell_angle_gamma 107.448446
_cell_volume 614.335723
_symmetry_space_group_name_H-M "P -1"
_symmetry_group_IT_number 2
_symmetry_cell_setting 'triclinic'
loop_
_space_group_symop_operation_xyz
x,y,z
-x,-y,-z
loop_
_atom_site_type_symbol
_atom_site_label
_atom_site_fract_x
_atom_site_fract_y
_atom_site_fract_z
Si Si1 0.354032 0.003212 0.363718
Si Si2 0.953570 0.859564 0.534441
Si Si3 0.000000 0.500000 0.500000
Si Si4 0.671767 0.759730 0.478064
Si Si5 0.601753 0.354468 0.777250
Si Si6 0.665137 0.990525 0.015827
Si Si7 0.394475 0.657787 0.803168
O O1 0.436195 0.163573 0.303594
O O2 0.322268 0.781500 0.631361
O O3 0.521608 0.162989 0.086166
O O4 0.153004 0.924944 0.419051
O O5 0.867921 0.906066 0.387685
O O6 0.780326 0.587167 0.865965
O O7 0.000000 0.000000 0.500000
O O8 0.793952 0.430658 0.624043
O O9 0.871280 0.247138 0.708078
O O10 0.646880 0.567947 0.610214
O O11 0.675206 0.918551 0.220252
O O12 0.492484 0.636749 0.711680
O O13 0.419159 0.220667 0.841674
O O14 0.500000 0.000000 0.000000
#
# Coordination Sequence:
#
# PCOD9049929 Si02
#       7
#     2   2   1   2   2   2   2
#     4  11  24  44  71 101 142 187 226 285 343 413
#     4  12  24  44  67 107 144 182 229 280 347 414
#     4  10  24  48  68  96 136 178 232 288 336 416
#     4  12  24  46  72 103 142 182 230 294 340 412
#     4  11  24  46  72  99 140 178 236 287 347 404
#     4  10  24  48  69  99 133 179 232 286 348 405
#     4  11  23  45  69 102 145 185 231 276 345 415
#
# _framework density 21.161068
#
# number of rings (size 3 to 8) (size 9 to 14) (size 15 to 20)
#    0.000    0.923    3.077    4.154    2.154    0.615 
#   13.846    0.000    0.000    0.000    0.000    0.000 
#    0.000    0.000    0.000    0.000    0.000    0.000 
#
# Total GULP energy -72409.488046 kJ/mol
# GULP energy per Si atom -5569.960619 kJ/mol
# Density = 2.111290 g / cm^3
# Si number density = 21.161068 Si / 1000 Ang^3
#
#
#
# Elastic Constant Matrix: (Units=GPa)
#
#
# Indices 1 2 3 4 5 6 
#
# 1 115.2994 57.4168 45.7080 -7.2997 -7.0642 14.8808
# 2 57.4168 118.7872 20.7927 -16.5340 0.5203 11.2260
# 3 45.7080 20.7927 48.4952 -22.8871 -0.1057 19.0131
# 4 -7.2997 -16.5340 -22.8871 30.3901 12.6471 6.8992
# 5 -7.0642 0.5203 -0.1057 12.6471 40.5039 2.7302
# 6 14.8808 11.2260 19.0131 6.8992 2.7302 46.2440
#
#
#
# Elastic Compliance Matrix: (Units=1/GPa)
#
#
# Indices 1 2 3 4 5 6 
#
# 1 0.075526 -0.038455 -0.161052 -0.165491 0.060040 0.072393
# 2 -0.038455 0.029289 0.083112 0.092236 -0.032921 -0.040724
# 3 -0.161052 0.083112 0.407730 0.417239 -0.145589 -0.189641
# 4 -0.165491 0.092236 0.417239 0.470860 -0.162410 -0.201344
# 5 0.060040 -0.032921 -0.145589 -0.162410 0.081334 0.067959
# 6 0.072393 -0.040724 -0.189641 -0.201344 0.067959 0.112212
#
#
# Mechanical properties :
#
#
# Convention : Reuss Voigt Hill
#
# Bulk Modulus (GPa) = 3.57456 58.93518 31.25487
# Shear Modulus (GPa) = 3.32669 34.00524 18.66597
#
# Velocity S-wave (km/s) = 1.25519 4.01305 2.97322
# Velocity P-wave (km/s) = 1.94770 7.02738 5.15643
#
# Compressibility (1/GPa) = 0.27975451
#
# Stress axis : x y z
#
# Youngs Moduli (GPa) = 13.24040 34.14263 2.45260
#
# Poissons Ratio (x) = 1.31294 0.39500
# Poissons Ratio (y) = 0.50915 -0.20384
# Poissons Ratio (z) = 2.13240 -2.83765
#
# Static dielectric constant tensor:
#      x y z
#    x 1.757300 -0.022140 0.040560 
#    y -0.022140 1.821600 -0.008730 
#    z 0.040560 -0.008730 1.755400 
# 
# From -- ./inp_files/59123.got.cif
#   From: 2010.05.17/outbox.cif.g08.bks.cpg/sg2_30_cif.got.tgz:59123.got - 2010.06.03 11:33:40.
