data_PCOD9049423
_publ_section_title
;
Structure prediction by ZEFSAII (Michael W. Deem and Ramdas Pophale) SiO2 
 PCOD9049423
Probable space group: P -1
;
_chemical_formula_sum "Si O2"
_cell_formula_units_Z 14
_cell_length_a 17.662704
_cell_length_b 5.276990
_cell_length_c 11.207096
_cell_angle_alpha 101.108759
_cell_angle_beta 144.025671
_cell_angle_gamma 69.609271
_cell_volume 567.539192
_symmetry_space_group_name_H-M "P -1"
_symmetry_group_IT_number 2
_symmetry_cell_setting 'triclinic'
loop_
_space_group_symop_operation_xyz
x,y,z
-x,-y,-z
loop_
_atom_site_type_symbol
_atom_site_label
_atom_site_fract_x
_atom_site_fract_y
_atom_site_fract_z
Si Si1 0.593053 0.454613 0.471174
Si Si2 0.190965 0.367297 0.131318
Si Si3 0.898443 0.893058 0.516939
Si Si4 0.527851 0.398923 0.894512
Si Si5 0.819743 0.386515 0.274025
Si Si6 0.427521 0.052492 0.247630
Si Si7 0.079081 0.171773 0.186712
O O1 0.728833 0.423762 0.713133
O O2 0.601066 0.436768 0.336303
O O3 0.508316 0.262867 0.379880
O O4 0.501217 0.775679 0.390777
O O5 0.275300 0.184456 0.115449
O O6 0.190607 0.208764 0.240622
O O7 0.035086 0.526784 0.914435
O O8 0.835303 0.666262 0.367989
O O9 0.876205 0.935183 0.633877
O O10 0.061039 0.754091 0.682199
O O11 0.844144 0.167561 0.393632
O O12 0.556970 0.077905 0.876787
O O13 0.500000 0.500000 0.000000
O O14 0.668765 0.438465 0.035101
O O15 0.000000 0.000000 0.000000
#
# Coordination Sequence:
#
# PCOD9049423 Si02
#       7
#     2   2   2   2   2   2   2
#     4  10  25  45  73 105 137 192 231 298 351 432
#     4  11  26  47  69 107 144 191 237 294 362 427
#     4  10  25  46  72  98 138 183 239 286 351 408
#     4  10  26  43  71 106 138 180 235 293 356 420
#     4  10  24  46  73  99 135 187 233 292 343 423
#     4  10  25  44  75 100 145 184 237 287 359 427
#     4  11  29  42  73 106 145 190 236 301 354 426
#
# _framework density 24.667902000000002
#
# number of rings (size 3 to 8) (size 9 to 14) (size 15 to 20)
#    0.857    0.857    0.000    0.857   16.000    1.714 
#    0.000    0.000    0.000    0.000    0.000    0.000 
#    0.000    0.000    0.000    0.000    0.000    0.000 
#
# Total GULP energy -78315.463364 kJ/mol
# GULP energy per Si atom -5593.961669 kJ/mol
# Density = 2.461176 g / cm^3
# Si number density = 24.667902 Si / 1000 Ang^3
#
#
#
# Elastic Constant Matrix: (Units=GPa)
#
#
# Indices 1 2 3 4 5 6 
#
# 1 104.5703 51.2462 10.1076 6.0193 -18.4438 -7.1428
# 2 51.2462 135.0106 22.0344 12.8261 9.9734 10.4608
# 3 10.1076 22.0344 52.7826 1.5999 2.2619 -9.3529
# 4 6.0193 12.8261 1.5999 41.4065 3.9669 11.7536
# 5 -18.4438 9.9734 2.2619 3.9669 51.6856 -1.9510
# 6 -7.1428 10.4608 -9.3529 11.7536 -1.9510 30.8257
#
#
#
# Elastic Compliance Matrix: (Units=1/GPa)
#
#
# Indices 1 2 3 4 5 6 
#
# 1 0.014540 -0.006498 0.001039 -0.002913 0.006901 0.007437
# 2 -0.006498 0.011519 -0.004628 0.000017 -0.004609 -0.007117
# 3 0.001039 -0.004628 0.022412 -0.002379 0.000827 0.009571
# 4 -0.002913 0.000017 -0.002379 0.028560 -0.003603 -0.012520
# 5 0.006901 -0.004609 0.000827 -0.003603 0.023176 0.006255
# 6 0.007437 -0.007117 0.009571 -0.012520 0.006255 0.044653
#
#
# Mechanical properties :
#
#
# Convention : Reuss Voigt Hill
#
# Bulk Modulus (GPa) = 35.34205 51.01552 43.17879
# Shear Modulus (GPa) = 28.65896 38.71527 33.68712
#
# Velocity S-wave (km/s) = 3.41220 3.96594 3.69945
# Velocity P-wave (km/s) = 5.46648 6.45735 5.98247
#
# Compressibility (1/GPa) = 0.02829491
#
# Stress axis : x y z
#
# Youngs Moduli (GPa) = 68.77748 86.81472 44.61987
#
# Poissons Ratio (x) = 0.56408 -0.04634
# Poissons Ratio (y) = 0.44689 0.20652
# Poissons Ratio (z) = -0.07143 0.40182
#
# Static dielectric constant tensor:
#      x y z
#    x 1.971710 -0.007190 -0.034280 
#    y -0.007190 1.983950 -0.038620 
#    z -0.034280 -0.038620 1.991280 
# 
# From -- ./inp_files/458903.got.cif
#   From: 2010.05.17/outbox.cif.g08.bks.cpg/sg2_230_cif.got.tgz:458903.got - 2010.06.03 11:33:40.
