data_PCOD9049839
_publ_section_title
;
Structure prediction by ZEFSAII (Michael W. Deem and Ramdas Pophale) SiO2 
 PCOD9049839
Probable space group: P -1
;
_chemical_formula_sum "Si O2"
_cell_formula_units_Z 14
_cell_length_a 19.471772
_cell_length_b 5.507654
_cell_length_c 9.056651
_cell_angle_alpha 121.716052
_cell_angle_beta 58.855666
_cell_angle_gamma 133.516690
_cell_volume 579.881110
_symmetry_space_group_name_H-M "P -1"
_symmetry_group_IT_number 2
_symmetry_cell_setting 'triclinic'
loop_
_space_group_symop_operation_xyz
x,y,z
-x,-y,-z
loop_
_atom_site_type_symbol
_atom_site_label
_atom_site_fract_x
_atom_site_fract_y
_atom_site_fract_z
Si Si1 0.083241 0.006168 0.052622
Si Si2 0.724388 0.302374 0.962234
Si Si3 0.451759 0.665668 0.336530
Si Si4 0.050576 0.750902 0.723884
Si Si5 0.761334 0.902255 0.557544
Si Si6 0.094182 0.997806 0.368914
Si Si7 0.394590 0.450385 0.992492
O O1 0.173683 0.357953 0.985487
O O2 0.986078 0.000538 0.172189
O O3 0.121802 0.027023 0.178444
O O4 0.058010 0.701019 0.873231
O O5 0.753312 0.170941 0.747575
O O6 0.657033 0.421682 0.013705
O O7 0.671033 0.962438 0.019217
O O8 0.349148 0.399876 0.448310
O O9 0.517830 0.516699 0.189087
O O10 0.500000 0.000000 0.500000
O O11 0.425429 0.657617 0.184568
O O12 0.955740 0.399199 0.654977
O O13 0.155822 0.893757 0.590492
O O14 0.810978 0.761666 0.562522
O O15 0.000000 0.000000 0.500000
#
# Coordination Sequence:
#
# PCOD9049839 Si02
#       7
#     2   2   2   2   2   2   2
#     4  11  23  40  64  96 144 179 230 291 357 422
#     4  11  23  46  76 100 143 192 237 292 370 427
#     4  10  24  47  76 107 144 186 243 305 364 428
#     4  11  24  40  62 103 134 181 235 294 349 430
#     4  11  23  44  71 100 137 189 243 289 364 432
#     4  12  22  42  66  95 139 188 233 287 351 435
#     4  10  25  49  73 108 143 190 242 305 359 438
#
# _framework density 24.142880999999999
#
# number of rings (size 3 to 8) (size 9 to 14) (size 15 to 20)
#    0.000    1.143    2.857    3.429    2.000    5.143 
#    5.143    3.571    0.000    0.000    0.000    0.000 
#    0.000    0.000    0.000    0.000    0.000    0.000 
#
# Total GULP energy -78085.988259 kJ/mol
# GULP energy per Si atom -5577.570590 kJ/mol
# Density = 2.408793 g / cm^3
# Si number density = 24.142881 Si / 1000 Ang^3
#
#
#
# Elastic Constant Matrix: (Units=GPa)
#
#
# Indices 1 2 3 4 5 6 
#
# 1 122.8127 44.8085 28.3431 -6.9360 -35.5751 5.3601
# 2 44.8085 109.1990 26.0451 -8.1371 -7.1395 21.9294
# 3 28.3431 26.0451 63.7340 -14.6055 -16.4835 10.1526
# 4 -6.9360 -8.1371 -14.6055 40.5767 6.9947 1.2849
# 5 -35.5751 -7.1395 -16.4835 6.9947 45.7094 -6.9777
# 6 5.3601 21.9294 10.1526 1.2849 -6.9777 44.3754
#
#
#
# Elastic Compliance Matrix: (Units=1/GPa)
#
#
# Indices 1 2 3 4 5 6 
#
# 1 0.012824 -0.004812 -0.002102 -0.001182 0.009075 0.002771
# 2 -0.004812 0.012829 -0.002824 0.001585 -0.003883 -0.005769
# 3 -0.002102 -0.002824 0.020585 0.005867 0.004053 -0.002593
# 4 -0.001182 0.001585 0.005867 0.027541 -0.003274 -0.003295
# 5 0.009075 -0.003883 0.004053 -0.003274 0.031040 0.004871
# 6 0.002771 -0.005769 -0.002593 -0.003295 0.004871 0.026506
#
#
# Mechanical properties :
#
#
# Convention : Reuss Voigt Hill
#
# Bulk Modulus (GPa) = 37.36779 54.90435 46.13607
# Shear Modulus (GPa) = 31.30438 39.23558 35.26998
#
# Velocity S-wave (km/s) = 3.60478 4.03568 3.82630
# Velocity P-wave (km/s) = 5.73038 6.67131 6.21867
#
# Compressibility (1/GPa) = 0.02676102
#
# Stress axis : x y z
#
# Youngs Moduli (GPa) = 77.97582 77.95051 48.57962
#
# Poissons Ratio (x) = 0.37512 0.10210
# Poissons Ratio (y) = 0.37524 0.13721
# Poissons Ratio (z) = 0.16388 0.22017
#
# Static dielectric constant tensor:
#      x y z
#    x 2.024300 -0.042650 -0.002080 
#    y -0.042650 2.030510 -0.002860 
#    z -0.002080 -0.002860 2.020990 
# 
# From -- ./inp_files/340647.got.cif
#   From: 2010.05.17/outbox.cif.g08.bks.cpg/sg2_171_cif.got.tgz:340647.got - 2010.06.03 11:33:40.
