data_PCOD9049884
_publ_section_title
;
Structure prediction by ZEFSAII (Michael W. Deem and Ramdas Pophale) SiO2 
 PCOD9049884
Probable space group: P -1
;
_chemical_formula_sum "Si O2"
_cell_formula_units_Z 14
_cell_length_a 14.636464
_cell_length_b 8.395037
_cell_length_c 7.225268
_cell_angle_alpha 79.988749
_cell_angle_beta 44.937704
_cell_angle_gamma 106.337430
_cell_volume 502.475380
_symmetry_space_group_name_H-M "P -1"
_symmetry_group_IT_number 2
_symmetry_cell_setting 'triclinic'
loop_
_space_group_symop_operation_xyz
x,y,z
-x,-y,-z
loop_
_atom_site_type_symbol
_atom_site_label
_atom_site_fract_x
_atom_site_fract_y
_atom_site_fract_z
Si Si1 0.300959 0.565871 0.256316
Si Si2 0.918071 0.086754 0.222715
Si Si3 0.364763 0.276433 0.805296
Si Si4 0.751838 0.212551 0.192795
Si Si5 0.359068 0.290955 0.408767
Si Si6 0.123173 0.363930 0.203980
Si Si7 0.409749 0.970827 0.913770
O O1 0.300481 0.434491 0.447439
O O2 0.145079 0.442242 0.370936
O O3 0.455305 0.606494 0.913963
O O4 0.351971 0.789594 0.175392
O O5 0.888441 0.218588 0.105475
O O6 0.982948 0.202145 0.301728
O O7 0.746802 0.883848 0.546734
O O8 0.000000 0.000000 0.000000
O O9 0.500000 0.500000 0.500000
O O10 0.313237 0.183757 0.693478
O O11 0.419417 0.170162 0.873781
O O12 0.223025 0.272926 0.091742
O O13 0.722399 0.147128 0.034129
O O14 0.582222 0.053922 0.565666
O O15 0.791226 0.431618 0.076983
#
# Coordination Sequence:
#
# PCOD9049884 Si02
#       7
#     2   2   2   2   2   2   2
#     4  10  22  38  61  83 118 157 192 240 294 343
#     4  12  22  35  58  90 120 153 193 243 288 344
#     4  12  19  35  64  91 113 148 203 243 280 338
#     4  10  18  33  56  88 113 147 201 240 280 336
#     4  11  21  38  60  86 118 153 197 238 294 339
#     4  11  22  35  60  89 116 154 195 243 285 349
#     4  10  17  34  61  84 113 151 195 243 284 337
#
# _framework density 27.862062000000002
#
# number of rings (size 3 to 8) (size 9 to 14) (size 15 to 20)
#    0.000    1.143    7.143    1.286    0.000    0.571 
#    0.000    0.714    3.143    7.714    0.000    0.000 
#    0.000    0.000    0.000    0.000    0.000    0.000 
#
# Total GULP energy -78227.785759 kJ/mol
# GULP energy per Si atom -5587.698983 kJ/mol
# Density = 2.779865 g / cm^3
# Si number density = 27.862062 Si / 1000 Ang^3
#
#
#
# Elastic Constant Matrix: (Units=GPa)
#
#
# Indices 1 2 3 4 5 6 
#
# 1 188.8504 69.7676 41.6126 -22.3979 6.5883 -17.1013
# 2 69.7676 115.0137 33.0522 -37.6967 15.6324 -21.4201
# 3 41.6126 33.0522 40.8205 -10.1322 12.0626 7.2962
# 4 -22.3979 -37.6967 -10.1322 42.6164 5.1215 -1.5958
# 5 6.5883 15.6324 12.0626 5.1215 42.7891 -19.7598
# 6 -17.1013 -21.4201 7.2962 -1.5958 -19.7598 75.3139
#
#
#
# Elastic Compliance Matrix: (Units=1/GPa)
#
#
# Indices 1 2 3 4 5 6 
#
# 1 0.008041 -0.002792 -0.007362 -0.000267 0.003064 0.002543
# 2 -0.002792 0.018786 -0.008931 0.013602 -0.003227 0.005016
# 3 -0.007362 -0.008931 0.045748 0.000358 -0.014259 -0.012377
# 4 -0.000267 0.013602 0.000358 0.036529 -0.008308 0.002367
# 5 0.003064 -0.003227 -0.014259 -0.008308 0.033619 0.009804
# 6 0.002543 0.005016 -0.012377 0.002367 0.009804 0.019103
#
#
# Mechanical properties :
#
#
# Convention : Reuss Voigt Hill
#
# Bulk Modulus (GPa) = 29.06600 70.39437 49.73019
# Shear Modulus (GPa) = 23.64463 45.49403 34.56933
#
# Velocity S-wave (km/s) = 2.91629 4.04521 3.52622
# Velocity P-wave (km/s) = 4.66845 6.86575 5.87081
#
# Compressibility (1/GPa) = 0.03440445
#
# Stress axis : x y z
#
# Youngs Moduli (GPa) = 124.36829 53.23151 21.85866
#
# Poissons Ratio (x) = 0.14863 0.16092
# Poissons Ratio (y) = 0.34726 0.19522
# Poissons Ratio (z) = 0.91561 0.47541
#
# Static dielectric constant tensor:
#      x y z
#    x 2.242990 0.123580 -0.043670 
#    y 0.123580 2.364120 -0.008510 
#    z -0.043670 -0.008510 2.157690 
# 
# From -- ./inp_files/205004.got.cif
#   From: 2010.05.17/outbox.cif.g08.bks.cpg/sg2_103_cif.got.tgz:205004.got - 2010.06.03 11:33:40.
