data_PCOD9049046
_publ_section_title
;
Structure prediction by ZEFSAII (Michael W. Deem and Ramdas Pophale) SiO2 
 PCOD9049046
Probable space group: P -1
;
_chemical_formula_sum "Si O2"
_cell_formula_units_Z 16
_cell_length_a 9.991043
_cell_length_b 14.557111
_cell_length_c 13.344668
_cell_angle_alpha 67.271191
_cell_angle_beta 35.081702
_cell_angle_gamma 47.784110
_cell_volume 762.790799
_symmetry_space_group_name_H-M "P -1"
_symmetry_group_IT_number 2
_symmetry_cell_setting 'triclinic'
loop_
_space_group_symop_operation_xyz
x,y,z
-x,-y,-z
loop_
_atom_site_type_symbol
_atom_site_label
_atom_site_fract_x
_atom_site_fract_y
_atom_site_fract_z
Si Si1 0.820289 0.306484 0.167734
Si Si2 0.118778 0.853589 0.971377
Si Si3 0.508255 0.969175 0.391992
Si Si4 0.245819 0.866768 0.471933
Si Si5 0.698101 0.782983 0.718618
Si Si6 0.912153 0.587197 0.117822
Si Si7 0.726243 0.494676 0.439854
Si Si8 0.252916 0.145054 0.137398
O O1 0.498068 0.390554 0.389377
O O2 0.094921 0.253720 0.101007
O O3 0.900537 0.182260 0.113679
O O4 0.843134 0.391248 0.040770
O O5 0.479718 0.757397 0.822274
O O6 0.873307 0.859969 0.182169
O O7 0.000000 0.000000 0.000000
O O8 0.348686 0.105397 0.368120
O O9 0.500000 0.000000 0.500000
O O10 0.353204 0.910510 0.476418
O O11 0.557151 0.736145 0.280178
O O12 0.040282 0.833892 0.649888
O O13 0.000000 0.000000 0.500000
O O14 0.593226 0.841434 0.870896
O O15 0.048796 0.644480 0.579317
O O16 0.918489 0.514601 0.242524
O O17 0.000000 0.500000 0.000000
O O18 0.500000 0.500000 0.500000
O O19 0.500000 0.000000 0.000000
#
# Coordination Sequence:
#
# PCOD9049046 Si02
#       8
#     2   2   2   2   2   2   2   2
#     4  12  24  44  72 101 144 189 239 296 360 425
#     4  10  24  46  67  97 141 188 234 293 359 431
#     4  11  25  44  69 105 145 184 238 306 364 427
#     4  12  24  42  71 109 142 182 252 305 361 431
#     4  11  24  46  67 100 145 187 242 290 363 433
#     4  12  24  43  71 105 149 189 235 302 364 428
#     4  12  24  46  71 104 145 191 237 296 362 433
#     4  12  23  39  68 105 139 184 239 303 367 422
#
# _framework density 20.975608000000001
#
# number of rings (size 3 to 8) (size 9 to 14) (size 15 to 20)
#    0.000    0.500    6.250    2.250    5.250    0.500 
#    2.250    0.625    0.000    0.000    0.000    0.000 
#    0.000    0.000    0.000    0.000    0.000    0.000 
#
# Total GULP energy -89344.525014 kJ/mol
# GULP energy per Si atom -5584.032813 kJ/mol
# Density = 2.092787 g / cm^3
# Si number density = 20.975608 Si / 1000 Ang^3
#
#
#
# Elastic Constant Matrix: (Units=GPa)
#
#
# Indices 1 2 3 4 5 6 
#
# 1 104.8744 26.7370 23.2664 2.3500 12.8857 2.7373
# 2 26.7370 87.6015 23.3606 12.2321 12.6710 -3.9853
# 3 23.2664 23.3606 102.8801 5.1950 21.8999 5.8783
# 4 2.3500 12.2321 5.1950 45.1370 12.6766 0.5705
# 5 12.8857 12.6710 21.8999 12.6766 41.1993 7.6501
# 6 2.7373 -3.9853 5.8783 0.5705 7.6501 33.2013
#
#
#
# Elastic Compliance Matrix: (Units=1/GPa)
#
#
# Indices 1 2 3 4 5 6 
#
# 1 0.010792 -0.002788 -0.001408 0.000910 -0.001949 -0.000542
# 2 -0.002788 0.013604 -0.002078 -0.002819 -0.001842 0.002704
# 3 -0.001408 -0.002078 0.011625 0.000756 -0.005143 -0.001020
# 4 0.000910 -0.002819 0.000756 0.024918 -0.007632 0.000783
# 5 -0.001949 -0.001842 -0.005143 -0.007632 0.031705 -0.006324
# 6 -0.000542 0.002704 -0.001020 0.000783 -0.006324 0.032113
#
#
# Mechanical properties :
#
#
# Convention : Reuss Voigt Hill
#
# Bulk Modulus (GPa) = 42.60398 49.12044 45.86221
# Shear Modulus (GPa) = 34.45239 38.70698 36.57969
#
# Velocity S-wave (km/s) = 4.05717 4.30039 4.18055
# Velocity P-wave (km/s) = 6.50406 6.93733 6.72419
#
# Compressibility (1/GPa) = 0.02347198
#
# Stress axis : x y z
#
# Youngs Moduli (GPa) = 92.66549 73.50999 86.01955
#
# Poissons Ratio (x) = 0.20496 0.12108
# Poissons Ratio (y) = 0.25837 0.17879
# Poissons Ratio (z) = 0.13043 0.15279
#
# Static dielectric constant tensor:
#      x y z
#    x 1.801930 -0.023980 0.012420 
#    y -0.023980 1.871980 -0.021170 
#    z 0.012420 -0.021170 1.783130 
# 
# From -- ./inp_files/398883.got.cif
#   From: 2010.05.17/outbox.cif.g08.bks.cpg/sg2_200_cif.got.tgz:398883.got - 2010.06.03 11:33:40.
