data_PCOD9049671
_publ_section_title
;
Structure prediction by ZEFSAII (Michael W. Deem and Ramdas Pophale) SiO2 
 PCOD9049671
Probable space group: P -1
;
_chemical_formula_sum "Si O2"
_cell_formula_units_Z 12
_cell_length_a 8.842471
_cell_length_b 7.928834
_cell_length_c 8.858436
_cell_angle_alpha 110.846408
_cell_angle_beta 117.947825
_cell_angle_gamma 56.209788
_cell_volume 452.110044
_symmetry_space_group_name_H-M "P -1"
_symmetry_group_IT_number 2
_symmetry_cell_setting 'triclinic'
loop_
_space_group_symop_operation_xyz
x,y,z
-x,-y,-z
loop_
_atom_site_type_symbol
_atom_site_label
_atom_site_fract_x
_atom_site_fract_y
_atom_site_fract_z
Si Si1 0.622690 0.783956 0.908794
Si Si2 0.975457 0.721173 0.579734
Si Si3 0.424516 0.577202 0.322987
Si Si4 0.968017 0.780082 0.239635
Si Si5 0.169193 0.853241 0.914633
Si Si6 0.624281 0.046182 0.719103
O O1 0.536869 0.624558 0.819835
O O2 0.833758 0.697034 0.064151
O O3 0.384795 0.132287 0.240183
O O4 0.500000 0.000000 0.000000
O O5 0.975921 0.780497 0.423780
O O6 0.000000 0.500000 0.500000
O O7 0.135925 0.677823 0.772971
O O8 0.786109 0.905103 0.627320
O O9 0.500000 0.500000 0.500000
O O10 0.496462 0.744358 0.367761
O O11 0.188500 0.683333 0.253344
O O12 0.865713 0.011151 0.206584
O O13 0.344061 0.824931 0.088976
O O14 0.000000 0.000000 0.000000
#
# Coordination Sequence:
#
# PCOD9049671 Si02
#       6
#     2   2   2   2   2   2
#     4  11  28  49  74 107 142 190 248 301 362 427
#     4  11  22  36  69 111 135 182 238 296 355 428
#     4  12  27  46  76 106 148 195 237 296 366 427
#     4  11  23  45  75 102 146 183 242 297 358 429
#     4   9  18  37  66  94 132 181 229 280 354 404
#     4  10  24  47  71 102 148 189 238 301 359 434
#
# _framework density 26.542213
#
# number of rings (size 3 to 8) (size 9 to 14) (size 15 to 20)
#    0.000    1.333    3.333    2.000    4.667    2.667 
#    3.000    0.000    0.000    0.000    0.000    0.000 
#    0.000    0.000    0.000    0.000    0.000    0.000 
#
# Total GULP energy -66803.108780 kJ/mol
# GULP energy per Si atom -5566.925732 kJ/mol
# Density = 2.648180 g / cm^3
# Si number density = 26.542213 Si / 1000 Ang^3
#
#
#
# Elastic Constant Matrix: (Units=GPa)
#
#
# Indices 1 2 3 4 5 6 
#
# 1 60.9377 22.7709 28.9527 8.1352 -5.0689 -0.9217
# 2 22.7709 96.2649 48.3573 11.6846 -3.2650 -8.5453
# 3 28.9527 48.3573 199.8672 11.5020 6.3789 15.4128
# 4 8.1352 11.6846 11.5020 65.0942 11.3871 -5.9833
# 5 -5.0689 -3.2650 6.3789 11.3871 64.1091 -1.2345
# 6 -0.9217 -8.5453 15.4128 -5.9833 -1.2345 32.9147
#
#
#
# Elastic Compliance Matrix: (Units=1/GPa)
#
#
# Indices 1 2 3 4 5 6 
#
# 1 0.018922 -0.003186 -0.001958 -0.001735 0.001844 0.000373
# 2 -0.003186 0.013274 -0.003070 -0.001198 0.001031 0.004615
# 3 -0.001958 -0.003070 0.006397 -0.000538 -0.000929 -0.003980
# 4 -0.001735 -0.001198 -0.000538 0.016682 -0.003054 0.002810
# 5 0.001844 0.001031 -0.000929 -0.003054 0.016447 0.000816
# 6 0.000373 0.004615 -0.003980 0.002810 0.000816 0.033995
#
#
# Mechanical properties :
#
#
# Convention : Reuss Voigt Hill
#
# Bulk Modulus (GPa) = 45.11600 61.91463 53.51531
# Shear Modulus (GPa) = 38.60011 49.55618 44.07815
#
# Velocity S-wave (km/s) = 3.81765 4.32565 4.07957
# Velocity P-wave (km/s) = 6.03882 6.95168 6.51127
#
# Compressibility (1/GPa) = 0.02216509
#
# Stress axis : x y z
#
# Youngs Moduli (GPa) = 52.84952 75.33596 156.31757
#
# Poissons Ratio (x) = 0.24002 0.30606
# Poissons Ratio (y) = 0.16838 0.47988
# Poissons Ratio (z) = 0.10348 0.23128
#
# Static dielectric constant tensor:
#      x y z
#    x 2.542310 0.034170 0.257030 
#    y 0.034170 2.131800 0.018850 
#    z 0.257030 0.018850 2.585630 
# 
# From -- ./inp_files/235665.got.cif
#   From: 2010.05.17/outbox.cif.g08.bks.cpg/sg2_118_cif.got.tgz:235665.got - 2010.06.03 11:33:40.
