data_PCOD9049394
_publ_section_title
;
Structure prediction by ZEFSAII (Michael W. Deem and Ramdas Pophale) SiO2 
 PCOD9049394
Probable space group: P -1
;
_chemical_formula_sum "Si O2"
_cell_formula_units_Z 16
_cell_length_a 5.977009
_cell_length_b 15.083310
_cell_length_c 8.863964
_cell_angle_alpha 64.666061
_cell_angle_beta 100.266425
_cell_angle_gamma 78.605090
_cell_volume 676.172412
_symmetry_space_group_name_H-M "P -1"
_symmetry_group_IT_number 2
_symmetry_cell_setting 'triclinic'
loop_
_space_group_symop_operation_xyz
x,y,z
-x,-y,-z
loop_
_atom_site_type_symbol
_atom_site_label
_atom_site_fract_x
_atom_site_fract_y
_atom_site_fract_z
Si Si1 0.175986 0.731924 0.806580
Si Si2 0.281163 0.448880 0.508546
Si Si3 0.004608 0.554635 0.802466
Si Si4 0.998148 0.094211 0.823958
Si Si5 0.611137 0.642159 0.120729
Si Si6 0.635321 0.139621 0.491720
Si Si7 0.806831 0.827101 0.931504
Si Si8 0.341756 0.014331 0.645135
O O1 0.039862 0.664089 0.754766
O O2 0.328812 0.771764 0.673837
O O3 0.998284 0.817417 0.828757
O O4 0.354682 0.662858 0.001630
O O5 0.500000 0.500000 0.500000
O O6 0.382175 0.351346 0.702343
O O7 0.000000 0.500000 0.500000
O O8 0.223703 0.433210 0.339517
O O9 0.236586 0.474602 0.812278
O O10 0.000000 0.500000 0.000000
O O11 0.757515 0.141289 0.666217
O O12 0.177573 0.046926 0.744945
O O13 0.078982 0.167389 0.895176
O O14 0.000000 0.000000 0.000000
O O15 0.723740 0.724957 0.001026
O O16 0.742011 0.040322 0.465892
O O17 0.389126 0.118248 0.516325
O O18 0.582434 0.927893 0.797823
#
# Coordination Sequence:
#
# PCOD9049394 Si02
#       8
#     2   2   2   2   2   2   2   2
#     4  12  26  45  72 109 144 190 250 297 371 441
#     4  10  24  46  73 106 142 193 244 304 373 440
#     4  11  23  48  76 105 142 192 245 302 368 436
#     4  12  26  44  71  99 140 191 236 296 366 440
#     4  11  25  46  72 101 147 193 235 306 365 441
#     4  11  26  42  72 104 141 186 237 305 361 441
#     4  12  26  44  70 105 142 187 242 295 364 438
#     4  11  25  48  70 101 143 188 239 296 373 436
#
# _framework density 23.662604000000002
#
# number of rings (size 3 to 8) (size 9 to 14) (size 15 to 20)
#    0.000    0.750    3.750    2.625    7.000    1.000 
#    0.000    5.000    0.000    0.000    0.000    0.000 
#    0.000    0.000    0.000    0.000    0.000    0.000 
#
# Total GULP energy -89360.876317 kJ/mol
# GULP energy per Si atom -5585.054770 kJ/mol
# Density = 2.360875 g / cm^3
# Si number density = 23.662604 Si / 1000 Ang^3
#
#
#
# Elastic Constant Matrix: (Units=GPa)
#
#
# Indices 1 2 3 4 5 6 
#
# 1 65.5677 23.0576 28.6882 7.9262 -1.0963 14.0583
# 2 23.0576 83.9395 20.1309 18.8193 7.2613 20.3235
# 3 28.6882 20.1309 155.2638 14.8455 8.2551 26.0062
# 4 7.9262 18.8193 14.8455 42.6716 14.9547 4.6831
# 5 -1.0963 7.2613 8.2551 14.9547 63.4520 3.1049
# 6 14.0583 20.3235 26.0062 4.6831 3.1049 35.1947
#
#
#
# Elastic Compliance Matrix: (Units=1/GPa)
#
#
# Indices 1 2 3 4 5 6 
#
# 1 0.018436 -0.003495 -0.002313 -0.001201 0.001479 -0.003608
# 2 -0.003495 0.015809 0.000353 -0.005564 -0.000250 -0.007231
# 3 -0.002313 0.000353 0.007815 -0.001763 -0.000448 -0.004781
# 4 -0.001201 -0.005564 -0.001763 0.028636 -0.005987 0.001714
# 5 0.001479 -0.000250 -0.000448 -0.005987 0.017325 -0.000847
# 6 -0.003608 -0.007231 -0.004781 0.001714 -0.000847 0.037409
#
#
# Mechanical properties :
#
#
# Convention : Reuss Voigt Hill
#
# Bulk Modulus (GPa) = 32.10286 49.83605 40.96945
# Shear Modulus (GPa) = 34.07783 43.78994 38.93389
#
# Velocity S-wave (km/s) = 3.79905 4.30652 4.06072
# Velocity P-wave (km/s) = 5.73063 6.77016 6.27197
#
# Compressibility (1/GPa) = 0.03114988
#
# Stress axis : x y z
#
# Youngs Moduli (GPa) = 54.24253 63.25625 127.95220
#
# Poissons Ratio (x) = 0.22106 0.29593
# Poissons Ratio (y) = 0.18956 -0.04511
# Poissons Ratio (z) = 0.12545 -0.02230
#
# Static dielectric constant tensor:
#      x y z
#    x 2.213650 -0.145120 -0.038430 
#    y -0.145120 2.037030 0.098470 
#    z -0.038430 0.098470 2.009210 
# 
# From -- ./inp_files/135027.got.cif
#   From: 2010.05.17/outbox.cif.g08.bks.cpg/sg2_68_cif.got.tgz:135027.got - 2010.06.03 11:33:40.
