data_PCOD9049968
_publ_section_title
;
Structure prediction by ZEFSAII (Michael W. Deem and Ramdas Pophale) SiO2 
 PCOD9049968
Probable space group: P -1
;
_chemical_formula_sum "Si O2"
_cell_formula_units_Z 16
_cell_length_a 11.533865
_cell_length_b 18.339613
_cell_length_c 8.791839
_cell_angle_alpha 141.501876
_cell_angle_beta 138.611252
_cell_angle_gamma 40.208347
_cell_volume 691.403450
_symmetry_space_group_name_H-M "P -1"
_symmetry_group_IT_number 2
_symmetry_cell_setting 'triclinic'
loop_
_space_group_symop_operation_xyz
x,y,z
-x,-y,-z
loop_
_atom_site_type_symbol
_atom_site_label
_atom_site_fract_x
_atom_site_fract_y
_atom_site_fract_z
Si Si1 0.843193 0.145129 0.625760
Si Si2 0.673532 0.878978 0.654628
Si Si3 0.833754 0.753830 0.910312
Si Si4 0.607417 0.224167 0.838803
Si Si5 0.310186 0.388329 0.025767
Si Si6 0.982226 0.143848 0.253347
Si Si7 0.973871 0.351361 0.783316
Si Si8 0.529175 0.160810 0.107903
O O1 0.719833 0.178266 0.714800
O O2 0.677987 0.186063 0.402860
O O3 0.984610 0.214479 0.888419
O O4 0.000000 0.000000 0.500000
O O5 0.479279 0.881736 0.393573
O O6 0.847442 0.845758 0.656680
O O7 0.737719 0.771724 0.678532
O O8 0.634893 0.018092 0.910488
O O9 0.933715 0.640067 0.947488
O O10 0.647313 0.843353 0.973970
O O11 0.416028 0.353309 0.909590
O O12 0.771175 0.228716 0.116965
O O13 0.243998 0.537112 0.250729
O O14 0.445232 0.275128 0.088660
O O15 0.106101 0.377271 0.829037
O O16 0.990069 0.207248 0.527849
O O17 0.000000 0.000000 0.000000
#
# Coordination Sequence:
#
# PCOD9049968 Si02
#       8
#     2   2   2   2   2   2   2   2
#     4  12  23  39  64 103 141 174 225 277 349 409
#     4  12  23  42  64 103 140 169 228 281 347 401
#     4  11  23  41  67  97 133 182 219 285 339 403
#     4  12  25  41  68  99 137 179 226 279 342 409
#     4  10  24  48  70  97 133 192 231 277 335 406
#     4  12  27  41  67 105 140 175 218 290 346 400
#     4  10  25  48  71  97 138 182 236 278 338 405
#     4  11  23  40  68  98 137 181 221 279 344 407
#
# _framework density 23.141335000000002
#
# number of rings (size 3 to 8) (size 9 to 14) (size 15 to 20)
#    0.000    0.750    5.000    1.875    8.750    1.500 
#    0.000    2.500    0.000    0.000    0.000    0.000 
#    0.000    0.000    0.000    0.000    0.000    0.000 
#
# Total GULP energy -89147.750148 kJ/mol
# GULP energy per Si atom -5571.734384 kJ/mol
# Density = 2.308866 g / cm^3
# Si number density = 23.141335 Si / 1000 Ang^3
#
#
#
# Elastic Constant Matrix: (Units=GPa)
#
#
# Indices 1 2 3 4 5 6 
#
# 1 174.2049 46.3597 32.1113 1.1160 1.5312 -40.9345
# 2 46.3597 101.7361 35.8541 -1.4563 -20.7051 -14.8450
# 3 32.1113 35.8541 79.0820 -12.7556 -8.4421 -12.1469
# 4 1.1160 -1.4563 -12.7556 34.7530 -4.9438 -1.9908
# 5 1.5312 -20.7051 -8.4421 -4.9438 35.0480 -4.1966
# 6 -40.9345 -14.8450 -12.1469 -1.9908 -4.1966 38.5310
#
#
#
# Elastic Compliance Matrix: (Units=1/GPa)
#
#
# Indices 1 2 3 4 5 6 
#
# 1 0.008421 -0.002585 -0.001386 -0.000674 -0.001447 0.007321
# 2 -0.002585 0.014479 -0.004228 0.000412 0.007992 0.002391
# 3 -0.001386 -0.004228 0.016963 0.006678 0.002939 0.002911
# 4 -0.000674 0.000412 0.006678 0.032480 0.006940 0.003982
# 5 -0.001447 0.007992 0.002939 0.006940 0.035810 0.006727
# 6 0.007321 0.002391 0.002911 0.003982 0.006727 0.036508
#
#
# Mechanical properties :
#
#
# Convention : Reuss Voigt Hill
#
# Bulk Modulus (GPa) = 42.61667 64.85256 53.73461
# Shear Modulus (GPa) = 29.60693 37.71295 33.65994
#
# Velocity S-wave (km/s) = 3.58074 4.04131 3.81798
# Velocity P-wave (km/s) = 5.96250 7.06128 6.53502
#
# Compressibility (1/GPa) = 0.02346500
#
# Stress axis : x y z
#
# Youngs Moduli (GPa) = 118.74964 69.06764 58.95224
#
# Poissons Ratio (x) = 0.17852 0.08172
# Poissons Ratio (y) = 0.30694 0.24924
# Poissons Ratio (z) = 0.16461 0.29200
#
# Static dielectric constant tensor:
#      x y z
#    x 1.938580 0.070710 -0.045650 
#    y 0.070710 1.959260 -0.007830 
#    z -0.045650 -0.007830 1.919760 
# 
# From -- ./inp_files/283454.got.cif
#   From: 2010.05.17/outbox.cif.g08.bks.cpg/sg2_142_cif.got.tgz:283454.got - 2010.06.03 11:33:40.
