data_PCOD9049300
_publ_section_title
;
Structure prediction by ZEFSAII (Michael W. Deem and Ramdas Pophale) SiO2 
 PCOD9049300
Probable space group: P -1
;
_chemical_formula_sum "Si O2"
_cell_formula_units_Z 16
_cell_length_a 8.842272
_cell_length_b 18.786304
_cell_length_c 5.586264
_cell_angle_alpha 89.414846
_cell_angle_beta 77.255714
_cell_angle_gamma 133.097521
_cell_volume 643.797677
_symmetry_space_group_name_H-M "P -1"
_symmetry_group_IT_number 2
_symmetry_cell_setting 'triclinic'
loop_
_space_group_symop_operation_xyz
x,y,z
-x,-y,-z
loop_
_atom_site_type_symbol
_atom_site_label
_atom_site_fract_x
_atom_site_fract_y
_atom_site_fract_z
Si Si1 0.238876 0.067777 0.030749
Si Si2 0.923378 0.740057 0.911659
Si Si3 0.556598 0.058777 0.724633
Si Si4 0.351891 0.242677 0.281801
Si Si5 0.079116 0.411793 0.126119
Si Si6 0.041403 0.872595 0.269286
Si Si7 0.489776 0.553486 0.290943
Si Si8 0.216554 0.565554 0.679926
O O1 0.313792 0.164580 0.121623
O O2 0.180910 0.989133 0.252444
O O3 0.422648 0.089408 0.799256
O O4 0.000000 0.000000 0.000000
O O5 0.739668 0.653429 0.163471
O O6 0.047069 0.843799 0.997711
O O7 0.767497 0.724720 0.771230
O O8 0.041139 0.703197 0.825575
O O9 0.822642 0.143932 0.633103
O O10 0.500000 0.000000 0.500000
O O11 0.500000 0.000000 0.000000
O O12 0.605843 0.339494 0.213074
O O13 0.203637 0.184854 0.572269
O O14 0.320498 0.475941 0.145173
O O15 0.951291 0.427540 0.330743
O O16 0.107890 0.464570 0.865581
O O17 0.500000 0.500000 0.500000
O O18 0.370427 0.585775 0.421546
#
# Coordination Sequence:
#
# PCOD9049300 Si02
#       8
#     2   2   2   2   2   2   2   2
#     4  11  23  45  72 101 137 183 231 292 354 420
#     4  12  24  41  66 102 130 177 235 280 351 428
#     4  10  24  46  72 101 138 187 241 293 359 428
#     4  12  24  43  69 100 136 181 236 291 351 427
#     4  11  25  42  67  94 140 174 225 291 351 421
#     4  11  25  44  69  98 141 185 235 287 355 423
#     4  12  22  43  68  97 131 184 226 285 357 423
#     4  11  24  43  66  98 135 176 227 289 351 419
#
# _framework density 24.852526999999998
#
# number of rings (size 3 to 8) (size 9 to 14) (size 15 to 20)
#    0.000    0.750    5.000    2.625    3.500    1.000 
#    0.000    2.500    0.000    0.000    0.000    0.000 
#    0.000    0.000    0.000    0.000    0.000    0.000 
#
# Total GULP energy -89301.271272 kJ/mol
# GULP energy per Si atom -5581.329455 kJ/mol
# Density = 2.479596 g / cm^3
# Si number density = 24.852527 Si / 1000 Ang^3
#
#
#
# Elastic Constant Matrix: (Units=GPa)
#
#
# Indices 1 2 3 4 5 6 
#
# 1 152.4117 17.9053 4.0572 12.1417 -20.4619 -9.5922
# 2 17.9053 89.6271 0.5774 11.3356 -2.2030 -19.7280
# 3 4.0572 0.5774 35.3200 7.4987 -6.4744 -13.3315
# 4 12.1417 11.3356 7.4987 40.1275 -4.4572 -4.3480
# 5 -20.4619 -2.2030 -6.4744 -4.4572 42.1834 9.0341
# 6 -9.5922 -19.7280 -13.3315 -4.3480 9.0341 47.9946
#
#
#
# Elastic Compliance Matrix: (Units=1/GPa)
#
#
# Indices 1 2 3 4 5 6 
#
# 1 0.007266 -0.001113 0.000222 -0.001529 0.003275 0.000302
# 2 -0.001113 0.013022 0.002598 -0.003321 -0.001043 0.005748
# 3 0.000222 0.002598 0.033511 -0.005739 0.002772 0.009379
# 4 -0.001529 -0.003321 -0.005739 0.027429 0.001322 -0.001029
# 5 0.003275 -0.001043 0.002772 0.001322 0.026640 -0.003899
# 6 0.000302 0.005748 0.009379 -0.001029 -0.003899 0.026504
#
#
# Mechanical properties :
#
#
# Convention : Reuss Voigt Hill
#
# Bulk Modulus (GPa) = 17.47773 35.82649 26.65211
# Shear Modulus (GPa) = 33.32661 43.04904 38.18782
#
# Velocity S-wave (km/s) = 3.66590 4.16646 3.92417
# Velocity P-wave (km/s) = 4.99663 6.13130 5.59281
#
# Compressibility (1/GPa) = 0.05721568
#
# Stress axis : x y z
#
# Youngs Moduli (GPa) = 137.61921 76.79109 29.84062
#
# Poissons Ratio (x) = 0.08545 -0.00663
# Poissons Ratio (y) = 0.15314 -0.07753
# Poissons Ratio (z) = -0.03060 -0.19952
#
# Static dielectric constant tensor:
#      x y z
#    x 2.021610 0.002030 -0.008890 
#    y 0.002030 2.096110 -0.082570 
#    z -0.008890 -0.082570 2.276090 
# 
# From -- ./inp_files/39014.got.cif
#   From: 2010.05.17/outbox.cif.g08.bks.cpg/sg2_20_cif.got.tgz:39014.got - 2010.06.03 11:33:40.
