data_PCOD9049941
_publ_section_title
;
Structure prediction by ZEFSAII (Michael W. Deem and Ramdas Pophale) SiO2 
 PCOD9049941
Probable space group: P -1
;
_chemical_formula_sum "Si O2"
_cell_formula_units_Z 14
_cell_length_a 13.402433
_cell_length_b 14.417825
_cell_length_c 10.009276
_cell_angle_alpha 150.810605
_cell_angle_beta 34.211166
_cell_angle_gamma 140.454562
_cell_volume 521.755509
_symmetry_space_group_name_H-M "P -1"
_symmetry_group_IT_number 2
_symmetry_cell_setting 'triclinic'
loop_
_space_group_symop_operation_xyz
x,y,z
-x,-y,-z
loop_
_atom_site_type_symbol
_atom_site_label
_atom_site_fract_x
_atom_site_fract_y
_atom_site_fract_z
Si Si1 0.782001 0.948185 0.673828
Si Si2 0.294406 0.713105 0.184679
Si Si3 0.265057 0.453767 0.633171
Si Si4 0.088978 0.321530 0.409805
Si Si5 0.516968 0.252720 0.422813
Si Si6 0.723215 0.365296 0.591940
Si Si7 0.362906 0.048790 0.824987
O O1 0.748400 0.767960 0.587305
O O2 0.754088 0.801689 0.910144
O O3 0.680535 0.861572 0.541184
O O4 0.000000 0.000000 0.500000
O O5 0.311628 0.612974 0.184826
O O6 0.111417 0.798390 0.516323
O O7 0.476280 0.861662 0.140117
O O8 0.253900 0.575626 0.930436
O O9 0.117012 0.448979 0.674750
O O10 0.438009 0.565464 0.500351
O O11 0.132814 0.465513 0.418342
O O12 0.670610 0.120438 0.049752
O O13 0.553555 0.330411 0.631274
O O14 0.771937 0.150945 0.250791
O O15 0.500000 0.000000 0.500000
#
# Coordination Sequence:
#
# PCOD9049941 Si02
#       7
#     2   2   2   2   2   2   2
#     4  11  26  43  73 108 136 182 239 293 347 415
#     4  11  26  45  71 105 143 185 236 288 350 425
#     4  11  26  46  71 107 142 187 234 290 353 418
#     4  11  25  47  73 101 142 187 232 296 352 405
#     4  10  25  47  71 102 142 183 234 293 350 413
#     4  10  24  48  70 101 140 185 234 285 351 421
#     4  10  25  46  70 103 140 180 237 287 353 420
#
# _framework density 26.832491000000001
#
# number of rings (size 3 to 8) (size 9 to 14) (size 15 to 20)
#    0.000    1.429    0.000    2.143   16.000    4.571 
#    0.000    1.429    0.000    0.000    0.000    0.000 
#    0.000    0.000    0.000    0.000    0.000    0.000 
#
# Total GULP energy -78240.972399 kJ/mol
# GULP energy per Si atom -5588.640886 kJ/mol
# Density = 2.677142 g / cm^3
# Si number density = 26.832491 Si / 1000 Ang^3
#
#
#
# Elastic Constant Matrix: (Units=GPa)
#
#
# Indices 1 2 3 4 5 6 
#
# 1 136.4941 38.8502 61.4020 -24.1785 7.3344 15.8172
# 2 38.8502 136.6728 43.8895 -5.5589 -18.7422 -5.8555
# 3 61.4020 43.8895 102.4222 -17.0396 20.1728 11.0588
# 4 -24.1785 -5.5589 -17.0396 28.9025 -6.9171 -6.7944
# 5 7.3344 -18.7422 20.1728 -6.9171 59.8424 -12.4665
# 6 15.8172 -5.8555 11.0588 -6.7944 -12.4665 61.2352
#
#
#
# Elastic Compliance Matrix: (Units=1/GPa)
#
#
# Indices 1 2 3 4 5 6 
#
# 1 0.011160 -0.001326 -0.005061 0.005846 0.000311 -0.001383
# 2 -0.001326 0.010291 -0.005128 0.000055 0.005839 0.003447
# 3 -0.005061 -0.005128 0.017191 0.002360 -0.007237 -0.003499
# 4 0.005846 0.000055 0.002360 0.042763 0.004213 0.003671
# 5 0.000311 0.005839 -0.007237 0.004213 0.022867 0.006908
# 6 -0.001383 0.003447 -0.003499 0.003671 0.006908 0.019463
#
#
# Mechanical properties :
#
#
# Convention : Reuss Voigt Hill
#
# Bulk Modulus (GPa) = 64.05662 73.76362 68.91012
# Shear Modulus (GPa) = 32.90153 45.42585 39.16369
#
# Velocity S-wave (km/s) = 3.50549 4.11900 3.82457
# Velocity P-wave (km/s) = 6.34895 7.08320 6.72610
#
# Compressibility (1/GPa) = 0.01561119
#
# Stress axis : x y z
#
# Youngs Moduli (GPa) = 89.60819 97.17229 58.16942
#
# Poissons Ratio (x) = 0.12883 0.29442
# Poissons Ratio (y) = 0.11880 0.29830
# Poissons Ratio (z) = 0.45354 0.49832
#
# Static dielectric constant tensor:
#      x y z
#    x 2.174490 -0.007300 0.028260 
#    y -0.007300 2.169570 0.071270 
#    z 0.028260 0.071270 2.214610 
# 
# From -- ./inp_files/315814.got.cif
#   From: 2010.05.17/outbox.cif.g08.bks.cpg/sg2_158_cif.got.tgz:315814.got - 2010.06.03 11:33:40.
