data_PCOD9049379
_publ_section_title
;
Structure prediction by ZEFSAII (Michael W. Deem and Ramdas Pophale) SiO2 
 PCOD9049379
Probable space group: P -1
;
_chemical_formula_sum "Si O2"
_cell_formula_units_Z 12
_cell_length_a 17.855984
_cell_length_b 4.965484
_cell_length_c 13.709359
_cell_angle_alpha 88.356416
_cell_angle_beta 21.976531
_cell_angle_gamma 86.727688
_cell_volume 453.181137
_symmetry_space_group_name_H-M "P -1"
_symmetry_group_IT_number 2
_symmetry_cell_setting 'triclinic'
loop_
_space_group_symop_operation_xyz
x,y,z
-x,-y,-z
loop_
_atom_site_type_symbol
_atom_site_label
_atom_site_fract_x
_atom_site_fract_y
_atom_site_fract_z
Si Si1 0.319279 0.331829 0.955737
Si Si2 0.682982 0.327086 0.224092
Si Si3 0.790282 0.611663 0.703610
Si Si4 0.264256 0.989123 0.567469
Si Si5 0.872901 0.131684 0.481136
Si Si6 0.140318 0.229764 0.893604
O O1 0.315326 0.602951 0.893075
O O2 0.513531 0.146653 0.690221
O O3 0.350119 0.384268 0.032676
O O4 0.108397 0.194346 0.196746
O O5 0.500000 0.500000 0.500000
O O6 0.860163 0.498868 0.047238
O O7 0.732753 0.018686 0.199826
O O8 0.757136 0.409963 0.656884
O O9 0.000000 0.500000 0.500000
O O10 0.821854 0.906860 0.622961
O O11 0.195699 0.983760 0.538209
O O12 0.246256 0.243119 0.660011
O O13 0.090972 0.830398 0.829025
#
# Coordination Sequence:
#
# PCOD9049379 Si02
#       6
#     2   2   2   2   2   2
#     4  11  24  47  75 106 137 193 235 288 355 422
#     4  12  25  47  75 103 144 189 237 286 353 423
#     4  10  24  46  73 102 140 183 237 293 351 412
#     4  11  26  46  74 106 142 189 234 291 352 421
#     4  11  25  48  71 102 144 183 233 298 350 408
#     4  11  27  48  66 108 149 183 233 295 346 419
#
# _framework density 26.479479000000001
#
# number of rings (size 3 to 8) (size 9 to 14) (size 15 to 20)
#    0.000    1.000    3.333    2.500    4.667    6.667 
#    0.000    0.000    0.000    0.000    0.000    0.000 
#    0.000    0.000    0.000    0.000    0.000    0.000 
#
# Total GULP energy -67172.951703 kJ/mol
# GULP energy per Si atom -5597.745975 kJ/mol
# Density = 2.641921 g / cm^3
# Si number density = 26.479479 Si / 1000 Ang^3
#
#
#
# Elastic Constant Matrix: (Units=GPa)
#
#
# Indices 1 2 3 4 5 6 
#
# 1 152.2061 33.1964 65.8247 -10.5223 16.9193 -0.4937
# 2 33.1964 136.1522 48.6710 -3.7549 2.2527 -13.9470
# 3 65.8247 48.6710 121.5355 16.4306 23.8877 -14.7139
# 4 -10.5223 -3.7549 16.4306 32.3182 1.1065 0.9695
# 5 16.9193 2.2527 23.8877 1.1065 46.7776 2.9656
# 6 -0.4937 -13.9470 -14.7139 0.9695 2.9656 42.1003
#
#
#
# Elastic Compliance Matrix: (Units=1/GPa)
#
#
# Indices 1 2 3 4 5 6 
#
# 1 0.009828 -0.000179 -0.006342 0.006483 -0.000316 -0.002288
# 2 -0.000179 0.009038 -0.004056 0.002959 0.001542 0.001397
# 3 -0.006342 -0.004056 0.016556 -0.010898 -0.006027 0.005044
# 4 0.006483 0.002959 -0.010898 0.038970 0.002398 -0.003819
# 5 -0.000316 0.001542 -0.006027 0.002398 0.024654 -0.003391
# 6 -0.002288 0.001397 0.005044 -0.003819 -0.003391 0.026278
#
#
# Mechanical properties :
#
#
# Convention : Reuss Voigt Hill
#
# Bulk Modulus (GPa) = 70.09753 78.36422 74.23088
# Shear Modulus (GPa) = 33.06104 41.71935 37.39020
#
# Velocity S-wave (km/s) = 3.53732 3.97361 3.76179
# Velocity P-wave (km/s) = 6.57369 7.12119 6.85291
#
# Compressibility (1/GPa) = 0.01426584
#
# Stress axis : x y z
#
# Youngs Moduli (GPa) = 101.75096 110.64802 60.40023
#
# Poissons Ratio (x) = 0.01984 0.38309
# Poissons Ratio (y) = 0.01824 0.24499
# Poissons Ratio (z) = 0.64536 0.44881
#
# Static dielectric constant tensor:
#      x y z
#    x 2.250770 0.112170 -0.028370 
#    y 0.112170 2.096690 -0.006180 
#    z -0.028370 -0.006180 2.050930 
# 
# From -- ./inp_files/539771.got.cif
#   From: 2010.05.17/outbox.cif.g08.bks.cpg/sg2_270_cif.got.tgz:539771.got - 2010.06.03 11:33:40.
