data_PCOD9049311
_publ_section_title
;
Structure prediction by ZEFSAII (Michael W. Deem and Ramdas Pophale) SiO2 
 PCOD9049311
Probable space group: P -1
;
_chemical_formula_sum "Si O2"
_cell_formula_units_Z 12
_cell_length_a 5.063139
_cell_length_b 16.008088
_cell_length_c 8.260061
_cell_angle_alpha 42.200981
_cell_angle_beta 98.914672
_cell_angle_gamma 86.632955
_cell_volume 428.826594
_symmetry_space_group_name_H-M "P -1"
_symmetry_group_IT_number 2
_symmetry_cell_setting 'triclinic'
loop_
_space_group_symop_operation_xyz
x,y,z
-x,-y,-z
loop_
_atom_site_type_symbol
_atom_site_label
_atom_site_fract_x
_atom_site_fract_y
_atom_site_fract_z
Si Si1 0.526118 0.800530 0.073784
Si Si2 0.335752 0.893863 0.586273
Si Si3 0.158982 0.636850 0.377362
Si Si4 0.091913 0.527499 0.195700
Si Si5 0.256162 0.291146 0.340471
Si Si6 0.139798 0.044538 0.792728
O O1 0.847548 0.729865 0.189044
O O2 0.369882 0.723682 0.286265
O O3 0.376687 0.808001 0.874801
O O4 0.436482 0.945696 0.924264
O O5 0.481125 0.797059 0.597217
O O6 0.042361 0.960626 0.380366
O O7 0.500000 0.000000 0.500000
O O8 0.140451 0.540313 0.659296
O O9 0.226304 0.557245 0.330890
O O10 0.268105 0.421375 0.243556
O O11 0.963900 0.655464 0.899669
O O12 0.156506 0.191490 0.589526
O O13 0.000000 0.000000 0.000000
#
# Coordination Sequence:
#
# PCOD9049311 Si02
#       6
#     2   2   2   2   2   2
#     4  12  25  47  79 109 148 195 252 313 377 451
#     4  12  25  46  75 109 150 200 247 310 381 459
#     4  11  25  48  76 109 147 199 255 302 376 445
#     4  10  24  46  72 103 150 200 246 307 361 458
#     4  11  24  48  69 107 149 194 252 304 383 440
#     4  12  28  45  75 112 148 193 251 325 381 442
#
# _framework density 27.983339000000001
#
# number of rings (size 3 to 8) (size 9 to 14) (size 15 to 20)
#    0.000    0.667    3.333    3.500    2.333    3.333 
#    6.000    2.500    0.000    0.000    0.000    0.000 
#    0.000    0.000    0.000    0.000    0.000    0.000 
#
# Total GULP energy -67377.302636 kJ/mol
# GULP energy per Si atom -5614.775220 kJ/mol
# Density = 2.791965 g / cm^3
# Si number density = 27.983339 Si / 1000 Ang^3
#
#
#
# Elastic Constant Matrix: (Units=GPa)
#
#
# Indices 1 2 3 4 5 6 
#
# 1 100.3756 11.5182 39.4848 -14.0781 22.3464 0.5720
# 2 11.5182 132.0122 10.3222 -6.9648 14.7047 -14.0588
# 3 39.4848 10.3222 175.6653 15.6013 2.6835 -13.4252
# 4 -14.0781 -6.9648 15.6013 59.9643 2.1958 -4.7560
# 5 22.3464 14.7047 2.6835 2.1958 47.7943 3.4780
# 6 0.5720 -14.0588 -13.4252 -4.7560 3.4780 36.3739
#
#
#
# Elastic Compliance Matrix: (Units=1/GPa)
#
#
# Indices 1 2 3 4 5 6 
#
# 1 0.013202 -0.000024 -0.003263 0.004148 -0.006151 -0.000290
# 2 -0.000024 0.008379 -0.000296 0.001435 -0.002878 0.003593
# 3 -0.003263 -0.000296 0.006796 -0.002453 0.001201 0.002010
# 4 0.004148 0.001435 -0.002453 0.018762 -0.003276 0.002350
# 5 -0.006151 -0.002878 0.001201 -0.003276 0.025014 -0.003392
# 6 -0.000290 0.003593 0.002010 0.002350 -0.003392 0.030259
#
#
# Mechanical properties :
#
#
# Convention : Reuss Voigt Hill
#
# Bulk Modulus (GPa) = 47.14134 58.96705 53.05420
# Shear Modulus (GPa) = 42.86424 51.94169 47.40296
#
# Velocity S-wave (km/s) = 3.91804 4.31300 4.12025
# Velocity P-wave (km/s) = 6.11153 6.77647 6.45257
#
# Compressibility (1/GPa) = 0.02121280
#
# Stress axis : x y z
#
# Youngs Moduli (GPa) = 75.74862 119.34455 147.13475
#
# Poissons Ratio (x) = 0.00282 0.48004
# Poissons Ratio (y) = 0.00179 0.04355
# Poissons Ratio (z) = 0.24713 0.03532
#
# Static dielectric constant tensor:
#      x y z
#    x 2.192360 0.006480 0.026560 
#    y 0.006480 2.186380 0.037110 
#    z 0.026560 0.037110 2.187320 
# 
# From -- ./inp_files/24152.got.cif
#   From: 2010.05.17/outbox.cif.g08.bks.cpg/sg2_13_cif.got.tgz:24152.got - 2010.06.03 11:33:40.
