data_PCOD9049783
_publ_section_title
;
Structure prediction by ZEFSAII (Michael W. Deem and Ramdas Pophale) SiO2 
 PCOD9049783
Probable space group: P -1
;
_chemical_formula_sum "Si O2"
_cell_formula_units_Z 14
_cell_length_a 9.706169
_cell_length_b 22.792685
_cell_length_c 4.971829
_cell_angle_alpha 117.085584
_cell_angle_beta 112.858181
_cell_angle_gamma 37.424804
_cell_volume 594.397356
_symmetry_space_group_name_H-M "P -1"
_symmetry_group_IT_number 2
_symmetry_cell_setting 'triclinic'
loop_
_space_group_symop_operation_xyz
x,y,z
-x,-y,-z
loop_
_atom_site_type_symbol
_atom_site_label
_atom_site_fract_x
_atom_site_fract_y
_atom_site_fract_z
Si Si1 0.427140 0.782728 0.882224
Si Si2 0.727689 0.458780 0.980255
Si Si3 0.709407 0.944000 0.238812
Si Si4 0.119426 0.889702 0.373715
Si Si5 0.239475 0.404430 0.613889
Si Si6 0.042474 0.337142 0.475358
Si Si7 0.625633 0.850798 0.322492
O O1 0.211914 0.852865 0.667970
O O2 0.590677 0.673551 0.656159
O O3 0.330167 0.811960 0.169654
O O4 0.561076 0.807551 0.015139
O O5 0.683397 0.552055 0.112774
O O6 0.927175 0.377424 0.179890
O O7 0.500000 0.500000 0.000000
O O8 0.833768 0.401182 0.658858
O O9 0.751839 0.865305 0.282010
O O10 0.935350 0.895523 0.175080
O O11 0.610623 0.036311 0.538149
O O12 0.500000 0.000000 0.000000
O O13 0.000000 0.000000 0.500000
O O14 0.000000 0.500000 0.500000
O O15 0.178600 0.361562 0.663069
O O16 0.223097 0.222124 0.462184
#
# Coordination Sequence:
#
# PCOD9049783 Si02
#       7
#     2   2   2   2   2   2   2
#     4  12  26  45  75 105 142 194 242 299 370 427
#     4  11  25  47  73 106 150 185 233 311 373 428
#     4  11  27  45  72 100 149 192 245 303 366 435
#     4  12  26  47  71 103 146 188 240 304 366 432
#     4  10  24  47  74 107 140 190 245 295 355 440
#     4  11  24  45  75 101 142 195 244 294 361 446
#     4  11  25  45  69 105 139 193 249 295 360 437
#
# _framework density 23.553270999999999
#
# number of rings (size 3 to 8) (size 9 to 14) (size 15 to 20)
#    0.000    0.857    1.429    4.714    8.000    4.571 
#    0.000    1.429    0.000    0.000    0.000    0.000 
#    0.000    0.000    0.000    0.000    0.000    0.000 
#
# Total GULP energy -78389.881121 kJ/mol
# GULP energy per Si atom -5599.277223 kJ/mol
# Density = 2.349966 g / cm^3
# Si number density = 23.553271 Si / 1000 Ang^3
#
#
#
# Elastic Constant Matrix: (Units=GPa)
#
#
# Indices 1 2 3 4 5 6 
#
# 1 141.2251 35.7661 -13.7355 3.5899 -0.2111 -5.3032
# 2 35.7661 100.9187 3.2056 1.4058 12.5861 9.8645
# 3 -13.7355 3.2056 40.5710 -0.7476 -6.4223 0.3152
# 4 3.5899 1.4058 -0.7476 41.4511 -5.3500 -4.3407
# 5 -0.2111 12.5861 -6.4223 -5.3500 35.4839 -0.7973
# 6 -5.3032 9.8645 0.3152 -4.3407 -0.7973 43.8840
#
#
#
# Elastic Compliance Matrix: (Units=1/GPa)
#
#
# Indices 1 2 3 4 5 6 
#
# 1 0.008368 -0.003488 0.003397 -0.000109 0.001926 0.001795
# 2 -0.003488 0.012225 -0.002957 -0.001182 -0.005146 -0.003359
# 3 0.003397 -0.002957 0.027022 0.001206 0.006167 0.001112
# 4 -0.000109 -0.001182 0.001206 0.025068 0.004479 0.002805
# 5 0.001926 -0.005146 0.006167 0.004479 0.031863 0.002367
# 6 0.001795 -0.003359 0.001112 0.002805 0.002367 0.024072
#
#
# Mechanical properties :
#
#
# Convention : Reuss Voigt Hill
#
# Bulk Modulus (GPa) = 24.08452 37.02078 30.55265
# Shear Modulus (GPa) = 33.65828 41.32906 37.49367
#
# Velocity S-wave (km/s) = 3.78435 4.19347 3.99415
# Velocity P-wave (km/s) = 5.41690 6.26090 5.85413
#
# Compressibility (1/GPa) = 0.04152044
#
# Stress axis : x y z
#
# Youngs Moduli (GPa) = 119.50862 81.79675 37.00729
#
# Poissons Ratio (x) = 0.28527 -0.12573
# Poissons Ratio (y) = 0.41679 0.10943
# Poissons Ratio (z) = -0.40601 0.24187
#
# Static dielectric constant tensor:
#      x y z
#    x 1.870720 0.025470 -0.008070 
#    y 0.025470 1.862640 0.011990 
#    z -0.008070 0.011990 1.924430 
# 
# From -- ./inp_files/53781.got.cif
#   From: 2010.05.17/outbox.cif.g08.bks.cpg/sg2_27_cif.got.tgz:53781.got - 2010.06.03 11:33:40.
