data_PCOD9049487
_publ_section_title
;
Structure prediction by ZEFSAII (Michael W. Deem and Ramdas Pophale) SiO2 
 PCOD9049487
Probable space group: P -1
;
_chemical_formula_sum "Si O2"
_cell_formula_units_Z 12
_cell_length_a 5.035640
_cell_length_b 22.198777
_cell_length_c 5.245258
_cell_angle_alpha 64.078182
_cell_angle_beta 94.465195
_cell_angle_gamma 108.019787
_cell_volume 500.354082
_symmetry_space_group_name_H-M "P -1"
_symmetry_group_IT_number 2
_symmetry_cell_setting 'triclinic'
loop_
_space_group_symop_operation_xyz
x,y,z
-x,-y,-z
loop_
_atom_site_type_symbol
_atom_site_label
_atom_site_fract_x
_atom_site_fract_y
_atom_site_fract_z
Si Si1 0.690185 0.836968 0.823562
Si Si2 0.755426 0.957082 0.250231
Si Si3 0.201779 0.564150 0.547976
Si Si4 0.737170 0.097590 0.073629
Si Si5 0.372613 0.321684 0.914748
Si Si6 0.222799 0.384488 0.304820
O O1 0.817432 0.891998 0.507655
O O2 0.423161 0.858962 0.853799
O O3 0.940740 0.856145 0.013605
O O4 0.622762 0.756586 0.891200
O O5 0.736364 0.020432 0.314050
O O6 0.458919 0.923696 0.149653
O O7 0.322560 0.628036 0.239877
O O8 0.511594 0.443679 0.302910
O O9 0.000000 0.500000 0.500000
O O10 0.034235 0.586392 0.722350
O O11 0.000000 0.000000 0.000000
O O12 0.199492 0.326460 0.635311
O O13 0.263598 0.354112 0.090787
#
# Coordination Sequence:
#
# PCOD9049487 Si02
#       6
#     2   2   2   2   2   2
#     4  12  27  43  68  96 140 182 232 290 363 423
#     4  11  25  44  70  98 132 175 238 295 355 421
#     4  10  24  46  75 107 142 189 238 291 350 423
#     4  11  26  43  66  99 130 178 231 290 354 421
#     4  10  28  46  71 105 149 189 236 295 358 428
#     4  10  25  44  71 105 146 182 243 287 357 420
#
# _framework density 23.983017
#
# number of rings (size 3 to 8) (size 9 to 14) (size 15 to 20)
#    1.000    0.333    1.667    1.500   11.667    1.333 
#    0.000    0.000    0.000    0.000    0.000    0.000 
#    0.000    0.000    0.000    0.000    0.000    0.000 
#
# Total GULP energy -67043.349865 kJ/mol
# GULP energy per Si atom -5586.945822 kJ/mol
# Density = 2.392843 g / cm^3
# Si number density = 23.983017 Si / 1000 Ang^3
#
#
#
# Elastic Constant Matrix: (Units=GPa)
#
#
# Indices 1 2 3 4 5 6 
#
# 1 68.8122 33.6815 48.3574 -0.0407 -8.3022 -14.8429
# 2 33.6815 121.4209 47.5854 3.1163 -22.6376 11.0476
# 3 48.3574 47.5854 80.9801 7.8595 -4.6626 4.0562
# 4 -0.0407 3.1163 7.8595 41.6801 -10.6992 -11.4041
# 5 -8.3022 -22.6376 -4.6626 -10.6992 25.5204 11.1934
# 6 -14.8429 11.0476 4.0562 -11.4041 11.1934 37.2560
#
#
#
# Elastic Compliance Matrix: (Units=1/GPa)
#
#
# Indices 1 2 3 4 5 6 
#
# 1 0.035654 -0.003965 -0.021008 0.009805 -0.000819 0.020915
# 2 -0.003965 0.015345 -0.005333 0.001288 0.016296 -0.010051
# 3 -0.021008 -0.005333 0.029220 -0.009584 -0.005280 -0.011317
# 4 0.009805 0.001288 -0.009584 0.031524 0.011012 0.010909
# 5 -0.000819 0.016296 -0.005280 0.011012 0.066293 -0.021130
# 6 0.020915 -0.010051 -0.011317 0.010909 -0.021130 0.049074
#
#
# Mechanical properties :
#
#
# Convention : Reuss Voigt Hill
#
# Bulk Modulus (GPa) = 50.99622 58.94020 54.96821
# Shear Modulus (GPa) = 16.99187 30.33057 23.66122
#
# Velocity S-wave (km/s) = 2.66465 3.56008 3.14440
# Velocity P-wave (km/s) = 5.54768 6.44422 6.01269
#
# Compressibility (1/GPa) = 0.01960930
#
# Stress axis : x y z
#
# Youngs Moduli (GPa) = 28.04703 65.16688 34.22281
#
# Poissons Ratio (x) = 0.25835 0.71895
# Poissons Ratio (y) = 0.11119 0.18251
# Poissons Ratio (z) = 0.58921 0.34753
#
# Static dielectric constant tensor:
#      x y z
#    x 1.945300 -0.029780 0.036940 
#    y -0.029780 1.885140 -0.001930 
#    z 0.036940 -0.001930 1.985510 
# 
# From -- ./inp_files/10336.got.cif
#   From: 2010.05.17/outbox.cif.g08.bks.cpg/sg2_6_cif.got.tgz:10336.got - 2010.06.03 11:33:40.
