data_PCOD9049434
_publ_section_title
;
Structure prediction by ZEFSAII (Michael W. Deem and Ramdas Pophale) SiO2 
 PCOD9049434
Probable space group: P -1
;
_chemical_formula_sum "Si O2"
_cell_formula_units_Z 16
_cell_length_a 16.093754
_cell_length_b 6.016325
_cell_length_c 9.036048
_cell_angle_alpha 69.376919
_cell_angle_beta 119.289022
_cell_angle_gamma 102.191484
_cell_volume 713.361387
_symmetry_space_group_name_H-M "P -1"
_symmetry_group_IT_number 2
_symmetry_cell_setting 'triclinic'
loop_
_space_group_symop_operation_xyz
x,y,z
-x,-y,-z
loop_
_atom_site_type_symbol
_atom_site_label
_atom_site_fract_x
_atom_site_fract_y
_atom_site_fract_z
Si Si1 0.758897 0.322571 0.779075
Si Si2 0.728746 0.794517 0.522302
Si Si3 0.857765 0.495127 0.121605
Si Si4 0.091736 0.908520 0.515260
Si Si5 0.392219 0.455595 0.969290
Si Si6 0.040910 0.775358 0.169773
Si Si7 0.286555 0.170839 0.151643
Si Si8 0.611296 0.993733 0.137185
O O1 0.716983 0.511118 0.587395
O O2 0.858132 0.265407 0.803029
O O3 0.690828 0.096056 0.802994
O O4 0.792650 0.405953 0.950354
O O5 0.739709 0.848039 0.693771
O O6 0.638549 0.905650 0.344260
O O7 0.822744 0.895357 0.492287
O O8 0.867165 0.308503 0.304489
O O9 0.963498 0.558353 0.139033
O O10 0.804097 0.741004 0.044145
O O11 0.054328 0.819923 0.344625
O O12 0.000000 0.000000 0.500000
O O13 0.353494 0.230024 0.882738
O O14 0.353047 0.723651 0.889128
O O15 0.500000 0.500000 0.000000
O O16 0.374742 0.343998 0.142543
O O17 0.000000 0.000000 0.000000
O O18 0.500000 0.000000 0.000000
#
# Coordination Sequence:
#
# PCOD9049434 Si02
#       8
#     2   2   2   2   2   2   2   2
#     4  11  23  42  64  97 133 186 236 288 357 415
#     4  11  25  43  68 101 140 183 236 297 353 432
#     4  11  24  39  64  92 133 184 237 292 345 417
#     4  12  25  40  61  98 136 184 240 284 352 415
#     4  10  24  46  74 104 140 178 228 290 363 433
#     4  12  21  42  62  90 140 185 236 295 348 411
#     4  11  24  43  70  99 136 184 235 288 358 426
#     4  10  24  48  77 107 141 183 234 297 368 433
#
# _framework density 22.429023999999998
#
# number of rings (size 3 to 8) (size 9 to 14) (size 15 to 20)
#    0.000    1.000    2.500    3.750    7.000    1.000 
#    0.000    5.000    0.000    0.000    0.000    0.000 
#    0.000    0.000    0.000    0.000    0.000    0.000 
#
# Total GULP energy -89173.355092 kJ/mol
# GULP energy per Si atom -5573.334693 kJ/mol
# Density = 2.237798 g / cm^3
# Si number density = 22.429024 Si / 1000 Ang^3
#
#
#
# Elastic Constant Matrix: (Units=GPa)
#
#
# Indices 1 2 3 4 5 6 
#
# 1 88.5511 18.5585 43.9515 -5.3722 -8.2434 16.1208
# 2 18.5585 115.2002 52.0903 -41.2812 -7.3994 2.2402
# 3 43.9515 52.0903 178.2971 -41.2382 -2.8208 8.9417
# 4 -5.3722 -41.2812 -41.2382 39.6590 1.9291 -13.5372
# 5 -8.2434 -7.3994 -2.8208 1.9291 33.2465 -5.0840
# 6 16.1208 2.2402 8.9417 -13.5372 -5.0840 32.1675
#
#
#
# Elastic Compliance Matrix: (Units=1/GPa)
#
#
# Indices 1 2 3 4 5 6 
#
# 1 0.015819 -0.003844 -0.004608 -0.010297 0.001676 -0.010448
# 2 -0.003844 0.016279 0.000367 0.019919 0.003005 0.009548
# 3 -0.004608 0.000367 0.008821 0.010359 -0.000279 0.004147
# 4 -0.010297 0.019919 0.010359 0.064984 0.003389 0.028777
# 5 0.001676 0.003005 -0.000279 0.003389 0.031780 0.005477
# 6 -0.010448 0.009548 0.004147 0.028777 0.005477 0.047481
#
#
# Mechanical properties :
#
#
# Convention : Reuss Voigt Hill
#
# Bulk Modulus (GPa) = 40.40423 67.91654 54.16039
# Shear Modulus (GPa) = 23.85705 38.84448 31.35077
#
# Velocity S-wave (km/s) = 3.26493 4.16611 3.74274
# Velocity P-wave (km/s) = 5.68035 7.31357 6.54808
#
# Compressibility (1/GPa) = 0.02474988
#
# Stress axis : x y z
#
# Youngs Moduli (GPa) = 63.21610 61.42911 113.36991
#
# Poissons Ratio (x) = 0.23614 0.52236
# Poissons Ratio (y) = 0.24301 -0.04166
# Poissons Ratio (z) = 0.29127 -0.02257
#
# Static dielectric constant tensor:
#      x y z
#    x 1.896840 -0.115360 -0.011540 
#    y -0.115360 2.075010 -0.016350 
#    z -0.011540 -0.016350 1.774580 
# 
# From -- ./inp_files/56459.got.cif
#   From: 2010.05.17/outbox.cif.g08.bks.cpg/sg2_29_cif.got.tgz:56459.got - 2010.06.03 11:33:40.
