data_PCOD9049741
_publ_section_title
;
Structure prediction by ZEFSAII (Michael W. Deem and Ramdas Pophale) SiO2 
 PCOD9049741
Probable space group: P -1
;
_chemical_formula_sum "Si O2"
_cell_formula_units_Z 16
_cell_length_a 10.938650
_cell_length_b 14.490175
_cell_length_c 9.454836
_cell_angle_alpha 152.121099
_cell_angle_beta 89.741464
_cell_angle_gamma 82.472342
_cell_volume 670.916635
_symmetry_space_group_name_H-M "P -1"
_symmetry_group_IT_number 2
_symmetry_cell_setting 'triclinic'
loop_
_space_group_symop_operation_xyz
x,y,z
-x,-y,-z
loop_
_atom_site_type_symbol
_atom_site_label
_atom_site_fract_x
_atom_site_fract_y
_atom_site_fract_z
Si Si1 0.652793 0.748777 0.074909
Si Si2 0.005927 0.210656 0.707161
Si Si3 0.208937 0.912171 0.144879
Si Si4 0.245039 0.618978 0.246092
Si Si5 0.626148 0.206397 0.744933
Si Si6 0.373321 0.836775 0.765274
Si Si7 0.640635 0.710698 0.701884
Si Si8 0.082022 0.572576 0.716511
O O1 0.517630 0.768943 0.176897
O O2 0.676194 0.972039 0.366152
O O3 0.748071 0.595926 0.972673
O O4 0.648629 0.655998 0.793732
O O5 0.886717 0.286502 0.705408
O O6 0.988542 0.366999 0.050860
O O7 0.000000 0.000000 0.500000
O O8 0.128920 0.134970 0.503298
O O9 0.293157 0.797509 0.120075
O O10 0.303429 0.906304 0.008398
O O11 0.113737 0.775643 0.929577
O O12 0.349811 0.628527 0.139741
O O13 0.283060 0.746107 0.546163
O O14 0.515240 0.683664 0.587451
O O15 0.385431 0.043239 0.971466
O O16 0.780459 0.594967 0.486020
O O17 0.000000 0.500000 0.500000
#
# Coordination Sequence:
#
# PCOD9049741 Si02
#       8
#     2   2   2   2   2   2   2   2
#     4  11  25  41  74 111 150 193 253 308 383 449
#     4  10  24  47  73 102 148 199 246 310 375 443
#     4  11  24  48  76 100 153 201 247 306 388 439
#     4  12  24  44  77 107 146 201 255 302 385 454
#     4  11  23  45  72 107 152 195 243 319 375 444
#     4  11  26  45  76 109 146 204 241 321 383 446
#     4  11  25  47  70 108 157 188 253 315 378 444
#     4  11  26  44  77 106 146 202 248 307 373 450
#
# _framework density 23.84797
#
# number of rings (size 3 to 8) (size 9 to 14) (size 15 to 20)
#    0.000    1.000    5.000    1.125    7.000    3.500 
#    2.250    1.250    0.000    0.000    0.000    0.000 
#    0.000    0.000    0.000    0.000    0.000    0.000 
#
# Total GULP energy -89543.742566 kJ/mol
# GULP energy per Si atom -5596.483910 kJ/mol
# Density = 2.379369 g / cm^3
# Si number density = 23.847970 Si / 1000 Ang^3
#
#
#
# Elastic Constant Matrix: (Units=GPa)
#
#
# Indices 1 2 3 4 5 6 
#
# 1 102.9837 54.1438 56.4720 -0.6162 -15.9174 -24.5963
# 2 54.1438 143.6075 49.5353 -16.6845 -9.3701 -17.5446
# 3 56.4720 49.5353 93.4477 -19.0470 -0.0233 -31.7421
# 4 -0.6162 -16.6845 -19.0470 32.3643 4.2232 1.8274
# 5 -15.9174 -9.3701 -0.0233 4.2232 45.5488 -4.1569
# 6 -24.5963 -17.5446 -31.7421 1.8274 -4.1569 42.6828
#
#
#
# Elastic Compliance Matrix: (Units=1/GPa)
#
#
# Indices 1 2 3 4 5 6 
#
# 1 0.019088 -0.003860 -0.010330 -0.008768 0.006938 0.002782
# 2 -0.003860 0.009547 -0.001937 0.003664 0.000286 0.000131
# 3 -0.010330 -0.001937 0.024067 0.012951 -0.004268 0.010179
# 4 -0.008768 0.003664 0.012951 0.040777 -0.005740 0.003779
# 5 0.006938 0.000286 -0.004268 -0.005740 0.025301 0.003652
# 6 0.002782 0.000131 0.010179 0.003779 0.003652 0.032849
#
#
# Mechanical properties :
#
#
# Convention : Reuss Voigt Hill
#
# Bulk Modulus (GPa) = 48.90276 73.37121 61.13699
# Shear Modulus (GPa) = 26.21928 36.11168 31.16548
#
# Velocity S-wave (km/s) = 3.31937 3.89555 3.61895
# Velocity P-wave (km/s) = 5.93646 7.14610 6.56918
#
# Compressibility (1/GPa) = 0.02044874
#
# Stress axis : x y z
#
# Youngs Moduli (GPa) = 52.38771 104.74361 41.55148
#
# Poissons Ratio (x) = 0.40429 0.42922
# Poissons Ratio (y) = 0.20221 0.08049
# Poissons Ratio (z) = 0.54115 0.20290
#
# Static dielectric constant tensor:
#      x y z
#    x 1.951900 0.003350 0.019750 
#    y 0.003350 1.878720 0.025260 
#    z 0.019750 0.025260 1.971080 
# 
# From -- ./inp_files/274900.got.cif
#   From: 2010.05.17/outbox.cif.g08.bks.cpg/sg2_138_cif.got.tgz:274900.got - 2010.06.03 11:33:40.
