data_PCOD9049263
_publ_section_title
;
Structure prediction by ZEFSAII (Michael W. Deem and Ramdas Pophale) SiO2 
 PCOD9049263
Probable space group: P -1
;
_chemical_formula_sum "Si O2"
_cell_formula_units_Z 15
_cell_length_a 15.550704
_cell_length_b 16.255377
_cell_length_c 9.329754
_cell_angle_alpha 100.994412
_cell_angle_beta 120.773301
_cell_angle_gamma 25.869639
_cell_volume 614.214163
_symmetry_space_group_name_H-M "P -1"
_symmetry_group_IT_number 2
_symmetry_cell_setting 'triclinic'
loop_
_space_group_symop_operation_xyz
x,y,z
-x,-y,-z
loop_
_atom_site_type_symbol
_atom_site_label
_atom_site_fract_x
_atom_site_fract_y
_atom_site_fract_z
Si Si1 0.817310 0.818520 0.402478
Si Si2 0.753593 0.001537 0.865083
Si Si3 0.314770 0.927574 0.467973
Si Si4 0.750965 0.736260 0.552026
Si Si5 0.020098 0.308056 0.823906
Si Si6 0.826896 0.205497 0.324465
Si Si7 0.517318 0.610234 0.168137
Si Si8 0.000000 0.500000 0.000000
O O1 0.848886 0.709615 0.484578
O O2 0.799219 0.830595 0.220146
O O3 0.148061 0.606611 0.641166
O O4 0.553562 0.093859 0.341595
O O5 0.893464 0.878951 0.783355
O O6 0.425535 0.207974 0.632608
O O7 0.721616 0.126353 0.899225
O O8 0.917859 0.826666 0.081590
O O9 0.632690 0.626835 0.583055
O O10 0.113240 0.027404 0.428553
O O11 0.988391 0.523870 0.814257
O O12 0.500000 0.000000 0.500000
O O13 0.111497 0.312872 0.003828
O O14 0.609624 0.454206 0.288376
O O15 0.616875 0.322649 0.068933
O O16 0.000000 0.000000 0.500000
#
# Coordination Sequence:
#
# PCOD9049263 Si02
#       8
#     2   2   2   2   2   2   2   1
#     4  11  24  48  74 103 151 191 242 304 350 433
#     4  12  25  46  70 105 153 186 239 302 351 436
#     4  11  24  48  71 104 148 183 240 307 355 431
#     4  12  23  46  65 106 147 192 243 288 355 420
#     4  12  26  44  69 108 143 198 245 287 364 419
#     4  10  25  47  77 106 138 185 242 302 369 435
#     4  10  24  46  71 106 141 178 239 298 365 424
#     4  12  22  42  70  92 146 198 238 290 346 414
#
# _framework density 24.42145
#
# number of rings (size 3 to 8) (size 9 to 14) (size 15 to 20)
#    0.000    0.800    5.333    0.000    3.733    7.467 
#    2.400    1.333    0.000    0.000    0.000    0.000 
#    0.000    0.000    0.000    0.000    0.000    0.000 
#
# Total GULP energy -83632.166874 kJ/mol
# GULP energy per Si atom -5575.477792 kJ/mol
# Density = 2.436587 g / cm^3
# Si number density = 24.421450 Si / 1000 Ang^3
#
#
#
# Elastic Constant Matrix: (Units=GPa)
#
#
# Indices 1 2 3 4 5 6 
#
# 1 143.3100 32.5161 42.4492 6.1756 -30.5702 17.7034
# 2 32.5161 129.2114 16.4753 15.6515 -18.5035 18.9151
# 3 42.4492 16.4753 94.9194 2.6181 -28.0427 16.4973
# 4 6.1756 15.6515 2.6181 32.3964 9.0503 -3.3891
# 5 -30.5702 -18.5035 -28.0427 9.0503 52.6876 7.0560
# 6 17.7034 18.9151 16.4973 -3.3891 7.0560 46.4658
#
#
#
# Elastic Compliance Matrix: (Units=1/GPa)
#
#
# Indices 1 2 3 4 5 6 
#
# 1 0.009375 -0.000369 -0.001736 -0.003409 0.005492 -0.003888
# 2 -0.000369 0.010341 0.001502 -0.007449 0.006314 -0.006104
# 3 -0.001736 0.001502 0.015221 -0.005010 0.009440 -0.007153
# 4 -0.003409 -0.007449 -0.005010 0.041162 -0.015875 0.011523
# 5 0.005492 0.006314 0.009440 -0.015875 0.034056 -0.014344
# 6 -0.003888 -0.006104 -0.007153 0.011523 -0.014344 0.031046
#
#
# Mechanical properties :
#
#
# Convention : Reuss Voigt Hill
#
# Bulk Modulus (GPa) = 29.64707 61.14688 45.39698
# Shear Modulus (GPa) = 32.54146 44.70997 38.62571
#
# Velocity S-wave (km/s) = 3.65430 4.28339 3.98129
# Velocity P-wave (km/s) = 5.47460 7.03958 6.30583
#
# Compressibility (1/GPa) = 0.03373014
#
# Stress axis : x y z
#
# Youngs Moduli (GPa) = 106.67171 96.70465 65.69670
#
# Poissons Ratio (x) = 0.03571 0.11406
# Poissons Ratio (y) = 0.03939 -0.09868
# Poissons Ratio (z) = 0.18520 -0.14525
#
# Static dielectric constant tensor:
#      x y z
#    x 1.906650 0.012840 -0.028090 
#    y 0.012840 2.042960 0.034520 
#    z -0.028090 0.034520 1.926550 
# 
# From -- ./inp_files/313622.got.cif
#   From: 2010.05.17/outbox.cif.g08.bks.cpg/sg2_157_cif.got.tgz:313622.got - 2010.06.03 11:33:40.
