data_PCOD9049541
_publ_section_title
;
Structure prediction by ZEFSAII (Michael W. Deem and Ramdas Pophale) SiO2 
 PCOD9049541
Probable space group: P -1
;
_chemical_formula_sum "Si O2"
_cell_formula_units_Z 15
_cell_length_a 11.213710
_cell_length_b 16.442417
_cell_length_c 7.056254
_cell_angle_alpha 52.892941
_cell_angle_beta 64.303374
_cell_angle_gamma 31.841035
_cell_volume 537.680570
_symmetry_space_group_name_H-M "P -1"
_symmetry_group_IT_number 2
_symmetry_cell_setting 'triclinic'
loop_
_space_group_symop_operation_xyz
x,y,z
-x,-y,-z
loop_
_atom_site_type_symbol
_atom_site_label
_atom_site_fract_x
_atom_site_fract_y
_atom_site_fract_z
Si Si1 0.000000 0.000000 0.000000
Si Si2 0.738312 0.366797 0.763469
Si Si3 0.509762 0.783890 0.942834
Si Si4 0.912460 0.409138 0.303418
Si Si5 0.194128 0.905036 0.326483
Si Si6 0.470376 0.378313 0.175886
Si Si7 0.339519 0.116400 0.687430
Si Si8 0.177030 0.138904 0.163597
O O1 0.927679 0.164637 0.869364
O O2 0.021306 0.016296 0.726564
O O3 0.738218 0.436585 0.479920
O O4 0.541487 0.419998 0.915717
O O5 0.757467 0.437951 0.818798
O O6 0.757727 0.607640 0.114389
O O7 0.317842 0.838981 0.120534
O O8 0.541595 0.713169 0.816799
O O9 0.424135 0.951862 0.787739
O O10 0.005590 0.301641 0.197156
O O11 0.134738 0.282964 0.460550
O O12 0.358484 0.746529 0.585600
O O13 0.126168 0.057193 0.240383
O O14 0.242033 0.164237 0.898651
O O15 0.575355 0.028560 0.666676
#
# Coordination Sequence:
#
# PCOD9049541 Si02
#       8
#     1   2   2   2   2   2   2   2
#     4  12  26  44  68 102 140 184 242 296 348 432
#     4  11  26  44  64 102 140 183 243 285 356 424
#     4  11  24  45  72 107 145 185 243 292 359 426
#     4  12  25  43  76 106 140 192 238 301 353 428
#     4  11  24  47  69 104 140 196 231 299 357 432
#     4  11  25  46  66  98 150 193 226 299 354 428
#     4  10  24  50  69 109 144 182 240 304 357 435
#     4  10  24  46  77  99 146 186 235 300 369 419
#
# _framework density 27.897608000000002
#
# number of rings (size 3 to 8) (size 9 to 14) (size 15 to 20)
#    0.000    1.067    2.667    2.800    5.600    4.267 
#    0.000    6.000    0.000    0.000    0.000    0.000 
#    0.000    0.000    0.000    0.000    0.000    0.000 
#
# Total GULP energy -83840.544269 kJ/mol
# GULP energy per Si atom -5589.369618 kJ/mol
# Density = 2.783411 g / cm^3
# Si number density = 27.897608 Si / 1000 Ang^3
#
#
#
# Elastic Constant Matrix: (Units=GPa)
#
#
# Indices 1 2 3 4 5 6 
#
# 1 100.1718 44.2681 49.0696 8.9094 25.5371 17.9573
# 2 44.2681 177.3158 45.6482 14.7042 5.9418 21.2614
# 3 49.0696 45.6482 128.0015 12.1291 28.0088 6.3822
# 4 8.9094 14.7042 12.1291 67.2154 -0.8127 14.1121
# 5 25.5371 5.9418 28.0088 -0.8127 41.2849 4.5240
# 6 17.9573 21.2614 6.3822 14.1121 4.5240 37.3678
#
#
#
# Elastic Compliance Matrix: (Units=1/GPa)
#
#
# Indices 1 2 3 4 5 6 
#
# 1 0.014989 -0.002093 -0.003423 -0.000002 -0.006134 -0.004684
# 2 -0.002093 0.006947 -0.001925 -0.000298 0.001895 -0.002735
# 3 -0.003423 -0.001925 0.011031 -0.001625 -0.005353 0.002118
# 4 -0.000002 -0.000298 -0.001625 0.016533 0.002135 -0.006054
# 5 -0.006134 0.001895 -0.005353 0.002135 0.031620 -0.001851
# 6 -0.004684 -0.002735 0.002118 -0.006054 -0.001851 0.032717
#
#
# Mechanical properties :
#
#
# Convention : Reuss Voigt Hill
#
# Bulk Modulus (GPa) = 55.30025 75.94009 65.62017
# Shear Modulus (GPa) = 37.10640 46.94051 42.02346
#
# Velocity S-wave (km/s) = 3.65100 4.10640 3.88538
# Velocity P-wave (km/s) = 6.13504 7.05432 6.61068
#
# Compressibility (1/GPa) = 0.01808310
#
# Stress axis : x y z
#
# Youngs Moduli (GPa) = 66.71767 143.94756 90.65358
#
# Poissons Ratio (x) = 0.30133 0.31034
# Poissons Ratio (y) = 0.13966 0.17451
# Poissons Ratio (z) = 0.22840 0.27710
#
# Static dielectric constant tensor:
#      x y z
#    x 1.271900 0.608320 -0.318450 
#    y 0.608320 1.588470 0.216610 
#    z -0.318450 0.216610 2.263010 
# 
# From -- ./inp_files/82415.got.cif
#   From: 2010.05.17/outbox.cif.g08.bks.cpg/sg2_42_cif.got.tgz:82415.got - 2010.06.03 11:33:40.
