data_PCOD9049228
_publ_section_title
;
Structure prediction by ZEFSAII (Michael W. Deem and Ramdas Pophale) SiO2 
 PCOD9049228
Probable space group: P -1
;
_chemical_formula_sum "Si O2"
_cell_formula_units_Z 14
_cell_length_a 12.243483
_cell_length_b 9.474009
_cell_length_c 9.922910
_cell_angle_alpha 79.083926
_cell_angle_beta 132.036386
_cell_angle_gamma 128.060219
_cell_volume 622.031316
_symmetry_space_group_name_H-M "P -1"
_symmetry_group_IT_number 2
_symmetry_cell_setting 'triclinic'
loop_
_space_group_symop_operation_xyz
x,y,z
-x,-y,-z
loop_
_atom_site_type_symbol
_atom_site_label
_atom_site_fract_x
_atom_site_fract_y
_atom_site_fract_z
Si Si1 0.588723 0.756684 0.472757
Si Si2 0.683956 0.222425 0.149697
Si Si3 0.142495 0.460915 0.099916
Si Si4 0.963970 0.692155 0.687124
Si Si5 0.901992 0.142528 0.495838
Si Si6 0.273267 0.431477 0.932773
Si Si7 0.535119 0.422923 0.329077
O O1 0.365158 0.663490 0.277336
O O2 0.583193 0.599610 0.421338
O O3 0.601627 0.753564 0.646168
O O4 0.753532 0.952493 0.495428
O O5 0.791711 0.225756 0.370003
O O6 0.630051 0.353478 0.072369
O O7 0.863016 0.313041 0.175963
O O8 0.500000 0.000000 0.000000
O O9 0.080437 0.307162 0.194404
O O10 0.153823 0.390452 0.979482
O O11 0.000000 0.500000 0.000000
O O12 0.754857 0.500659 0.485759
O O13 0.051815 0.865808 0.622114
O O14 0.111684 0.284439 0.716322
O O15 0.426693 0.408733 0.109140
#
# Coordination Sequence:
#
# PCOD9049228 Si02
#       7
#     2   2   2   2   2   2   2
#     4   9  19  36  58  81 114 150 190 226 277 337
#     4  10  20  37  59  85 109 150 188 231 274 335
#     4  10  17  34  60  79 107 148 192 227 264 330
#     4   9  21  34  60  84 112 143 195 230 269 330
#     4  10  22  36  58  86 116 146 182 234 289 331
#     4  11  21  36  61  81 118 149 181 230 295 329
#     4   9  19  37  58  82 108 154 190 228 271 332
#
# _framework density 22.506907000000002
#
# number of rings (size 3 to 8) (size 9 to 14) (size 15 to 20)
#    0.857    1.429    1.429    3.000    0.000    1.714 
#    0.000    0.714    6.286    0.000    0.000    0.000 
#    0.000    0.000    0.000    0.000    0.000    0.000 
#
# Total GULP energy -77973.310222 kJ/mol
# GULP energy per Si atom -5569.522159 kJ/mol
# Density = 2.245568 g / cm^3
# Si number density = 22.506907 Si / 1000 Ang^3
#
#
#
# Elastic Constant Matrix: (Units=GPa)
#
#
# Indices 1 2 3 4 5 6 
#
# 1 68.2794 28.4645 25.0365 2.5923 14.3549 13.0100
# 2 28.4645 126.7915 11.9399 3.4876 -5.7556 44.2774
# 3 25.0365 11.9399 98.0370 -7.5047 14.9807 4.8784
# 4 2.5923 3.4876 -7.5047 28.4385 9.5850 2.5602
# 5 14.3549 -5.7556 14.9807 9.5850 29.5421 -3.3567
# 6 13.0100 44.2774 4.8784 2.5602 -3.3567 23.4830
#
#
#
# Elastic Compliance Matrix: (Units=1/GPa)
#
#
# Indices 1 2 3 4 5 6 
#
# 1 0.020211 -0.001462 -0.002759 0.001990 -0.010440 -0.009578
# 2 -0.001462 0.023271 -0.000256 0.001047 0.000136 -0.043110
# 3 -0.002759 -0.000256 0.012685 0.006366 -0.007478 -0.002386
# 4 0.001990 0.001047 0.006366 0.044265 -0.019721 -0.012043
# 5 -0.010440 0.000136 -0.007478 -0.019721 0.051018 0.016523
# 6 -0.009578 -0.043110 -0.002386 -0.012043 0.016523 0.133344
#
#
# Mechanical properties :
#
#
# Convention : Reuss Voigt Hill
#
# Bulk Modulus (GPa) = 21.18083 47.10996 34.14540
# Shear Modulus (GPa) = 16.15586 31.47053 23.81319
#
# Velocity S-wave (km/s) = 2.68212 3.74339 3.25628
# Velocity P-wave (km/s) = 4.36153 6.29768 5.41681
#
# Compressibility (1/GPa) = 0.04721250
#
# Stress axis : x y z
#
# Youngs Moduli (GPa) = 49.47799 42.97174 78.83453
#
# Poissons Ratio (x) = 0.06280 0.21752
# Poissons Ratio (y) = 0.07231 0.02022
# Poissons Ratio (z) = 0.13652 0.01102
#
# Static dielectric constant tensor:
#      x y z
#    x 1.934820 0.020330 0.054850 
#    y 0.020330 1.898620 -0.086270 
#    z 0.054850 -0.086270 1.888430 
# 
# From -- ./inp_files/345354.got.cif
#   From: 2010.05.17/outbox.cif.g08.bks.cpg/sg2_173_cif.got.tgz:345354.got - 2010.06.03 11:33:40.
