data_PCOD9049963
_publ_section_title
;
Structure prediction by ZEFSAII (Michael W. Deem and Ramdas Pophale) SiO2 
 PCOD9049963
Probable space group: P -1
;
_chemical_formula_sum "Si O2"
_cell_formula_units_Z 16
_cell_length_a 11.527645
_cell_length_b 17.388605
_cell_length_c 9.177226
_cell_angle_alpha 27.525740
_cell_angle_beta 121.300303
_cell_angle_gamma 128.964092
_cell_volume 657.296344
_symmetry_space_group_name_H-M "P -1"
_symmetry_group_IT_number 2
_symmetry_cell_setting 'triclinic'
loop_
_space_group_symop_operation_xyz
x,y,z
-x,-y,-z
loop_
_atom_site_type_symbol
_atom_site_label
_atom_site_fract_x
_atom_site_fract_y
_atom_site_fract_z
Si Si1 0.289021 0.909099 0.462942
Si Si2 0.852597 0.953402 0.389349
Si Si3 0.886703 0.530621 0.488892
Si Si4 0.974163 0.660105 0.639994
Si Si5 0.435513 0.750196 0.607544
Si Si6 0.835080 0.898845 0.137915
Si Si7 0.340479 0.868496 0.892249
Si Si8 0.683325 0.619142 0.018026
O O1 0.319782 0.765871 0.620950
O O2 0.366885 0.912584 0.661688
O O3 0.113372 0.826055 0.527007
O O4 0.293338 0.077891 0.081007
O O5 0.850282 0.982947 0.166906
O O6 0.783009 0.072583 0.225055
O O7 0.750209 0.738906 0.716051
O O8 0.000000 0.000000 0.500000
O O9 0.983534 0.629406 0.526175
O O10 0.813665 0.655150 0.158205
O O11 0.000000 0.500000 0.500000
O O12 0.740772 0.347754 0.759143
O O13 0.825809 0.694882 0.498658
O O14 0.000000 0.500000 0.000000
O O15 0.372457 0.593428 0.707110
O O16 0.511063 0.958267 0.242617
O O17 0.558013 0.688795 0.865612
O O18 0.000000 0.000000 0.000000
#
# Coordination Sequence:
#
# PCOD9049963 Si02
#       8
#     2   2   2   2   2   2   2   2
#     4  11  23  45  70  98 136 181 225 278 344 408
#     4  11  23  40  68  98 138 175 220 283 346 405
#     4  12  26  41  71 105 135 177 223 284 351 407
#     4  11  24  43  66 100 143 166 219 286 347 404
#     4  10  24  48  70  90 139 187 232 282 330 398
#     4  10  25  39  65 101 134 178 219 273 346 408
#     4  11  25  43  67 100 132 181 230 277 334 404
#     4  10  25  44  68 102 137 179 234 281 336 402
#
# _framework density 24.342141999999999
#
# number of rings (size 3 to 8) (size 9 to 14) (size 15 to 20)
#    0.000    1.250    1.250    3.375   15.750    0.500 
#    4.500    0.625    0.000    0.000    0.000    0.000 
#    0.000    0.000    0.000    0.000    0.000    0.000 
#
# Total GULP energy -89129.126091 kJ/mol
# GULP energy per Si atom -5570.570381 kJ/mol
# Density = 2.428674 g / cm^3
# Si number density = 24.342142 Si / 1000 Ang^3
#
#
#
# Elastic Constant Matrix: (Units=GPa)
#
#
# Indices 1 2 3 4 5 6 
#
# 1 93.7776 11.3703 25.4978 24.9652 13.6067 -23.1375
# 2 11.3703 72.1504 33.0940 19.7722 -2.1127 -15.3725
# 3 25.4978 33.0940 128.8566 15.5916 4.1613 -4.8285
# 4 24.9652 19.7722 15.5916 53.1797 5.1185 -5.3871
# 5 13.6067 -2.1127 4.1613 5.1185 33.9097 0.8250
# 6 -23.1375 -15.3725 -4.8285 -5.3871 0.8250 33.1132
#
#
#
# Elastic Compliance Matrix: (Units=1/GPa)
#
#
# Indices 1 2 3 4 5 6 
#
# 1 0.016256 0.002536 -0.002524 -0.006170 -0.005399 0.011299
# 2 0.002536 0.019129 -0.004369 -0.006252 0.001436 0.008962
# 3 -0.002524 -0.004369 0.009318 -0.000140 -0.000322 -0.002447
# 4 -0.006170 -0.006252 -0.000140 0.023867 -0.001418 -0.003316
# 5 -0.005399 0.001436 -0.000322 -0.001418 0.032101 -0.004183
# 6 0.011299 0.008962 -0.002447 -0.003316 -0.004183 0.041463
#
#
# Mechanical properties :
#
#
# Convention : Reuss Voigt Hill
#
# Bulk Modulus (GPa) = 27.78599 48.30098 38.04348
# Shear Modulus (GPa) = 30.70449 39.02871 34.86660
#
# Velocity S-wave (km/s) = 3.55543 4.00852 3.78875
# Velocity P-wave (km/s) = 5.31924 6.42728 5.89933
#
# Compressibility (1/GPa) = 0.03598937
#
# Stress axis : x y z
#
# Youngs Moduli (GPa) = 61.51657 52.27641 107.32456
#
# Poissons Ratio (x) = -0.13256 0.27085
# Poissons Ratio (y) = -0.15599 0.46887
# Poissons Ratio (z) = 0.15524 0.22838
#
# Static dielectric constant tensor:
#      x y z
#    x 1.986230 0.094580 0.027630 
#    y 0.094580 2.023710 0.000510 
#    z 0.027630 0.000510 2.358850 
# 
# From -- ./inp_files/278691.got.cif
#   From: 2010.05.17/outbox.cif.g08.bks.cpg/sg2_140_cif.got.tgz:278691.got - 2010.06.03 11:33:40.
