data_PCOD9049293
_publ_section_title
;
Structure prediction by ZEFSAII (Michael W. Deem and Ramdas Pophale) SiO2 
 PCOD9049293
Probable space group: P -1
;
_chemical_formula_sum "Si O2"
_cell_formula_units_Z 12
_cell_length_a 7.316894
_cell_length_b 12.396659
_cell_length_c 11.291271
_cell_angle_alpha 37.571517
_cell_angle_beta 47.377997
_cell_angle_gamma 55.745424
_cell_volume 458.742714
_symmetry_space_group_name_H-M "P -1"
_symmetry_group_IT_number 2
_symmetry_cell_setting 'triclinic'
loop_
_space_group_symop_operation_xyz
x,y,z
-x,-y,-z
loop_
_atom_site_type_symbol
_atom_site_label
_atom_site_fract_x
_atom_site_fract_y
_atom_site_fract_z
Si Si1 0.713550 0.220520 0.883553
Si Si2 0.471395 0.290712 0.697246
Si Si3 0.221550 0.833116 0.680031
Si Si4 0.010354 0.786080 0.564697
Si Si5 0.265521 0.151038 0.684455
Si Si6 0.230519 0.559726 0.113751
O O1 0.491694 0.237169 0.871858
O O2 0.737168 0.391637 0.805791
O O3 0.983670 0.184625 0.734244
O O4 0.683727 0.054982 0.126642
O O5 0.500000 0.500000 0.500000
O O6 0.712452 0.186011 0.626080
O O7 0.264396 0.246106 0.731991
O O8 0.043798 0.775446 0.701401
O O9 0.492726 0.205828 0.455526
O O10 0.157002 0.729560 0.916374
O O11 0.171759 0.044333 0.531330
O O12 0.936204 0.600894 0.705350
O O13 0.500000 0.500000 0.000000
#
# Coordination Sequence:
#
# PCOD9049293 Si02
#       6
#     2   2   2   2   2   2
#     4  11  26  44  71 106 135 183 234 284 352 411
#     4  11  25  45  71 101 141 184 230 290 348 412
#     4  10  24  48  72 101 139 187 231 283 354 407
#     4  10  24  46  72 100 138 187 233 288 341 420
#     4  10  24  47  73  99 139 183 231 290 339 422
#     4  12  27  42  70 105 141 181 230 291 346 416
#
# _framework density 26.158455
#
# number of rings (size 3 to 8) (size 9 to 14) (size 15 to 20)
#    0.000    1.333    0.000    3.000   11.667    2.667 
#   15.000    0.000    0.000    0.000    0.000    0.000 
#    0.000    0.000    0.000    0.000    0.000    0.000 
#
# Total GULP energy -67283.094336 kJ/mol
# GULP energy per Si atom -5606.924528 kJ/mol
# Density = 2.609892 g / cm^3
# Si number density = 26.158455 Si / 1000 Ang^3
#
#
#
# Elastic Constant Matrix: (Units=GPa)
#
#
# Indices 1 2 3 4 5 6 
#
# 1 93.1843 9.4841 17.9646 -1.2382 10.9528 21.0444
# 2 9.4841 98.8411 17.7294 -0.9032 1.6624 12.1785
# 3 17.9646 17.7294 109.4522 -4.9708 9.1027 8.9242
# 4 -1.2382 -0.9032 -4.9708 39.6114 3.8004 -11.3204
# 5 10.9528 1.6624 9.1027 3.8004 42.8354 -0.6119
# 6 21.0444 12.1785 8.9242 -11.3204 -0.6119 62.2880
#
#
#
# Elastic Compliance Matrix: (Units=1/GPa)
#
#
# Indices 1 2 3 4 5 6 
#
# 1 0.012275 -0.000386 -0.001421 -0.000682 -0.002819 -0.004020
# 2 -0.000386 0.010649 -0.001538 -0.000485 0.000029 -0.001819
# 3 -0.001421 -0.001538 0.009857 0.001206 -0.001785 -0.000430
# 4 -0.000682 -0.000485 0.001206 0.027034 -0.002390 0.005042
# 5 -0.002819 0.000029 -0.001785 -0.002390 0.024670 0.001010
# 6 -0.004020 -0.001819 -0.000430 0.005042 0.001010 0.018756
#
#
# Mechanical properties :
#
#
# Convention : Reuss Voigt Hill
#
# Bulk Modulus (GPa) = 38.32773 43.53711 40.93242
# Shear Modulus (GPa) = 42.14817 46.03359 44.09088
#
# Velocity S-wave (km/s) = 4.01841 4.19955 4.10998
# Velocity P-wave (km/s) = 6.01782 6.33993 6.18097
#
# Compressibility (1/GPa) = 0.02609077
#
# Stress axis : x y z
#
# Youngs Moduli (GPa) = 81.46863 93.90226 101.45121
#
# Poissons Ratio (x) = 0.03629 0.14415
# Poissons Ratio (y) = 0.03149 0.15600
# Poissons Ratio (z) = 0.11576 0.14440
#
# Static dielectric constant tensor:
#      x y z
#    x 2.619180 0.139080 -0.111050 
#    y 0.139080 2.048810 -0.005480 
#    z -0.111050 -0.005480 2.051190 
# 
# From -- ./inp_files/21482.got.cif
#   From: 2010.05.17/outbox.cif.g08.bks.cpg/sg2_11_cif.got.tgz:21482.got - 2010.06.03 11:33:40.
