data_PCOD9049719
_publ_section_title
;
Structure prediction by ZEFSAII (Michael W. Deem and Ramdas Pophale) SiO2 
 PCOD9049719
Probable space group: P -1
;
_chemical_formula_sum "Si O2"
_cell_formula_units_Z 14
_cell_length_a 7.421858
_cell_length_b 20.510675
_cell_length_c 16.439469
_cell_angle_alpha 159.991767
_cell_angle_beta 135.479487
_cell_angle_gamma 53.097143
_cell_volume 574.627434
_symmetry_space_group_name_H-M "P -1"
_symmetry_group_IT_number 2
_symmetry_cell_setting 'triclinic'
loop_
_space_group_symop_operation_xyz
x,y,z
-x,-y,-z
loop_
_atom_site_type_symbol
_atom_site_label
_atom_site_fract_x
_atom_site_fract_y
_atom_site_fract_z
Si Si1 0.069955 0.819121 0.527273
Si Si2 0.435424 0.494150 0.832476
Si Si3 0.508370 0.230189 0.130370
Si Si4 0.490650 0.777811 0.338070
Si Si5 0.929688 0.765073 0.718034
Si Si6 0.402474 0.587599 0.447626
Si Si7 0.772471 0.871369 0.332460
O O1 0.177663 0.641612 0.384792
O O2 0.816660 0.839009 0.521586
O O3 0.934032 0.809072 0.384850
O O4 0.330423 0.007235 0.826468
O O5 0.594897 0.352148 0.759562
O O6 0.183128 0.353826 0.540238
O O7 0.398729 0.630878 0.058002
O O8 0.576392 0.653982 0.996103
O O9 0.342384 0.355617 0.176878
O O10 0.585168 0.315379 0.345212
O O11 0.778966 0.260415 0.201194
O O12 0.398961 0.973564 0.525858
O O13 0.694928 0.686280 0.616294
O O14 0.000000 0.000000 0.000000
O O15 0.000000 0.000000 0.500000
#
# Coordination Sequence:
#
# PCOD9049719 Si02
#       7
#     2   2   2   2   2   2   2
#     4  11  23  44  72 103 142 189 237 302 367 433
#     4  10  24  47  72 106 145 194 242 300 368 433
#     4  11  26  47  72 109 143 194 244 307 364 437
#     4  10  24  47  77 105 144 193 244 302 374 442
#     4  12  26  47  76 108 154 198 247 304 367 437
#     4  11  26  45  72 106 143 193 250 297 367 436
#     4  11  27  46  73 113 146 185 244 306 376 440
#
# _framework density 24.363613000000001
#
# number of rings (size 3 to 8) (size 9 to 14) (size 15 to 20)
#    0.000    1.143    1.429    3.429    6.000    9.714 
#    0.000    0.000    0.000    0.000    0.000    0.000 
#    0.000    0.000    0.000    0.000    0.000    0.000 
#
# Total GULP energy -78244.601384 kJ/mol
# GULP energy per Si atom -5588.900099 kJ/mol
# Density = 2.430816 g / cm^3
# Si number density = 24.363613 Si / 1000 Ang^3
#
#
#
# Elastic Constant Matrix: (Units=GPa)
#
#
# Indices 1 2 3 4 5 6 
#
# 1 115.1799 40.8300 15.7103 10.1883 30.6799 -13.1342
# 2 40.8300 176.2994 43.4955 32.1585 1.1147 -20.5310
# 3 15.7103 43.4955 106.9343 13.1515 14.9500 -3.5567
# 4 10.1883 32.1585 13.1515 31.0059 6.6820 5.3502
# 5 30.6799 1.1147 14.9500 6.6820 22.3757 9.9598
# 6 -13.1342 -20.5310 -3.5567 5.3502 9.9598 38.2153
#
#
#
# Elastic Compliance Matrix: (Units=1/GPa)
#
#
# Indices 1 2 3 4 5 6 
#
# 1 0.022270 -0.004388 0.004628 0.001311 -0.041026 0.016236
# 2 -0.004388 0.009374 -0.003305 -0.009303 0.009642 0.002010
# 3 0.004628 -0.003305 0.012649 -0.000775 -0.016844 0.005491
# 4 0.001311 -0.009303 -0.000775 0.045533 -0.010768 -0.008188
# 5 -0.041026 0.009642 -0.016844 -0.010768 0.134538 -0.044044
# 6 0.016236 0.002010 0.005491 -0.008188 -0.044044 0.045964
#
#
# Mechanical properties :
#
#
# Convention : Reuss Voigt Hill
#
# Bulk Modulus (GPa) = 26.20444 66.49837 46.35140
# Shear Modulus (GPa) = 17.29035 38.21124 27.75080
#
# Velocity S-wave (km/s) = 2.66687 3.96457 3.37861
# Velocity P-wave (km/s) = 4.50132 6.95057 5.85544
#
# Compressibility (1/GPa) = 0.03816148
#
# Stress axis : x y z
#
# Youngs Moduli (GPa) = 44.90368 106.67831 79.05859
#
# Poissons Ratio (x) = 0.46813 -0.36586
# Poissons Ratio (y) = 0.19705 0.26129
# Poissons Ratio (z) = -0.20780 0.35258
#
# Static dielectric constant tensor:
#      x y z
#    x 2.262580 0.028150 0.227020 
#    y 0.028150 1.924610 0.016770 
#    z 0.227020 0.016770 2.164470 
# 
# From -- ./inp_files/562846.got.cif
#   From: 2010.05.17/outbox.cif.g08.bks.cpg/sg2_282_cif.got.tgz:562846.got - 2010.06.03 11:33:40.
