data_PCOD9049436
_publ_section_title
;
Structure prediction by ZEFSAII (Michael W. Deem and Ramdas Pophale) SiO2 
 PCOD9049436
Probable space group: P -1
;
_chemical_formula_sum "Si O2"
_cell_formula_units_Z 13
_cell_length_a 5.575836
_cell_length_b 21.837136
_cell_length_c 4.879338
_cell_angle_alpha 84.656175
_cell_angle_beta 82.085155
_cell_angle_gamma 117.514153
_cell_volume 513.518903
_symmetry_space_group_name_H-M "P -1"
_symmetry_group_IT_number 2
_symmetry_cell_setting 'triclinic'
loop_
_space_group_symop_operation_xyz
x,y,z
-x,-y,-z
loop_
_atom_site_type_symbol
_atom_site_label
_atom_site_fract_x
_atom_site_fract_y
_atom_site_fract_z
Si Si1 0.443132 0.168761 0.340142
Si Si2 0.020195 0.726265 0.461505
Si Si3 0.863147 0.397269 0.588025
Si Si4 0.526659 0.391433 0.143653
Si Si5 0.859203 0.821138 0.094480
Si Si6 0.500000 0.500000 0.500000
Si Si7 0.426863 0.948090 0.783023
O O1 0.237901 0.154721 0.630099
O O2 0.415670 0.097266 0.252858
O O3 0.740703 0.216683 0.409450
O O4 0.377066 0.206540 0.086270
O O5 0.749014 0.679268 0.704715
O O6 0.945511 0.765739 0.221574
O O7 0.118799 0.673672 0.341501
O O8 0.774130 0.394075 0.287669
O O9 0.158030 0.460261 0.593482
O O10 0.620505 0.399851 0.809019
O O11 0.472388 0.451514 0.252951
O O12 0.112874 0.887532 0.889283
O O13 0.500000 0.000000 0.500000
O O14 0.500000 0.000000 0.000000
#
# Coordination Sequence:
#
# PCOD9049436 Si02
#       7
#     2   2   2   2   2   1   2
#     4  12  27  47  75 106 144 192 240 296 363 431
#     4  11  27  47  72 108 149 190 242 300 359 432
#     4  11  26  45  72 106 145 190 240 296 359 424
#     4  11  26  45  72 106 145 190 240 296 359 424
#     4  12  27  47  75 106 144 192 240 296 363 431
#     4  10  24  46  74 104 144 190 242 298 352 424
#     4  12  27  48  73 106 143 185 242 299 355 430
#
# _framework density 25.315522000000001
#
# number of rings (size 3 to 8) (size 9 to 14) (size 15 to 20)
#    0.000    0.615    0.000    6.462    0.000   22.154 
#    0.000    0.000    0.000    1.846    0.000    0.000 
#    0.000    0.000    0.000    0.000    0.000    0.000 
#
# Total GULP energy -72741.572477 kJ/mol
# GULP energy per Si atom -5595.505575 kJ/mol
# Density = 2.525790 g / cm^3
# Si number density = 25.315522 Si / 1000 Ang^3
#
#
#
# Elastic Constant Matrix: (Units=GPa)
#
#
# Indices 1 2 3 4 5 6 
#
# 1 68.8348 22.3010 34.5641 -3.3543 4.6537 -15.1745
# 2 22.3010 127.4441 41.9048 6.1917 1.4208 -22.5734
# 3 34.5641 41.9048 159.7219 1.7523 6.0747 -0.8138
# 4 -3.3543 6.1917 1.7523 48.3929 -2.1582 -18.1684
# 5 4.6537 1.4208 6.0747 -2.1582 57.4390 2.2393
# 6 -15.1745 -22.5734 -0.8138 -18.1684 2.2393 34.8388
#
#
#
# Elastic Compliance Matrix: (Units=1/GPa)
#
#
# Indices 1 2 3 4 5 6 
#
# 1 0.019549 -0.000341 -0.004094 0.005716 -0.001367 0.011266
# 2 -0.000341 0.009890 -0.002494 0.001400 -0.000171 0.006942
# 3 -0.004094 -0.002494 0.007813 -0.001818 -0.000340 -0.004143
# 4 0.005716 0.001400 -0.001818 0.027614 0.000040 0.017752
# 5 -0.001367 -0.000171 -0.000340 0.000040 0.017633 -0.001827
# 6 0.011266 0.006942 -0.004143 0.017752 -0.001827 0.047387
#
#
# Mechanical properties :
#
#
# Convention : Reuss Voigt Hill
#
# Bulk Modulus (GPa) = 42.74998 61.50451 52.12725
# Shear Modulus (GPa) = 32.99390 45.28287 39.13839
#
# Velocity S-wave (km/s) = 3.61405 4.23394 3.93622
# Velocity P-wave (km/s) = 5.85992 6.94619 6.42605
#
# Compressibility (1/GPa) = 0.02339182
#
# Stress axis : x y z
#
# Youngs Moduli (GPa) = 51.15476 101.11198 127.99142
#
# Poissons Ratio (x) = 0.03453 0.52401
# Poissons Ratio (y) = 0.01747 0.31925
# Poissons Ratio (z) = 0.20943 0.25221
#
# Static dielectric constant tensor:
#      x y z
#    x 2.007470 -0.059410 -0.026880 
#    y -0.059410 2.026870 -0.052280 
#    z -0.026880 -0.052280 1.916400 
# 
# From -- ./inp_files/8815.got.cif
#   From: 2010.05.17/outbox.cif.g08.bks.cpg/sg2_5_cif.got.tgz:8815.got - 2010.06.03 11:33:40.
