data_PCOD9049409
_publ_section_title
;
Structure prediction by ZEFSAII (Michael W. Deem and Ramdas Pophale) SiO2 
 PCOD9049409
Probable space group: P -1
;
_chemical_formula_sum "Si O2"
_cell_formula_units_Z 16
_cell_length_a 5.901516
_cell_length_b 17.699057
_cell_length_c 20.605498
_cell_angle_alpha 19.038055
_cell_angle_beta 73.763110
_cell_angle_gamma 71.311470
_cell_volume 663.154174
_symmetry_space_group_name_H-M "P -1"
_symmetry_group_IT_number 2
_symmetry_cell_setting 'triclinic'
loop_
_space_group_symop_operation_xyz
x,y,z
-x,-y,-z
loop_
_atom_site_type_symbol
_atom_site_label
_atom_site_fract_x
_atom_site_fract_y
_atom_site_fract_z
Si Si1 0.099248 0.635750 0.440823
Si Si2 0.712956 0.608784 0.698735
Si Si3 0.710703 0.072326 0.115362
Si Si4 0.439506 0.968257 0.104715
Si Si5 0.528734 0.705566 0.779404
Si Si6 0.185795 0.480587 0.701037
Si Si7 0.388945 0.898598 0.384299
Si Si8 0.972767 0.780657 0.763365
O O1 0.116078 0.481609 0.630093
O O2 0.000000 0.500000 0.500000
O O3 0.330180 0.736767 0.315082
O O4 0.934507 0.883182 0.275195
O O5 0.621045 0.619259 0.770867
O O6 0.554555 0.808521 0.505936
O O7 0.989727 0.613730 0.658917
O O8 0.711238 0.345974 0.885836
O O9 0.660848 0.970866 0.131824
O O10 0.506183 0.052269 0.199701
O O11 0.265659 0.215850 0.933600
O O12 0.500000 0.000000 0.000000
O O13 0.246023 0.828428 0.693642
O O14 0.752181 0.820321 0.696220
O O15 0.500000 0.500000 0.000000
O O16 0.377177 0.653830 0.547466
O O17 0.146604 0.063440 0.293816
O O18 0.000000 0.500000 0.000000
#
# Coordination Sequence:
#
# PCOD9049409 Si02
#       8
#     2   2   2   2   2   2   2   2
#     4  12  28  46  74 106 150 196 246 312 380 460
#     4  12  27  46  78 107 148 197 257 319 382 462
#     4  12  25  48  72 106 146 196 248 308 382 450
#     4  12  28  46  74 106 150 196 246 312 380 460
#     4  10  24  46  73 108 152 201 257 313 391 464
#     4  12  27  48  72 114 148 194 260 312 384 462
#     4  12  27  46  78 107 148 197 257 319 382 462
#     4  10  24  46  73 108 152 201 257 313 391 464
#
# _framework density 24.127123000000001
#
# number of rings (size 3 to 8) (size 9 to 14) (size 15 to 20)
#    0.000    0.500    5.000    2.250    7.000    7.000 
#    0.000    0.000    0.000    0.000    0.000    0.000 
#    0.000    0.000    0.000    0.000    0.000    0.000 
#
# Total GULP energy -89361.648975 kJ/mol
# GULP energy per Si atom -5585.103061 kJ/mol
# Density = 2.407221 g / cm^3
# Si number density = 24.127123 Si / 1000 Ang^3
#
#
#
# Elastic Constant Matrix: (Units=GPa)
#
#
# Indices 1 2 3 4 5 6 
#
# 1 78.2703 12.1842 4.9270 -5.3143 1.3499 -7.4413
# 2 12.1842 98.3972 -4.8712 7.8171 5.8513 -10.2710
# 3 4.9270 -4.8712 103.1104 -2.7704 12.5201 -8.6345
# 4 -5.3143 7.8171 -2.7704 47.8926 -0.3878 4.8648
# 5 1.3499 5.8513 12.5201 -0.3878 36.1764 -10.2412
# 6 -7.4413 -10.2710 -8.6345 4.8648 -10.2412 39.5119
#
#
#
# Elastic Compliance Matrix: (Units=1/GPa)
#
#
# Indices 1 2 3 4 5 6 
#
# 1 0.013343 -0.001634 -0.000577 0.001524 0.000523 0.001910
# 2 -0.001634 0.010941 0.000917 -0.002196 -0.001293 0.002672
# 3 -0.000577 0.000917 0.010297 0.000202 -0.003261 0.001510
# 4 0.001524 -0.002196 0.000202 0.021722 -0.000393 -0.003016
# 5 0.000523 -0.001293 -0.003261 -0.000393 0.030974 0.007126
# 6 0.001910 0.002672 0.001510 -0.003016 0.007126 0.028911
#
#
# Mechanical properties :
#
#
# Convention : Reuss Voigt Hill
#
# Bulk Modulus (GPa) = 31.25769 33.80645 32.53207
# Shear Modulus (GPa) = 38.62765 42.55204 40.58985
#
# Velocity S-wave (km/s) = 4.00560 4.20415 4.10607
# Velocity P-wave (km/s) = 5.86316 6.13260 5.99939
#
# Compressibility (1/GPa) = 0.03199213
#
# Stress axis : x y z
#
# Youngs Moduli (GPa) = 74.94602 91.40099 97.11531
#
# Poissons Ratio (x) = 0.14931 0.05607
# Poissons Ratio (y) = 0.12243 -0.08902
# Poissons Ratio (z) = 0.04327 -0.08379
#
# Static dielectric constant tensor:
#      x y z
#    x 2.036360 -0.036130 -0.020160 
#    y -0.036130 1.912900 -0.024730 
#    z -0.020160 -0.024730 1.880060 
# 
# From -- ./inp_files/584015.got.cif
#   From: 2010.05.17/outbox.cif.g08.bks.cpg/sg2_293_cif.got.tgz:584015.got - 2010.06.03 11:33:40.
