data_PCOD9049429
_publ_section_title
;
Structure prediction by ZEFSAII (Michael W. Deem and Ramdas Pophale) SiO2 
 PCOD9049429
Probable space group: P -1
;
_chemical_formula_sum "Si O2"
_cell_formula_units_Z 14
_cell_length_a 24.903989
_cell_length_b 9.432470
_cell_length_c 5.445923
_cell_angle_alpha 106.586897
_cell_angle_beta 70.085930
_cell_angle_gamma 153.024497
_cell_volume 545.104280
_symmetry_space_group_name_H-M "P -1"
_symmetry_group_IT_number 2
_symmetry_cell_setting 'triclinic'
loop_
_space_group_symop_operation_xyz
x,y,z
-x,-y,-z
loop_
_atom_site_type_symbol
_atom_site_label
_atom_site_fract_x
_atom_site_fract_y
_atom_site_fract_z
Si Si1 0.604633 0.176379 0.098504
Si Si2 0.386417 0.128791 0.961129
Si Si3 0.064594 0.257887 0.840271
Si Si4 0.176966 0.287965 0.336252
Si Si5 0.356197 0.169532 0.522310
Si Si6 0.991605 0.383009 0.202291
Si Si7 0.265750 0.281981 0.564143
O O1 0.729527 0.446834 0.883829
O O2 0.572167 0.946094 0.157704
O O3 0.636736 0.375838 0.339294
O O4 0.500000 0.000000 0.000000
O O5 0.322763 0.992003 0.257279
O O6 0.500000 0.500000 0.000000
O O7 0.315595 0.022117 0.778972
O O8 0.167427 0.394011 0.614322
O O9 0.961310 0.054480 0.696548
O O10 0.081665 0.449931 0.056858
O O11 0.000000 0.000000 0.000000
O O12 0.228974 0.250484 0.335397
O O13 0.500000 0.500000 0.500000
O O14 0.314755 0.234191 0.529284
O O15 0.000000 0.500000 0.500000
O O16 0.861126 0.005804 0.236655
O O17 0.000000 0.500000 0.000000
#
# Coordination Sequence:
#
# PCOD9049429 Si02
#       7
#     2   2   2   2   2   2   2
#     4  12  27  46  82 115 160 218 277 339 406 500
#     4  10  24  47  68 107 149 203 259 324 401 463
#     4  11  23  51  81 111 163 210 275 343 411 503
#     4  11  25  45  83 114 161 214 281 338 414 482
#     4  10  24  46  74 102 155 203 254 327 396 476
#     4  12  28  50  78 120 159 210 266 349 422 484
#     4  12  27  50  75 115 157 213 276 332 409 499
#
# _framework density 25.683157999999999
#
# number of rings (size 3 to 8) (size 9 to 14) (size 15 to 20)
#    0.000    0.857    2.857    2.571   10.000    1.714 
#    5.143    0.000    0.000    0.000    0.000    0.000 
#    0.000    0.000    0.000    0.000    0.000    0.000 
#
# Total GULP energy -78331.545387 kJ/mol
# GULP energy per Si atom -5595.110385 kJ/mol
# Density = 2.562470 g / cm^3
# Si number density = 25.683158 Si / 1000 Ang^3
#
#
#
# Elastic Constant Matrix: (Units=GPa)
#
#
# Indices 1 2 3 4 5 6 
#
# 1 176.3447 30.9198 48.3826 19.1355 9.1585 -21.6831
# 2 30.9198 100.0286 13.0895 4.3856 2.2626 -9.1762
# 3 48.3826 13.0895 152.0836 12.4509 5.1493 -12.4506
# 4 19.1355 4.3856 12.4509 41.3515 2.8553 -1.6437
# 5 9.1585 2.2626 5.1493 2.8553 57.0575 -3.1530
# 6 -21.6831 -9.1762 -12.4506 -1.6437 -3.1530 55.3114
#
#
#
# Elastic Compliance Matrix: (Units=1/GPa)
#
#
# Indices 1 2 3 4 5 6 
#
# 1 0.006959 -0.001628 -0.001692 -0.002414 -0.000670 0.001967
# 2 -0.001628 0.010647 -0.000290 -0.000242 -0.000064 0.001052
# 3 -0.001692 -0.000290 0.007330 -0.001340 -0.000262 0.000884
# 4 -0.002414 -0.000242 -0.001340 0.025762 -0.000803 -0.000568
# 5 -0.000670 -0.000064 -0.000262 -0.000803 0.017736 0.000655
# 6 0.001967 0.001052 0.000884 -0.000568 0.000655 0.019244
#
#
# Mechanical properties :
#
#
# Convention : Reuss Voigt Hill
#
# Bulk Modulus (GPa) = 56.45297 68.13786 62.29542
# Shear Modulus (GPa) = 49.60086 53.14843 51.37464
#
# Velocity S-wave (km/s) = 4.39938 4.55399 4.47735
# Velocity P-wave (km/s) = 6.91623 7.36475 7.14401
#
# Compressibility (1/GPa) = 0.01771386
#
# Stress axis : x y z
#
# Youngs Moduli (GPa) = 143.69611 93.92328 136.43250
#
# Poissons Ratio (x) = 0.15293 0.23091
# Poissons Ratio (y) = 0.23397 0.03960
# Poissons Ratio (z) = 0.24320 0.02726
#
# Static dielectric constant tensor:
#      x y z
#    x 2.134180 0.009500 0.002230 
#    y 0.009500 3.536400 -0.621510 
#    z 0.002230 -0.621510 2.393990 
# 
# From -- ./inp_files/122939.got.cif
#   From: 2010.05.17/outbox.cif.g08.bks.cpg/sg2_62_cif.got.tgz:122939.got - 2010.06.03 11:33:40.
