data_PCOD9049230
_publ_section_title
;
Structure prediction by ZEFSAII (Michael W. Deem and Ramdas Pophale) SiO2 
 PCOD9049230
Probable space group: P -1
;
_chemical_formula_sum "Si O2"
_cell_formula_units_Z 14
_cell_length_a 12.930832
_cell_length_b 9.179075
_cell_length_c 9.154998
_cell_angle_alpha 135.659936
_cell_angle_beta 75.758037
_cell_angle_gamma 123.445240
_cell_volume 612.916386
_symmetry_space_group_name_H-M "P -1"
_symmetry_group_IT_number 2
_symmetry_cell_setting 'triclinic'
loop_
_space_group_symop_operation_xyz
x,y,z
-x,-y,-z
loop_
_atom_site_type_symbol
_atom_site_label
_atom_site_fract_x
_atom_site_fract_y
_atom_site_fract_z
Si Si1 0.644709 0.426230 0.500986
Si Si2 0.267070 0.177709 0.476687
Si Si3 0.941936 0.271983 0.968754
Si Si4 0.424495 0.948844 0.338162
Si Si5 0.632690 0.556580 0.930592
Si Si6 0.079159 0.463468 0.567129
Si Si7 0.127470 0.114315 0.760214
O O1 0.640167 0.575036 0.471361
O O2 0.536937 0.129713 0.315814
O O3 0.625351 0.518474 0.731166
O O4 0.787518 0.486776 0.497923
O O5 0.333963 0.052333 0.440534
O O6 0.192527 0.225597 0.660565
O O7 0.168743 0.975412 0.249958
O O8 0.053139 0.228371 0.936917
O O9 0.893437 0.348091 0.177119
O O10 0.000000 0.500000 0.000000
O O11 0.500000 0.000000 0.500000
O O12 0.350677 0.650856 0.142786
O O13 0.500000 0.500000 0.000000
O O14 0.756539 0.822269 0.126697
O O15 0.000000 0.500000 0.500000
O O16 0.979723 0.175390 0.440814
#
# Coordination Sequence:
#
# PCOD9049230 Si02
#       7
#     2   2   2   2   2   2   2
#     4  11  25  46  71 107 145 181 247 302 355 423
#     4  12  24  45  74 107 144 187 240 305 357 428
#     4  12  24  44  68 104 146 190 236 287 369 423
#     4  10  24  46  71 100 139 188 238 291 361 431
#     4  11  26  46  74 102 142 194 240 299 361 430
#     4  12  28  43  73 108 148 193 237 299 355 434
#     4  12  25  46  71 105 149 190 242 291 364 429
#
# _framework density 22.841616999999999
#
# number of rings (size 3 to 8) (size 9 to 14) (size 15 to 20)
#    0.000    0.571    2.857    5.143    8.000    1.143 
#    0.000    2.143    0.000    0.000    0.000    0.000 
#    0.000    0.000    0.000    0.000    0.000    0.000 
#
# Total GULP energy -78335.670613 kJ/mol
# GULP energy per Si atom -5595.405044 kJ/mol
# Density = 2.278963 g / cm^3
# Si number density = 22.841617 Si / 1000 Ang^3
#
#
#
# Elastic Constant Matrix: (Units=GPa)
#
#
# Indices 1 2 3 4 5 6 
#
# 1 113.8293 -7.7261 6.2383 -8.3126 -18.5146 10.0188
# 2 -7.7261 88.0880 0.0631 -2.4197 -20.9093 0.3555
# 3 6.2383 0.0631 81.8897 -14.8612 -8.7373 15.2669
# 4 -8.3126 -2.4197 -14.8612 37.2350 12.0629 -2.6028
# 5 -18.5146 -20.9093 -8.7373 12.0629 32.6842 1.8907
# 6 10.0188 0.3555 15.2669 -2.6028 1.8907 44.0845
#
#
#
# Elastic Compliance Matrix: (Units=1/GPa)
#
#
# Indices 1 2 3 4 5 6 
#
# 1 0.010532 0.002872 0.000609 -0.000073 0.008165 -0.002982
# 2 0.002872 0.014391 0.001005 -0.002015 0.011947 -0.001748
# 3 0.000609 0.001005 0.014264 0.004427 0.003455 -0.004973
# 4 -0.000073 -0.002015 0.004427 0.032492 -0.012193 0.000941
# 5 0.008165 0.011947 0.003455 -0.012193 0.048632 -0.005954
# 6 -0.002982 -0.001748 -0.004973 0.000941 -0.005954 0.025409
#
#
# Mechanical properties :
#
#
# Convention : Reuss Voigt Hill
#
# Bulk Modulus (GPa) = 20.76490 31.21753 25.99122
# Shear Modulus (GPa) = 32.72249 41.81617 37.26933
#
# Velocity S-wave (km/s) = 3.78905 4.28331 4.04374
# Velocity P-wave (km/s) = 5.31537 6.17729 5.76247
#
# Compressibility (1/GPa) = 0.04815819
#
# Stress axis : x y z
#
# Youngs Moduli (GPa) = 94.95002 69.48860 70.10876
#
# Poissons Ratio (x) = -0.19954 -0.04273
# Poissons Ratio (y) = -0.27265 -0.07046
# Poissons Ratio (z) = -0.05787 -0.06984
#
# Static dielectric constant tensor:
#      x y z
#    x 1.850160 -0.023640 -0.017110 
#    y -0.023640 1.863440 0.020090 
#    z -0.017110 0.020090 1.785390 
# 
# From -- ./inp_files/185515.got.cif
#   From: 2010.05.17/outbox.cif.g08.bks.cpg/sg2_93_cif.got.tgz:185515.got - 2010.06.03 11:33:40.
