data_PCOD9049588
_publ_section_title
;
Structure prediction by ZEFSAII (Michael W. Deem and Ramdas Pophale) SiO2 
 PCOD9049588
Probable space group: P -1
;
_chemical_formula_sum "Si O2"
_cell_formula_units_Z 14
_cell_length_a 8.805809
_cell_length_b 6.657895
_cell_length_c 16.604519
_cell_angle_alpha 119.616604
_cell_angle_beta 50.852022
_cell_angle_gamma 123.959152
_cell_volume 610.845297
_symmetry_space_group_name_H-M "P -1"
_symmetry_group_IT_number 2
_symmetry_cell_setting 'triclinic'
loop_
_space_group_symop_operation_xyz
x,y,z
-x,-y,-z
loop_
_atom_site_type_symbol
_atom_site_label
_atom_site_fract_x
_atom_site_fract_y
_atom_site_fract_z
Si Si1 0.581668 0.859283 0.878400
Si Si2 0.613873 0.542810 0.601678
Si Si3 0.159020 0.920879 0.312932
Si Si4 0.134799 0.751585 0.961949
Si Si5 0.771186 0.437090 0.366296
Si Si6 0.074480 0.918626 0.845797
Si Si7 0.465167 0.670230 0.235478
O O1 0.373115 0.776627 0.874007
O O2 0.594100 0.594254 0.842388
O O3 0.771610 0.029645 0.793806
O O4 0.500000 0.000000 0.000000
O O5 0.684343 0.403150 0.479118
O O6 0.418475 0.601122 0.640445
O O7 0.562148 0.392617 0.672619
O O8 0.796509 0.807573 0.611947
O O9 0.312934 0.805717 0.282778
O O10 0.927850 0.720305 0.359664
O O11 0.041275 0.765317 0.909000
O O12 0.000000 0.500000 0.000000
O O13 0.107637 0.969154 0.069486
O O14 0.892948 0.253716 0.268720
O O15 0.294449 0.152787 0.825718
#
# Coordination Sequence:
#
# PCOD9049588 Si02
#       7
#     2   2   2   2   2   2   2
#     4  11  25  39  62  95 130 171 216 262 320 387
#     4  10  24  47  67  95 131 171 215 271 327 383
#     4  11  24  45  65  96 136 168 212 277 321 383
#     4  11  23  40  62  89 129 172 208 259 321 375
#     4  11  24  44  70  97 128 171 222 266 323 393
#     4  11  23  40  64  95 124 169 217 259 321 386
#     4  11  22  44  66  91 138 170 208 277 325 377
#
# _framework density 22.919060000000002
#
# number of rings (size 3 to 8) (size 9 to 14) (size 15 to 20)
#    0.000    1.143    4.286    1.286    4.000    1.714 
#    2.571    0.000    0.000    0.000    0.000    0.000 
#    0.000    0.000    0.000    0.000    0.000    0.000 
#
# Total GULP energy -78337.388055 kJ/mol
# GULP energy per Si atom -5595.527718 kJ/mol
# Density = 2.286690 g / cm^3
# Si number density = 22.919060 Si / 1000 Ang^3
#
#
#
# Elastic Constant Matrix: (Units=GPa)
#
#
# Indices 1 2 3 4 5 6 
#
# 1 23.9975 11.3386 10.3326 5.1102 6.3757 1.0595
# 2 11.3386 104.1921 25.0478 -14.5271 14.4300 -8.1381
# 3 10.3326 25.0478 126.0123 9.6715 22.6407 -12.9829
# 4 5.1102 -14.5271 9.6715 34.5815 -1.7138 -9.6444
# 5 6.3757 14.4300 22.6407 -1.7138 37.0297 -4.9287
# 6 1.0595 -8.1381 -12.9829 -9.6444 -4.9287 35.9070
#
#
#
# Elastic Compliance Matrix: (Units=1/GPa)
#
#
# Indices 1 2 3 4 5 6 
#
# 1 0.050090 -0.006457 -0.001457 -0.012184 -0.006803 -0.007675
# 2 -0.006457 0.012371 -0.001786 0.007736 -0.001701 0.004193
# 3 -0.001457 -0.001786 0.009694 -0.003026 -0.004899 0.001658
# 4 -0.012184 0.007736 -0.003026 0.038347 0.004294 0.011908
# 5 -0.006803 -0.001701 -0.004899 0.004294 0.032521 0.003661
# 6 -0.007675 0.004193 0.001658 0.011908 0.003661 0.033327
#
#
# Mechanical properties :
#
#
# Convention : Reuss Voigt Hill
#
# Bulk Modulus (GPa) = 18.95531 38.62665 28.79098
# Shear Modulus (GPa) = 23.43738 35.33583 29.38660
#
# Velocity S-wave (km/s) = 3.20130 3.93079 3.58465
# Velocity P-wave (km/s) = 4.68540 6.12304 5.45181
#
# Compressibility (1/GPa) = 0.05275566
#
# Stress axis : x y z
#
# Youngs Moduli (GPa) = 19.96406 80.83259 103.16175
#
# Poissons Ratio (x) = 0.52192 0.15031
# Poissons Ratio (y) = 0.12890 0.18421
# Poissons Ratio (z) = 0.02909 0.14434
#
# Static dielectric constant tensor:
#      x y z
#    x 1.914250 0.029100 0.040350 
#    y 0.029100 1.808350 0.036400 
#    z 0.040350 0.036400 1.860590 
# 
# From -- ./inp_files/27564.got.cif
#   From: 2010.05.17/outbox.cif.g08.bks.cpg/sg2_14_cif.got.tgz:27564.got - 2010.06.03 11:33:40.
