data_PCOD9049973
_publ_section_title
;
Structure prediction by ZEFSAII (Michael W. Deem and Ramdas Pophale) SiO2 
 PCOD9049973
Probable space group: P -1
;
_chemical_formula_sum "Si O2"
_cell_formula_units_Z 16
_cell_length_a 12.751426
_cell_length_b 16.624730
_cell_length_c 8.964097
_cell_angle_alpha 50.904146
_cell_angle_beta 148.643376
_cell_angle_gamma 131.502008
_cell_volume 730.280188
_symmetry_space_group_name_H-M "P -1"
_symmetry_group_IT_number 2
_symmetry_cell_setting 'triclinic'
loop_
_space_group_symop_operation_xyz
x,y,z
-x,-y,-z
loop_
_atom_site_type_symbol
_atom_site_label
_atom_site_fract_x
_atom_site_fract_y
_atom_site_fract_z
Si Si1 0.940766 0.471806 0.133507
Si Si2 0.692104 0.098013 0.685717
Si Si3 0.162595 0.150368 0.119610
Si Si4 0.470285 0.732907 0.160602
Si Si5 0.278253 0.362833 0.215846
Si Si6 0.524261 0.094449 0.799791
Si Si7 0.435772 0.221544 0.088531
Si Si8 0.386587 0.457084 0.758620
O O1 0.141277 0.447038 0.478174
O O2 0.733309 0.367093 0.012367
O O3 0.888651 0.573348 0.028667
O O4 0.000000 0.500000 0.000000
O O5 0.682556 0.094910 0.856405
O O6 0.637507 0.206021 0.438105
O O7 0.500000 0.000000 0.500000
O O8 0.914587 0.095287 0.898378
O O9 0.212240 0.270052 0.117505
O O10 0.304787 0.091057 0.454046
O O11 0.242790 0.164123 0.030901
O O12 0.662104 0.691401 0.500004
O O13 0.409448 0.794592 0.154793
O O14 0.548045 0.813995 0.020335
O O15 0.495026 0.453980 0.323661
O O16 0.500000 0.000000 0.000000
O O17 0.426063 0.342749 0.914197
O O18 0.500000 0.500000 0.000000
#
# Coordination Sequence:
#
# PCOD9049973 Si02
#       8
#     2   2   2   2   2   2   2   2
#     4  12  25  38  67  97 137 193 225 277 344 391
#     4  11  26  49  71  99 133 172 225 284 342 411
#     4  10  25  43  72 100 127 184 219 273 349 402
#     4  11  23  44  66 102 138 179 230 283 336 404
#     4  11  23  43  65  95 142 176 236 275 326 405
#     4  10  24  48  71 100 133 166 223 290 339 407
#     4  11  24  42  66  97 141 171 228 276 329 405
#     4  12  25  41  63 101 142 184 230 280 331 402
#
# _framework density 21.909399000000001
#
# number of rings (size 3 to 8) (size 9 to 14) (size 15 to 20)
#    0.000    1.000    3.750    1.875    5.250    3.000 
#    2.250    0.000    0.000    0.000    0.000    0.000 
#    0.000    0.000    0.000    0.000    0.000    0.000 
#
# Total GULP energy -89500.039832 kJ/mol
# GULP energy per Si atom -5593.752490 kJ/mol
# Density = 2.185953 g / cm^3
# Si number density = 21.909399 Si / 1000 Ang^3
#
#
#
# Elastic Constant Matrix: (Units=GPa)
#
#
# Indices 1 2 3 4 5 6 
#
# 1 153.8582 22.8466 40.4254 8.3820 -9.5030 19.3255
# 2 22.8466 76.1259 32.9893 -1.7040 1.9241 0.9745
# 3 40.4254 32.9893 84.5234 3.8699 2.2981 18.1284
# 4 8.3820 -1.7040 3.8699 34.4649 7.8386 -0.5043
# 5 -9.5030 1.9241 2.2981 7.8386 39.7999 -3.2197
# 6 19.3255 0.9745 18.1284 -0.5043 -3.2197 33.0023
#
#
#
# Elastic Compliance Matrix: (Units=1/GPa)
#
#
# Indices 1 2 3 4 5 6 
#
# 1 0.008041 -0.001346 -0.002628 -0.002305 0.002346 -0.003032
# 2 -0.001346 0.016463 -0.006701 0.002141 -0.000834 0.003934
# 3 -0.002628 -0.006701 0.017548 -0.001395 -0.001697 -0.008089
# 4 -0.002305 0.002141 -0.001395 0.031366 -0.006598 0.001888
# 5 0.002346 -0.000834 -0.001697 -0.006598 0.027297 0.002145
# 6 -0.003032 0.003934 -0.008089 0.001888 0.002145 0.036642
#
#
# Mechanical properties :
#
#
# Convention : Reuss Voigt Hill
#
# Bulk Modulus (GPa) = 48.30591 56.33665 52.32128
# Shear Modulus (GPa) = 30.19174 36.00319 33.09746
#
# Velocity S-wave (km/s) = 3.71621 4.05813 3.89093
# Velocity P-wave (km/s) = 6.36471 6.90849 6.64216
#
# Compressibility (1/GPa) = 0.02070140
#
# Stress axis : x y z
#
# Youngs Moduli (GPa) = 124.35863 60.74409 56.98553
#
# Poissons Ratio (x) = 0.08178 0.14979
# Poissons Ratio (y) = 0.16743 0.38183
# Poissons Ratio (z) = 0.32688 0.40702
#
# Static dielectric constant tensor:
#      x y z
#    x 1.886660 -0.055060 0.006340 
#    y -0.055060 1.845450 -0.042420 
#    z 0.006340 -0.042420 1.781440 
# 
# From -- ./inp_files/106707.got.cif
#   From: 2010.05.17/outbox.cif.g08.bks.cpg/sg2_54_cif.got.tgz:106707.got - 2010.06.03 11:33:40.
