data_PCOD9049033
_publ_section_title
;
Structure prediction by ZEFSAII (Michael W. Deem and Ramdas Pophale) SiO2 
 PCOD9049033
Probable space group: P -1
;
_chemical_formula_sum "Si O2"
_cell_formula_units_Z 12
_cell_length_a 8.583847
_cell_length_b 19.115677
_cell_length_c 7.420833
_cell_angle_alpha 127.430705
_cell_angle_beta 78.373860
_cell_angle_gamma 138.705995
_cell_volume 557.362629
_symmetry_space_group_name_H-M "P -1"
_symmetry_group_IT_number 2
_symmetry_cell_setting 'triclinic'
loop_
_space_group_symop_operation_xyz
x,y,z
-x,-y,-z
loop_
_atom_site_type_symbol
_atom_site_label
_atom_site_fract_x
_atom_site_fract_y
_atom_site_fract_z
Si Si1 0.642234 0.968221 0.419713
Si Si2 0.441191 0.673549 0.707625
Si Si3 0.321116 0.459808 0.143090
Si Si4 0.763197 0.966487 0.991342
Si Si5 0.140014 0.620671 0.003875
Si Si6 0.925111 0.817315 0.047184
O O1 0.730847 0.994811 0.235990
O O2 0.422620 0.795850 0.256720
O O3 0.500000 0.000000 0.500000
O O4 0.907722 0.078878 0.654056
O O5 0.448758 0.592992 0.448555
O O6 0.500576 0.786933 0.750852
O O7 0.190631 0.583847 0.755575
O O8 0.680288 0.765131 0.942755
O O9 0.500000 0.500000 0.000000
O O10 0.213260 0.335882 0.106654
O O11 0.063168 0.391478 0.010866
O O12 0.000000 0.000000 0.000000
O O13 0.846317 0.074268 0.991569
O O14 0.000000 0.500000 0.000000
#
# Coordination Sequence:
#
# PCOD9049033 Si02
#       6
#     2   2   2   2   2   2
#     4  11  24  45  67 104 137 171 230 278 338 404
#     4  10  24  46  67 101 136 178 233 275 338 405
#     4  12  26  44  70  99 138 183 228 280 338 408
#     4   9  23  41  67  98 132 173 222 276 331 398
#     4  11  25  45  68 102 137 183 223 281 340 403
#     4  11  24  44  73  99 136 180 223 281 340 398
#
# _framework density 21.529971
#
# number of rings (size 3 to 8) (size 9 to 14) (size 15 to 20)
#    0.000    1.333    1.667    2.000    7.000    8.000 
#    0.000    0.000    0.000    0.000    0.000    0.000 
#    0.000    0.000    0.000    0.000    0.000    0.000 
#
# Total GULP energy -66945.636472 kJ/mol
# GULP energy per Si atom -5578.803039 kJ/mol
# Density = 2.148097 g / cm^3
# Si number density = 21.529971 Si / 1000 Ang^3
#
#
#
# Elastic Constant Matrix: (Units=GPa)
#
#
# Indices 1 2 3 4 5 6 
#
# 1 114.7422 59.6729 33.2915 7.0944 -25.6848 -18.2614
# 2 59.6729 209.7832 59.9483 -18.6593 -33.3032 -37.2924
# 3 33.2915 59.9483 129.3809 5.4450 -31.4248 6.7923
# 4 7.0944 -18.6593 5.4450 28.2270 18.2327 -10.5671
# 5 -25.6848 -33.3032 -31.4248 18.2327 32.9258 -6.3483
# 6 -18.2614 -37.2924 6.7923 -10.5671 -6.3483 57.0606
#
#
#
# Elastic Compliance Matrix: (Units=1/GPa)
#
#
# Indices 1 2 3 4 5 6 
#
# 1 0.018290 -0.004508 0.006467 -0.029611 0.032325 0.000250
# 2 -0.004508 0.009393 -0.005969 0.015876 -0.007046 0.007562
# 3 0.006467 -0.005969 0.019120 -0.034324 0.034997 -0.006570
# 4 -0.029611 0.015876 -0.034324 0.140538 -0.114092 0.018318
# 5 0.032325 -0.007046 0.034997 -0.114092 0.144367 -0.003493
# 6 0.000250 0.007562 -0.006570 0.018318 -0.003493 0.026334
#
#
# Mechanical properties :
#
#
# Convention : Reuss Voigt Hill
#
# Bulk Modulus (GPa) = 25.78451 84.41463 55.09957
# Shear Modulus (GPa) = 13.19300 43.70891 28.45096
#
# Velocity S-wave (km/s) = 2.47811 4.51060 3.63913
# Velocity P-wave (km/s) = 4.49335 8.14987 6.58067
#
# Compressibility (1/GPa) = 0.03878298
#
# Stress axis : x y z
#
# Youngs Moduli (GPa) = 54.67509 106.46604 52.30045
#
# Poissons Ratio (x) = 0.47998 -0.33823
# Poissons Ratio (y) = 0.24649 0.31216
# Poissons Ratio (z) = -0.35358 0.63545
#
# Static dielectric constant tensor:
#      x y z
#    x 2.003350 -0.284190 -0.018900 
#    y -0.284190 2.229100 0.083590 
#    z -0.018900 0.083590 1.824770 
# 
# From -- ./inp_files/28050.got.cif
#   From: 2010.05.17/outbox.cif.g08.bks.cpg/sg2_15_cif.got.tgz:28050.got - 2010.06.03 11:33:40.
