data_PCOD9049691
_publ_section_title
;
Structure prediction by ZEFSAII (Michael W. Deem and Ramdas Pophale) SiO2 
 PCOD9049691
Probable space group: P -1
;
_chemical_formula_sum "Si O2"
_cell_formula_units_Z 16
_cell_length_a 20.787573
_cell_length_b 17.189024
_cell_length_c 12.745891
_cell_angle_alpha 42.908237
_cell_angle_beta 31.465716
_cell_angle_gamma 20.123636
_cell_volume 756.190511
_symmetry_space_group_name_H-M "P -1"
_symmetry_group_IT_number 2
_symmetry_cell_setting 'triclinic'
loop_
_space_group_symop_operation_xyz
x,y,z
-x,-y,-z
loop_
_atom_site_type_symbol
_atom_site_label
_atom_site_fract_x
_atom_site_fract_y
_atom_site_fract_z
Si Si1 0.001860 0.637146 0.362946
Si Si2 0.207310 0.472833 0.829870
Si Si3 0.897477 0.510788 0.281547
Si Si4 0.252595 0.702896 0.222989
Si Si5 0.383207 0.974709 0.662255
Si Si6 0.797533 0.913670 0.585527
Si Si7 0.385237 0.834487 0.002106
Si Si8 0.942302 0.184670 0.399548
O O1 0.845208 0.810245 0.511340
O O2 0.000000 0.500000 0.500000
O O3 0.303307 0.430621 0.155237
O O4 0.861001 0.807725 0.289963
O O5 0.161295 0.472252 0.773491
O O6 0.182313 0.632264 0.699185
O O7 0.500501 0.199205 0.726750
O O8 0.007327 0.551375 0.092006
O O9 0.628377 0.711478 0.523400
O O10 0.115367 0.248812 0.287102
O O11 0.233582 0.653554 0.411488
O O12 0.998848 0.856429 0.367749
O O13 0.500000 0.500000 0.000000
O O14 0.256945 0.828362 0.133493
O O15 0.330426 0.968144 0.855344
O O16 0.500000 0.000000 0.500000
O O17 0.245199 0.978427 0.165098
O O18 0.000000 0.000000 0.500000
#
# Coordination Sequence:
#
# PCOD9049691 Si02
#       8
#     2   2   2   2   2   2   2   2
#     4  12  24  40  71 105 140 184 234 287 347 424
#     4  11  24  41  68 100 139 183 233 287 353 414
#     4  11  22  40  67  99 143 183 225 289 349 407
#     4  11  22  45  74  95 138 183 228 288 343 409
#     4  12  22  42  66 100 139 182 232 281 351 415
#     4  12  23  44  68 108 139 184 241 286 346 426
#     4  11  24  46  68  99 142 183 232 286 353 405
#     4  10  24  47  71  96 139 187 232 292 350 407
#
# _framework density 21.158688000000001
#
# number of rings (size 3 to 8) (size 9 to 14) (size 15 to 20)
#    0.000    0.750    6.250    1.125    0.000    0.000 
#   11.250    2.500    0.000    0.000    0.000    0.000 
#    0.000    0.000    0.000    0.000    0.000    0.000 
#
# Total GULP energy -89106.841692 kJ/mol
# GULP energy per Si atom -5569.177606 kJ/mol
# Density = 2.111053 g / cm^3
# Si number density = 21.158688 Si / 1000 Ang^3
#
#
#
# Elastic Constant Matrix: (Units=GPa)
#
#
# Indices 1 2 3 4 5 6 
#
# 1 66.8712 31.2788 27.6567 -2.7155 -10.0164 -4.7304
# 2 31.2788 147.5069 47.8571 -7.5898 -4.5854 -14.5246
# 3 27.6567 47.8571 143.1208 -9.4587 9.8735 0.4995
# 4 -2.7155 -7.5898 -9.4587 31.5161 11.2386 3.4837
# 5 -10.0164 -4.5854 9.8735 11.2386 37.4022 -3.2570
# 6 -4.7304 -14.5246 0.4995 3.4837 -3.2570 38.4884
#
#
#
# Elastic Compliance Matrix: (Units=1/GPa)
#
#
# Indices 1 2 3 4 5 6 
#
# 1 0.018564 -0.002568 -0.003356 -0.002582 0.006505 0.002140
# 2 -0.002568 0.008446 -0.002392 0.000365 0.001128 0.002965
# 3 -0.003356 -0.002392 0.009037 0.003846 -0.004924 -0.002197
# 4 -0.002582 0.000365 0.003846 0.038108 -0.013533 -0.004824
# 5 0.006505 0.001128 -0.004924 -0.013533 0.034456 0.005430
# 6 0.002140 0.002965 -0.002197 -0.004824 0.005430 0.028288
#
#
# Mechanical properties :
#
#
# Convention : Reuss Voigt Hill
#
# Bulk Modulus (GPa) = 51.50378 63.45378 57.47878
# Shear Modulus (GPa) = 31.24973 38.19510 34.72242
#
# Velocity S-wave (km/s) = 3.84724 4.25334 4.05538
# Velocity P-wave (km/s) = 6.64301 7.36042 7.01090
#
# Compressibility (1/GPa) = 0.01941605
#
# Stress axis : x y z
#
# Youngs Moduli (GPa) = 53.86831 118.40417 110.65728
#
# Poissons Ratio (x) = 0.30402 0.37131
# Poissons Ratio (y) = 0.13832 0.26468
# Poissons Ratio (z) = 0.18076 0.28321
#
# Static dielectric constant tensor:
#      x y z
#    x 1.939220 0.108720 0.125200 
#    y 0.108720 1.834470 0.056980 
#    z 0.125200 0.056980 1.886300 
# 
# From -- ./inp_files/428465.got.cif
#   From: 2010.05.17/outbox.cif.g08.bks.cpg/sg2_215_cif.got.tgz:428465.got - 2010.06.03 11:33:40.
