data_PCOD9049781
_publ_section_title
;
Structure prediction by ZEFSAII (Michael W. Deem and Ramdas Pophale) SiO2 
 PCOD9049781
Probable space group: P -1
;
_chemical_formula_sum "Si O2"
_cell_formula_units_Z 16
_cell_length_a 5.752874
_cell_length_b 15.024575
_cell_length_c 7.972953
_cell_angle_alpha 95.712150
_cell_angle_beta 86.302033
_cell_angle_gamma 69.342058
_cell_volume 637.944246
_symmetry_space_group_name_H-M "P -1"
_symmetry_group_IT_number 2
_symmetry_cell_setting 'triclinic'
loop_
_space_group_symop_operation_xyz
x,y,z
-x,-y,-z
loop_
_atom_site_type_symbol
_atom_site_label
_atom_site_fract_x
_atom_site_fract_y
_atom_site_fract_z
Si Si1 0.382093 0.303588 0.381869
Si Si2 0.429596 0.083591 0.721042
Si Si3 0.118793 0.581063 0.521365
Si Si4 0.446662 0.335014 0.019612
Si Si5 0.050520 0.227698 0.961653
Si Si6 0.287095 0.902832 0.593326
Si Si7 0.463016 0.431045 0.705870
Si Si8 0.860850 0.956995 0.864294
O O1 0.564298 0.194985 0.334498
O O2 0.432954 0.352272 0.559575
O O3 0.091027 0.318113 0.409088
O O4 0.404779 0.358345 0.222297
O O5 0.165154 0.166567 0.777737
O O6 0.606120 0.119741 0.603004
O O7 0.374973 0.990247 0.649897
O O8 0.596990 0.041695 0.867935
O O9 0.308763 0.535105 0.654804
O O10 0.249224 0.585288 0.341789
O O11 0.000000 0.500000 0.500000
O O12 0.238098 0.286198 0.986749
O O13 0.393512 0.415522 0.893429
O O14 0.749112 0.277287 0.977091
O O15 0.119264 0.145690 0.086462
O O16 0.002442 0.936740 0.673192
O O17 0.000000 0.000000 0.000000
#
# Coordination Sequence:
#
# PCOD9049781 Si02
#       8
#     2   2   2   2   2   2   2   2
#     4  11  24  44  70 107 143 186 236 303 353 427
#     4  11  25  41  66  91 138 189 241 294 354 413
#     4   9  22  46  76 105 143 184 234 285 368 433
#     4  12  28  45  75 109 146 191 244 293 360 427
#     4  12  26  46  68 104 144 193 244 297 357 419
#     4  11  24  42  62 102 130 185 243 295 351 417
#     4  10  24  47  74 106 144 189 229 295 361 441
#     4  12  23  42  65  90 137 187 239 295 353 412
#
# _framework density 25.080562
#
# number of rings (size 3 to 8) (size 9 to 14) (size 15 to 20)
#    0.000    1.000    2.500    3.000    7.000    1.500 
#    2.250    5.625    0.000    0.000    0.000    0.000 
#    0.000    0.000    0.000    0.000    0.000    0.000 
#
# Total GULP energy -89344.721600 kJ/mol
# GULP energy per Si atom -5584.045100 kJ/mol
# Density = 2.502348 g / cm^3
# Si number density = 25.080562 Si / 1000 Ang^3
#
#
#
# Elastic Constant Matrix: (Units=GPa)
#
#
# Indices 1 2 3 4 5 6 
#
# 1 88.4963 13.5119 -2.2393 1.9755 -15.8298 -0.2369
# 2 13.5119 38.6725 -10.7530 9.0474 2.9287 9.2806
# 3 -2.2393 -10.7530 98.3582 -23.8316 -25.3894 11.2437
# 4 1.9755 9.0474 -23.8316 35.4168 5.9406 -14.1233
# 5 -15.8298 2.9287 -25.3894 5.9406 42.9661 5.4183
# 6 -0.2369 9.2806 11.2437 -14.1233 5.4183 45.0823
#
#
#
# Elastic Compliance Matrix: (Units=1/GPa)
#
#
# Indices 1 2 3 4 5 6 
#
# 1 0.013111 -0.004795 0.001402 0.000511 0.005895 0.000158
# 2 -0.004795 0.033364 0.002105 -0.011230 0.000137 -0.010953
# 3 0.001402 0.002105 0.014539 0.006550 0.008439 -0.003014
# 4 0.000511 -0.011230 0.006550 0.041520 -0.002683 0.014011
# 5 0.005895 0.000137 0.008439 -0.002683 0.031645 -0.006746
# 6 0.000158 -0.010953 -0.003014 0.014011 -0.006746 0.030389
#
#
# Mechanical properties :
#
#
# Convention : Reuss Voigt Hill
#
# Bulk Modulus (GPa) = 17.11248 25.17404 21.14326
# Shear Modulus (GPa) = 26.79188 39.69354 33.24271
#
# Velocity S-wave (km/s) = 3.27193 3.98256 3.64461
# Velocity P-wave (km/s) = 4.59476 5.58630 5.11462
#
# Compressibility (1/GPa) = 0.05843689
#
# Stress axis : x y z
#
# Youngs Moduli (GPa) = 76.27201 29.97229 68.78163
#
# Poissons Ratio (x) = 0.14372 -0.09641
# Poissons Ratio (y) = 0.36573 -0.14477
# Poissons Ratio (z) = -0.10691 -0.06309
#
# Static dielectric constant tensor:
#      x y z
#    x 2.060880 0.018300 0.000780 
#    y 0.018300 1.957930 0.039500 
#    z 0.000780 0.039500 2.047340 
# 
# From -- ./inp_files/44607.got.cif
#   From: 2010.05.17/outbox.cif.g08.bks.cpg/sg2_23_cif.got.tgz:44607.got - 2010.06.03 11:33:40.
