data_PCOD9049833
_publ_section_title
;
Structure prediction by ZEFSAII (Michael W. Deem and Ramdas Pophale) SiO2 
 PCOD9049833
Probable space group: P -1
;
_chemical_formula_sum "Si O2"
_cell_formula_units_Z 15
_cell_length_a 9.695600
_cell_length_b 14.895549
_cell_length_c 4.814335
_cell_angle_alpha 100.791860
_cell_angle_beta 72.870902
_cell_angle_gamma 120.705785
_cell_volume 570.721322
_symmetry_space_group_name_H-M "P -1"
_symmetry_group_IT_number 2
_symmetry_cell_setting 'triclinic'
loop_
_space_group_symop_operation_xyz
x,y,z
-x,-y,-z
loop_
_atom_site_type_symbol
_atom_site_label
_atom_site_fract_x
_atom_site_fract_y
_atom_site_fract_z
Si Si1 0.633833 0.652774 0.536753
Si Si2 0.516801 0.855305 0.961667
Si Si3 0.173870 0.660739 0.993354
Si Si4 0.000000 0.500000 0.500000
Si Si5 0.745300 0.497664 0.451706
Si Si6 0.311898 0.957595 0.405100
Si Si7 0.105351 0.844327 0.971643
Si Si8 0.743716 0.785961 0.055840
O O1 0.745535 0.597969 0.382569
O O2 0.447439 0.582345 0.501445
O O3 0.649796 0.679377 0.867416
O O4 0.704938 0.758228 0.383987
O O5 0.667461 0.855413 0.031510
O O6 0.587372 0.922962 0.681241
O O7 0.371102 0.736029 0.941159
O O8 0.422642 0.905718 0.213408
O O9 0.086433 0.611591 0.306066
O O10 0.151756 0.564295 0.746609
O O11 0.111104 0.736554 0.946260
O O12 0.839944 0.521647 0.699545
O O13 0.251931 0.920810 0.727209
O O14 0.149322 0.900996 0.275336
O O15 0.936492 0.829125 0.938560
#
# Coordination Sequence:
#
# PCOD9049833 Si02
#       8
#     2   2   2   1   2   2   2   2
#     4  11  27  44  68  99 144 185 242 284 352 413
#     4  10  24  47  76 101 144 183 246 279 369 415
#     4  11  25  45  69 103 139 197 231 300 341 437
#     4  12  26  42  68 102 138 186 240 290 352 404
#     4  11  26  43  67  97 139 190 240 295 342 417
#     4  10  25  47  73 109 138 187 231 306 340 439
#     4  11  26  45  73 107 148 178 242 289 368 402
#     4  12  25  45  71 105 140 191 226 297 350 432
#
# _framework density 26.282530000000001
#
# number of rings (size 3 to 8) (size 9 to 14) (size 15 to 20)
#    0.000    1.067    1.333    2.800    9.333    8.000 
#    0.000    0.000    0.000    0.000    0.000    0.000 
#    0.000    0.000    0.000    0.000    0.000    0.000 
#
# Total GULP energy -83821.123958 kJ/mol
# GULP energy per Si atom -5588.074931 kJ/mol
# Density = 2.622271 g / cm^3
# Si number density = 26.282530 Si / 1000 Ang^3
#
#
#
# Elastic Constant Matrix: (Units=GPa)
#
#
# Indices 1 2 3 4 5 6 
#
# 1 246.4415 54.1151 13.7370 -14.4826 15.1899 -7.9586
# 2 54.1151 120.2939 39.3896 -21.5293 -1.4417 -6.8207
# 3 13.7370 39.3896 82.9560 -3.7300 14.7177 -13.6109
# 4 -14.4826 -21.5293 -3.7300 33.7810 -3.4061 9.0171
# 5 15.1899 -1.4417 14.7177 -3.4061 24.2153 3.2802
# 6 -7.9586 -6.8207 -13.6109 9.0171 3.2802 42.3068
#
#
#
# Elastic Compliance Matrix: (Units=1/GPa)
#
#
# Indices 1 2 3 4 5 6 
#
# 1 0.004858 -0.002677 0.001436 -0.000253 -0.004296 0.001331
# 2 -0.002677 0.013427 -0.007640 0.008313 0.008731 -0.003246
# 3 0.001436 -0.007640 0.019037 -0.005642 -0.014737 0.007508
# 4 -0.000253 0.008313 -0.005642 0.037752 0.010666 -0.009396
# 5 -0.004296 0.008731 -0.014737 0.010666 0.056429 -0.010790
# 6 0.001331 -0.003246 0.007508 -0.009396 -0.010790 0.028619
#
#
# Mechanical properties :
#
#
# Convention : Reuss Voigt Hill
#
# Bulk Modulus (GPa) = 51.12413 73.79722 62.46067
# Shear Modulus (GPa) = 27.11404 42.89059 35.00231
#
# Velocity S-wave (km/s) = 3.21540 4.04407 3.65330
# Velocity P-wave (km/s) = 5.76880 7.06720 6.45075
#
# Compressibility (1/GPa) = 0.01956023
#
# Stress axis : x y z
#
# Youngs Moduli (GPa) = 205.82684 74.47457 52.52847
#
# Poissons Ratio (x) = 0.19937 -0.07542
# Poissons Ratio (y) = 0.55101 0.40133
# Poissons Ratio (z) = -0.29552 0.56900
#
# Static dielectric constant tensor:
#      x y z
#    x 2.095660 0.043530 0.035120 
#    y 0.043530 2.124390 0.131920 
#    z 0.035120 0.131920 2.049000 
# 
# From -- ./inp_files/37976.got.cif
#   From: 2010.05.17/outbox.cif.g08.bks.cpg/sg2_19_cif.got.tgz:37976.got - 2010.06.03 11:33:40.
