data_PCOD9049280
_publ_section_title
;
Structure prediction by ZEFSAII (Michael W. Deem and Ramdas Pophale) SiO2 
 PCOD9049280
Probable space group: P -1
;
_chemical_formula_sum "Si O2"
_cell_formula_units_Z 15
_cell_length_a 21.321475
_cell_length_b 14.522535
_cell_length_c 8.769791
_cell_angle_alpha 45.463785
_cell_angle_beta 130.130885
_cell_angle_gamma 161.069629
_cell_volume 625.854414
_symmetry_space_group_name_H-M "P -1"
_symmetry_group_IT_number 2
_symmetry_cell_setting 'triclinic'
loop_
_space_group_symop_operation_xyz
x,y,z
-x,-y,-z
loop_
_atom_site_type_symbol
_atom_site_label
_atom_site_fract_x
_atom_site_fract_y
_atom_site_fract_z
Si Si1 0.264869 0.605491 0.806667
Si Si2 0.905672 0.247303 0.740404
Si Si3 0.109287 0.077421 0.448896
Si Si4 0.500000 0.500000 0.000000
Si Si5 0.567788 0.892203 0.496925
Si Si6 0.775929 0.657969 0.213387
Si Si7 0.506170 0.780963 0.191186
Si Si8 0.762858 0.985800 0.125874
O O1 0.270291 0.501628 0.812659
O O2 0.046514 0.329260 0.834340
O O3 0.349928 0.862286 0.580942
O O4 0.399534 0.752459 0.985930
O O5 0.000000 0.500000 0.500000
O O6 0.677121 0.921203 0.705398
O O7 0.891226 0.244940 0.900873
O O8 0.331476 0.434726 0.360836
O O9 0.110917 0.930465 0.670162
O O10 0.000000 0.000000 0.500000
O O11 0.997802 0.956991 0.259809
O O12 0.322279 0.344871 0.959625
O O13 0.377168 0.299738 0.871147
O O14 0.345228 0.567557 0.567970
O O15 0.608862 0.956003 0.309123
O O16 0.645070 0.913969 0.131645
#
# Coordination Sequence:
#
# PCOD9049280 Si02
#       8
#     2   2   2   1   2   2   2   2
#     4  11  25  44  70 103 135 190 239 288 346 421
#     4  10  24  46  71  98 137 183 239 295 339 417
#     4  12  25  42  67 106 147 181 229 296 346 420
#     4  12  22  42  72 100 138 194 220 296 344 422
#     4  11  23  46  71 100 144 183 233 296 350 416
#     4  12  25  44  73 102 145 186 237 289 353 421
#     4  12  25  44  70 107 141 187 232 289 361 418
#     4  12  25  45  69  99 144 186 233 287 364 416
#
# _framework density 23.967237000000001
#
# number of rings (size 3 to 8) (size 9 to 14) (size 15 to 20)
#    0.000    0.533    5.333    2.000    1.867    2.667 
#    0.000    2.667    0.000    0.000    0.000    0.000 
#    0.000    0.000    0.000    0.000    0.000    0.000 
#
# Total GULP energy -83744.397322 kJ/mol
# GULP energy per Si atom -5582.959821 kJ/mol
# Density = 2.391269 g / cm^3
# Si number density = 23.967237 Si / 1000 Ang^3
#
#
#
# Elastic Constant Matrix: (Units=GPa)
#
#
# Indices 1 2 3 4 5 6 
#
# 1 171.6500 32.4076 58.1665 10.0305 5.6031 21.7694
# 2 32.4076 68.7108 16.5915 9.5408 8.4376 17.5196
# 3 58.1665 16.5915 121.0628 19.7083 18.2463 16.5911
# 4 10.0305 9.5408 19.7083 51.3673 14.9217 -4.7270
# 5 5.6031 8.4376 18.2463 14.9217 31.7960 2.1931
# 6 21.7694 17.5196 16.5911 -4.7270 2.1931 40.4508
#
#
#
# Elastic Compliance Matrix: (Units=1/GPa)
#
#
# Indices 1 2 3 4 5 6 
#
# 1 0.007586 -0.002464 -0.003217 -0.000384 0.001469 -0.001821
# 2 -0.002464 0.018101 0.000554 -0.002904 -0.002847 -0.006926
# 3 -0.003217 0.000554 0.011311 -0.002794 -0.004537 -0.003229
# 4 -0.000384 -0.002904 -0.002794 0.024447 -0.009444 0.005979
# 5 0.001469 -0.002847 -0.004537 -0.009444 0.039046 -0.000917
# 6 -0.001821 -0.006926 -0.003229 0.005979 -0.000917 0.030773
#
#
# Mechanical properties :
#
#
# Convention : Reuss Voigt Hill
#
# Bulk Modulus (GPa) = 37.39065 63.97276 50.68171
# Shear Modulus (GPa) = 33.23727 41.67334 37.45531
#
# Velocity S-wave (km/s) = 3.72799 4.17437 3.95748
# Velocity P-wave (km/s) = 5.84510 7.06990 6.48647
#
# Compressibility (1/GPa) = 0.02674465
#
# Stress axis : x y z
#
# Youngs Moduli (GPa) = 131.81345 55.24592 88.41106
#
# Poissons Ratio (x) = 0.13614 0.28439
# Poissons Ratio (y) = 0.32483 -0.04900
# Poissons Ratio (z) = 0.42400 -0.03062
#
# Static dielectric constant tensor:
#      x y z
#    x 1.805120 0.025790 -0.026320 
#    y 0.025790 1.861610 0.078770 
#    z -0.026320 0.078770 1.870670 
# 
# From -- ./inp_files/347522.got.cif
#   From: 2010.05.17/outbox.cif.g08.bks.cpg/sg2_174_cif.got.tgz:347522.got - 2010.06.03 11:33:40.
