data_PCOD9049158
_publ_section_title
;
Structure prediction by ZEFSAII (Michael W. Deem and Ramdas Pophale) SiO2 
 PCOD9049158
Probable space group: P -1
;
_chemical_formula_sum "Si O2"
_cell_formula_units_Z 14
_cell_length_a 9.551357
_cell_length_b 15.252164
_cell_length_c 12.165443
_cell_angle_alpha 46.739124
_cell_angle_beta 56.486676
_cell_angle_gamma 28.727738
_cell_volume 614.268130
_symmetry_space_group_name_H-M "P -1"
_symmetry_group_IT_number 2
_symmetry_cell_setting 'triclinic'
loop_
_space_group_symop_operation_xyz
x,y,z
-x,-y,-z
loop_
_atom_site_type_symbol
_atom_site_label
_atom_site_fract_x
_atom_site_fract_y
_atom_site_fract_z
Si Si1 0.158034 0.214340 0.427512
Si Si2 0.182005 0.938424 0.673352
Si Si3 0.775957 0.957498 0.829075
Si Si4 0.692030 0.147779 0.058999
Si Si5 0.754195 0.877394 0.147513
Si Si6 0.904702 0.418821 0.125628
Si Si7 0.181265 0.429976 0.373463
O O1 0.077366 0.389789 0.365333
O O2 0.056640 0.281866 0.287539
O O3 0.500000 0.000000 0.500000
O O4 0.038355 0.154500 0.567587
O O5 0.315183 0.822483 0.833888
O O6 0.461665 0.781796 0.603989
O O7 0.935855 0.986986 0.705937
O O8 0.987205 0.725514 0.897821
O O9 0.470356 0.102080 0.780239
O O10 0.723077 0.974658 0.967209
O O11 0.667606 0.017999 0.161760
O O12 0.445348 0.366331 0.912898
O O13 0.000000 0.000000 0.000000
O O14 0.072347 0.629638 0.225896
O O15 0.000000 0.500000 0.000000
O O16 0.000000 0.500000 0.500000
#
# Coordination Sequence:
#
# PCOD9049158 Si02
#       7
#     2   2   2   2   2   2   2
#     4  10  24  46  70 101 143 189 235 293 364 426
#     4  11  25  47  72 105 144 191 239 293 360 431
#     4  11  25  42  72 103 145 180 243 296 354 421
#     4  12  25  44  73 107 147 186 239 295 360 429
#     4  11  24  44  69 106 144 183 236 300 356 419
#     4  12  24  44  73 103 140 194 237 292 363 427
#     4  11  25  43  72  99 140 188 236 290 360 425
#
# _framework density 22.791352
#
# number of rings (size 3 to 8) (size 9 to 14) (size 15 to 20)
#    0.000    0.857    2.857    4.286    8.000    1.714 
#    0.000    1.429    0.000    0.000    0.000    0.000 
#    0.000    0.000    0.000    0.000    0.000    0.000 
#
# Total GULP energy -78216.811800 kJ/mol
# GULP energy per Si atom -5586.915129 kJ/mol
# Density = 2.273948 g / cm^3
# Si number density = 22.791352 Si / 1000 Ang^3
#
#
#
# Elastic Constant Matrix: (Units=GPa)
#
#
# Indices 1 2 3 4 5 6 
#
# 1 92.0245 13.9710 8.5380 9.3536 -15.8192 -10.6296
# 2 13.9710 93.5185 11.0959 1.1104 10.3056 -9.9631
# 3 8.5380 11.0959 75.9789 1.8115 10.9201 -17.4594
# 4 9.3536 1.1104 1.8115 42.8424 0.6232 -6.4302
# 5 -15.8192 10.3056 10.9201 0.6232 43.0318 3.7762
# 6 -10.6296 -9.9631 -17.4594 -6.4302 3.7762 36.1956
#
#
#
# Elastic Compliance Matrix: (Units=1/GPa)
#
#
# Indices 1 2 3 4 5 6 
#
# 1 0.012691 -0.002142 -0.001523 -0.002523 0.005480 0.001383
# 2 -0.002142 0.011776 -0.000255 0.000680 -0.003817 0.003008
# 3 -0.001523 -0.000255 0.015909 0.000923 -0.005240 0.007867
# 4 -0.002523 0.000680 0.000923 0.024536 -0.002072 0.004467
# 5 0.005480 -0.003817 -0.005240 -0.002072 0.027988 -0.005257
# 6 0.001383 0.003008 0.007867 0.004467 -0.005257 0.033998
#
#
# Mechanical properties :
#
#
# Convention : Reuss Voigt Hill
#
# Bulk Modulus (GPa) = 30.73556 36.52576 33.63066
# Shear Modulus (GPa) = 34.34403 39.60843 36.97623
#
# Velocity S-wave (km/s) = 3.88608 4.17330 4.03225
# Velocity P-wave (km/s) = 5.80089 6.26760 6.03876
#
# Compressibility (1/GPa) = 0.03253560
#
# Stress axis : x y z
#
# Youngs Moduli (GPa) = 78.79331 84.91564 62.85816
#
# Poissons Ratio (x) = 0.18188 0.09574
# Poissons Ratio (y) = 0.16877 0.01606
# Poissons Ratio (z) = 0.12001 0.02169
#
# Static dielectric constant tensor:
#      x y z
#    x 1.909030 -0.006950 -0.009590 
#    y -0.006950 1.884100 -0.028570 
#    z -0.009590 -0.028570 1.892070 
# 
# From -- ./inp_files/226817.got.cif
#   From: 2010.05.17/outbox.cif.g08.bks.cpg/sg2_114_cif.got.tgz:226817.got - 2010.06.03 11:33:40.
