data_PCOD9049725
_publ_section_title
;
Structure prediction by ZEFSAII (Michael W. Deem and Ramdas Pophale) SiO2 
 PCOD9049725
Probable space group: P -1
;
_chemical_formula_sum "Si O2"
_cell_formula_units_Z 16
_cell_length_a 7.823285
_cell_length_b 7.030152
_cell_length_c 17.700406
_cell_angle_alpha 44.230842
_cell_angle_beta 85.622808
_cell_angle_gamma 95.798771
_cell_volume 659.897916
_symmetry_space_group_name_H-M "P -1"
_symmetry_group_IT_number 2
_symmetry_cell_setting 'triclinic'
loop_
_space_group_symop_operation_xyz
x,y,z
-x,-y,-z
loop_
_atom_site_type_symbol
_atom_site_label
_atom_site_fract_x
_atom_site_fract_y
_atom_site_fract_z
Si Si1 0.395091 0.710390 0.047355
Si Si2 0.554110 0.407327 0.605994
Si Si3 0.702546 0.379062 0.345373
Si Si4 0.943713 0.904015 0.942518
Si Si5 0.511223 0.180305 0.260743
Si Si6 0.202151 0.125695 0.440481
Si Si7 0.098371 0.540940 0.215345
Si Si8 0.244342 0.737369 0.890809
O O1 0.477460 0.458179 0.144424
O O2 0.189063 0.593375 0.114114
O O3 0.391756 0.757540 0.944888
O O4 0.500000 0.000000 0.000000
O O5 0.500000 0.500000 0.500000
O O6 0.392547 0.403384 0.671454
O O7 0.709052 0.648345 0.564948
O O8 0.611446 0.113878 0.675012
O O9 0.557176 0.236568 0.329745
O O10 0.890225 0.467326 0.268015
O O11 0.720913 0.149105 0.472768
O O12 0.109350 0.898370 0.886529
O O13 0.846036 0.138662 0.848076
O O14 0.834693 0.590248 0.028527
O O15 0.000000 0.000000 0.000000
O O16 0.691819 0.144873 0.225787
O O17 0.192186 0.310931 0.313474
O O18 0.000000 0.000000 0.500000
#
# Coordination Sequence:
#
# PCOD9049725 Si02
#       8
#     2   2   2   2   2   2   2   2
#     4  12  28  46  71 109 154 199 248 312 371 441
#     4  12  26  47  80 110 145 196 253 307 372 456
#     4  11  25  49  75 107 149 194 246 306 378 446
#     4  11  22  44  70 101 140 189 243 309 358 437
#     4  12  27  44  75 106 147 194 250 301 376 442
#     4  10  24  47  72 109 148 190 238 306 378 440
#     4  11  24  44  77  99 147 199 239 305 378 428
#     4  11  26  43  70 104 143 190 255 295 367 443
#
# _framework density 24.246175999999998
#
# number of rings (size 3 to 8) (size 9 to 14) (size 15 to 20)
#    0.000    0.750    2.500    3.750   10.500    0.000 
#    0.000    2.500    0.000    0.000    0.000    0.000 
#    0.000    0.000    0.000    0.000    0.000    0.000 
#
# Total GULP energy -89273.966178 kJ/mol
# GULP energy per Si atom -5579.622886 kJ/mol
# Density = 2.419099 g / cm^3
# Si number density = 24.246176 Si / 1000 Ang^3
#
#
#
# Elastic Constant Matrix: (Units=GPa)
#
#
# Indices 1 2 3 4 5 6 
#
# 1 80.7716 21.9699 8.0620 -3.1429 -14.3074 -4.6138
# 2 21.9699 142.7245 32.9541 -16.2479 -2.9915 1.1897
# 3 8.0620 32.9541 73.6093 -6.1091 -4.4161 -7.9758
# 4 -3.1429 -16.2479 -6.1091 56.7109 -16.3029 0.3756
# 5 -14.3074 -2.9915 -4.4161 -16.3029 46.7511 -6.8982
# 6 -4.6138 1.1897 -7.9758 0.3756 -6.8982 42.0225
#
#
#
# Elastic Compliance Matrix: (Units=1/GPa)
#
#
# Indices 1 2 3 4 5 6 
#
# 1 0.014000 -0.001879 0.000017 0.001693 0.005113 0.002418
# 2 -0.001879 0.008333 -0.003471 0.001960 0.000152 -0.001094
# 3 0.000017 -0.003471 0.015755 0.001325 0.002242 0.003447
# 4 0.001693 0.001960 0.001325 0.020792 0.008248 0.001550
# 5 0.005113 0.000152 0.002242 0.008248 0.026837 0.005314
# 6 0.002418 -0.001094 0.003447 0.001550 0.005314 0.025606
#
#
# Mechanical properties :
#
#
# Convention : Reuss Voigt Hill
#
# Bulk Modulus (GPa) = 36.46809 47.00860 41.73834
# Shear Modulus (GPa) = 38.13016 44.70484 41.41750
#
# Velocity S-wave (km/s) = 3.96994 4.29860 4.13753
# Velocity P-wave (km/s) = 6.00727 6.63833 6.33067
#
# Compressibility (1/GPa) = 0.02742123
#
# Stress axis : x y z
#
# Youngs Moduli (GPa) = 71.43023 120.00825 63.47024
#
# Poissons Ratio (x) = 0.22552 -0.00109
# Poissons Ratio (y) = 0.13423 0.22033
# Poissons Ratio (z) = -0.00123 0.41659
#
# Static dielectric constant tensor:
#      x y z
#    x 2.049780 -0.065490 -0.052740 
#    y -0.065490 1.886200 -0.012580 
#    z -0.052740 -0.012580 2.015040 
# 
# From -- ./inp_files/553158.got.cif
#   From: 2010.05.17/outbox.cif.g08.bks.cpg/sg2_277_cif.got.tgz:553158.got - 2010.06.03 11:33:40.
