data_PCOD9049790
_publ_section_title
;
Structure prediction by ZEFSAII (Michael W. Deem and Ramdas Pophale) SiO2 
 PCOD9049790
Probable space group: P -1
;
_chemical_formula_sum "Si O2"
_cell_formula_units_Z 10
_cell_length_a 16.530811
_cell_length_b 14.392725
_cell_length_c 8.833065
_cell_angle_alpha 42.951019
_cell_angle_beta 38.409087
_cell_angle_gamma 16.391798
_cell_volume 366.103639
_symmetry_space_group_name_H-M "P -1"
_symmetry_group_IT_number 2
_symmetry_cell_setting 'triclinic'
loop_
_space_group_symop_operation_xyz
x,y,z
-x,-y,-z
loop_
_atom_site_type_symbol
_atom_site_label
_atom_site_fract_x
_atom_site_fract_y
_atom_site_fract_z
Si Si1 0.987439 0.153274 0.661604
Si Si2 0.876953 0.772020 0.370694
Si Si3 0.764211 0.603003 0.247803
Si Si4 0.763566 0.448109 0.147354
Si Si5 0.631843 0.363089 0.686593
O O1 0.957647 0.293134 0.405533
O O2 0.759704 0.256811 0.796555
O O3 0.938839 0.297251 0.705880
O O4 0.310570 0.764845 0.683124
O O5 0.000000 0.500000 0.500000
O O6 0.529717 0.093808 0.570311
O O7 0.935409 0.782261 0.108826
O O8 0.653080 0.667313 0.166308
O O9 0.000000 0.500000 0.000000
O O10 0.818746 0.263057 0.393961
O O11 0.497994 0.652913 0.174561
#
# Coordination Sequence:
#
# PCOD9049790 Si02
#       5
#     2   2   2   2   2
#     4  11  23  50  73 108 149 186 252 294 379 428
#     4  12  27  47  74 113 146 198 251 306 364 438
#     4  11  26  49  74 107 153 196 249 306 365 441
#     4  10  24  47  74 109 148 194 246 298 377 438
#     4  10  24  49  75 110 145 201 230 312 368 448
#
# _framework density 27.314671000000001
#
# number of rings (size 3 to 8) (size 9 to 14) (size 15 to 20)
#    0.000    1.200    4.000    1.200    2.800   13.600 
#    7.200    0.000    0.000    0.000    0.000    0.000 
#    0.000    0.000    0.000    0.000    0.000    0.000 
#
# Total GULP energy -55946.662193 kJ/mol
# GULP energy per Si atom -5594.666219 kJ/mol
# Density = 2.725250 g / cm^3
# Si number density = 27.314671 Si / 1000 Ang^3
#
#
#
# Elastic Constant Matrix: (Units=GPa)
#
#
# Indices 1 2 3 4 5 6 
#
# 1 137.0760 52.5120 38.5092 24.7202 7.7775 12.9575
# 2 52.5120 84.5581 55.2804 5.0904 11.3561 22.5436
# 3 38.5092 55.2804 200.2961 42.5229 3.2805 5.4879
# 4 24.7202 5.0904 42.5229 39.8592 5.3229 8.3462
# 5 7.7775 11.3561 3.2805 5.3229 40.1905 -0.2801
# 6 12.9575 22.5436 5.4879 8.3462 -0.2801 47.3964
#
#
#
# Elastic Compliance Matrix: (Units=1/GPa)
#
#
# Indices 1 2 3 4 5 6 
#
# 1 0.011285 -0.008516 0.001925 -0.008602 0.001221 0.002265
# 2 -0.008516 0.025321 -0.007833 0.013663 -0.006755 -0.011254
# 3 0.001925 -0.007833 0.008954 -0.010952 0.002589 0.004106
# 4 -0.008602 0.013663 -0.010952 0.043533 -0.007141 -0.010587
# 5 0.001221 -0.006755 0.002589 -0.007141 0.027316 0.003999
# 6 0.002265 -0.011254 0.004106 -0.010587 0.003999 0.027245
#
#
# Mechanical properties :
#
#
# Convention : Reuss Voigt Hill
#
# Bulk Modulus (GPa) = 59.83711 79.39262 69.61486
# Shear Modulus (GPa) = 28.07832 43.86444 35.97138
#
# Velocity S-wave (km/s) = 3.20966 4.01171 3.63288
# Velocity P-wave (km/s) = 5.97411 7.11248 6.56801
#
# Compressibility (1/GPa) = 0.01671204
#
# Stress axis : x y z
#
# Youngs Moduli (GPa) = 88.61377 39.49311 111.67603
#
# Poissons Ratio (x) = 0.33634 -0.21498
# Poissons Ratio (y) = 0.75468 0.87472
# Poissons Ratio (z) = -0.17058 0.30934
#
# Static dielectric constant tensor:
#      x y z
#    x 2.176590 -0.048250 -0.021360 
#    y -0.048250 2.293270 0.124080 
#    z -0.021360 0.124080 2.154290 
# 
# From -- ./inp_files/233080.got.cif
#   From: 2010.05.17/outbox.cif.g08.bks.cpg/sg2_117_cif.got.tgz:233080.got - 2010.06.03 11:33:40.
