data_PCOD9049777
_publ_section_title
;
Structure prediction by ZEFSAII (Michael W. Deem and Ramdas Pophale) SiO2 
 PCOD9049777
Probable space group: P -1
;
_chemical_formula_sum "Si O2"
_cell_formula_units_Z 12
_cell_length_a 26.470129
_cell_length_b 8.923675
_cell_length_c 5.478561
_cell_angle_alpha 124.061352
_cell_angle_beta 42.202839
_cell_angle_gamma 144.268562
_cell_volume 504.855781
_symmetry_space_group_name_H-M "P -1"
_symmetry_group_IT_number 2
_symmetry_cell_setting 'triclinic'
loop_
_space_group_symop_operation_xyz
x,y,z
-x,-y,-z
loop_
_atom_site_type_symbol
_atom_site_label
_atom_site_fract_x
_atom_site_fract_y
_atom_site_fract_z
Si Si1 0.132170 0.077522 0.981511
Si Si2 0.116364 0.749210 0.414949
Si Si3 0.502961 0.291946 0.257534
Si Si4 0.293231 0.754665 0.697681
Si Si5 0.848488 0.803682 0.475381
Si Si6 0.377832 0.610250 0.582998
O O1 0.095047 0.124719 0.920204
O O2 0.262856 0.310757 0.728885
O O3 0.101181 0.818172 0.797218
O O4 0.099603 0.118691 0.379492
O O5 0.000000 0.500000 0.500000
O O6 0.171458 0.012799 0.310634
O O7 0.196780 0.721213 0.085706
O O8 0.500000 0.500000 0.500000
O O9 0.564502 0.316601 0.298169
O O10 0.383613 0.008348 0.449546
O O11 0.555125 0.341764 0.851395
O O12 0.245801 0.503270 0.487672
O O13 0.346718 0.761048 0.754920
#
# Coordination Sequence:
#
# PCOD9049777 Si02
#       6
#     2   2   2   2   2   2
#     4   9  20  43  69  93 146 173 227 292 338 415
#     4  10  24  47  74 105 139 185 241 296 361 421
#     4  12  26  42  71 106 144 189 236 285 351 421
#     4  11  24  45  74 106 143 196 231 299 350 419
#     4   9  22  44  66  99 143 175 236 290 350 415
#     4  11  23  45  66 105 144 184 235 283 345 428
#
# _framework density 23.769162999999999
#
# number of rings (size 3 to 8) (size 9 to 14) (size 15 to 20)
#    1.000    0.667    0.000    4.500    2.333    4.000 
#    9.000    0.833    0.000    0.000    0.000    0.000 
#    0.000    0.000    0.000    0.000    0.000    0.000 
#
# Total GULP energy -66962.197305 kJ/mol
# GULP energy per Si atom -5580.183109 kJ/mol
# Density = 2.371506 g / cm^3
# Si number density = 23.769163 Si / 1000 Ang^3
#
#
#
# Elastic Constant Matrix: (Units=GPa)
#
#
# Indices 1 2 3 4 5 6 
#
# 1 254.2795 -407.4201 574.2167 538.2251 -297.0983 -190.0042
# 2 -407.4201 1589.7346-1547.8957-1709.9585 1020.5464 643.3201
# 3 574.2167-1547.8957 1995.9177 1938.5638-1158.9572 -715.4884
# 4 538.2251-1709.9585 1938.5638 2096.4875-1238.7167 -775.7362
# 5 -297.0983 1020.5464-1158.9572-1238.7167 793.5702 478.5186
# 6 -190.0042 643.3201 -715.4884 -775.7362 478.5186 330.4886
#
#
#
# Elastic Compliance Matrix: (Units=1/GPa)
#
#
# Indices 1 2 3 4 5 6 
#
# 1 0.013308 -0.000985 -0.005220 -0.002597 -0.005577 0.000246
# 2 -0.000985 0.005449 -0.000537 0.004626 -0.000385 -0.000921
# 3 -0.005220 -0.000537 0.007223 -0.003881 0.003705 -0.000791
# 4 -0.002597 0.004626 -0.003881 0.014561 0.007304 0.004704
# 5 -0.005577 -0.000385 0.003705 0.007304 0.021954 -0.009078
# 6 0.000246 -0.000921 -0.000791 0.004704 -0.009078 0.027434
#
#
# Mechanical properties :
#
#
# Convention : Reuss Voigt Hill
#
# Bulk Modulus (GPa) = 80.04742 119.74819 99.89781
# Shear Modulus (GPa) = 46.47708 992.17799 519.32754
#
# Velocity S-wave (km/s) = 4.42673 20.45308 14.79737
# Velocity P-wave (km/s) = 7.73809 24.66294 18.27756
#
# Compressibility (1/GPa) = 0.01249259
#
# Stress axis : x y z
#
# Youngs Moduli (GPa) = 75.14469 183.53522 138.44278
#
# Poissons Ratio (x) = 0.18086 0.72274
# Poissons Ratio (y) = 0.07405 0.07441
# Poissons Ratio (z) = 0.39229 0.09865
#
# Static dielectric constant tensor:
#      x y z
#    x 1.944020 0.006930 0.048320 
#    y 0.006930 1.919560 -0.033590 
#    z 0.048320 -0.033590 1.923100 
# 
# From -- ./inp_files/126314.got.cif
#   From: 2010.05.17/outbox.cif.g08.bks.cpg/sg2_64_cif.got.tgz:126314.got - 2010.06.03 11:33:40.
