data_PCOD9049516
_publ_section_title
;
Structure prediction by ZEFSAII (Michael W. Deem and Ramdas Pophale) SiO2 
 PCOD9049516
Probable space group: P -1
;
_chemical_formula_sum "Si O2"
_cell_formula_units_Z 13
_cell_length_a 9.559760
_cell_length_b 8.937843
_cell_length_c 11.945553
_cell_angle_alpha 64.535928
_cell_angle_beta 38.797125
_cell_angle_gamma 86.274537
_cell_volume 507.319610
_symmetry_space_group_name_H-M "P -1"
_symmetry_group_IT_number 2
_symmetry_cell_setting 'triclinic'
loop_
_space_group_symop_operation_xyz
x,y,z
-x,-y,-z
loop_
_atom_site_type_symbol
_atom_site_label
_atom_site_fract_x
_atom_site_fract_y
_atom_site_fract_z
Si Si1 0.508124 0.316922 0.192011
Si Si2 0.840197 0.578536 0.511060
Si Si3 0.936231 0.513855 0.237277
Si Si4 0.000000 0.000000 0.500000
Si Si5 0.227650 0.195146 0.838231
Si Si6 0.606058 0.212404 0.404979
Si Si7 0.749784 0.985588 0.887438
O O1 0.374834 0.444478 0.259049
O O2 0.597755 0.305916 0.264921
O O3 0.282309 0.122161 0.349609
O O4 0.770362 0.392722 0.938289
O O5 0.774942 0.482603 0.461558
O O6 0.000000 0.500000 0.500000
O O7 0.021693 0.801147 0.301269
O O8 0.869537 0.650045 0.158832
O O9 0.871650 0.326902 0.266689
O O10 0.854872 0.926414 0.733728
O O11 0.429851 0.234237 0.601271
O O12 0.293793 0.143789 0.935345
O O13 0.000000 0.000000 0.000000
O O14 0.500000 0.000000 0.500000
O O15 0.500000 0.000000 0.000000
#
# Coordination Sequence:
#
# PCOD9049516 Si02
#       7
#     2   2   2   1   2   2   2
#     4  11  25  49  77 117 156 208 276 330 408 483
#     4  11  26  47  74 112 161 210 265 331 400 494
#     4  12  26  51  81 119 159 212 276 338 409 480
#     4  10  24  46  76 108 158 200 264 320 402 482
#     4  12  24  49  82 117 162 210 271 339 403 485
#     4  12  28  47  79 119 161 207 270 343 409 482
#     4  11  25  46  77 115 158 213 263 323 407 481
#
# _framework density 25.624870999999999
#
# number of rings (size 3 to 8) (size 9 to 14) (size 15 to 20)
#    0.000    0.615    3.077    3.692    4.308    1.846 
#    0.000    6.154    0.000    0.000    0.000    0.000 
#    0.000    0.000    0.000    0.000    0.000    0.000 
#
# Total GULP energy -72488.788260 kJ/mol
# GULP energy per Si atom -5576.060635 kJ/mol
# Density = 2.556655 g / cm^3
# Si number density = 25.624871 Si / 1000 Ang^3
#
#
#
# Elastic Constant Matrix: (Units=GPa)
#
#
# Indices 1 2 3 4 5 6 
#
# 1 135.5667 46.1243 35.0582 5.6416 15.5116 3.2464
# 2 46.1243 94.5356 29.9518 1.2847 2.6802 -4.8859
# 3 35.0582 29.9518 119.3847 12.9947 -2.3037 3.3720
# 4 5.6416 1.2847 12.9947 43.9149 11.1946 -12.0641
# 5 15.5116 2.6802 -2.3037 11.1946 55.2098 1.5148
# 6 3.2464 -4.8859 3.3720 -12.0641 1.5148 49.9365
#
#
#
# Elastic Compliance Matrix: (Units=1/GPa)
#
#
# Indices 1 2 3 4 5 6 
#
# 1 0.009532 -0.004056 -0.001786 -0.000178 -0.002496 -0.000863
# 2 -0.004056 0.013397 -0.002379 0.001388 0.000052 0.002069
# 3 -0.001786 -0.002379 0.009970 -0.003582 0.001806 -0.001710
# 4 -0.000178 0.001388 -0.003582 0.027283 -0.005895 0.007159
# 5 -0.002496 0.000052 0.001806 -0.005895 0.020137 -0.001990
# 6 -0.000863 0.002069 -0.001710 0.007159 -0.001990 0.022189
#
#
# Mechanical properties :
#
#
# Convention : Reuss Voigt Hill
#
# Bulk Modulus (GPa) = 60.75943 63.52840 62.14391
# Shear Modulus (GPa) = 40.18113 45.70243 42.94178
#
# Velocity S-wave (km/s) = 3.96416 4.22775 4.09808
# Velocity P-wave (km/s) = 6.68695 6.97692 6.83347
#
# Compressibility (1/GPa) = 0.01645835
#
# Stress axis : x y z
#
# Youngs Moduli (GPa) = 104.90925 74.64179 100.29648
#
# Poissons Ratio (x) = 0.30277 0.17911
# Poissons Ratio (y) = 0.42555 0.23856
# Poissons Ratio (z) = 0.18735 0.17754
#
# Static dielectric constant tensor:
#      x y z
#    x 2.161370 -0.054450 -0.380740 
#    y -0.054450 2.070660 0.063150 
#    z -0.380740 0.063150 2.603160 
# 
# From -- ./inp_files/381566.got.cif
#   From: 2010.05.17/outbox.cif.g08.bks.cpg/sg2_191_cif.got.tgz:381566.got - 2010.06.03 11:33:40.
