data_PCOD9049736
_publ_section_title
;
Structure prediction by ZEFSAII (Michael W. Deem and Ramdas Pophale) SiO2 
 PCOD9049736
Probable space group: P -1
;
_chemical_formula_sum "Si O2"
_cell_formula_units_Z 12
_cell_length_a 7.018212
_cell_length_b 13.599093
_cell_length_c 7.979278
_cell_angle_alpha 137.354823
_cell_angle_beta 96.965355
_cell_angle_gamma 92.114470
_cell_volume 503.026801
_symmetry_space_group_name_H-M "P -1"
_symmetry_group_IT_number 2
_symmetry_cell_setting 'triclinic'
loop_
_space_group_symop_operation_xyz
x,y,z
-x,-y,-z
loop_
_atom_site_type_symbol
_atom_site_label
_atom_site_fract_x
_atom_site_fract_y
_atom_site_fract_z
Si Si1 0.984966 0.368595 0.700693
Si Si2 0.352629 0.098834 0.035638
Si Si3 0.962375 0.952970 0.633231
Si Si4 0.582412 0.379498 0.536147
Si Si5 0.620185 0.113271 0.783083
Si Si6 0.704623 0.435879 0.233959
O O1 0.063660 0.223485 0.583491
O O2 0.109212 0.444610 0.651608
O O3 0.754967 0.323182 0.579325
O O4 0.000000 0.500000 0.000000
O O5 0.454946 0.147830 0.931798
O O6 0.394129 0.248581 0.333111
O O7 0.139018 0.017926 0.859935
O O8 0.500000 0.000000 0.000000
O O9 0.780338 0.025379 0.762351
O O10 0.000000 0.000000 0.500000
O O11 0.675279 0.424898 0.418894
O O12 0.495482 0.511103 0.776428
O O13 0.500000 0.000000 0.500000
O O14 0.724883 0.279096 0.957204
#
# Coordination Sequence:
#
# PCOD9049736 Si02
#       6
#     2   2   2   2   2   2
#     4  12  27  42  72 108 143 186 240 294 357 425
#     4  11  24  45  71 103 140 182 242 288 346 420
#     4  12  26  45  72 103 146 188 234 293 353 421
#     4  10  24  47  73 101 143 190 236 295 353 423
#     4  11  25  44  73 101 141 189 232 290 358 419
#     4  10  25  46  71 101 142 187 236 293 357 422
#
# _framework density 23.855587
#
# number of rings (size 3 to 8) (size 9 to 14) (size 15 to 20)
#    0.000    1.000    3.333    1.500    4.667    9.333 
#    0.000    0.000    0.000    0.000    0.000    0.000 
#    0.000    0.000    0.000    0.000    0.000    0.000 
#
# Total GULP energy -67048.681940 kJ/mol
# GULP energy per Si atom -5587.390162 kJ/mol
# Density = 2.380129 g / cm^3
# Si number density = 23.855587 Si / 1000 Ang^3
#
#
#
# Elastic Constant Matrix: (Units=GPa)
#
#
# Indices 1 2 3 4 5 6 
#
# 1 116.2525 16.2454 59.3721 12.9227 2.5728 -32.1148
# 2 16.2454 81.2648 46.1226 31.0587 2.5949 -17.0989
# 3 59.3721 46.1226 126.3832 32.7451 4.0378 -17.7054
# 4 12.9227 31.0587 32.7451 43.3665 -8.6796 -8.5716
# 5 2.5728 2.5949 4.0378 -8.6796 40.1442 3.1402
# 6 -32.1148 -17.0989 -17.7054 -8.5716 3.1402 37.0271
#
#
#
# Elastic Compliance Matrix: (Units=1/GPa)
#
#
# Indices 1 2 3 4 5 6 
#
# 1 0.014503 0.002984 -0.006386 0.000296 -0.001283 0.011081
# 2 0.002984 0.020411 -0.004760 -0.011245 -0.004048 0.007478
# 3 -0.006386 -0.004760 0.013948 -0.006039 -0.001811 -0.002311
# 4 0.000296 -0.011245 -0.006039 0.037480 0.009415 0.000054
# 5 -0.001283 -0.004048 -0.001811 0.009415 0.027787 -0.004025
# 6 0.011081 0.007478 -0.002311 0.000054 -0.004025 0.039320
#
#
# Mechanical properties :
#
#
# Convention : Reuss Voigt Hill
#
# Bulk Modulus (GPa) = 30.73233 63.04229 46.88731
# Shear Modulus (GPa) = 27.68275 37.58492 32.63384
#
# Velocity S-wave (km/s) = 3.41021 3.97359 3.70263
# Velocity P-wave (km/s) = 5.33072 6.89467 6.16251
#
# Compressibility (1/GPa) = 0.03253902
#
# Stress axis : x y z
#
# Youngs Moduli (GPa) = 68.95289 48.99268 71.69375
#
# Poissons Ratio (x) = -0.14621 0.45780
# Poissons Ratio (y) = -0.20578 0.34129
# Poissons Ratio (z) = 0.44030 0.23322
#
# Static dielectric constant tensor:
#      x y z
#    x 1.941070 0.067800 0.015670 
#    y 0.067800 2.064260 0.034000 
#    z 0.015670 0.034000 1.990910 
# 
# From -- ./inp_files/135961.got.cif
#   From: 2010.05.17/outbox.cif.g08.bks.cpg/sg2_68_cif.got.tgz:135961.got - 2010.06.03 11:33:40.
