data_PCOD9049140
_publ_section_title
;
Structure prediction by ZEFSAII (Michael W. Deem and Ramdas Pophale) SiO2 
 PCOD9049140
Probable space group: P -1
;
_chemical_formula_sum "Si O2"
_cell_formula_units_Z 14
_cell_length_a 12.138184
_cell_length_b 15.327108
_cell_length_c 6.265406
_cell_angle_alpha 63.004391
_cell_angle_beta 64.345553
_cell_angle_gamma 32.400169
_cell_volume 553.507032
_symmetry_space_group_name_H-M "P -1"
_symmetry_group_IT_number 2
_symmetry_cell_setting 'triclinic'
loop_
_space_group_symop_operation_xyz
x,y,z
-x,-y,-z
loop_
_atom_site_type_symbol
_atom_site_label
_atom_site_fract_x
_atom_site_fract_y
_atom_site_fract_z
Si Si1 0.588523 0.346554 0.192348
Si Si2 0.245642 0.874797 0.093551
Si Si3 0.015586 0.658215 0.552607
Si Si4 0.102262 0.795872 0.553015
Si Si5 0.158733 0.133973 0.930432
Si Si6 0.593727 0.702245 0.348207
Si Si7 0.444822 0.010230 0.287846
O O1 0.702118 0.309451 0.348767
O O2 0.436948 0.360009 0.377048
O O3 0.500000 0.500000 0.000000
O O4 0.714890 0.218129 0.037314
O O5 0.082050 0.913913 0.321435
O O6 0.190549 0.017138 0.889100
O O7 0.447107 0.767584 0.195946
O O8 0.962097 0.709540 0.287973
O O9 0.127556 0.687258 0.497123
O O10 0.160875 0.472721 0.701530
O O11 0.796736 0.800687 0.708100
O O12 0.939928 0.858720 0.792867
O O13 0.510711 0.855815 0.353025
O O14 0.376623 0.039565 0.920219
O O15 0.500000 0.000000 0.500000
#
# Coordination Sequence:
#
# PCOD9049140 Si02
#       7
#     2   2   2   2   2   2   2
#     4  11  22  40  65  98 138 175 218 274 336 402
#     4  11  24  41  66 100 137 176 221 275 337 402
#     4  11  24  44  70 100 134 176 226 275 332 400
#     4  11  23  39  65 100 135 174 222 274 333 401
#     4  11  24  43  66  95 136 178 223 280 337 393
#     4  11  24  44  71 101 135 177 223 276 335 397
#     4  10  24  46  69  97 136 176 225 282 332 392
#
# _framework density 25.293265999999999
#
# number of rings (size 3 to 8) (size 9 to 14) (size 15 to 20)
#    0.000    1.143    0.000    6.429    0.000   11.429 
#    0.000    4.286    0.000    0.000    0.000    0.000 
#    0.000    0.000    0.000    0.000    0.000    0.000 
#
# Total GULP energy -78154.641390 kJ/mol
# GULP energy per Si atom -5582.474385 kJ/mol
# Density = 2.523570 g / cm^3
# Si number density = 25.293266 Si / 1000 Ang^3
#
#
#
# Elastic Constant Matrix: (Units=GPa)
#
#
# Indices 1 2 3 4 5 6 
#
# 1 119.4960 47.8975 14.2277 -4.6879 4.4612 0.9180
# 2 47.8975 149.1887 42.2282 -13.7495 7.0764 -8.0685
# 3 14.2277 42.2282 69.9842 -7.7781 -17.2851 -7.6052
# 4 -4.6879 -13.7495 -7.7781 38.5953 -9.4052 -5.2834
# 5 4.4612 7.0764 -17.2851 -9.4052 46.1772 3.7968
# 6 0.9180 -8.0685 -7.6052 -5.2834 3.7968 32.4393
#
#
#
# Elastic Compliance Matrix: (Units=1/GPa)
#
#
# Indices 1 2 3 4 5 6 
#
# 1 0.009656 -0.003037 -0.000431 -0.000293 -0.000598 -0.001107
# 2 -0.003037 0.009647 -0.005635 0.001405 -0.003153 0.001762
# 3 -0.000431 -0.005635 0.021027 0.004939 0.009516 0.003231
# 4 -0.000293 0.001405 0.004939 0.029906 0.007298 0.005532
# 5 -0.000598 -0.003153 0.009516 0.007298 0.027290 -0.000542
# 6 -0.001107 0.001762 0.003231 0.005532 -0.000542 0.033018
#
#
# Mechanical properties :
#
#
# Convention : Reuss Voigt Hill
#
# Bulk Modulus (GPa) = 45.19759 60.81952 53.00855
# Shear Modulus (GPa) = 32.02555 39.06339 35.54447
#
# Velocity S-wave (km/s) = 3.56219 3.93417 3.75279
# Velocity P-wave (km/s) = 5.90145 6.68841 6.30722
#
# Compressibility (1/GPa) = 0.02212507
#
# Stress axis : x y z
#
# Youngs Moduli (GPa) = 103.55889 103.65766 47.55779
#
# Poissons Ratio (x) = 0.31477 0.02051
# Poissons Ratio (y) = 0.31447 0.26797
# Poissons Ratio (z) = 0.04467 0.58408
#
# Static dielectric constant tensor:
#      x y z
#    x 2.059780 -0.036070 0.029460 
#    y -0.036070 2.130850 0.095070 
#    z 0.029460 0.095070 2.296560 
# 
# From -- ./inp_files/77338.got.cif
#   From: 2010.05.17/outbox.cif.g08.bks.cpg/sg2_39_cif.got.tgz:77338.got - 2010.06.03 11:33:40.
