data_PCOD9049064
_publ_section_title
;
Structure prediction by ZEFSAII (Michael W. Deem and Ramdas Pophale) SiO2 
 PCOD9049064
Probable space group: P -1
;
_chemical_formula_sum "Si O2"
_cell_formula_units_Z 16
_cell_length_a 8.728367
_cell_length_b 12.145138
_cell_length_c 10.372095
_cell_angle_alpha 127.583399
_cell_angle_beta 53.223150
_cell_angle_gamma 117.307137
_cell_volume 690.282023
_symmetry_space_group_name_H-M "P -1"
_symmetry_group_IT_number 2
_symmetry_cell_setting 'triclinic'
loop_
_space_group_symop_operation_xyz
x,y,z
-x,-y,-z
loop_
_atom_site_type_symbol
_atom_site_label
_atom_site_fract_x
_atom_site_fract_y
_atom_site_fract_z
Si Si1 0.568343 0.649194 0.500426
Si Si2 0.267653 0.280541 0.191386
Si Si3 0.925728 0.582629 0.405920
Si Si4 0.588248 0.165952 0.081325
Si Si5 0.975234 0.369773 0.019614
Si Si6 0.678637 0.288912 0.569749
Si Si7 0.069574 0.935595 0.787459
Si Si8 0.292388 0.221201 0.838918
O O1 0.500000 0.500000 0.500000
O O2 0.800109 0.665418 0.427701
O O3 0.485194 0.774408 0.705817
O O4 0.462332 0.645877 0.413569
O O5 0.481160 0.256642 0.099325
O O6 0.187734 0.407525 0.394265
O O7 0.126352 0.148203 0.230150
O O8 0.250521 0.268231 0.039103
O O9 0.924300 0.435756 0.229935
O O10 0.146995 0.634282 0.373517
O O11 0.813531 0.229846 0.989815
O O12 0.500000 0.000000 0.000000
O O13 0.000000 0.500000 0.000000
O O14 0.184786 0.324366 0.883962
O O15 0.786869 0.179200 0.357002
O O16 0.516821 0.221608 0.704050
O O17 0.183911 0.066736 0.751615
O O18 0.000000 0.000000 0.000000
#
# Coordination Sequence:
#
# PCOD9049064 Si02
#       8
#     2   2   2   2   2   2   2   2
#     4  11  24  44  74 110 144 195 254 310 374 455
#     4   9  22  41  69 102 138 188 253 302 367 446
#     4  10  24  46  68 103 145 192 250 302 372 450
#     4  11  25  44  74 106 144 196 252 314 370 446
#     4  12  27  45  71 106 157 194 245 318 389 448
#     4  11  25  43  74 104 152 192 243 312 388 439
#     4   9  20  41  71 101 140 190 248 303 363 451
#     4  11  24  41  68 106 145 191 249 303 382 450
#
# _framework density 23.178932
#
# number of rings (size 3 to 8) (size 9 to 14) (size 15 to 20)
#    0.000    1.500    1.250    1.875   10.500    3.500 
#    0.000    0.000    0.000    6.750    0.000    0.000 
#    0.000    0.000    0.000    0.000    0.000    0.000 
#
# Total GULP energy -89104.135177 kJ/mol
# GULP energy per Si atom -5569.008449 kJ/mol
# Density = 2.312618 g / cm^3
# Si number density = 23.178932 Si / 1000 Ang^3
#
#
#
# Elastic Constant Matrix: (Units=GPa)
#
#
# Indices 1 2 3 4 5 6 
#
# 1 143.3336 42.5063 33.3053 -2.7102 -17.7425 16.1360
# 2 42.5063 82.9698 46.3399 6.1483 4.2941 20.8733
# 3 33.3053 46.3399 98.3745 -1.8142 -13.5606 33.8108
# 4 -2.7102 6.1483 -1.8142 21.0876 5.8317 1.8440
# 5 -17.7425 4.2941 -13.5606 5.8317 40.6798 -0.5032
# 6 16.1360 20.8733 33.8108 1.8440 -0.5032 31.3589
#
#
#
# Elastic Compliance Matrix: (Units=1/GPa)
#
#
# Indices 1 2 3 4 5 6 
#
# 1 0.009073 -0.004756 0.000517 0.001568 0.004381 -0.002082
# 2 -0.004756 0.020301 -0.008228 -0.005345 -0.006218 -0.001979
# 3 0.000517 -0.008228 0.020955 0.003772 0.007322 -0.017487
# 4 0.001568 -0.005345 0.003772 0.051245 -0.004895 -0.004408
# 5 0.004381 -0.006218 0.007322 -0.004895 0.030227 -0.005237
# 6 -0.002082 -0.001979 -0.017487 -0.004408 -0.005237 0.053308
#
#
# Mechanical properties :
#
#
# Convention : Reuss Voigt Hill
#
# Bulk Modulus (GPa) = 39.37735 63.22009 51.29872
# Shear Modulus (GPa) = 22.88237 32.12703 27.50470
#
# Velocity S-wave (km/s) = 3.14539 3.72700 3.44848
# Velocity P-wave (km/s) = 5.49696 6.77161 6.16731
#
# Compressibility (1/GPa) = 0.02539531
#
# Stress axis : x y z
#
# Youngs Moduli (GPa) = 110.21114 49.25967 47.72088
#
# Poissons Ratio (x) = 0.23430 -0.02468
# Poissons Ratio (y) = 0.52420 0.39264
# Poissons Ratio (z) = -0.05700 0.40530
#
# Static dielectric constant tensor:
#      x y z
#    x 1.940680 -0.027580 0.025480 
#    y -0.027580 2.015240 0.020850 
#    z 0.025480 0.020850 1.899150 
# 
# From -- ./inp_files/392980.got.cif
#   From: 2010.05.17/outbox.cif.g08.bks.cpg/sg2_197_cif.got.tgz:392980.got - 2010.06.03 11:33:40.
