data_PCOD9049313
_publ_section_title
;
Structure prediction by ZEFSAII (Michael W. Deem and Ramdas Pophale) SiO2 
 PCOD9049313
Probable space group: P -1
;
_chemical_formula_sum "Si O2"
_cell_formula_units_Z 16
_cell_length_a 24.193965
_cell_length_b 8.343930
_cell_length_c 8.384334
_cell_angle_alpha 106.227836
_cell_angle_beta 43.857343
_cell_angle_gamma 136.499207
_cell_volume 694.045282
_symmetry_space_group_name_H-M "P -1"
_symmetry_group_IT_number 2
_symmetry_cell_setting 'triclinic'
loop_
_space_group_symop_operation_xyz
x,y,z
-x,-y,-z
loop_
_atom_site_type_symbol
_atom_site_label
_atom_site_fract_x
_atom_site_fract_y
_atom_site_fract_z
Si Si1 0.367774 0.383312 0.223017
Si Si2 0.111230 0.799442 0.678890
Si Si3 0.379736 0.402474 0.554710
Si Si4 0.116945 0.074506 0.032941
Si Si5 0.866322 0.520027 0.546615
Si Si6 0.600928 0.910363 0.429408
Si Si7 0.136305 0.497600 0.079166
Si Si8 0.595505 0.257413 0.987676
O O1 0.358368 0.446810 0.437609
O O2 0.375242 0.522805 0.103127
O O3 0.239354 0.061854 0.386897
O O4 0.500000 0.500000 0.000000
O O5 0.126856 0.628514 0.625785
O O6 0.981192 0.609974 0.797726
O O7 0.106814 0.918482 0.870667
O O8 0.523021 0.683523 0.391233
O O9 0.368243 0.182140 0.528369
O O10 0.257448 0.268211 0.873833
O O11 0.990957 0.837904 0.336377
O O12 0.121100 0.272933 0.024702
O O13 0.872375 0.479989 0.708245
O O14 0.729947 0.386242 0.770201
O O15 0.491294 0.852805 0.707593
O O16 0.728297 0.211744 0.189766
O O17 0.500000 0.000000 0.000000
#
# Coordination Sequence:
#
# PCOD9049313 Si02
#       8
#     2   2   2   2   2   2   2   2
#     4  11  23  46  72 104 141 183 239 291 354 421
#     4  11  26  45  76 104 141 192 240 297 358 425
#     4  10  24  46  72 104 139 189 232 298 350 435
#     4  11  25  46  73 100 147 186 243 295 360 418
#     4  12  27  47  71 109 146 189 241 298 357 429
#     4  11  26  45  71 104 146 187 238 288 368 416
#     4  12  27  46  75 106 147 191 239 297 358 433
#     4  12  28  42  71 105 145 186 237 292 353 426
#
# _framework density 23.053248
#
# number of rings (size 3 to 8) (size 9 to 14) (size 15 to 20)
#    0.000    0.750    1.250    4.500   10.500    2.000 
#    0.000    0.000    0.000    0.000    0.000    0.000 
#    0.000    0.000    0.000    0.000    0.000    0.000 
#
# Total GULP energy -89512.113351 kJ/mol
# GULP energy per Si atom -5594.507084 kJ/mol
# Density = 2.300078 g / cm^3
# Si number density = 23.053248 Si / 1000 Ang^3
#
#
#
# Elastic Constant Matrix: (Units=GPa)
#
#
# Indices 1 2 3 4 5 6 
#
# 1 70.2862 23.1763 45.3554 -12.8443 -16.5959 5.7479
# 2 23.1763 111.8467 65.3241 -22.4046 1.2764 -10.3011
# 3 45.3554 65.3241 168.1142 -42.7033 -16.6990 -6.8503
# 4 -12.8443 -22.4046 -42.7033 57.2915 -1.2875 -2.5135
# 5 -16.5959 1.2764 -16.6990 -1.2875 43.7513 -0.9343
# 6 5.7479 -10.3011 -6.8503 -2.5135 -0.9343 37.1367
#
#
#
# Elastic Compliance Matrix: (Units=1/GPa)
#
#
# Indices 1 2 3 4 5 6 
#
# 1 0.019181 -0.002072 -0.003803 0.000608 0.005816 -0.004057
# 2 -0.002072 0.012294 -0.003979 0.001452 -0.002556 0.003031
# 3 -0.003803 -0.003979 0.010231 0.005359 0.002775 0.001804
# 4 0.000608 0.001452 0.005359 0.022346 0.002953 0.002884
# 5 0.005816 -0.002556 0.002775 0.002953 0.026278 -0.000236
# 6 -0.004057 0.003031 0.001804 0.002884 -0.000236 0.028918
#
#
# Mechanical properties :
#
#
# Convention : Reuss Voigt Hill
#
# Bulk Modulus (GPa) = 45.46033 68.66208 57.06120
# Shear Modulus (GPa) = 34.17914 42.06199 38.12057
#
# Velocity S-wave (km/s) = 3.85465 4.27612 4.07084
# Velocity P-wave (km/s) = 6.29076 7.36404 6.84846
#
# Compressibility (1/GPa) = 0.02199720
#
# Stress axis : x y z
#
# Youngs Moduli (GPa) = 52.13512 81.34372 97.74316
#
# Poissons Ratio (x) = 0.16852 0.37171
# Poissons Ratio (y) = 0.10801 0.38896
# Poissons Ratio (z) = 0.19827 0.32370
#
# Static dielectric constant tensor:
#      x y z
#    x 1.882610 -0.074950 -0.025030 
#    y -0.074950 2.136930 0.159740 
#    z -0.025030 0.159740 1.976010 
# 
# From -- ./inp_files/356477.got.cif
#   From: 2010.05.17/outbox.cif.g08.bks.cpg/sg2_179_cif.got.tgz:356477.got - 2010.06.03 11:33:40.
