data_PCOD9049304
_publ_section_title
;
Structure prediction by ZEFSAII (Michael W. Deem and Ramdas Pophale) SiO2 
 PCOD9049304
Probable space group: P -1
;
_chemical_formula_sum "Si O2"
_cell_formula_units_Z 13
_cell_length_a 5.887335
_cell_length_b 8.808299
_cell_length_c 18.145239
_cell_angle_alpha 38.929898
_cell_angle_beta 116.149665
_cell_angle_gamma 109.009455
_cell_volume 530.509644
_symmetry_space_group_name_H-M "P -1"
_symmetry_group_IT_number 2
_symmetry_cell_setting 'triclinic'
loop_
_space_group_symop_operation_xyz
x,y,z
-x,-y,-z
loop_
_atom_site_type_symbol
_atom_site_label
_atom_site_fract_x
_atom_site_fract_y
_atom_site_fract_z
Si Si1 0.895799 0.605135 0.524038
Si Si2 0.348975 0.861142 0.721120
Si Si3 0.451938 0.830665 0.902499
Si Si4 0.000000 0.500000 0.000000
Si Si5 0.697364 0.319312 0.735789
Si Si6 0.415734 0.750383 0.612309
Si Si7 0.069771 0.415735 0.872363
O O1 0.767496 0.393784 0.634024
O O2 0.000000 0.500000 0.500000
O O3 0.126299 0.694511 0.573720
O O4 0.724546 0.853283 0.395810
O O5 0.526889 0.778417 0.846518
O O6 0.473366 0.770116 0.698769
O O7 0.101291 0.698240 0.750478
O O8 0.497804 0.113534 0.801578
O O9 0.177999 0.724845 0.912034
O O10 0.649637 0.702412 0.033058
O O11 0.041123 0.590995 0.058837
O O12 0.573984 0.554597 0.664848
O O13 0.938606 0.275804 0.839832
O O14 0.500000 0.000000 0.500000
#
# Coordination Sequence:
#
# PCOD9049304 Si02
#       7
#     2   2   2   1   2   2   2
#     4  12  27  47  72 111 151 195 248 312 377 439
#     4  11  23  48  72 105 147 197 252 297 374 447
#     4  11  27  47  73 108 150 195 252 309 367 447
#     4  10  24  46  72 102 138 200 248 296 376 426
#     4  12  27  46  74 115 150 195 248 313 374 441
#     4  12  25  44  75 106 151 199 246 305 373 451
#     4  11  25  46  73 105 149 194 257 298 371 444
#
# _framework density 24.504736000000001
#
# number of rings (size 3 to 8) (size 9 to 14) (size 15 to 20)
#    0.000    0.615    3.077    4.615    6.462    5.538 
#    0.000    0.000    0.000    0.000    0.000    0.000 
#    0.000    0.000    0.000    0.000    0.000    0.000 
#
# Total GULP energy -72440.217029 kJ/mol
# GULP energy per Si atom -5572.324387 kJ/mol
# Density = 2.444896 g / cm^3
# Si number density = 24.504736 Si / 1000 Ang^3
#
#
#
# Elastic Constant Matrix: (Units=GPa)
#
#
# Indices 1 2 3 4 5 6 
#
# 1 74.7328 39.0960 47.5102 -5.0276 -34.6266 -1.0078
# 2 39.0960 117.0153 47.0901 -15.0938 -23.2848 4.8698
# 3 47.5102 47.0901 104.0928 -7.3500 -27.7503 4.5506
# 4 -5.0276 -15.0938 -7.3500 56.5626 2.6673 -7.0611
# 5 -34.6266 -23.2848 -27.7503 2.6673 55.5089 9.0252
# 6 -1.0078 4.8698 4.5506 -7.0611 9.0252 51.2019
#
#
#
# Elastic Compliance Matrix: (Units=1/GPa)
#
#
# Indices 1 2 3 4 5 6 
#
# 1 0.024227 -0.003292 -0.006780 -0.000156 0.010426 -0.000467
# 2 -0.003292 0.011481 -0.003184 0.002204 0.001191 -0.000780
# 3 -0.006780 -0.003184 0.014765 0.000185 0.002048 -0.001478
# 4 -0.000156 0.002204 0.000185 0.018594 -0.000364 0.002399
# 5 0.010426 0.001191 0.002048 -0.000364 0.026853 -0.004874
# 6 -0.000467 -0.000780 -0.001478 0.002399 -0.004874 0.020917
#
#
# Mechanical properties :
#
#
# Convention : Reuss Voigt Hill
#
# Bulk Modulus (GPa) = 41.73231 62.58149 52.15690
# Shear Modulus (GPa) = 33.03892 43.46431 38.25162
#
# Velocity S-wave (km/s) = 3.67586 4.21611 3.95522
# Velocity P-wave (km/s) = 5.92311 7.02102 6.49531
#
# Compressibility (1/GPa) = 0.02396225
#
# Stress axis : x y z
#
# Youngs Moduli (GPa) = 41.27542 87.10082 67.72658
#
# Poissons Ratio (x) = 0.28677 0.45916
# Poissons Ratio (y) = 0.13589 0.21563
# Poissons Ratio (z) = 0.27983 0.27731
#
# Static dielectric constant tensor:
#      x y z
#    x 2.105910 0.086360 0.133550 
#    y 0.086360 1.977830 0.042830 
#    z 0.133550 0.042830 2.022440 
# 
# From -- ./inp_files/71165.got.cif
#   From: 2010.05.17/outbox.cif.g08.bks.cpg/sg2_36_cif.got.tgz:71165.got - 2010.06.03 11:33:40.
