data_PCOD9049354
_publ_section_title
;
Structure prediction by ZEFSAII (Michael W. Deem and Ramdas Pophale) SiO2 
 PCOD9049354
Probable space group: P -1
;
_chemical_formula_sum "Si O2"
_cell_formula_units_Z 15
_cell_length_a 12.875765
_cell_length_b 22.444893
_cell_length_c 5.609086
_cell_angle_alpha 99.407806
_cell_angle_beta 86.342671
_cell_angle_gamma 157.297340
_cell_volume 600.877813
_symmetry_space_group_name_H-M "P -1"
_symmetry_group_IT_number 2
_symmetry_cell_setting 'triclinic'
loop_
_space_group_symop_operation_xyz
x,y,z
-x,-y,-z
loop_
_atom_site_type_symbol
_atom_site_label
_atom_site_fract_x
_atom_site_fract_y
_atom_site_fract_z
Si Si1 0.188703 0.852061 0.893243
Si Si2 0.205818 0.312631 0.766081
Si Si3 0.548104 0.435744 0.162471
Si Si4 0.484482 0.244235 0.707856
Si Si5 0.900303 0.308245 0.540938
Si Si6 0.305029 0.014727 0.653303
Si Si7 0.000000 0.500000 0.500000
Si Si8 0.725710 0.820207 0.820280
O O1 0.096555 0.751273 0.654257
O O2 0.239354 0.948576 0.868974
O O3 0.950806 0.730138 0.041559
O O4 0.500000 0.000000 0.000000
O O5 0.400091 0.365675 0.884070
O O6 0.391232 0.462395 0.708644
O O7 0.945803 0.143611 0.569445
O O8 0.841406 0.560643 0.233711
O O9 0.321684 0.277213 0.246380
O O10 0.323828 0.096043 0.689829
O O11 0.358266 0.200764 0.443896
O O12 0.796940 0.398277 0.691492
O O13 0.471205 0.270768 0.980706
O O14 0.601533 0.149984 0.607158
O O15 0.945652 0.395142 0.448208
O O16 0.000000 0.000000 0.000000
#
# Coordination Sequence:
#
# PCOD9049354 Si02
#       8
#     2   2   2   2   2   2   1   2
#     4  12  24  41  77 105 144 194 250 313 387 457
#     4  11  25  45  69 110 142 196 245 316 387 463
#     4  11  25  46  72 103 154 190 255 315 390 456
#     4  11  27  47  76 111 150 204 260 318 388 457
#     4  11  22  46  69 105 147 192 253 313 385 459
#     4  11  24  45  72 103 148 191 252 318 379 468
#     4  10  24  46  72 110 152 196 256 326 384 456
#     4  12  27  50  76 108 154 211 257 318 384 471
#
# _framework density 24.963477999999999
#
# number of rings (size 3 to 8) (size 9 to 14) (size 15 to 20)
#    0.000    0.800    4.000    2.400    5.600    1.067 
#    0.000    0.000    0.000    0.000    0.000    0.000 
#    0.000    0.000    0.000    0.000    0.000    0.000 
#
# Total GULP energy -83514.848883 kJ/mol
# GULP energy per Si atom -5567.656592 kJ/mol
# Density = 2.490666 g / cm^3
# Si number density = 24.963478 Si / 1000 Ang^3
#
#
#
# Elastic Constant Matrix: (Units=GPa)
#
#
# Indices 1 2 3 4 5 6 
#
# 1 88.8028 47.4658 38.4624 -4.8505 16.7195 -21.7733
# 2 47.4658 155.5725 35.3052 3.3305 11.2204 -29.1188
# 3 38.4624 35.3052 79.7007 -11.8303 0.5421 -0.3445
# 4 -4.8505 3.3305 -11.8303 38.8811 12.2095 17.8979
# 5 16.7195 11.2204 0.5421 12.2095 34.6870 -7.8375
# 6 -21.7733 -29.1188 -0.3445 17.8979 -7.8375 65.4523
#
#
#
# Elastic Compliance Matrix: (Units=1/GPa)
#
#
# Indices 1 2 3 4 5 6 
#
# 1 0.018234 -0.002667 -0.007437 0.000782 -0.007236 0.003760
# 2 -0.002667 0.008814 -0.003258 -0.004395 0.001013 0.004340
# 3 -0.007437 -0.003258 0.018685 0.007636 0.000332 -0.005873
# 4 0.000782 -0.004395 0.007636 0.040535 -0.016672 -0.014736
# 5 -0.007236 0.001013 0.000332 -0.016672 0.039510 0.007335
# 6 0.003760 0.004340 -0.005873 -0.014736 0.007335 0.023337
#
#
# Mechanical properties :
#
#
# Convention : Reuss Voigt Hill
#
# Bulk Modulus (GPa) = 52.60311 62.94920 57.77615
# Shear Modulus (GPa) = 27.44604 41.32692 34.38648
#
# Velocity S-wave (km/s) = 3.31939 4.07319 3.71546
# Velocity P-wave (km/s) = 5.98405 6.88422 6.44986
#
# Compressibility (1/GPa) = 0.01901028
#
# Stress axis : x y z
#
# Youngs Moduli (GPa) = 54.84168 113.45243 53.51933
#
# Poissons Ratio (x) = 0.30255 0.39801
# Poissons Ratio (y) = 0.14625 0.17437
# Poissons Ratio (z) = 0.40785 0.36963
#
# Static dielectric constant tensor:
#      x y z
#    x 2.067350 -0.002040 0.021010 
#    y -0.002040 2.003610 0.024500 
#    z 0.021010 0.024500 2.041770 
# 
# From -- ./inp_files/100907.got.cif
#   From: 2010.05.17/outbox.cif.g08.bks.cpg/sg2_51_cif.got.tgz:100907.got - 2010.06.03 11:33:40.
