data_PCOD9049976
_publ_section_title
;
Structure prediction by ZEFSAII (Michael W. Deem and Ramdas Pophale) SiO2 
 PCOD9049976
Probable space group: P -1
;
_chemical_formula_sum "Si O2"
_cell_formula_units_Z 16
_cell_length_a 7.279990
_cell_length_b 14.151824
_cell_length_c 9.511804
_cell_angle_alpha 50.951729
_cell_angle_beta 84.935852
_cell_angle_gamma 108.651271
_cell_volume 662.825681
_symmetry_space_group_name_H-M "P -1"
_symmetry_group_IT_number 2
_symmetry_cell_setting 'triclinic'
loop_
_space_group_symop_operation_xyz
x,y,z
-x,-y,-z
loop_
_atom_site_type_symbol
_atom_site_label
_atom_site_fract_x
_atom_site_fract_y
_atom_site_fract_z
Si Si1 0.621032 0.701354 0.801083
Si Si2 0.603024 0.046159 0.293285
Si Si3 0.094311 0.546553 0.602652
Si Si4 0.544778 0.759824 0.446068
Si Si5 0.978753 0.866480 0.208794
Si Si6 0.236170 0.085563 0.199874
Si Si7 0.828821 0.518438 0.900585
Si Si8 0.974830 0.746215 0.050875
O O1 0.540801 0.689230 0.659985
O O2 0.759487 0.624457 0.873189
O O3 0.758294 0.861290 0.690741
O O4 0.397598 0.620997 0.973345
O O5 0.599904 0.915558 0.338406
O O6 0.460082 0.091983 0.169331
O O7 0.500000 0.000000 0.500000
O O8 0.839809 0.172181 0.151130
O O9 0.067295 0.799817 0.152493
O O10 0.940422 0.571231 0.693460
O O11 0.000000 0.500000 0.500000
O O12 0.321988 0.679903 0.462377
O O13 0.733992 0.762413 0.344437
O O14 0.079583 0.933247 0.290490
O O15 0.887833 0.583203 0.210806
O O16 0.193016 0.199531 0.017058
O O17 0.000000 0.000000 0.000000
O O18 0.000000 0.500000 0.000000
#
# Coordination Sequence:
#
# PCOD9049976 Si02
#       8
#     2   2   2   2   2   2   2   2
#     4  11  25  43  79 109 148 198 254 308 389 446
#     4  12  26  47  78 115 150 194 261 309 383 460
#     4  12  30  50  77 114 156 203 260 319 385 461
#     4  12  26  48  72 113 150 197 256 317 376 461
#     4  10  24  48  71 103 147 198 240 307 378 445
#     4  11  24  44  78 108 146 199 247 309 381 447
#     4  11  24  50  73 108 157 205 249 316 384 456
#     4  11  27  52  73 107 157 202 250 317 383 453
#
# _framework density 24.139077
#
# number of rings (size 3 to 8) (size 9 to 14) (size 15 to 20)
#    0.000    0.750    5.000    1.500    5.250    8.000 
#    0.000    0.000    0.000    0.000    0.000    0.000 
#    0.000    0.000    0.000    0.000    0.000    0.000 
#
# Total GULP energy -89434.100749 kJ/mol
# GULP energy per Si atom -5589.631297 kJ/mol
# Density = 2.408414 g / cm^3
# Si number density = 24.139077 Si / 1000 Ang^3
#
#
#
# Elastic Constant Matrix: (Units=GPa)
#
#
# Indices 1 2 3 4 5 6 
#
# 1 127.5795 25.2206 21.8533 1.7339 14.7933 10.8818
# 2 25.2206 79.7706 23.0925 14.3407 -9.6713 9.5374
# 3 21.8533 23.0925 52.8104 12.3820 -12.4537 18.6736
# 4 1.7339 14.3407 12.3820 41.5788 -5.2818 5.3921
# 5 14.7933 -9.6713 -12.4537 -5.2818 48.8149 -7.3210
# 6 10.8818 9.5374 18.6736 5.3921 -7.3210 43.9088
#
#
#
# Elastic Compliance Matrix: (Units=1/GPa)
#
#
# Indices 1 2 3 4 5 6 
#
# 1 0.009578 -0.002551 -0.003779 0.001188 -0.004408 -0.001093
# 2 -0.002551 0.015540 -0.004301 -0.003665 0.002347 -0.000073
# 3 -0.003779 -0.004301 0.027817 -0.004838 0.005602 -0.008431
# 4 0.001188 -0.003665 -0.004838 0.026853 0.000487 -0.000657
# 5 -0.004408 0.002347 0.005602 0.000487 0.024092 0.002157
# 6 -0.001093 -0.000073 -0.008431 -0.000657 0.002157 0.027087
#
#
# Mechanical properties :
#
#
# Convention : Reuss Voigt Hill
#
# Bulk Modulus (GPa) = 31.57406 44.49924 38.03665
# Shear Modulus (GPa) = 30.71506 39.52677 35.12092
#
# Velocity S-wave (km/s) = 3.57097 4.05094 3.81851
# Velocity P-wave (km/s) = 5.48734 6.35254 5.93572
#
# Compressibility (1/GPa) = 0.03167157
#
# Stress axis : x y z
#
# Youngs Moduli (GPa) = 104.40401 64.35100 35.94971
#
# Poissons Ratio (x) = 0.16419 0.13586
# Poissons Ratio (y) = 0.26638 0.15461
# Poissons Ratio (z) = 0.39457 0.27676
#
# Static dielectric constant tensor:
#      x y z
#    x 1.928350 0.000150 0.012900 
#    y 0.000150 1.979260 0.032530 
#    z 0.012900 0.032530 1.986750 
# 
# From -- ./inp_files/138730.got.cif
#   From: 2010.05.17/outbox.cif.g08.bks.cpg/sg2_70_cif.got.tgz:138730.got - 2010.06.03 11:33:40.
