data_PCOD9049925
_publ_section_title
;
Structure prediction by ZEFSAII (Michael W. Deem and Ramdas Pophale) SiO2 
 PCOD9049925
Probable space group: P -1
;
_chemical_formula_sum "Si O2"
_cell_formula_units_Z 16
_cell_length_a 12.166075
_cell_length_b 5.178558
_cell_length_c 10.732533
_cell_angle_alpha 81.753354
_cell_angle_beta 70.807063
_cell_angle_gamma 83.039289
_cell_volume 630.005716
_symmetry_space_group_name_H-M "P -1"
_symmetry_group_IT_number 2
_symmetry_cell_setting 'triclinic'
loop_
_space_group_symop_operation_xyz
x,y,z
-x,-y,-z
loop_
_atom_site_type_symbol
_atom_site_label
_atom_site_fract_x
_atom_site_fract_y
_atom_site_fract_z
Si Si1 0.122632 0.835841 0.943926
Si Si2 0.287953 0.089045 0.690544
Si Si3 0.302304 0.414536 0.909239
Si Si4 0.058267 0.218134 0.379598
Si Si5 0.747753 0.000340 0.868332
Si Si6 0.173134 0.526720 0.531986
Si Si7 0.483137 0.718167 0.696722
Si Si8 0.632788 0.192974 0.664998
O O1 0.165167 0.526037 0.939032
O O2 0.177442 0.946294 0.790116
O O3 0.197676 0.886622 0.036465
O O4 0.000000 0.000000 0.000000
O O5 0.327524 0.233095 0.791160
O O6 0.250836 0.307639 0.590884
O O7 0.391784 0.877000 0.627572
O O8 0.394547 0.632847 0.843888
O O9 0.316735 0.245673 0.039614
O O10 0.143909 0.098737 0.251965
O O11 0.129635 0.402531 0.428603
O O12 0.945770 0.389445 0.356456
O O13 0.000000 0.000000 0.500000
O O14 0.666462 0.192572 0.799235
O O15 0.247997 0.769501 0.456264
O O16 0.550094 0.450457 0.645980
O O17 0.575471 0.922799 0.684543
#
# Coordination Sequence:
#
# PCOD9049925 Si02
#       8
#     2   2   2   2   2   2   2   2
#     4  10  25  41  71 107 144 192 242 299 365 440
#     4  10  24  48  68 107 145 196 242 306 362 435
#     4  10  24  48  71 106 148 189 246 302 370 434
#     4  11  25  46  69 109 151 191 238 302 371 439
#     4  11  26  44  73 107 147 189 244 300 368 446
#     4  11  27  44  75 106 148 193 247 299 369 442
#     4  11  25  50  73 108 147 190 257 304 368 425
#     4  12  26  47  75 109 145 197 248 305 367 434
#
# _framework density 25.396594
#
# number of rings (size 3 to 8) (size 9 to 14) (size 15 to 20)
#    0.000    1.250    2.500    0.750    8.750    4.000 
#    0.000    0.000    0.000    0.000    0.000    0.000 
#    0.000    0.000    0.000    0.000    0.000    0.000 
#
# Total GULP energy -89560.084708 kJ/mol
# GULP energy per Si atom -5597.505294 kJ/mol
# Density = 2.533879 g / cm^3
# Si number density = 25.396594 Si / 1000 Ang^3
#
#
#
# Elastic Constant Matrix: (Units=GPa)
#
#
# Indices 1 2 3 4 5 6 
#
# 1 88.3850 35.7325 39.7085 -6.6120 -12.6589 -1.0076
# 2 35.7325 118.9503 25.7420 -3.2711 -9.9615 -10.9474
# 3 39.7085 25.7420 96.8445 -12.3232 -3.2617 -4.8119
# 4 -6.6120 -3.2711 -12.3232 49.8129 -9.3760 -0.8441
# 5 -12.6589 -9.9615 -3.2617 -9.3760 30.2386 4.1891
# 6 -1.0076 -10.9474 -4.8119 -0.8441 4.1891 51.9161
#
#
#
# Elastic Compliance Matrix: (Units=1/GPa)
#
#
# Indices 1 2 3 4 5 6 
#
# 1 0.015948 -0.003230 -0.005344 0.001638 0.005724 -0.001302
# 2 -0.003230 0.009933 -0.001136 0.000281 0.001636 0.001799
# 3 -0.005344 -0.001136 0.013149 0.002374 -0.000590 0.000962
# 4 0.001638 0.000281 0.002374 0.022400 0.007976 0.000032
# 5 0.005724 0.001636 -0.000590 0.007976 0.038775 -0.002598
# 6 -0.001302 0.001799 0.000962 0.000032 -0.002598 0.019915
#
#
# Mechanical properties :
#
#
# Convention : Reuss Voigt Hill
#
# Bulk Modulus (GPa) = 50.99150 56.28287 53.63718
# Shear Modulus (GPa) = 34.22847 39.92665 37.07756
#
# Velocity S-wave (km/s) = 3.67517 3.96931 3.82506
# Velocity P-wave (km/s) = 6.17501 6.57395 6.37760
#
# Compressibility (1/GPa) = 0.01961111
#
# Stress axis : x y z
#
# Youngs Moduli (GPa) = 62.70210 100.67285 76.05142
#
# Poissons Ratio (x) = 0.32515 0.40643
# Poissons Ratio (y) = 0.20251 0.08638
# Poissons Ratio (z) = 0.33509 0.11434
#
# Static dielectric constant tensor:
#      x y z
#    x 2.037050 0.006120 -0.012230 
#    y 0.006120 2.104860 0.006390 
#    z -0.012230 0.006390 1.954780 
# 
# From -- ./inp_files/410021.got.cif
#   From: 2010.05.17/outbox.cif.g08.bks.cpg/sg2_206_cif.got.tgz:410021.got - 2010.06.03 11:33:40.
