data_PCOD9049820
_publ_section_title
;
Structure prediction by ZEFSAII (Michael W. Deem and Ramdas Pophale) SiO2 
 PCOD9049820
Probable space group: P -1
;
_chemical_formula_sum "Si O2"
_cell_formula_units_Z 16
_cell_length_a 10.391989
_cell_length_b 26.823655
_cell_length_c 16.556779
_cell_angle_alpha 17.312986
_cell_angle_beta 136.792639
_cell_angle_gamma 136.808496
_cell_volume 927.741788
_symmetry_space_group_name_H-M "P -1"
_symmetry_group_IT_number 2
_symmetry_cell_setting 'triclinic'
loop_
_space_group_symop_operation_xyz
x,y,z
-x,-y,-z
loop_
_atom_site_type_symbol
_atom_site_label
_atom_site_fract_x
_atom_site_fract_y
_atom_site_fract_z
Si Si1 0.189218 0.532571 0.644503
Si Si2 0.714470 0.019020 0.538623
Si Si3 0.274475 0.982317 0.646713
Si Si4 0.993798 0.225212 0.919083
Si Si5 0.589776 0.072028 0.047259
Si Si6 0.567230 0.739404 0.450703
Si Si7 0.915470 0.696889 0.898708
Si Si8 0.024546 0.344555 0.194430
O O1 0.091702 0.382084 0.774915
O O2 0.412752 0.579397 0.653765
O O3 0.091401 0.695095 0.322451
O O4 0.152618 0.455896 0.835105
O O5 0.699642 0.989662 0.480244
O O6 0.835884 0.203056 0.328078
O O7 0.500000 0.000000 0.500000
O O8 0.844778 0.892089 0.833679
O O9 0.429642 0.939407 0.847754
O O10 0.110253 0.815958 0.832356
O O11 0.218592 0.156958 0.386850
O O12 0.812210 0.126368 0.038261
O O13 0.526823 0.890982 0.256468
O O14 0.480939 0.206036 0.745877
O O15 0.785279 0.721458 0.586496
O O16 0.937881 0.624921 0.931185
O O17 0.000000 0.500000 0.000000
#
# Coordination Sequence:
#
# PCOD9049820 Si02
#       8
#     2   2   2   2   2   2   2   2
#     4  10  20  31  58  92 112 137 184 241 276 318
#     4  11  23  39  59  80 111 152 191 227 275 336
#     4  10  17  34  61  83 105 144 193 234 270 319
#     4  10  18  35  58  84 115 143 183 235 278 321
#     4  10  17  36  60  84 109 145 188 229 280 330
#     4  10  21  33  56  86 118 146 177 227 287 333
#     4  10  18  35  58  84 111 142 190 233 272 321
#     4  11  24  40  55  79 119 155 180 224 284 339
#
# _framework density 17.246178
#
# number of rings (size 3 to 8) (size 9 to 14) (size 15 to 20)
#    0.000    1.750    5.000    0.750    1.750    0.500 
#    2.250    1.250    0.000    4.500    0.000    0.000 
#    0.000    0.000    0.000    0.000    0.000    0.000 
#
# Total GULP energy -89108.630861 kJ/mol
# GULP energy per Si atom -5569.289429 kJ/mol
# Density = 1.720693 g / cm^3
# Si number density = 17.246178 Si / 1000 Ang^3
#
#
#
# Elastic Constant Matrix: (Units=GPa)
#
#
# Indices 1 2 3 4 5 6 
#
# 1 63.3351 47.8212 40.7703 5.2337 -1.6805 -3.3426
# 2 47.8212 91.4300 39.1079 6.2809 -6.7363 -3.3891
# 3 40.7703 39.1079 72.2769 7.7990 -4.8519 -13.8660
# 4 5.2337 6.2809 7.7990 31.6063 -2.6575 0.9579
# 5 -1.6805 -6.7363 -4.8519 -2.6575 15.3301 0.1111
# 6 -3.3426 -3.3891 -13.8660 0.9579 0.1111 33.7143
#
#
#
# Elastic Compliance Matrix: (Units=1/GPa)
#
#
# Indices 1 2 3 4 5 6 
#
# 1 0.033178 -0.012310 -0.013060 -0.000223 -0.005921 -0.003293
# 2 -0.012310 0.019143 -0.003066 -0.000487 0.006012 -0.000563
# 3 -0.013060 -0.003066 0.025226 -0.003338 0.004562 0.008852
# 4 -0.000223 -0.000487 -0.003338 0.033043 0.004451 -0.002397
# 5 -0.005921 0.006012 0.004562 0.004451 0.069428 0.001538
# 6 -0.003293 -0.000563 0.008852 -0.002397 0.001538 0.032981
#
#
# Mechanical properties :
#
#
# Convention : Reuss Voigt Hill
#
# Bulk Modulus (GPa) = 48.36644 53.60456 50.98550
# Shear Modulus (GPa) = 18.06598 22.75297 20.40947
#
# Velocity S-wave (km/s) = 3.24008 3.63616 3.44382
# Velocity P-wave (km/s) = 6.48869 6.98415 6.74097
#
# Compressibility (1/GPa) = 0.02067549
#
# Stress axis : x y z
#
# Youngs Moduli (GPa) = 30.14020 52.23860 39.64184
#
# Poissons Ratio (x) = 0.64307 0.51771
# Poissons Ratio (y) = 0.37104 0.12154
# Poissons Ratio (z) = 0.39362 0.16016
#
# Static dielectric constant tensor:
#      x y z
#    x 1.569440 -0.000880 -0.017460 
#    y -0.000880 1.593730 0.021140 
#    z -0.017460 0.021140 1.617200 
# 
# From -- ./inp_files/185982.got.cif
#   From: 2010.05.17/outbox.cif.g08.bks.cpg/sg2_93_cif.got.tgz:185982.got - 2010.06.03 11:33:40.
