data_PCOD9049138
_publ_section_title
;
Structure prediction by ZEFSAII (Michael W. Deem and Ramdas Pophale) SiO2 
 PCOD9049138
Probable space group: P -1
;
_chemical_formula_sum "Si O2"
_cell_formula_units_Z 12
_cell_length_a 5.137829
_cell_length_b 14.075779
_cell_length_c 13.751062
_cell_angle_alpha 27.998079
_cell_angle_beta 91.698141
_cell_angle_gamma 101.921166
_cell_volume 430.773291
_symmetry_space_group_name_H-M "P -1"
_symmetry_group_IT_number 2
_symmetry_cell_setting 'triclinic'
loop_
_space_group_symop_operation_xyz
x,y,z
-x,-y,-z
loop_
_atom_site_type_symbol
_atom_site_label
_atom_site_fract_x
_atom_site_fract_y
_atom_site_fract_z
Si Si1 0.021255 0.383276 0.951772
Si Si2 0.833404 0.015605 0.641875
Si Si3 0.579928 0.791815 0.439719
Si Si4 0.589702 0.293943 0.204780
Si Si5 0.336672 0.357744 0.717359
Si Si6 0.747199 0.162774 0.959798
O O1 0.229772 0.626519 0.766089
O O2 0.849384 0.339287 0.890614
O O3 0.176827 0.213734 0.104486
O O4 0.804757 0.303287 0.112220
O O5 0.685138 0.927507 0.615290
O O6 0.637497 0.099957 0.628054
O O7 0.163871 0.167690 0.518154
O O8 0.422049 0.540258 0.638933
O O9 0.716973 0.934799 0.215285
O O10 0.500000 0.500000 0.000000
O O11 0.500000 0.500000 0.500000
O O12 0.464033 0.176343 0.904716
O O13 0.000901 0.250953 0.806306
#
# Coordination Sequence:
#
# PCOD9049138 Si02
#       6
#     2   2   2   2   2   2
#     4   9  18  32  58 101 128 170 222 256 309 387
#     4  10  17  34  59  93 129 171 213 251 318 373
#     4  11  23  41  68  96 129 174 215 270 327 386
#     4   9  16  28  57 100 133 163 220 262 301 379
#     4  12  28  46  67  99 130 164 220 282 331 390
#     4  11  23  43  71  94 130 175 218 258 333 398
#
# _framework density 27.856877999999998
#
# number of rings (size 3 to 8) (size 9 to 14) (size 15 to 20)
#    0.000    1.667    3.333    3.500    2.333    1.333 
#    0.000    0.000    0.000    6.000    0.000    0.000 
#    0.000    0.000    0.000    0.000    0.000    0.000 
#
# Total GULP energy -67305.675191 kJ/mol
# GULP energy per Si atom -5608.806266 kJ/mol
# Density = 2.779347 g / cm^3
# Si number density = 27.856878 Si / 1000 Ang^3
#
#
#
# Elastic Constant Matrix: (Units=GPa)
#
#
# Indices 1 2 3 4 5 6 
#
# 1 177.3082 42.3027 25.3662 -13.6074 -0.6232 -13.0327
# 2 42.3027 102.7662 20.5441 -25.6118 -0.3205 -2.1073
# 3 25.3662 20.5441 93.7252 -12.0585 -18.7010 -8.2062
# 4 -13.6074 -25.6118 -12.0585 69.8015 5.0539 -8.0176
# 5 -0.6232 -0.3205 -18.7010 5.0539 40.8155 -2.9867
# 6 -13.0327 -2.1073 -8.2062 -8.0176 -2.9867 52.5460
#
#
#
# Elastic Compliance Matrix: (Units=1/GPa)
#
#
# Indices 1 2 3 4 5 6 
#
# 1 0.006487 -0.002312 -0.001156 0.000403 -0.000398 0.001375
# 2 -0.002312 0.011962 -0.001741 0.003740 -0.001192 0.000137
# 3 -0.001156 -0.001741 0.012880 0.001184 0.005882 0.002170
# 4 0.000403 0.003740 0.001184 0.016401 -0.001243 0.002867
# 5 -0.000398 -0.001192 0.005882 -0.001243 0.027491 0.002145
# 6 0.001375 0.000137 0.002170 0.002867 0.002145 0.020276
#
#
# Mechanical properties :
#
#
# Convention : Reuss Voigt Hill
#
# Bulk Modulus (GPa) = 47.82155 61.13618 54.47887
# Shear Modulus (GPa) = 44.29270 51.67170 47.98220
#
# Velocity S-wave (km/s) = 3.99182 4.31153 4.15475
# Velocity P-wave (km/s) = 6.20083 6.83958 6.52802
#
# Compressibility (1/GPa) = 0.02091107
#
# Stress axis : x y z
#
# Youngs Moduli (GPa) = 154.14277 83.60066 77.63929
#
# Poissons Ratio (x) = 0.19327 0.08977
# Poissons Ratio (y) = 0.35636 0.13516
# Poissons Ratio (z) = 0.17823 0.14554
#
# Static dielectric constant tensor:
#      x y z
#    x 2.123570 0.043930 -0.005310 
#    y 0.043930 2.266870 0.011390 
#    z -0.005310 0.011390 2.126750 
# 
# From -- ./inp_files/322164.got.cif
#   From: 2010.05.17/outbox.cif.g08.bks.cpg/sg2_162_cif.got.tgz:322164.got - 2010.06.03 11:33:40.
