data_PCOD9049146
_publ_section_title
;
Structure prediction by ZEFSAII (Michael W. Deem and Ramdas Pophale) SiO2 
 PCOD9049146
Probable space group: P -1
;
_chemical_formula_sum "Si O2"
_cell_formula_units_Z 14
_cell_length_a 16.923157
_cell_length_b 9.390146
_cell_length_c 6.984076
_cell_angle_alpha 93.310064
_cell_angle_beta 121.870189
_cell_angle_gamma 50.217811
_cell_volume 654.212109
_symmetry_space_group_name_H-M "P -1"
_symmetry_group_IT_number 2
_symmetry_cell_setting 'triclinic'
loop_
_space_group_symop_operation_xyz
x,y,z
-x,-y,-z
loop_
_atom_site_type_symbol
_atom_site_label
_atom_site_fract_x
_atom_site_fract_y
_atom_site_fract_z
Si Si1 0.710616 0.260094 0.308424
Si Si2 0.059562 0.566754 0.191313
Si Si3 0.156849 0.383790 0.680021
Si Si4 0.304959 0.504209 0.014798
Si Si5 0.784870 0.956087 0.059086
Si Si6 0.433178 0.718798 0.514273
Si Si7 0.863244 0.234287 0.842789
O O1 0.650869 0.446854 0.105680
O O2 0.630592 0.254280 0.361033
O O3 0.799246 0.255454 0.564836
O O4 0.778481 0.076526 0.232747
O O5 0.167498 0.390236 0.466240
O O6 0.119914 0.615189 0.131494
O O7 0.000000 0.500000 0.000000
O O8 0.934501 0.784537 0.149896
O O9 0.208756 0.479734 0.829664
O O10 0.000000 0.500000 0.500000
O O11 0.236225 0.174486 0.877357
O O12 0.441716 0.314406 0.285916
O O13 0.222220 0.696003 0.070851
O O14 0.676152 0.104905 0.764497
O O15 0.500000 0.500000 0.500000
O O16 0.000000 0.000000 0.000000
#
# Coordination Sequence:
#
# PCOD9049146 Si02
#       7
#     2   2   2   2   2   2   2
#     4  12  24  44  71 101 143 182 239 288 350 410
#     4  11  24  45  71 101 145 184 229 290 357 417
#     4  10  24  46  69  98 141 183 226 288 354 419
#     4  12  25  46  70 103 140 189 232 287 355 418
#     4  11  26  45  72 104 142 188 234 290 350 418
#     4  12  25  46  71 103 143 186 238 293 344 410
#     4  12  25  38  69 107 139 180 234 292 353 415
#
# _framework density 21.399788000000001
#
# number of rings (size 3 to 8) (size 9 to 14) (size 15 to 20)
#    0.000    0.571    4.286    3.857    8.000    1.714 
#    0.000    0.714    0.000    0.000    0.000    0.000 
#    0.000    0.000    0.000    0.000    0.000    0.000 
#
# Total GULP energy -78075.700717 kJ/mol
# GULP energy per Si atom -5576.835765 kJ/mol
# Density = 2.135108 g / cm^3
# Si number density = 21.399788 Si / 1000 Ang^3
#
#
#
# Elastic Constant Matrix: (Units=GPa)
#
#
# Indices 1 2 3 4 5 6 
#
# 1 78.8191 32.5292 50.4376 0.7139 -10.7678 10.2225
# 2 32.5292 62.5101 50.8619 6.4585 -7.9614 9.8604
# 3 50.4376 50.8619 163.7083 -0.9007 -8.8496 5.5905
# 4 0.7139 6.4585 -0.9007 48.2591 8.3573 -4.8180
# 5 -10.7678 -7.9614 -8.8496 8.3573 44.7151 5.0551
# 6 10.2225 9.8604 5.5905 -4.8180 5.0551 28.2520
#
#
#
# Elastic Compliance Matrix: (Units=1/GPa)
#
#
# Indices 1 2 3 4 5 6 
#
# 1 0.018300 -0.005292 -0.003650 -0.000699 0.003414 -0.004782
# 2 -0.005292 0.025752 -0.005933 -0.004895 0.003891 -0.007430
# 3 -0.003650 -0.005933 0.008983 0.001319 -0.000624 0.001951
# 4 -0.000699 -0.004895 0.001319 0.023092 -0.005851 0.006685
# 5 0.003414 0.003891 -0.000624 -0.005851 0.025762 -0.008077
# 6 -0.004782 -0.007430 0.001951 0.006685 -0.008077 0.041919
#
#
# Mechanical properties :
#
#
# Convention : Reuss Voigt Hill
#
# Bulk Modulus (GPa) = 42.94571 63.63277 53.28924
# Shear Modulus (GPa) = 27.57561 35.65916 31.61738
#
# Velocity S-wave (km/s) = 3.59359 4.08650 3.84795
# Velocity P-wave (km/s) = 6.10986 7.21566 6.68566
#
# Compressibility (1/GPa) = 0.02328521
#
# Stress axis : x y z
#
# Youngs Moduli (GPa) = 54.64534 38.83162 111.31784
#
# Poissons Ratio (x) = 0.20548 0.40631
# Poissons Ratio (y) = 0.28916 0.66049
# Poissons Ratio (z) = 0.19946 0.23040
#
# Static dielectric constant tensor:
#      x y z
#    x 1.823470 0.007390 -0.070040 
#    y 0.007390 1.778050 -0.024160 
#    z -0.070040 -0.024160 1.628590 
# 
# From -- ./inp_files/107257.got.cif
#   From: 2010.05.17/outbox.cif.g08.bks.cpg/sg2_54_cif.got.tgz:107257.got - 2010.06.03 11:33:40.
