data_PCOD9049255
_publ_section_title
;
Structure prediction by ZEFSAII (Michael W. Deem and Ramdas Pophale) SiO2 
 PCOD9049255
Probable space group: P -1
;
_chemical_formula_sum "Si O2"
_cell_formula_units_Z 12
_cell_length_a 10.713086
_cell_length_b 5.310212
_cell_length_c 9.474352
_cell_angle_alpha 95.851606
_cell_angle_beta 105.757564
_cell_angle_gamma 112.828709
_cell_volume 464.855127
_symmetry_space_group_name_H-M "P -1"
_symmetry_group_IT_number 2
_symmetry_cell_setting 'triclinic'
loop_
_space_group_symop_operation_xyz
x,y,z
-x,-y,-z
loop_
_atom_site_type_symbol
_atom_site_label
_atom_site_fract_x
_atom_site_fract_y
_atom_site_fract_z
Si Si1 0.348459 0.669432 0.573304
Si Si2 0.902070 0.092362 0.874578
Si Si3 0.136044 0.671595 0.863454
Si Si4 0.057765 0.194082 0.392680
Si Si5 0.510309 0.307262 0.685585
Si Si6 0.408262 0.675580 0.996078
O O1 0.178040 0.490191 0.499900
O O2 0.431173 0.510567 0.668948
O O3 0.411447 0.686476 0.435714
O O4 0.394555 0.985737 0.655439
O O5 0.997327 0.399467 0.857481
O O6 0.860638 0.904793 0.710034
O O7 0.802339 0.120905 0.969597
O O8 0.000000 0.000000 0.000000
O O9 0.259579 0.576502 0.860736
O O10 0.077128 0.799393 0.730575
O O11 0.000000 0.000000 0.500000
O O12 0.623655 0.374039 0.849428
O O13 0.500000 0.500000 0.000000
O O14 0.500000 0.000000 0.000000
#
# Coordination Sequence:
#
# PCOD9049255 Si02
#       6
#     2   2   2   2   2   2
#     4  10  24  46  74 103 145 190 248 296 373 438
#     4   9  22  43  72 109 142 190 246 310 369 454
#     4  10  25  46  73 108 144 198 253 307 378 447
#     4  11  26  43  75 111 154 196 243 323 380 451
#     4  10  24  46  71 104 141 197 244 300 356 455
#     4  12  29  46  76 106 149 197 246 311 369 442
#
# _framework density 25.814495000000001
#
# number of rings (size 3 to 8) (size 9 to 14) (size 15 to 20)
#    0.000    1.667    0.000    1.000   16.333    4.667 
#    0.000    0.000    0.000    0.000    0.000    0.000 
#    0.000    0.000    0.000    0.000    0.000    0.000 
#
# Total GULP energy -67161.120659 kJ/mol
# GULP energy per Si atom -5596.760055 kJ/mol
# Density = 2.575574 g / cm^3
# Si number density = 25.814495 Si / 1000 Ang^3
#
#
#
# Elastic Constant Matrix: (Units=GPa)
#
#
# Indices 1 2 3 4 5 6 
#
# 1 103.5495 22.5523 38.6343 -20.7855 20.7363 -14.4850
# 2 22.5523 128.4832 40.5220 -21.8587 11.5996 -11.6795
# 3 38.6343 40.5220 142.5109 -40.5584 12.5423 -7.6741
# 4 -20.7855 -21.8587 -40.5584 48.2019 -6.3849 8.8001
# 5 20.7363 11.5996 12.5423 -6.3849 37.3020 -2.5884
# 6 -14.4850 -11.6795 -7.6741 8.8001 -2.5884 39.2582
#
#
#
# Elastic Compliance Matrix: (Units=1/GPa)
#
#
# Indices 1 2 3 4 5 6 
#
# 1 0.012492 -0.000395 -0.001981 0.002213 -0.005551 0.003242
# 2 -0.000395 0.009009 -0.001655 0.002013 -0.001566 0.001656
# 3 -0.001981 -0.001655 0.009990 0.006874 -0.000626 -0.000852
# 4 0.002213 0.002013 0.006874 0.029154 0.000563 -0.003739
# 5 -0.005551 -0.001566 -0.000626 0.000563 0.030636 -0.000743
# 6 0.003242 0.001656 -0.000852 -0.003739 -0.000743 0.027784
#
#
# Mechanical properties :
#
#
# Convention : Reuss Voigt Hill
#
# Bulk Modulus (GPa) = 42.68270 64.21788 53.45029
# Shear Modulus (GPa) = 37.05430 43.14143 40.09786
#
# Velocity S-wave (km/s) = 3.79279 4.09248 3.94548
# Velocity P-wave (km/s) = 5.97918 6.87473 6.44253
#
# Compressibility (1/GPa) = 0.02342870
#
# Stress axis : x y z
#
# Youngs Moduli (GPa) = 80.05151 111.00367 100.09979
#
# Poissons Ratio (x) = 0.04389 0.19830
# Poissons Ratio (y) = 0.03166 0.16562
# Poissons Ratio (z) = 0.15859 0.18366
#
# Static dielectric constant tensor:
#      x y z
#    x 2.091430 -0.044220 -0.096030 
#    y -0.044220 2.006750 0.071240 
#    z -0.096030 0.071240 2.138690 
# 
# From -- ./inp_files/21431.got.cif
#   From: 2010.05.17/outbox.cif.g08.bks.cpg/sg2_11_cif.got.tgz:21431.got - 2010.06.03 11:33:40.
