data_PCOD9049646
_publ_section_title
;
Structure prediction by ZEFSAII (Michael W. Deem and Ramdas Pophale) SiO2 
 PCOD9049646
Probable space group: P -1
;
_chemical_formula_sum "Si O2"
_cell_formula_units_Z 14
_cell_length_a 7.249125
_cell_length_b 19.170921
_cell_length_c 8.975625
_cell_angle_alpha 139.052417
_cell_angle_beta 51.977241
_cell_angle_gamma 104.410907
_cell_volume 584.697044
_symmetry_space_group_name_H-M "P -1"
_symmetry_group_IT_number 2
_symmetry_cell_setting 'triclinic'
loop_
_space_group_symop_operation_xyz
x,y,z
-x,-y,-z
loop_
_atom_site_type_symbol
_atom_site_label
_atom_site_fract_x
_atom_site_fract_y
_atom_site_fract_z
Si Si1 0.219651 0.269308 0.698270
Si Si2 0.772954 0.488839 0.400637
Si Si3 0.508597 0.009089 0.187784
Si Si4 0.401353 0.907302 0.333204
Si Si5 0.376927 0.634541 0.329774
Si Si6 0.958615 0.170874 0.424223
Si Si7 0.138104 0.344987 0.295889
O O1 0.390930 0.147359 0.501222
O O2 0.407515 0.328456 0.652313
O O3 0.083327 0.234085 0.574634
O O4 0.995934 0.361622 0.061821
O O5 0.500000 0.500000 0.500000
O O6 0.755397 0.564371 0.683209
O O7 0.868629 0.582907 0.430424
O O8 0.346271 0.950267 0.259164
O O9 0.500000 0.000000 0.000000
O O10 0.808317 0.928449 0.943744
O O11 0.174721 0.893394 0.511689
O O12 0.500000 0.000000 0.500000
O O13 0.639246 0.781266 0.016126
O O14 0.136912 0.654337 0.590184
O O15 0.500000 0.500000 0.000000
O O16 0.759579 0.270961 0.580518
#
# Coordination Sequence:
#
# PCOD9049646 Si02
#       7
#     2   2   2   2   2   2   2
#     4  11  25  45  69 101 138 182 235 287 358 419
#     4  11  24  44  69  99 141 184 236 297 355 424
#     4  10  24  47  70 107 143 182 239 297 355 425
#     4  12  25  45  78 104 142 193 238 292 364 427
#     4  12  25  44  71  99 143 185 236 293 351 423
#     4  11  26  47  72 103 147 184 236 296 354 423
#     4  11  25  44  67 104 140 183 240 291 356 422
#
# _framework density 23.944023000000001
#
# number of rings (size 3 to 8) (size 9 to 14) (size 15 to 20)
#    0.000    0.857    2.857    3.429    6.000    5.143 
#    5.143    0.000    0.000    0.000    0.000    0.000 
#    0.000    0.000    0.000    0.000    0.000    0.000 
#
# Total GULP energy -78026.527407 kJ/mol
# GULP energy per Si atom -5573.323386 kJ/mol
# Density = 2.388953 g / cm^3
# Si number density = 23.944023 Si / 1000 Ang^3
#
#
#
# Elastic Constant Matrix: (Units=GPa)
#
#
# Indices 1 2 3 4 5 6 
#
# 1 95.8991 52.2627 36.6905 7.2784 1.5971 22.3879
# 2 52.2627 164.6406 58.7334 -0.3155 0.4426 16.6578
# 3 36.6905 58.7334 171.3434 25.4448 -29.9367 6.7884
# 4 7.2784 -0.3155 25.4448 42.8434 0.1075 -0.2754
# 5 1.5971 0.4426 -29.9367 0.1075 34.7375 0.3692
# 6 22.3879 16.6578 6.7884 -0.2754 0.3692 49.7390
#
#
#
# Elastic Compliance Matrix: (Units=1/GPa)
#
#
# Indices 1 2 3 4 5 6 
#
# 1 0.014294 -0.003348 -0.001895 -0.001355 -0.002190 -0.005045
# 2 -0.003348 0.008245 -0.002839 0.002316 -0.002396 -0.000836
# 3 -0.001895 -0.002839 0.009432 -0.005319 0.008263 0.000426
# 4 -0.001355 0.002316 -0.005319 0.026763 -0.004641 0.000743
# 5 -0.002190 -0.002396 0.008263 -0.004641 0.036050 0.000367
# 6 -0.005045 -0.000836 0.000426 0.000743 0.000367 0.022599
#
#
# Mechanical properties :
#
#
# Convention : Reuss Voigt Hill
#
# Bulk Modulus (GPa) = 63.25859 80.80627 72.03243
# Shear Modulus (GPa) = 36.01914 44.41043 40.21478
#
# Velocity S-wave (km/s) = 3.88275 4.31137 4.10266
# Velocity P-wave (km/s) = 6.82478 7.65540 7.25199
#
# Compressibility (1/GPa) = 0.01580813
#
# Stress axis : x y z
#
# Youngs Moduli (GPa) = 69.95865 121.29064 106.02516
#
# Poissons Ratio (x) = 0.40605 0.20090
# Poissons Ratio (y) = 0.23420 0.30096
# Poissons Ratio (z) = 0.13256 0.34430
#
# Static dielectric constant tensor:
#      x y z
#    x 2.023350 -0.114450 0.036560 
#    y -0.114450 1.936350 -0.061110 
#    z 0.036560 -0.061110 1.910750 
# 
# From -- ./inp_files/406357.got.cif
#   From: 2010.05.17/outbox.cif.g08.bks.cpg/sg2_204_cif.got.tgz:406357.got - 2010.06.03 11:33:40.
