data_PCOD9049796
_publ_section_title
;
Structure prediction by ZEFSAII (Michael W. Deem and Ramdas Pophale) SiO2 
 PCOD9049796
Probable space group: P -1
;
_chemical_formula_sum "Si O2"
_cell_formula_units_Z 14
_cell_length_a 10.008638
_cell_length_b 11.577433
_cell_length_c 13.052225
_cell_angle_alpha 148.384700
_cell_angle_beta 134.503453
_cell_angle_gamma 49.314273
_cell_volume 559.303422
_symmetry_space_group_name_H-M "P -1"
_symmetry_group_IT_number 2
_symmetry_cell_setting 'triclinic'
loop_
_space_group_symop_operation_xyz
x,y,z
-x,-y,-z
loop_
_atom_site_type_symbol
_atom_site_label
_atom_site_fract_x
_atom_site_fract_y
_atom_site_fract_z
Si Si1 0.577756 0.765562 0.409128
Si Si2 0.667706 0.116790 0.061445
Si Si3 0.983188 0.256024 0.716642
Si Si4 0.374993 0.371081 0.261415
Si Si5 0.036081 0.192338 0.247609
Si Si6 0.208721 0.622878 0.100342
Si Si7 0.253822 0.638875 0.908641
O O1 0.403001 0.667025 0.290656
O O2 0.629700 0.604271 0.218501
O O3 0.500000 0.000000 0.500000
O O4 0.755326 0.785013 0.590558
O O5 0.509930 0.254790 0.153463
O O6 0.644367 0.210665 0.002362
O O7 0.882824 0.167537 0.235289
O O8 0.673515 0.852436 0.876595
O O9 0.808291 0.441846 0.722458
O O10 0.954936 0.257847 0.825240
O O11 0.000000 0.000000 0.500000
O O12 0.168461 0.370100 0.878942
O O13 0.500000 0.500000 0.500000
O O14 0.210495 0.718861 0.059679
O O15 0.939625 0.397111 0.281414
O O16 0.000000 0.000000 0.000000
#
# Coordination Sequence:
#
# PCOD9049796 Si02
#       7
#     2   2   2   2   2   2   2
#     4  12  26  43  77 124 164 210 262 331 419 491
#     4   9  25  47  79 112 161 202 277 333 398 475
#     4  11  29  54  82 114 165 221 276 336 416 497
#     4  11  25  49  80 113 152 217 277 331 397 482
#     4  10  24  47  74 115 157 204 263 335 403 477
#     4  11  27  52  78 119 167 215 265 337 421 488
#     4  10  24  49  79 113 162 208 264 338 410 484
#
# _framework density 25.031136
#
# number of rings (size 3 to 8) (size 9 to 14) (size 15 to 20)
#    0.857    0.571    0.000    2.571    6.000    9.143 
#    0.000    0.000    0.000    0.857    0.000    0.000 
#    0.000    0.000    0.000    0.000    0.000    0.000 
#
# Total GULP energy -78136.660351 kJ/mol
# GULP energy per Si atom -5581.190025 kJ/mol
# Density = 2.497416 g / cm^3
# Si number density = 25.031136 Si / 1000 Ang^3
#
#
#
# Elastic Constant Matrix: (Units=GPa)
#
#
# Indices 1 2 3 4 5 6 
#
# 1 141.9205 53.4959 69.6623 0.2235 17.2827 16.2784
# 2 53.4959 148.5045 82.7327 5.2151 15.2183 -4.3165
# 3 69.6623 82.7327 199.9849 13.0938 24.9190 -0.5154
# 4 0.2235 5.2151 13.0938 58.1997 -14.3327 6.2643
# 5 17.2827 15.2183 24.9190 -14.3327 44.3057 -7.6029
# 6 16.2784 -4.3165 -0.5154 6.2643 -7.6029 40.4536
#
#
#
# Elastic Compliance Matrix: (Units=1/GPa)
#
#
# Indices 1 2 3 4 5 6 
#
# 1 0.009824 -0.002187 -0.002264 0.000580 -0.002437 -0.004763
# 2 -0.002187 0.009309 -0.002991 -0.000472 -0.000504 0.001813
# 3 -0.002264 -0.002991 0.007541 -0.002200 -0.002961 0.000472
# 4 0.000580 -0.000472 -0.002200 0.019708 0.007204 -0.002010
# 5 -0.002437 -0.000504 -0.002961 0.007204 0.028573 0.005144
# 6 -0.004763 0.001813 0.000472 -0.002010 0.005144 0.028114
#
#
# Mechanical properties :
#
#
# Convention : Reuss Voigt Hill
#
# Bulk Modulus (GPa) = 84.81677 100.24352 92.53015
# Shear Modulus (GPa) = 41.02380 47.55975 44.29177
#
# Velocity S-wave (km/s) = 4.05274 4.36365 4.21107
# Velocity P-wave (km/s) = 7.47380 8.09464 7.79040
#
# Compressibility (1/GPa) = 0.01179012
#
# Stress axis : x y z
#
# Youngs Moduli (GPa) = 101.79168 107.42685 132.61624
#
# Poissons Ratio (x) = 0.23491 0.30024
# Poissons Ratio (y) = 0.22258 0.39664
# Poissons Ratio (z) = 0.23046 0.32130
#
# Static dielectric constant tensor:
#      x y z
#    x 2.055960 -0.075780 -0.013530 
#    y -0.075780 2.423780 0.085970 
#    z -0.013530 0.085970 2.034390 
# 
# From -- ./inp_files/569891.got.cif
#   From: 2010.05.17/outbox.cif.g08.bks.cpg/sg2_285_cif.got.tgz:569891.got - 2010.06.03 11:33:40.
