data_PCOD9049213
_publ_section_title
;
Structure prediction by ZEFSAII (Michael W. Deem and Ramdas Pophale) SiO2 
 PCOD9049213
Probable space group: P -1
;
_chemical_formula_sum "Si O2"
_cell_formula_units_Z 16
_cell_length_a 19.208069
_cell_length_b 9.331260
_cell_length_c 14.610298
_cell_angle_alpha 33.376368
_cell_angle_beta 139.971401
_cell_angle_gamma 145.691115
_cell_volume 787.289990
_symmetry_space_group_name_H-M "P -1"
_symmetry_group_IT_number 2
_symmetry_cell_setting 'triclinic'
loop_
_space_group_symop_operation_xyz
x,y,z
-x,-y,-z
loop_
_atom_site_type_symbol
_atom_site_label
_atom_site_fract_x
_atom_site_fract_y
_atom_site_fract_z
Si Si1 0.993080 0.643876 0.014006
Si Si2 0.460931 0.301106 0.476097
Si Si3 0.390228 0.635176 0.575208
Si Si4 0.903620 0.641597 0.585411
Si Si5 0.992231 0.447439 0.626462
Si Si6 0.789246 0.754298 0.827199
Si Si7 0.800704 0.653647 0.100489
Si Si8 0.587696 0.373379 0.189456
O O1 0.037375 0.503220 0.212669
O O2 0.000000 0.500000 0.000000
O O3 0.853199 0.586146 0.929794
O O4 0.095378 0.009889 0.933118
O O5 0.500000 0.500000 0.500000
O O6 0.553719 0.470814 0.392591
O O7 0.324039 0.242126 0.340534
O O8 0.463199 0.991144 0.662067
O O9 0.247305 0.532903 0.456058
O O10 0.376361 0.514225 0.729139
O O11 0.500000 0.000000 0.500000
O O12 0.923953 0.600469 0.521852
O O13 0.000000 0.000000 0.500000
O O14 0.000000 0.500000 0.500000
O O15 0.132864 0.541516 0.746498
O O16 0.905421 0.102529 0.757281
O O17 0.753993 0.674623 0.941108
O O18 0.697443 0.500270 0.156812
O O19 0.500000 0.500000 0.000000
#
# Coordination Sequence:
#
# PCOD9049213 Si02
#       8
#     2   2   2   2   2   2   2   2
#     4  11  26  41  67 102 140 182 219 292 357 406
#     4  11  26  46  69 101 135 186 230 293 354 409
#     4  10  24  46  70  96 139 190 233 279 348 429
#     4  12  26  42  66 105 142 175 229 294 353 402
#     4  11  21  39  65  97 129 177 228 272 341 414
#     4  11  22  46  69  92 136 183 231 282 345 420
#     4  11  22  42  69  95 130 178 230 279 343 417
#     4  11  25  43  71 101 129 184 242 285 336 427
#
# _framework density 20.322880999999999
#
# number of rings (size 3 to 8) (size 9 to 14) (size 15 to 20)
#    0.000    1.000    2.500    4.500   10.500    1.000 
#    0.000    1.250    0.000    0.000    0.000    0.000 
#    0.000    0.000    0.000    0.000    0.000    0.000 
#
# Total GULP energy -89150.047447 kJ/mol
# GULP energy per Si atom -5571.877965 kJ/mol
# Density = 2.027663 g / cm^3
# Si number density = 20.322881 Si / 1000 Ang^3
#
#
#
# Elastic Constant Matrix: (Units=GPa)
#
#
# Indices 1 2 3 4 5 6 
#
# 1 178.8470 44.6485 33.3988 7.3229 -0.0857 -5.3791
# 2 44.6485 57.2958 24.6307 7.7027 12.5195 -2.0724
# 3 33.3988 24.6307 97.2447 20.0098 4.0321 7.1190
# 4 7.3229 7.7027 20.0098 27.6949 4.6295 1.3674
# 5 -0.0857 12.5195 4.0321 4.6295 43.2599 7.2470
# 6 -5.3791 -2.0724 7.1190 1.3674 7.2470 42.8164
#
#
#
# Elastic Compliance Matrix: (Units=1/GPa)
#
#
# Indices 1 2 3 4 5 6 
#
# 1 0.007186 -0.005416 -0.001248 0.000216 0.001579 0.000574
# 2 -0.005416 0.025318 -0.004117 -0.001554 -0.007206 0.002499
# 3 -0.001248 -0.004117 0.013630 -0.008456 0.001253 -0.002564
# 4 0.000216 -0.001554 -0.008456 0.043145 -0.003474 0.000568
# 5 0.001579 -0.007206 0.001253 -0.003474 0.026245 -0.004690
# 6 0.000574 0.002499 -0.002564 0.000568 -0.004690 0.024751
#
#
# Mechanical properties :
#
#
# Convention : Reuss Voigt Hill
#
# Bulk Modulus (GPa) = 40.69730 59.86040 50.27885
# Shear Modulus (GPa) = 29.40696 38.13486 33.77091
#
# Velocity S-wave (km/s) = 3.80806 4.33650 4.08084
# Velocity P-wave (km/s) = 6.27725 7.38866 6.85551
#
# Compressibility (1/GPa) = 0.02457166
#
# Stress axis : x y z
#
# Youngs Moduli (GPa) = 139.16367 39.49808 73.36533
#
# Poissons Ratio (x) = 0.21394 0.09156
# Poissons Ratio (y) = 0.75376 0.30203
# Poissons Ratio (z) = 0.17367 0.16260
#
# Static dielectric constant tensor:
#      x y z
#    x 1.753950 -0.015840 0.056910 
#    y -0.015840 1.664620 0.027190 
#    z 0.056910 0.027190 1.850970 
# 
# From -- ./inp_files/185800.got.cif
#   From: 2010.05.17/outbox.cif.g08.bks.cpg/sg2_93_cif.got.tgz:185800.got - 2010.06.03 11:33:40.
