data_PCOD9049920
_publ_section_title
;
Structure prediction by ZEFSAII (Michael W. Deem and Ramdas Pophale) SiO2 
 PCOD9049920
Probable space group: P -1
;
_chemical_formula_sum "Si O2"
_cell_formula_units_Z 16
_cell_length_a 8.869251
_cell_length_b 6.951842
_cell_length_c 21.079976
_cell_angle_alpha 47.156886
_cell_angle_beta 78.577088
_cell_angle_gamma 98.312570
_cell_volume 860.723483
_symmetry_space_group_name_H-M "P -1"
_symmetry_group_IT_number 2
_symmetry_cell_setting 'triclinic'
loop_
_space_group_symop_operation_xyz
x,y,z
-x,-y,-z
loop_
_atom_site_type_symbol
_atom_site_label
_atom_site_fract_x
_atom_site_fract_y
_atom_site_fract_z
Si Si1 0.591906 0.277597 0.710881
Si Si2 0.305739 0.712604 0.807048
Si Si3 0.831260 0.231583 0.800365
Si Si4 0.654398 0.444062 0.304563
Si Si5 0.875667 0.857337 0.984560
Si Si6 0.056065 0.942765 0.827643
Si Si7 0.111323 0.797716 0.606995
Si Si8 0.919349 0.629190 0.529669
O O1 0.664419 0.224771 0.783728
O O2 0.513227 0.515086 0.672228
O O3 0.749065 0.400868 0.623564
O O4 0.454221 0.986174 0.761546
O O5 0.343354 0.656800 0.744739
O O6 0.137560 0.779148 0.813217
O O7 0.268733 0.426455 0.914519
O O8 0.968928 0.552758 0.714623
O O9 0.816785 0.085172 0.902991
O O10 0.912448 0.047816 0.791946
O O11 0.717681 0.245738 0.386719
O O12 0.796029 0.762400 0.229497
O O13 0.977279 0.785689 0.934898
O O14 0.000000 0.000000 0.000000
O O15 0.047373 0.738174 0.553472
O O16 0.118263 0.106950 0.553408
O O17 0.000000 0.500000 0.500000
#
# Coordination Sequence:
#
# PCOD9049920 Si02
#       8
#     2   2   2   2   2   2   2   2
#     4  10  23  38  52  84 122 144 180 240 285 339
#     4  11  20  34  58  83 117 156 183 232 286 321
#     4   8  18  36  56  81 115 145 191 237 274 323
#     4  10  20  37  57  81 117 151 186 226 282 334
#     4  10  17  34  61  85 109 153 201 231 267 329
#     4   8  18  34  56  81 108 144 199 239 254 325
#     4   9  19  39  61  83 110 146 187 237 275 328
#     4  10  22  40  65  86 108 142 191 233 284 345
#
# _framework density 18.589013000000001
#
# number of rings (size 3 to 8) (size 9 to 14) (size 15 to 20)
#    0.750    1.750    1.250    0.375    0.000    8.000 
#    0.000    4.375    0.000    0.000    0.000    0.000 
#    0.000    0.000    0.000    0.000    0.000    0.000 
#
# Total GULP energy -89103.076304 kJ/mol
# GULP energy per Si atom -5568.942269 kJ/mol
# Density = 1.854670 g / cm^3
# Si number density = 18.589013 Si / 1000 Ang^3
#
#
#
# Elastic Constant Matrix: (Units=GPa)
#
#
# Indices 1 2 3 4 5 6 
#
# 1 104.2116 42.1886 41.2525 3.6910 22.9542 -16.2741
# 2 42.1886 86.3456 42.4081 -1.7523 2.6724 -13.7576
# 3 41.2525 42.4081 100.7539 -12.7240 19.9361 -10.0686
# 4 3.6910 -1.7523 -12.7240 20.5114 -8.1112 -5.4865
# 5 22.9542 2.6724 19.9361 -8.1112 25.4013 1.0552
# 6 -16.2741 -13.7576 -10.0686 -5.4865 1.0552 12.8819
#
#
#
# Elastic Compliance Matrix: (Units=1/GPa)
#
#
# Indices 1 2 3 4 5 6 
#
# 1 0.019425 -0.006101 -0.001078 -0.008251 -0.019334 0.015252
# 2 -0.006101 0.018601 -0.005539 0.005414 0.009243 0.009377
# 3 -0.001078 -0.005539 0.016708 0.009327 -0.009014 0.010493
# 4 -0.008251 0.005414 0.009327 0.073726 0.021768 0.032265
# 5 -0.019334 0.009243 -0.009014 0.021768 0.070646 -0.018115
# 6 0.015252 0.009377 0.010493 0.032265 -0.018115 0.130338
#
#
# Mechanical properties :
#
#
# Convention : Reuss Voigt Hill
#
# Bulk Modulus (GPa) = 34.13195 60.33441 47.23318
# Shear Modulus (GPa) = 13.71199 22.78971 18.25085
#
# Velocity S-wave (km/s) = 2.71890 3.50519 3.13678
# Velocity P-wave (km/s) = 5.31580 6.99352 6.21157
#
# Compressibility (1/GPa) = 0.02929807
#
# Stress axis : x y z
#
# Youngs Moduli (GPa) = 51.48017 53.76151 59.85115
#
# Poissons Ratio (x) = 0.32798 0.06450
# Poissons Ratio (y) = 0.31407 0.33154
# Poissons Ratio (z) = 0.05548 0.29781
#
# Static dielectric constant tensor:
#      x y z
#    x 1.666100 -0.016800 0.015070 
#    y -0.016800 1.630890 -0.014540 
#    z 0.015070 -0.014540 1.652370 
# 
# From -- ./inp_files/585073.got.cif
#   From: 2010.05.17/outbox.cif.g08.bks.cpg/sg2_293_cif.got.tgz:585073.got - 2010.06.03 11:33:40.
