data_PCOD9049336
_publ_section_title
;
Structure prediction by ZEFSAII (Michael W. Deem and Ramdas Pophale) SiO2 
 PCOD9049336
Probable space group: P -1
;
_chemical_formula_sum "Si O2"
_cell_formula_units_Z 14
_cell_length_a 7.422271
_cell_length_b 12.615230
_cell_length_c 9.177586
_cell_angle_alpha 113.557031
_cell_angle_beta 130.236749
_cell_angle_gamma 56.865598
_cell_volume 547.865806
_symmetry_space_group_name_H-M "P -1"
_symmetry_group_IT_number 2
_symmetry_cell_setting 'triclinic'
loop_
_space_group_symop_operation_xyz
x,y,z
-x,-y,-z
loop_
_atom_site_type_symbol
_atom_site_label
_atom_site_fract_x
_atom_site_fract_y
_atom_site_fract_z
Si Si1 0.025503 0.852425 0.311282
Si Si2 0.443714 0.212045 0.304147
Si Si3 0.023800 0.132488 0.082535
Si Si4 0.965956 0.606889 0.166881
Si Si5 0.097320 0.873937 0.676006
Si Si6 0.509119 0.372264 0.864640
Si Si7 0.229395 0.460674 0.480929
O O1 0.326721 0.829011 0.478514
O O2 0.702032 0.877977 0.836329
O O3 0.938865 0.875874 0.448803
O O4 0.905045 0.985787 0.239829
O O5 0.603551 0.218779 0.249491
O O6 0.233445 0.344859 0.321777
O O7 0.033542 0.265413 0.831306
O O8 0.770053 0.244473 0.944951
O O9 0.014328 0.166977 0.267669
O O10 0.000000 0.000000 0.000000
O O11 0.715178 0.642338 0.161113
O O12 0.190260 0.561667 0.387435
O O13 0.000000 0.500000 0.000000
O O14 0.462334 0.410139 0.689488
O O15 0.500000 0.500000 0.000000
O O16 0.000000 0.500000 0.500000
#
# Coordination Sequence:
#
# PCOD9049336 Si02
#       7
#     2   2   2   2   2   2   2
#     4   9  23  46  72 107 147 194 258 315 381 459
#     4  10  24  46  75 100 151 197 253 310 387 450
#     4  12  28  44  75 114 153 204 255 313 395 460
#     4  11  26  45  80 112 145 201 259 318 396 454
#     4   9  24  45  71 109 146 199 254 312 380 458
#     4  11  28  46  72 111 157 194 260 318 381 465
#     4  10  24  46  72 106 150 200 245 317 379 455
#
# _framework density 25.553705000000001
#
# number of rings (size 3 to 8) (size 9 to 14) (size 15 to 20)
#    0.857    0.857    0.000    1.714   14.000    2.857 
#    0.000    0.000    0.000    0.000    0.000    0.000 
#    0.000    0.000    0.000    0.000    0.000    0.000 
#
# Total GULP energy -78141.317814 kJ/mol
# GULP energy per Si atom -5581.522701 kJ/mol
# Density = 2.549554 g / cm^3
# Si number density = 25.553705 Si / 1000 Ang^3
#
#
#
# Elastic Constant Matrix: (Units=GPa)
#
#
# Indices 1 2 3 4 5 6 
#
# 1 90.0852 17.8373 21.9672 -4.1653 -7.0733 0.5551
# 2 17.8373 125.4590 30.5243 8.0773 11.0487 12.6005
# 3 21.9672 30.5243 131.8399 -14.2355 -24.3986 17.2093
# 4 -4.1653 8.0773 -14.2355 40.3365 16.2223 6.2743
# 5 -7.0733 11.0487 -24.3986 16.2223 46.7192 1.2517
# 6 0.5551 12.6005 17.2093 6.2743 1.2517 36.5923
#
#
#
# Elastic Compliance Matrix: (Units=1/GPa)
#
#
# Indices 1 2 3 4 5 6 
#
# 1 0.011877 -0.001559 -0.001470 0.000373 0.001244 0.000942
# 2 -0.001559 0.009317 -0.002407 -0.001326 -0.003190 -0.001716
# 3 -0.001470 -0.002407 0.010168 0.002677 0.004849 -0.004556
# 4 0.000373 -0.001326 0.002677 0.030404 -0.008636 -0.005726
# 5 0.001244 -0.003190 0.004849 -0.008636 0.027896 -0.000675
# 6 0.000942 -0.001716 -0.004556 -0.005726 -0.000675 0.031052
#
#
# Mechanical properties :
#
#
# Convention : Reuss Voigt Hill
#
# Bulk Modulus (GPa) = 48.80527 54.22688 51.51607
# Shear Modulus (GPa) = 36.12275 43.19995 39.66135
#
# Velocity S-wave (km/s) = 3.76387 4.11610 3.94392
# Velocity P-wave (km/s) = 6.16681 6.62242 6.39867
#
# Compressibility (1/GPa) = 0.02048959
#
# Stress axis : x y z
#
# Youngs Moduli (GPa) = 84.19639 107.33516 98.34396
#
# Poissons Ratio (x) = 0.16734 0.14460
# Poissons Ratio (y) = 0.13127 0.23669
# Poissons Ratio (z) = 0.12380 0.25833
#
# Static dielectric constant tensor:
#      x y z
#    x 2.006610 -0.144100 -0.002830 
#    y -0.144100 2.106440 0.003020 
#    z -0.002830 0.003020 2.120640 
# 
# From -- ./inp_files/276884.got.cif
#   From: 2010.05.17/outbox.cif.g08.bks.cpg/sg2_139_cif.got.tgz:276884.got - 2010.06.03 11:33:40.
