data_PCOD9049281
_publ_section_title
;
Structure prediction by ZEFSAII (Michael W. Deem and Ramdas Pophale) SiO2 
 PCOD9049281
Probable space group: P -1
;
_chemical_formula_sum "Si O2"
_cell_formula_units_Z 16
_cell_length_a 8.680204
_cell_length_b 5.026001
_cell_length_c 13.841842
_cell_angle_alpha 85.414574
_cell_angle_beta 78.956513
_cell_angle_gamma 82.060464
_cell_volume 586.121008
_symmetry_space_group_name_H-M "P -1"
_symmetry_group_IT_number 2
_symmetry_cell_setting 'triclinic'
loop_
_space_group_symop_operation_xyz
x,y,z
-x,-y,-z
loop_
_atom_site_type_symbol
_atom_site_label
_atom_site_fract_x
_atom_site_fract_y
_atom_site_fract_z
Si Si1 0.847958 0.204043 0.035134
Si Si2 0.362738 0.397850 0.645204
Si Si3 0.927722 0.444502 0.205102
Si Si4 0.055747 0.904543 0.296377
Si Si5 0.424189 0.749996 0.062249
Si Si6 0.670593 0.578115 0.677228
Si Si7 0.439915 0.977583 0.799110
Si Si8 0.139197 0.262237 0.510121
O O1 0.901306 0.430538 0.093992
O O2 0.711075 0.089012 0.119762
O O3 0.758902 0.255505 0.941581
O O4 0.000000 0.000000 0.000000
O O5 0.242027 0.577143 0.725380
O O6 0.529725 0.506410 0.626992
O O7 0.391071 0.102972 0.698303
O O8 0.269232 0.373340 0.559455
O O9 0.970296 0.720215 0.236438
O O10 0.049766 0.192823 0.235953
O O11 0.210949 0.693691 0.308063
O O12 0.945019 0.940209 0.405855
O O13 0.484100 0.783900 0.161617
O O14 0.500000 0.500000 0.000000
O O15 0.500000 0.000000 0.000000
O O16 0.771014 0.784743 0.601252
O O17 0.581582 0.737693 0.773132
O O18 0.000000 0.500000 0.500000
#
# Coordination Sequence:
#
# PCOD9049281 Si02
#       8
#     2   2   2   2   2   2   2   2
#     4  11  24  45  70 101 136 181 238 293 357 423
#     4  11  23  43  76  98 146 183 241 294 348 434
#     4  11  23  47  69 102 141 191 234 297 355 425
#     4  10  25  45  73 100 149 189 238 287 355 423
#     4  10  24  46  71  98 139 183 232 293 354 422
#     4  11  24  43  72 102 144 188 240 293 352 427
#     4  11  25  46  70 105 142 186 239 296 367 419
#     4   9  21  45  66 109 141 190 235 289 352 420
#
# _framework density 27.298114999999999
#
# number of rings (size 3 to 8) (size 9 to 14) (size 15 to 20)
#    0.000    1.500    1.250    2.625    5.250    1.500 
#    4.500   13.125    0.000    0.000    0.000    0.000 
#    0.000    0.000    0.000    0.000    0.000    0.000 
#
# Total GULP energy -89609.019671 kJ/mol
# GULP energy per Si atom -5600.563729 kJ/mol
# Density = 2.723598 g / cm^3
# Si number density = 27.298115 Si / 1000 Ang^3
#
#
#
# Elastic Constant Matrix: (Units=GPa)
#
#
# Indices 1 2 3 4 5 6 
#
# 1 144.6769 22.2656 43.4163 1.7032 1.3983 -34.4546
# 2 22.2656 131.7220 22.5337 16.7593 -5.1316 -6.8302
# 3 43.4163 22.5337 112.0937 2.8981 -20.7621 -1.5750
# 4 1.7032 16.7593 2.8981 35.4600 -5.2439 -4.4904
# 5 1.3983 -5.1316 -20.7621 -5.2439 69.3971 -0.3378
# 6 -34.4546 -6.8302 -1.5750 -4.4904 -0.3378 47.0082
#
#
#
# Elastic Compliance Matrix: (Units=1/GPa)
#
#
# Indices 1 2 3 4 5 6 
#
# 1 0.009870 -0.000816 -0.003824 0.000927 -0.001299 0.007066
# 2 -0.000816 0.008446 -0.001286 -0.003824 -0.000032 0.000220
# 3 -0.003824 -0.001286 0.011241 0.000038 0.003335 -0.002585
# 4 0.000927 -0.003824 0.000038 0.030651 0.002041 0.003068
# 5 -0.001299 -0.000032 0.003335 0.002041 0.015583 -0.000538
# 6 0.007066 0.000220 -0.002585 0.003068 -0.000538 0.026687
#
#
# Mechanical properties :
#
#
# Convention : Reuss Voigt Hill
#
# Bulk Modulus (GPa) = 56.47951 62.76932 59.62441
# Shear Modulus (GPa) = 41.58649 50.39153 45.98901
#
# Velocity S-wave (km/s) = 3.90734 4.30114 4.10896
# Velocity P-wave (km/s) = 6.41024 6.90726 6.66339
#
# Compressibility (1/GPa) = 0.01770554
#
# Stress axis : x y z
#
# Youngs Moduli (GPa) = 101.32157 118.39280 88.95942
#
# Poissons Ratio (x) = 0.09664 0.34017
# Poissons Ratio (y) = 0.08271 0.11437
# Poissons Ratio (z) = 0.38744 0.15221
#
# Static dielectric constant tensor:
#      x y z
#    x 2.158760 0.017800 -0.004250 
#    y 0.017800 2.098190 -0.045390 
#    z -0.004250 -0.045390 2.262880 
# 
# From -- ./inp_files/488412.got.cif
#   From: 2010.05.17/outbox.cif.g08.bks.cpg/sg2_245_cif.got.tgz:488412.got - 2010.06.03 11:33:40.
