data_PCOD9049693
_publ_section_title
;
Structure prediction by ZEFSAII (Michael W. Deem and Ramdas Pophale) SiO2 
 PCOD9049693
Probable space group: P -1
;
_chemical_formula_sum "Si O2"
_cell_formula_units_Z 14
_cell_length_a 11.092042
_cell_length_b 20.036188
_cell_length_c 6.125288
_cell_angle_alpha 124.761954
_cell_angle_beta 58.700617
_cell_angle_gamma 148.877048
_cell_volume 576.461835
_symmetry_space_group_name_H-M "P -1"
_symmetry_group_IT_number 2
_symmetry_cell_setting 'triclinic'
loop_
_space_group_symop_operation_xyz
x,y,z
-x,-y,-z
loop_
_atom_site_type_symbol
_atom_site_label
_atom_site_fract_x
_atom_site_fract_y
_atom_site_fract_z
Si Si1 0.454481 0.719894 0.698727
Si Si2 0.227259 0.390610 0.990251
Si Si3 0.829874 0.991486 0.065895
Si Si4 0.644548 0.031005 0.621232
Si Si5 0.806168 0.794028 0.195211
Si Si6 0.553172 0.431064 0.253350
Si Si7 0.233998 0.766528 0.795375
O O1 0.649756 0.786487 0.457145
O O2 0.398329 0.610822 0.677930
O O3 0.259661 0.686114 0.704811
O O4 0.577829 0.837243 0.973111
O O5 0.027936 0.333972 0.233848
O O6 0.500000 0.500000 0.000000
O O7 0.164946 0.268502 0.787710
O O8 0.236045 0.457701 0.908355
O O9 0.827186 0.057574 0.376688
O O10 0.000000 0.000000 0.000000
O O11 0.937643 0.069082 0.879386
O O12 0.500000 0.000000 0.500000
O O13 0.457281 0.890679 0.668658
O O14 0.736946 0.150789 0.890990
O O15 0.660814 0.701190 0.940887
O O16 0.500000 0.500000 0.500000
#
# Coordination Sequence:
#
# PCOD9049693 Si02
#       7
#     2   2   2   2   2   2   2
#     4  12  25  44  69 109 149 183 240 300 366 427
#     4  10  24  47  71  97 133 193 248 290 351 426
#     4  12  24  41  72 110 143 188 233 299 361 433
#     4  11  24  46  67 108 152 190 231 283 380 440
#     4  11  24  43  72 103 141 186 242 296 354 430
#     4  11  24  46  70 100 138 189 250 293 353 419
#     4  11  26  44  72 105 148 192 234 301 366 436
#
# _framework density 24.286080999999999
#
# number of rings (size 3 to 8) (size 9 to 14) (size 15 to 20)
#    0.000    0.857    4.286    2.143    6.000    0.571 
#    0.000    2.857    0.000    0.000    0.000    0.000 
#    0.000    0.000    0.000    0.000    0.000    0.000 
#
# Total GULP energy -78176.582753 kJ/mol
# GULP energy per Si atom -5584.041625 kJ/mol
# Density = 2.423081 g / cm^3
# Si number density = 24.286081 Si / 1000 Ang^3
#
#
#
# Elastic Constant Matrix: (Units=GPa)
#
#
# Indices 1 2 3 4 5 6 
#
# 1 143.7537 51.9987 40.4993 -4.7681 -30.0387 -10.5633
# 2 51.9987 104.8265 27.8600 -10.8831 -5.6030 -26.2588
# 3 40.4993 27.8600 112.5696 -1.3924 -17.7810 -6.4242
# 4 -4.7681 -10.8831 -1.3924 38.7001 10.1563 0.2949
# 5 -30.0387 -5.6030 -17.7810 10.1563 35.9767 -0.1317
# 6 -10.5633 -26.2588 -6.4242 0.2949 -0.1317 42.0382
#
#
#
# Elastic Compliance Matrix: (Units=1/GPa)
#
#
# Indices 1 2 3 4 5 6 
#
# 1 0.010692 -0.004854 -0.001425 -0.002218 0.008092 -0.000522
# 2 -0.004854 0.014625 -0.002018 0.004433 -0.003996 0.007564
# 3 -0.001425 -0.002018 0.010527 -0.001442 0.004106 0.000013
# 4 -0.002218 0.004433 -0.001442 0.029418 -0.010173 0.001753
# 5 0.008092 -0.003996 0.004106 -0.010173 0.038832 0.000358
# 6 -0.000522 0.007564 0.000013 0.001753 0.000358 0.028372
#
#
# Mechanical properties :
#
#
# Convention : Reuss Voigt Hill
#
# Bulk Modulus (GPa) = 51.94445 66.87397 59.40921
# Shear Modulus (GPa) = 32.15925 39.39578 35.77752
#
# Velocity S-wave (km/s) = 3.64288 4.03197 3.84235
# Velocity P-wave (km/s) = 6.25533 7.01936 6.64833
#
# Compressibility (1/GPa) = 0.01925134
#
# Stress axis : x y z
#
# Youngs Moduli (GPa) = 93.52458 68.37612 94.99506
#
# Poissons Ratio (x) = 0.33189 0.13533
# Poissons Ratio (y) = 0.45395 0.19170
# Poissons Ratio (z) = 0.13323 0.13798
#
# Static dielectric constant tensor:
#      x y z
#    x 1.993040 -0.022670 0.077540 
#    y -0.022670 2.107690 -0.011520 
#    z 0.077540 -0.011520 1.946320 
# 
# From -- ./inp_files/83397.got.cif
#   From: 2010.05.17/outbox.cif.g08.bks.cpg/sg2_42_cif.got.tgz:83397.got - 2010.06.03 11:33:40.
