data_PCOD9049400
_publ_section_title
;
Structure prediction by ZEFSAII (Michael W. Deem and Ramdas Pophale) SiO2 
 PCOD9049400
Probable space group: P -1
;
_chemical_formula_sum "Si O2"
_cell_formula_units_Z 14
_cell_length_a 9.657508
_cell_length_b 5.122300
_cell_length_c 13.844356
_cell_angle_alpha 65.862185
_cell_angle_beta 111.425950
_cell_angle_gamma 94.966652
_cell_volume 580.196038
_symmetry_space_group_name_H-M "P -1"
_symmetry_group_IT_number 2
_symmetry_cell_setting 'triclinic'
loop_
_space_group_symop_operation_xyz
x,y,z
-x,-y,-z
loop_
_atom_site_type_symbol
_atom_site_label
_atom_site_fract_x
_atom_site_fract_y
_atom_site_fract_z
Si Si1 0.604384 0.735951 0.804213
Si Si2 0.831963 0.242089 0.010673
Si Si3 0.688452 0.452347 0.316539
Si Si4 0.912866 0.120560 0.557499
Si Si5 0.128250 0.991591 0.142810
Si Si6 0.591508 0.054713 0.112007
Si Si7 0.994578 0.492851 0.298005
O O1 0.730895 0.481564 0.891179
O O2 0.466192 0.699170 0.705710
O O3 0.708469 0.993905 0.771931
O O4 0.517434 0.742992 0.882508
O O5 0.841771 0.000427 0.965743
O O6 0.741378 0.165662 0.092978
O O7 0.001022 0.246897 0.088931
O O8 0.771774 0.316386 0.452047
O O9 0.632758 0.783657 0.233735
O O10 0.820920 0.416352 0.273545
O O11 0.985722 0.328220 0.622419
O O12 0.903352 0.803732 0.647537
O O13 0.000000 0.000000 0.500000
O O14 0.048394 0.716080 0.200436
O O15 0.500000 0.000000 0.000000
#
# Coordination Sequence:
#
# PCOD9049400 Si02
#       7
#     2   2   2   2   2   2   2
#     4  12  25  41  70 100 145 187 236 293 351 432
#     4  11  24  44  65 101 144 189 238 278 363 431
#     4  11  24  41  72 101 137 179 241 293 360 408
#     4  10  24  46  73 107 139 183 244 304 350 425
#     4  11  25  45  69  99 149 185 235 291 362 434
#     4  12  23  43  65 106 140 182 237 291 349 427
#     4  11  25  46  75 107 141 186 243 296 363 422
#
# _framework density 24.129776
#
# number of rings (size 3 to 8) (size 9 to 14) (size 15 to 20)
#    0.000    0.857    4.286    2.571    8.000    0.000 
#    0.000    1.429    0.000    0.000    0.000    0.000 
#    0.000    0.000    0.000    0.000    0.000    0.000 
#
# Total GULP energy -78023.595833 kJ/mol
# GULP energy per Si atom -5573.113988 kJ/mol
# Density = 2.407486 g / cm^3
# Si number density = 24.129776 Si / 1000 Ang^3
#
#
#
# Elastic Constant Matrix: (Units=GPa)
#
#
# Indices 1 2 3 4 5 6 
#
# 1 162.2159 30.8327 42.0246 4.5139 30.2917 11.0774
# 2 30.8327 74.7197 43.4987 -4.8515 16.5432 -1.5929
# 3 42.0246 43.4987 107.2327 -11.8189 26.4366 9.1076
# 4 4.5139 -4.8515 -11.8189 45.4075 2.7114 -6.9643
# 5 30.2917 16.5432 26.4366 2.7114 36.7988 3.1010
# 6 11.0774 -1.5929 9.1076 -6.9643 3.1010 35.6234
#
#
#
# Elastic Compliance Matrix: (Units=1/GPa)
#
#
# Indices 1 2 3 4 5 6 
#
# 1 0.007823 -0.001618 -0.001263 -0.001322 -0.004535 -0.002046
# 2 -0.001618 0.018517 -0.006346 0.001181 -0.002810 0.003429
# 3 -0.001263 -0.006346 0.014594 0.003273 -0.006631 -0.002405
# 4 -0.001322 0.001181 0.003273 0.024087 -0.003963 0.004681
# 5 -0.004535 -0.002810 -0.006631 -0.003963 0.037314 -0.001043
# 6 -0.002046 0.003429 -0.002405 0.004681 -0.001043 0.030482
#
#
# Mechanical properties :
#
#
# Convention : Reuss Voigt Hill
#
# Bulk Modulus (GPa) = 44.48374 64.09780 54.29077
# Shear Modulus (GPa) = 31.49314 38.75343 35.12328
#
# Velocity S-wave (km/s) = 3.61661 4.01189 3.81937
# Velocity P-wave (km/s) = 5.99292 6.93411 6.48062
#
# Compressibility (1/GPa) = 0.02248012
#
# Stress axis : x y z
#
# Youngs Moduli (GPa) = 127.83244 54.00429 68.51912
#
# Poissons Ratio (x) = 0.08738 0.08657
# Poissons Ratio (y) = 0.20683 0.43480
# Poissons Ratio (z) = 0.16152 0.34269
#
# Static dielectric constant tensor:
#      x y z
#    x 1.943300 0.078710 0.025120 
#    y 0.078710 2.126070 0.012530 
#    z 0.025120 0.012530 2.080990 
# 
# From -- ./inp_files/487612.got.cif
#   From: 2010.05.17/outbox.cif.g08.bks.cpg/sg2_244_cif.got.tgz:487612.got - 2010.06.03 11:33:40.
