data_PCOD9049362
_publ_section_title
;
Structure prediction by ZEFSAII (Michael W. Deem and Ramdas Pophale) SiO2 
 PCOD9049362
Probable space group: P -1
;
_chemical_formula_sum "Si O2"
_cell_formula_units_Z 15
_cell_length_a 6.834841
_cell_length_b 9.778067
_cell_length_c 13.498451
_cell_angle_alpha 75.747071
_cell_angle_beta 131.068566
_cell_angle_gamma 80.230756
_cell_volume 587.491264
_symmetry_space_group_name_H-M "P -1"
_symmetry_group_IT_number 2
_symmetry_cell_setting 'triclinic'
loop_
_space_group_symop_operation_xyz
x,y,z
-x,-y,-z
loop_
_atom_site_type_symbol
_atom_site_label
_atom_site_fract_x
_atom_site_fract_y
_atom_site_fract_z
Si Si1 0.000000 0.500000 0.000000
Si Si2 0.445577 0.151125 0.207252
Si Si3 0.885499 0.661243 0.495407
Si Si4 0.825992 0.596394 0.698705
Si Si5 0.195526 0.870179 0.492632
Si Si6 0.759530 0.291205 0.741800
Si Si7 0.794928 0.014356 0.170210
Si Si8 0.891535 0.150259 0.008266
O O1 0.314605 0.338769 0.115815
O O2 0.013956 0.448334 0.134077
O O3 0.712251 0.081925 0.382410
O O4 0.176884 0.129673 0.163665
O O5 0.528876 0.056851 0.148116
O O6 0.978161 0.625911 0.647705
O O7 0.533663 0.728481 0.363821
O O8 0.000000 0.500000 0.500000
O O9 0.015781 0.769361 0.469608
O O10 0.513571 0.747147 0.580501
O O11 0.751731 0.451728 0.673212
O O12 0.037584 0.002004 0.333213
O O13 0.029666 0.149339 0.801722
O O14 0.797277 0.293855 0.874885
O O15 0.684474 0.147776 0.025076
O O16 0.000000 0.000000 0.000000
#
# Coordination Sequence:
#
# PCOD9049362 Si02
#       8
#     1   2   2   2   2   2   2   2
#     4  10  24  46  72  96 142 184 226 292 344 422
#     4  11  25  47  70  99 140 180 235 284 350 416
#     4  12  24  40  71 106 140 186 235 284 351 412
#     4  11  22  46  69 104 143 184 231 295 350 406
#     4  11  25  44  68 105 140 182 235 283 349 423
#     4  11  22  45  66 103 142 174 239 289 343 415
#     4  11  25  44  69 100 139 184 226 291 348 410
#     4  10  25  45  68 101 137 183 226 284 349 412
#
# _framework density 25.532292000000002
#
# number of rings (size 3 to 8) (size 9 to 14) (size 15 to 20)
#    0.000    1.067    4.000    1.600    3.733    5.867 
#    0.000    2.000    0.000    0.000    0.000    0.000 
#    0.000    0.000    0.000    0.000    0.000    0.000 
#
# Total GULP energy -83584.612834 kJ/mol
# GULP energy per Si atom -5572.307522 kJ/mol
# Density = 2.547418 g / cm^3
# Si number density = 25.532292 Si / 1000 Ang^3
#
#
#
# Elastic Constant Matrix: (Units=GPa)
#
#
# Indices 1 2 3 4 5 6 
#
# 1 82.7837 21.1339 32.9974 25.5360 -29.0682 -20.4682
# 2 21.1339 79.6740 1.2091 1.9938 -6.7783 -19.9724
# 3 32.9974 1.2091 144.9039 10.8566 -16.3577 -6.5265
# 4 25.5360 1.9938 10.8566 28.0471 -1.4609 -1.3347
# 5 -29.0682 -6.7783 -16.3577 -1.4609 55.2153 11.6526
# 6 -20.4682 -19.9724 -6.5265 -1.3347 11.6526 36.1293
#
#
#
# Elastic Compliance Matrix: (Units=1/GPa)
#
#
# Indices 1 2 3 4 5 6 
#
# 1 0.026592 -0.003451 -0.002831 -0.021926 0.010364 0.008493
# 2 -0.003451 0.015044 0.000685 0.002077 -0.001177 0.006941
# 3 -0.002831 0.000685 0.007663 -0.000398 0.000883 -0.000141
# 4 -0.021926 0.002077 -0.000398 0.054865 -0.008571 -0.006554
# 5 0.010364 -0.001177 0.000883 -0.008571 0.024024 -0.002685
# 6 0.008493 0.006941 -0.000141 -0.006554 -0.002685 0.036925
#
#
# Mechanical properties :
#
#
# Convention : Reuss Voigt Hill
#
# Bulk Modulus (GPa) = 26.24473 46.44915 36.34694
# Shear Modulus (GPa) = 26.45356 40.67976 33.56666
#
# Velocity S-wave (km/s) = 3.22232 3.99591 3.62978
# Velocity P-wave (km/s) = 4.91383 6.28661 5.64213
#
# Compressibility (1/GPa) = 0.03810289
#
# Stress axis : x y z
#
# Youngs Moduli (GPa) = 37.60565 66.47120 130.49188
#
# Poissons Ratio (x) = 0.22941 0.36948
# Poissons Ratio (y) = 0.12979 -0.08933
# Poissons Ratio (z) = 0.10648 -0.04550
#
# Static dielectric constant tensor:
#      x y z
#    x 1.958950 0.061960 -0.025100 
#    y 0.061960 1.994210 0.091390 
#    z -0.025100 0.091390 2.070470 
# 
# From -- ./inp_files/363783.got.cif
#   From: 2010.05.17/outbox.cif.g08.bks.cpg/sg2_182_cif.got.tgz:363783.got - 2010.06.03 11:33:40.
