data_PCOD9049098
_publ_section_title
;
Structure prediction by ZEFSAII (Michael W. Deem and Ramdas Pophale) SiO2 
 PCOD9049098
Probable space group: P -1
;
_chemical_formula_sum "Si O2"
_cell_formula_units_Z 16
_cell_length_a 27.810840
_cell_length_b 5.325220
_cell_length_c 31.813058
_cell_angle_alpha 122.144106
_cell_angle_beta 10.026079
_cell_angle_gamma 121.922490
_cell_volume 694.141640
_symmetry_space_group_name_H-M "P -1"
_symmetry_group_IT_number 2
_symmetry_cell_setting 'triclinic'
loop_
_space_group_symop_operation_xyz
x,y,z
-x,-y,-z
loop_
_atom_site_type_symbol
_atom_site_label
_atom_site_fract_x
_atom_site_fract_y
_atom_site_fract_z
Si Si1 0.508101 0.666490 0.320711
Si Si2 0.568937 0.888330 0.720963
Si Si3 0.880711 0.727102 0.740707
Si Si4 0.428992 0.087132 0.500760
Si Si5 0.554867 0.260470 0.094165
Si Si6 0.159906 0.705555 0.770846
Si Si7 0.960654 0.647116 0.501957
Si Si8 0.049379 0.273282 0.223951
O O1 0.458541 0.344011 0.314025
O O2 0.266965 0.834664 0.517883
O O3 0.441067 0.795908 0.435629
O O4 0.835961 0.706367 0.040913
O O5 0.601985 0.759762 0.728267
O O6 0.837230 0.090176 0.497677
O O7 0.274709 0.043267 0.994411
O O8 0.913171 0.621175 0.751057
O O9 0.848426 0.488195 0.710634
O O10 0.631722 0.950581 0.979965
O O11 0.282707 0.372272 0.631428
O O12 0.728321 0.201601 0.270642
O O13 0.271536 0.961285 0.665970
O O14 0.354196 0.416005 0.248319
O O15 0.844904 0.439239 0.868013
O O16 0.000000 0.500000 0.500000
O O17 0.000000 0.000000 0.500000
#
# Coordination Sequence:
#
# PCOD9049098 Si02
#       8
#     2   2   2   2   2   2   2   2
#     4  12  24  39  71 104 135 180 242 281 356 416
#     4  11  24  43  68 101 142 186 226 296 348 425
#     4  11  25  47  74  98 142 187 227 284 361 408
#     4  10  24  46  69  99 142 188 237 288 352 404
#     4  11  25  47  69  99 142 181 230 282 356 415
#     4  10  24  46  68  98 145 187 232 298 340 413
#     4  12  28  47  75 106 139 183 237 289 342 420
#     4  11  25  41  70 101 137 186 228 287 352 426
#
# _framework density 23.050052999999998
#
# number of rings (size 3 to 8) (size 9 to 14) (size 15 to 20)
#    0.000    1.000    2.500    2.625    5.250    4.000 
#    0.000    3.750    0.000    0.000    0.000    0.000 
#    0.000    0.000    0.000    0.000    0.000    0.000 
#
# Total GULP energy -89223.054038 kJ/mol
# GULP energy per Si atom -5576.440877 kJ/mol
# Density = 2.299759 g / cm^3
# Si number density = 23.050053 Si / 1000 Ang^3
#
#
#
# Elastic Constant Matrix: (Units=GPa)
#
#
# Indices 1 2 3 4 5 6 
#
# 1 113.2119 -12.0588 21.1596 27.8565 -11.4579 -16.8716
# 2 -12.0588 142.4840 21.1916 -14.0333 25.2032 51.5128
# 3 21.1596 21.1916 104.7465 8.6422 -19.1501 -3.0724
# 4 27.8565 -14.0333 8.6422 59.2082 -3.8451 -7.1899
# 5 -11.4579 25.2032 -19.1501 -3.8451 43.4422 16.6076
# 6 -16.8716 51.5128 -3.0724 -7.1899 16.6076 70.7695
#
#
#
# Elastic Compliance Matrix: (Units=1/GPa)
#
#
# Indices 1 2 3 4 5 6 
#
# 1 0.010592 -0.000221 -0.001455 -0.004519 0.001157 0.001892
# 2 -0.000221 0.011153 -0.003551 0.002088 -0.005281 -0.006873
# 3 -0.001455 -0.003551 0.011865 -0.001339 0.006358 0.001125
# 4 -0.004519 0.002088 -0.001339 0.019585 -0.001105 -0.000406
# 5 0.001157 -0.005281 0.006358 -0.001105 0.030161 -0.002794
# 6 0.001892 -0.006873 0.001125 -0.000406 -0.002794 0.020248
#
#
# Mechanical properties :
#
#
# Convention : Reuss Voigt Hill
#
# Bulk Modulus (GPa) = 43.18612 46.78079 44.98346
# Shear Modulus (GPa) = 41.05863 56.69397 48.87630
#
# Velocity S-wave (km/s) = 4.22510 4.96482 4.60982
# Velocity P-wave (km/s) = 6.52522 7.29419 6.92039
#
# Compressibility (1/GPa) = 0.02315559
#
# Stress axis : x y z
#
# Youngs Moduli (GPa) = 94.40764 89.66573 84.28018
#
# Poissons Ratio (x) = 0.01981 0.12264
# Poissons Ratio (y) = 0.02086 0.29929
# Poissons Ratio (z) = 0.13738 0.31841
#
# Static dielectric constant tensor:
#      x y z
#    x 1.872350 -0.011480 -0.050420 
#    y -0.011480 1.949660 0.020170 
#    z -0.050420 0.020170 1.887430 
# 
# From -- ./inp_files/120455.got.cif
#   From: 2010.05.17/outbox.cif.g08.bks.cpg/sg2_61_cif.got.tgz:120455.got - 2010.06.03 11:33:40.
