data_PCOD9049428
_publ_section_title
;
Structure prediction by ZEFSAII (Michael W. Deem and Ramdas Pophale) SiO2 
 PCOD9049428
Probable space group: P -1
;
_chemical_formula_sum "Si O2"
_cell_formula_units_Z 15
_cell_length_a 11.420171
_cell_length_b 21.042650
_cell_length_c 17.654287
_cell_angle_alpha 18.627930
_cell_angle_beta 38.844984
_cell_angle_gamma 29.395618
_cell_volume 634.881486
_symmetry_space_group_name_H-M "P -1"
_symmetry_group_IT_number 2
_symmetry_cell_setting 'triclinic'
loop_
_space_group_symop_operation_xyz
x,y,z
-x,-y,-z
loop_
_atom_site_type_symbol
_atom_site_label
_atom_site_fract_x
_atom_site_fract_y
_atom_site_fract_z
Si Si1 0.359709 0.519574 0.705137
Si Si2 0.795706 0.256711 0.905655
Si Si3 0.662632 0.941094 0.171117
Si Si4 0.541872 0.768154 0.285761
Si Si5 0.385276 0.296732 0.392074
Si Si6 0.730552 0.874803 0.583728
Si Si7 0.000000 0.500000 0.000000
Si Si8 0.010294 0.290143 0.508777
O O1 0.598823 0.384814 0.792718
O O2 0.320092 0.768650 0.410578
O O3 0.138786 0.590047 0.788027
O O4 0.469022 0.258061 0.895655
O O5 0.680485 0.460068 0.804140
O O6 0.054925 0.177643 0.838189
O O7 0.862326 0.990760 0.200896
O O8 0.643147 0.782521 0.297755
O O9 0.581452 0.895697 0.342024
O O10 0.736588 0.501313 0.441170
O O11 0.500000 0.000000 0.000000
O O12 0.151831 0.386781 0.358374
O O13 0.624342 0.120679 0.415691
O O14 0.797663 0.646668 0.863847
O O15 0.956138 0.750362 0.552173
O O16 0.500000 0.000000 0.500000
#
# Coordination Sequence:
#
# PCOD9049428 Si02
#       8
#     2   2   2   2   2   2   1   2
#     4  12  25  45  76 108 148 200 251 315 385 453
#     4  12  22  40  79 114 140 191 250 325 388 447
#     4  12  22  42  74 108 145 189 254 316 380 463
#     4  12  28  44  68 111 152 193 252 319 386 457
#     4  11  21  41  71 108 140 186 252 308 377 458
#     4  10  24  46  74 102 149 203 249 310 372 455
#     4  12  26  50  78 104 154 212 256 308 382 460
#     4  11  23  43  69 107 148 189 244 312 384 447
#
# _framework density 23.626456999999998
#
# number of rings (size 3 to 8) (size 9 to 14) (size 15 to 20)
#    0.000    0.533    6.667    2.400    1.867    2.133 
#    0.000    2.667    0.000    0.000    0.000    0.000 
#    0.000    0.000    0.000    0.000    0.000    0.000 
#
# Total GULP energy -83645.508405 kJ/mol
# GULP energy per Si atom -5576.367227 kJ/mol
# Density = 2.357268 g / cm^3
# Si number density = 23.626457 Si / 1000 Ang^3
#
#
#
# Elastic Constant Matrix: (Units=GPa)
#
#
# Indices 1 2 3 4 5 6 
#
# 1 75.1914 37.4516 21.2327 6.6657 -2.0576 16.2900
# 2 37.4516 126.8938 28.5814 7.4184 -22.2130 15.4255
# 3 21.2327 28.5814 120.8897 8.3932 -9.5463 8.6961
# 4 6.6657 7.4184 8.3932 36.8101 8.4207 -7.4193
# 5 -2.0576 -22.2130 -9.5463 8.4207 39.3844 3.6767
# 6 16.2900 15.4255 8.6961 -7.4193 3.6767 45.9345
#
#
#
# Elastic Compliance Matrix: (Units=1/GPa)
#
#
# Indices 1 2 3 4 5 6 
#
# 1 0.017012 -0.004071 -0.001558 -0.002685 -0.000768 -0.004743
# 2 -0.004071 0.011084 -0.000886 -0.003519 0.006878 -0.003230
# 3 -0.001558 -0.000886 0.009216 -0.002469 0.002319 -0.001479
# 4 -0.002685 -0.003519 -0.002469 0.033131 -0.010629 0.008803
# 5 -0.000768 0.006878 0.002319 -0.010629 0.032700 -0.006811
# 6 -0.004743 -0.003230 -0.001479 0.008803 -0.006811 0.026784
#
#
# Mechanical properties :
#
#
# Convention : Reuss Voigt Hill
#
# Bulk Modulus (GPa) = 41.18329 55.27849 48.23089
# Shear Modulus (GPa) = 33.10155 40.13975 36.62065
#
# Velocity S-wave (km/s) = 3.74710 4.12628 3.94126
# Velocity P-wave (km/s) = 6.01580 6.79332 6.41635
#
# Compressibility (1/GPa) = 0.02428169
#
# Stress axis : x y z
#
# Youngs Moduli (GPa) = 58.78334 90.22113 108.50583
#
# Poissons Ratio (x) = 0.36726 0.16910
# Poissons Ratio (y) = 0.23929 0.09611
# Poissons Ratio (z) = 0.09161 0.07992
#
# Static dielectric constant tensor:
#      x y z
#    x 1.958090 -0.038650 0.081720 
#    y -0.038650 1.930950 -0.022660 
#    z 0.081720 -0.022660 1.902750 
# 
# From -- ./inp_files/570685.got.cif
#   From: 2010.05.17/outbox.cif.g08.bks.cpg/sg2_286_cif.got.tgz:570685.got - 2010.06.03 11:33:40.
