data_PCOD9049610
_publ_section_title
;
Structure prediction by ZEFSAII (Michael W. Deem and Ramdas Pophale) SiO2 
 PCOD9049610
Probable space group: P -1
;
_chemical_formula_sum "Si O2"
_cell_formula_units_Z 14
_cell_length_a 9.323324
_cell_length_b 12.631272
_cell_length_c 14.500744
_cell_angle_alpha 30.039084
_cell_angle_beta 59.463841
_cell_angle_gamma 48.358755
_cell_volume 628.476984
_symmetry_space_group_name_H-M "P -1"
_symmetry_group_IT_number 2
_symmetry_cell_setting 'triclinic'
loop_
_space_group_symop_operation_xyz
x,y,z
-x,-y,-z
loop_
_atom_site_type_symbol
_atom_site_label
_atom_site_fract_x
_atom_site_fract_y
_atom_site_fract_z
Si Si1 0.628388 0.876815 0.163893
Si Si2 0.288734 0.696498 0.875786
Si Si3 0.007512 0.453956 0.839564
Si Si4 0.823844 0.277307 0.321660
Si Si5 0.219805 0.432943 0.478296
Si Si6 0.460145 0.654890 0.256195
Si Si7 0.288809 0.157482 0.493010
O O1 0.669562 0.793938 0.317048
O O2 0.492220 0.781393 0.239087
O O3 0.820883 0.730938 0.146347
O O4 0.552278 0.162203 0.958368
O O5 0.263604 0.697693 0.771192
O O6 0.247959 0.969910 0.703136
O O7 0.500000 0.500000 0.000000
O O8 0.125834 0.649755 0.005751
O O9 0.871497 0.699892 0.639353
O O10 0.093901 0.538653 0.829745
O O11 0.646569 0.386817 0.371781
O O12 0.000000 0.000000 0.500000
O O13 0.270672 0.635223 0.340300
O O14 0.289323 0.357371 0.408846
O O15 0.000000 0.500000 0.500000
O O16 0.500000 0.000000 0.500000
#
# Coordination Sequence:
#
# PCOD9049610 Si02
#       7
#     2   2   2   2   2   2   2
#     4  10  24  47  68  97 134 182 236 291 337 415
#     4  12  26  42  71 100 140 185 230 286 356 414
#     4  11  24  44  68  99 140 180 239 286 349 417
#     4  11  24  47  72 102 139 186 229 294 352 418
#     4  12  26  42  72 102 139 186 228 284 361 413
#     4  10  25  46  70  98 137 177 238 292 340 415
#     4  12  25  44  66 103 145 182 230 293 350 419
#
# _framework density 22.276074000000001
#
# number of rings (size 3 to 8) (size 9 to 14) (size 15 to 20)
#    0.000    0.857    4.286    1.714    4.000    0.571 
#    7.714    0.000    0.000    0.000    0.000    0.000 
#    0.000    0.000    0.000    0.000    0.000    0.000 
#
# Total GULP energy -78261.679242 kJ/mol
# GULP energy per Si atom -5590.119946 kJ/mol
# Density = 2.222537 g / cm^3
# Si number density = 22.276074 Si / 1000 Ang^3
#
#
#
# Elastic Constant Matrix: (Units=GPa)
#
#
# Indices 1 2 3 4 5 6 
#
# 1 137.4139 22.7836 46.3652 10.1590 -4.3433 -13.1408
# 2 22.7836 57.1190 7.0093 -5.4793 -4.9025 -12.8076
# 3 46.3652 7.0093 85.9631 -6.1271 -0.8289 -9.3065
# 4 10.1590 -5.4793 -6.1271 26.0469 -5.6271 8.4982
# 5 -4.3433 -4.9025 -0.8289 -5.6271 49.9356 15.4722
# 6 -13.1408 -12.8076 -9.3065 8.4982 15.4722 32.4697
#
#
#
# Elastic Compliance Matrix: (Units=1/GPa)
#
#
# Indices 1 2 3 4 5 6 
#
# 1 0.010699 -0.003544 -0.005609 -0.007993 -0.001724 0.004238
# 2 -0.003544 0.020492 0.001159 0.004211 0.000441 0.005668
# 3 -0.005609 0.001159 0.015071 0.005742 0.000249 0.000885
# 4 -0.007993 0.004211 0.005742 0.052559 0.011704 -0.019262
# 5 -0.001724 0.000441 0.000249 0.011704 0.026200 -0.016000
# 6 0.004238 0.005668 0.000885 -0.019262 -0.016000 0.047668
#
#
# Mechanical properties :
#
#
# Convention : Reuss Voigt Hill
#
# Bulk Modulus (GPa) = 33.03264 48.09026 40.56145
# Shear Modulus (GPa) = 25.15470 35.31296 30.23383
#
# Velocity S-wave (km/s) = 3.36404 3.98583 3.68806
# Velocity P-wave (km/s) = 5.47266 6.54352 6.03190
#
# Compressibility (1/GPa) = 0.03027309
#
# Stress axis : x y z
#
# Youngs Moduli (GPa) = 93.46437 48.80063 66.35095
#
# Poissons Ratio (x) = 0.17294 0.37218
# Poissons Ratio (y) = 0.33122 -0.07688
# Poissons Ratio (z) = 0.52427 -0.05654
#
# Static dielectric constant tensor:
#      x y z
#    x 1.847690 0.023220 -0.050100 
#    y 0.023220 1.817940 -0.005710 
#    z -0.050100 -0.005710 1.775940 
# 
# From -- ./inp_files/368176.got.cif
#   From: 2010.05.17/outbox.cif.g08.bks.cpg/sg2_185_cif.got.tgz:368176.got - 2010.06.03 11:33:40.
