data_PCOD9049386
_publ_section_title
;
Structure prediction by ZEFSAII (Michael W. Deem and Ramdas Pophale) SiO2 
 PCOD9049386
Probable space group: P -1
;
_chemical_formula_sum "Si O2"
_cell_formula_units_Z 16
_cell_length_a 15.347622
_cell_length_b 9.393932
_cell_length_c 17.340209
_cell_angle_alpha 139.597218
_cell_angle_beta 26.819691
_cell_angle_gamma 141.269272
_cell_volume 686.568735
_symmetry_space_group_name_H-M "P -1"
_symmetry_group_IT_number 2
_symmetry_cell_setting 'triclinic'
loop_
_space_group_symop_operation_xyz
x,y,z
-x,-y,-z
loop_
_atom_site_type_symbol
_atom_site_label
_atom_site_fract_x
_atom_site_fract_y
_atom_site_fract_z
Si Si1 0.436751 0.635578 0.948229
Si Si2 0.180915 0.291176 0.715029
Si Si3 0.201802 0.780435 0.914709
Si Si4 0.682068 0.057849 0.442790
Si Si5 0.897688 0.851229 0.945043
Si Si6 0.923331 0.994623 0.471172
Si Si7 0.472574 0.126563 0.181495
Si Si8 0.185730 0.464982 0.384327
O O1 0.499627 0.678253 0.825504
O O2 0.640250 0.624921 0.826700
O O3 0.244890 0.407805 0.024958
O O4 0.392160 0.869728 0.101339
O O5 0.257754 0.565696 0.745835
O O6 0.323019 0.152476 0.581136
O O7 0.057997 0.148733 0.679168
O O8 0.037519 0.292476 0.902961
O O9 0.314717 0.835764 0.929792
O O10 0.238568 0.010570 0.929927
O O11 0.682372 0.286186 0.582286
O O12 0.909591 0.141066 0.257846
O O13 0.500000 0.000000 0.500000
O O14 0.000000 0.000000 0.000000
O O15 0.049780 0.260794 0.462151
O O16 0.679995 0.888004 0.633705
O O17 0.000000 0.000000 0.500000
O O18 0.000000 0.500000 0.500000
#
# Coordination Sequence:
#
# PCOD9049386 Si02
#       8
#     2   2   2   2   2   2   2   2
#     4  11  26  47  72 104 147 185 251 300 359 447
#     4  10  24  46  73 103 148 187 249 296 365 447
#     4  10  25  44  74 101 140 195 234 302 367 433
#     4  11  25  45  75 108 148 194 236 305 375 436
#     4  11  26  46  72 107 142 191 243 297 362 443
#     4  12  25  45  70 108 143 190 245 303 366 429
#     4  11  26  44  73 104 138 193 239 305 367 426
#     4  12  25  45  73 103 148 191 238 304 362 434
#
# _framework density 23.304295
#
# number of rings (size 3 to 8) (size 9 to 14) (size 15 to 20)
#    0.000    1.000    2.500    2.250   12.250    3.000 
#    0.000    0.000    0.000    0.000    0.000    0.000 
#    0.000    0.000    0.000    0.000    0.000    0.000 
#
# Total GULP energy -89255.533283 kJ/mol
# GULP energy per Si atom -5578.470830 kJ/mol
# Density = 2.325125 g / cm^3
# Si number density = 23.304295 Si / 1000 Ang^3
#
#
#
# Elastic Constant Matrix: (Units=GPa)
#
#
# Indices 1 2 3 4 5 6 
#
# 1 114.9616 56.3542 17.9999 15.9787 -14.7877 2.7769
# 2 56.3542 160.6825 39.9620 11.2179 -14.9232 -20.8092
# 3 17.9999 39.9620 81.7388 0.0447 -4.7480 -14.0468
# 4 15.9787 11.2179 0.0447 41.1007 3.9263 1.2052
# 5 -14.7877 -14.9232 -4.7480 3.9263 27.0000 -3.2754
# 6 2.7769 -20.8092 -14.0468 1.2052 -3.2754 29.8576
#
#
#
# Elastic Compliance Matrix: (Units=1/GPa)
#
#
# Indices 1 2 3 4 5 6 
#
# 1 0.011873 -0.003644 -0.001185 -0.003938 0.004421 -0.003558
# 2 -0.003644 0.009392 -0.002508 -0.001683 0.003749 0.006184
# 3 -0.001185 -0.002508 0.014705 0.000869 0.001075 0.005363
# 4 -0.003938 -0.001683 0.000869 0.027069 -0.007146 -0.002275
# 5 0.004421 0.003749 0.001075 -0.007146 0.043703 0.007790
# 6 -0.003558 0.006184 0.005363 -0.002275 0.007790 0.041603
#
#
# Mechanical properties :
#
#
# Convention : Reuss Voigt Hill
#
# Bulk Modulus (GPa) = 46.96062 65.11279 56.03671
# Shear Modulus (GPa) = 29.39149 35.79614 32.59382
#
# Velocity S-wave (km/s) = 3.55520 3.92348 3.74387
# Velocity P-wave (km/s) = 6.08666 6.96605 6.54115
#
# Compressibility (1/GPa) = 0.02129444
#
# Stress axis : x y z
#
# Youngs Moduli (GPa) = 84.22820 106.47538 68.00526
#
# Poissons Ratio (x) = 0.38804 0.08060
# Poissons Ratio (y) = 0.30696 0.17054
# Poissons Ratio (z) = 0.09983 0.26701
#
# Static dielectric constant tensor:
#      x y z
#    x 1.906510 0.021450 -0.037690 
#    y 0.021450 1.865490 0.001950 
#    z -0.037690 0.001950 1.969830 
# 
# From -- ./inp_files/572930.got.cif
#   From: 2010.05.17/outbox.cif.g08.bks.cpg/sg2_287_cif.got.tgz:572930.got - 2010.06.03 11:33:40.
