data_PCOD9049523
_publ_section_title
;
Structure prediction by ZEFSAII (Michael W. Deem and Ramdas Pophale) SiO2 
 PCOD9049523
Probable space group: P -1
;
_chemical_formula_sum "Si O2"
_cell_formula_units_Z 10
_cell_length_a 10.011134
_cell_length_b 12.767427
_cell_length_c 8.858557
_cell_angle_alpha 52.641118
_cell_angle_beta 90.492794
_cell_angle_gamma 135.681020
_cell_volume 403.977478
_symmetry_space_group_name_H-M "P -1"
_symmetry_group_IT_number 2
_symmetry_cell_setting 'triclinic'
loop_
_space_group_symop_operation_xyz
x,y,z
-x,-y,-z
loop_
_atom_site_type_symbol
_atom_site_label
_atom_site_fract_x
_atom_site_fract_y
_atom_site_fract_z
Si Si1 0.445722 0.975225 0.776617
Si Si2 0.449715 0.588910 0.329847
Si Si3 0.931669 0.790546 0.640927
Si Si4 0.883934 0.201563 0.795184
Si Si5 0.589388 0.273576 0.233587
O O1 0.709990 0.145230 0.729424
O O2 0.570013 0.185401 0.470279
O O3 0.299665 0.728588 0.892888
O O4 0.208566 0.830906 0.012313
O O5 0.500000 0.500000 0.500000
O O6 0.289493 0.415810 0.322018
O O7 0.227407 0.490627 0.504093
O O8 0.748136 0.935195 0.006071
O O9 0.777825 0.572585 0.964291
O O10 0.000000 0.000000 0.500000
O O11 0.248075 0.003919 0.423593
#
# Coordination Sequence:
#
# PCOD9049523 Si02
#       5
#     2   2   2   2   2
#     4  10  24  46  76 110 144 190 232 306 362 436
#     4  12  26  48  73 104 145 193 246 296 354 430
#     4  12  26  48  73 104 145 193 246 296 354 430
#     4  11  25  46  75 108 146 184 244 295 368 422
#     4  11  25  46  75 108 146 184 244 295 368 422
#
# _framework density 24.753857
#
# number of rings (size 3 to 8) (size 9 to 14) (size 15 to 20)
#    0.000    0.800    4.000    1.200    2.800   11.200 
#    0.000    0.000    0.000    0.000    0.000    0.000 
#    0.000    0.000    0.000    0.000    0.000    0.000 
#
# Total GULP energy -56159.628843 kJ/mol
# GULP energy per Si atom -5615.962884 kJ/mol
# Density = 2.469752 g / cm^3
# Si number density = 24.753857 Si / 1000 Ang^3
#
#
#
# Elastic Constant Matrix: (Units=GPa)
#
#
# Indices 1 2 3 4 5 6 
#
# 1 80.4605 33.6175 18.6025 17.2355 29.2494 11.8178
# 2 33.6175 94.2694 19.8716 20.7222 15.2193 -0.7997
# 3 18.6025 19.8716 101.8384 1.2052 34.5162 5.3001
# 4 17.2355 20.7222 1.2052 50.0245 1.9187 -0.3629
# 5 29.2494 15.2193 34.5162 1.9187 58.2153 0.0336
# 6 11.8178 -0.7997 5.3001 -0.3629 0.0336 35.5348
#
#
#
# Elastic Compliance Matrix: (Units=1/GPa)
#
#
# Indices 1 2 3 4 5 6 
#
# 1 0.019358 -0.004725 0.000768 -0.004442 -0.008796 -0.006696
# 2 -0.004725 0.013558 -0.001868 -0.003930 0.000066 0.002115
# 3 0.000768 -0.001868 0.012667 0.000473 -0.007422 -0.002175
# 4 -0.004442 -0.003930 0.000473 0.023064 0.002218 0.001552
# 5 -0.008796 0.000066 -0.007422 0.002218 0.025905 0.004032
# 6 -0.006696 0.002115 -0.002175 0.001552 0.004032 0.030752
#
#
# Mechanical properties :
#
#
# Convention : Reuss Voigt Hill
#
# Bulk Modulus (GPa) = 29.47081 46.75016 38.11048
# Shear Modulus (GPa) = 33.72341 42.38668 38.05505
#
# Velocity S-wave (km/s) = 3.69501 4.14252 3.92514
# Velocity P-wave (km/s) = 5.48958 6.46588 5.99763
#
# Compressibility (1/GPa) = 0.03393188
#
# Stress axis : x y z
#
# Youngs Moduli (GPa) = 51.65930 73.75623 78.94589
#
# Poissons Ratio (x) = 0.34853 -0.06065
# Poissons Ratio (y) = 0.24411 0.14749
# Poissons Ratio (z) = -0.03969 0.13779
#
# Static dielectric constant tensor:
#      x y z
#    x 1.933070 -0.022850 -0.005100 
#    y -0.022850 1.968320 -0.004470 
#    z -0.005100 -0.004470 1.903770 
# 
# From -- ./inp_files/52965.got.cif
#   From: 2010.05.17/outbox.cif.g08.bks.cpg/sg2_27_cif.got.tgz:52965.got - 2010.06.03 11:33:40.
