data_PCOD9049268
_publ_section_title
;
Structure prediction by ZEFSAII (Michael W. Deem and Ramdas Pophale) SiO2 
 PCOD9049268
Probable space group: P -1
;
_chemical_formula_sum "Si O2"
_cell_formula_units_Z 16
_cell_length_a 14.162551
_cell_length_b 9.113258
_cell_length_c 23.335855
_cell_angle_alpha 30.061491
_cell_angle_beta 30.699368
_cell_angle_gamma 49.016606
_cell_volume 722.831840
_symmetry_space_group_name_H-M "P -1"
_symmetry_group_IT_number 2
_symmetry_cell_setting 'triclinic'
loop_
_space_group_symop_operation_xyz
x,y,z
-x,-y,-z
loop_
_atom_site_type_symbol
_atom_site_label
_atom_site_fract_x
_atom_site_fract_y
_atom_site_fract_z
Si Si1 0.210367 0.125539 0.459287
Si Si2 0.754598 0.164050 0.804891
Si Si3 0.199462 0.220405 0.561884
Si Si4 0.785771 0.239155 0.191393
Si Si5 0.447109 0.137159 0.663041
Si Si6 0.232924 0.149612 0.219757
Si Si7 0.389998 0.866865 0.904058
Si Si8 0.422929 0.265512 0.850708
O O1 0.275189 0.501250 0.293646
O O2 0.188294 0.048729 0.564689
O O3 0.368280 0.984870 0.400605
O O4 0.990377 0.999388 0.591913
O O5 0.984271 0.241357 0.676164
O O6 0.741732 0.003192 0.803073
O O7 0.621621 0.927847 0.001280
O O8 0.365803 0.556213 0.350588
O O9 0.246887 0.026310 0.653866
O O10 0.647224 0.442980 0.203101
O O11 0.726590 0.068915 0.218792
O O12 0.000000 0.500000 0.000000
O O13 0.500000 0.500000 0.500000
O O14 0.395363 0.080090 0.775443
O O15 0.397001 0.134377 0.184629
O O16 0.272557 0.514236 0.066860
O O17 0.305433 0.001873 0.955902
#
# Coordination Sequence:
#
# PCOD9049268 Si02
#       8
#     2   2   2   2   2   2   2   2
#     4  11  25  44  75 105 139 191 239 303 366 429
#     4  11  24  45  76 110 141 182 251 300 358 439
#     4  11  23  44  75 110 140 179 253 303 352 425
#     4  12  26  49  77 106 143 197 258 303 354 439
#     4  12  29  49  70 105 150 193 244 305 367 440
#     4  10  24  46  71 107 147 183 233 306 367 442
#     4  11  26  44  68 106 150 185 236 295 376 437
#     4  12  24  44  75 106 144 197 238 301 363 429
#
# _framework density 22.135162999999999
#
# number of rings (size 3 to 8) (size 9 to 14) (size 15 to 20)
#    0.000    0.750    2.500    4.875    7.000    2.500 
#    2.250    1.250    0.000    0.000    0.000    0.000 
#    0.000    0.000    0.000    0.000    0.000    0.000 
#
# Total GULP energy -89433.115147 kJ/mol
# GULP energy per Si atom -5589.569697 kJ/mol
# Density = 2.208478 g / cm^3
# Si number density = 22.135163 Si / 1000 Ang^3
#
#
#
# Elastic Constant Matrix: (Units=GPa)
#
#
# Indices 1 2 3 4 5 6 
#
# 1 132.8618 42.6244 65.0102 -16.4627 31.7891 2.1792
# 2 42.6244 90.5293 43.6210 -28.8128 3.2774 2.7186
# 3 65.0102 43.6210 161.9515 -17.9446 1.5139 -7.1824
# 4 -16.4627 -28.8128 -17.9446 38.6075 -6.6444 3.3388
# 5 31.7891 3.2774 1.5139 -6.6444 48.8418 -6.4999
# 6 2.1792 2.7186 -7.1824 3.3388 -6.4999 21.8986
#
#
#
# Elastic Compliance Matrix: (Units=1/GPa)
#
#
# Indices 1 2 3 4 5 6 
#
# 1 0.012978 -0.003626 -0.004400 -0.000305 -0.008752 -0.004836
# 2 -0.003626 0.017350 -0.002166 0.011096 0.002305 -0.003511
# 3 -0.004400 -0.002166 0.008779 0.000792 0.003442 0.004487
# 4 -0.000305 0.011096 0.000792 0.035501 0.003533 -0.005451
# 5 -0.008752 0.002305 0.003442 0.003533 0.027638 0.009378
# 6 -0.004836 -0.003511 0.004487 -0.005451 0.009378 0.051668
#
#
# Mechanical properties :
#
#
# Convention : Reuss Voigt Hill
#
# Bulk Modulus (GPa) = 53.40281 76.42820 64.91550
# Shear Modulus (GPa) = 27.69502 37.47538 32.58520
#
# Velocity S-wave (km/s) = 3.54104 4.11910 3.84096
# Velocity P-wave (km/s) = 6.39506 7.56476 7.00437
#
# Compressibility (1/GPa) = 0.01872561
#
# Stress axis : x y z
#
# Youngs Moduli (GPa) = 77.05255 57.63585 113.91281
#
# Poissons Ratio (x) = 0.20896 0.50116
# Poissons Ratio (y) = 0.27936 0.24669
# Poissons Ratio (z) = 0.33899 0.12482
#
# Static dielectric constant tensor:
#      x y z
#    x 1.862810 -0.031970 -0.076610 
#    y -0.031970 1.839530 0.047230 
#    z -0.076610 0.047230 1.836540 
# 
# From -- ./inp_files/611735.got.cif
#   From: 2010.05.17/outbox.cif.g08.bks.cpg/sg2_306_cif.got.tgz:611735.got - 2010.06.03 11:33:40.
