data_PCOD9049665
_publ_section_title
;
Structure prediction by ZEFSAII (Michael W. Deem and Ramdas Pophale) SiO2 
 PCOD9049665
Probable space group: P -1
;
_chemical_formula_sum "Si O2"
_cell_formula_units_Z 14
_cell_length_a 13.963545
_cell_length_b 14.235323
_cell_length_c 7.424463
_cell_angle_alpha 59.497053
_cell_angle_beta 76.787556
_cell_angle_gamma 30.598522
_cell_volume 569.551349
_symmetry_space_group_name_H-M "P -1"
_symmetry_group_IT_number 2
_symmetry_cell_setting 'triclinic'
loop_
_space_group_symop_operation_xyz
x,y,z
-x,-y,-z
loop_
_atom_site_type_symbol
_atom_site_label
_atom_site_fract_x
_atom_site_fract_y
_atom_site_fract_z
Si Si1 0.846235 0.614180 0.291139
Si Si2 0.123812 0.882507 0.784670
Si Si3 0.343904 0.487961 0.252079
Si Si4 0.676022 0.266704 0.529992
Si Si5 0.474972 0.851680 0.753683
Si Si6 0.962181 0.791740 0.362697
Si Si7 0.620582 0.927412 0.781300
O O1 0.000000 0.500000 0.500000
O O2 0.943315 0.405412 0.380581
O O3 0.609267 0.825736 0.266109
O O4 0.809189 0.740137 0.028738
O O5 0.233724 0.761242 0.660748
O O6 0.072195 0.060411 0.663419
O O7 0.287201 0.669746 0.062275
O O8 0.902746 0.033428 0.759086
O O9 0.551778 0.284292 0.488827
O O10 0.392689 0.380126 0.150174
O O11 0.142138 0.633814 0.290994
O O12 0.500000 0.500000 0.500000
O O13 0.605645 0.816923 0.827189
O O14 0.271449 0.012560 0.797414
O O15 0.378994 0.000047 0.467242
#
# Coordination Sequence:
#
# PCOD9049665 Si02
#       7
#     2   2   2   2   2   2   2
#     4  11  23  47  73 104 137 179 237 295 360 423
#     4  11  26  45  67 103 142 187 234 284 349 416
#     4  12  25  47  68 100 148 185 231 293 346 418
#     4  11  24  43  68  97 138 187 237 286 342 410
#     4  11  24  46  71 106 140 186 242 284 362 430
#     4  12  24  43  72 103 139 185 240 285 352 432
#     4  10  24  47  71 100 144 182 227 306 356 415
#
# _framework density 24.580750999999999
#
# number of rings (size 3 to 8) (size 9 to 14) (size 15 to 20)
#    0.000    0.857    5.714    0.857    0.000    2.857 
#    5.143    0.000    0.000    0.000    0.000    0.000 
#    0.000    0.000    0.000    0.000    0.000    0.000 
#
# Total GULP energy -78252.700931 kJ/mol
# GULP energy per Si atom -5589.478638 kJ/mol
# Density = 2.452480 g / cm^3
# Si number density = 24.580751 Si / 1000 Ang^3
#
#
#
# Elastic Constant Matrix: (Units=GPa)
#
#
# Indices 1 2 3 4 5 6 
#
# 1 77.9452 28.0772 25.4259 -15.1597 6.7712 10.5156
# 2 28.0772 134.4977 12.7840 -26.2462 2.3005 -6.8345
# 3 25.4259 12.7840 112.8922 -9.6972 7.0124 6.4217
# 4 -15.1597 -26.2462 -9.6972 24.0178 2.6391 -2.0308
# 5 6.7712 2.3005 7.0124 2.6391 30.3564 -8.4226
# 6 10.5156 -6.8345 6.4217 -2.0308 -8.4226 50.4876
#
#
#
# Elastic Compliance Matrix: (Units=1/GPa)
#
#
# Indices 1 2 3 4 5 6 
#
# 1 0.016732 -0.001872 -0.002368 0.007756 -0.004807 -0.003927
# 2 -0.001872 0.009855 0.000079 0.009861 -0.000649 0.002002
# 3 -0.002368 0.000079 0.009814 0.002717 -0.002262 -0.001012
# 4 0.007756 0.009861 0.002717 0.059334 -0.008152 0.000401
# 5 -0.004807 -0.000649 -0.002262 -0.008152 0.037262 0.007089
# 6 -0.003927 0.002002 -0.001012 0.000401 0.007089 0.022223
#
#
# Mechanical properties :
#
#
# Convention : Reuss Voigt Hill
#
# Bulk Modulus (GPa) = 35.61326 50.87880 43.24603
# Shear Modulus (GPa) = 28.91812 38.24222 33.58017
#
# Velocity S-wave (km/s) = 3.43367 3.94862 3.70011
# Velocity P-wave (km/s) = 5.49908 6.44456 5.99050
#
# Compressibility (1/GPa) = 0.02807943
#
# Stress axis : x y z
#
# Youngs Moduli (GPa) = 59.76525 101.46683 101.89622
#
# Poissons Ratio (x) = 0.18992 0.24132
# Poissons Ratio (y) = 0.11186 -0.00805
# Poissons Ratio (z) = 0.14154 -0.00802
#
# Static dielectric constant tensor:
#      x y z
#    x 1.972530 0.007120 0.009810 
#    y 0.007120 1.965960 0.019290 
#    z 0.009810 0.019290 1.967290 
# 
# From -- ./inp_files/312688.got.cif
#   From: 2010.05.17/outbox.cif.g08.bks.cpg/sg2_157_cif.got.tgz:312688.got - 2010.06.03 11:33:40.
