data_PCOD9049150
_publ_section_title
;
Structure prediction by ZEFSAII (Michael W. Deem and Ramdas Pophale) SiO2 
 PCOD9049150
Probable space group: P -1
;
_chemical_formula_sum "Si O2"
_cell_formula_units_Z 14
_cell_length_a 8.927111
_cell_length_b 9.426775
_cell_length_c 21.482428
_cell_angle_alpha 150.111267
_cell_angle_beta 133.111836
_cell_angle_gamma 47.947754
_cell_volume 642.644202
_symmetry_space_group_name_H-M "P -1"
_symmetry_group_IT_number 2
_symmetry_cell_setting 'triclinic'
loop_
_space_group_symop_operation_xyz
x,y,z
-x,-y,-z
loop_
_atom_site_type_symbol
_atom_site_label
_atom_site_fract_x
_atom_site_fract_y
_atom_site_fract_z
Si Si1 0.015244 0.654937 0.871259
Si Si2 0.556708 0.807355 0.648659
Si Si3 0.776617 0.666922 0.074773
Si Si4 0.151810 0.226633 0.636326
Si Si5 0.550785 0.788403 0.787156
Si Si6 0.193739 0.826737 0.208741
Si Si7 0.566800 0.706824 0.367945
O O1 0.781030 0.643864 0.821791
O O2 0.177797 0.479856 0.900453
O O3 0.058708 0.501470 0.758146
O O4 0.000000 0.000000 0.000000
O O5 0.500000 0.500000 0.500000
O O6 0.576145 0.821130 0.733306
O O7 0.359936 0.052412 0.663728
O O8 0.755298 0.881042 0.696339
O O9 0.965664 0.831516 0.174966
O O10 0.557422 0.897834 0.097846
O O11 0.782633 0.410485 0.929849
O O12 0.227700 0.304043 0.619575
O O13 0.000000 0.000000 0.500000
O O14 0.410752 0.562679 0.681518
O O15 0.377090 0.717486 0.269189
O O16 0.500000 0.000000 0.500000
#
# Coordination Sequence:
#
# PCOD9049150 Si02
#       7
#     2   2   2   2   2   2   2
#     4  12  26  45  71 106 149 189 239 300 361 434
#     4  11  23  43  70 104 139 188 241 296 359 437
#     4  11  25  46  71 105 141 190 240 302 353 441
#     4  11  25  45  71 103 149 189 241 299 364 433
#     4  12  25  42  73 100 142 183 242 287 363 418
#     4  10  24  46  69  99 150 180 241 296 364 425
#     4  11  24  45  73 105 144 187 238 302 359 434
#
# _framework density 21.784994999999999
#
# number of rings (size 3 to 8) (size 9 to 14) (size 15 to 20)
#    0.000    0.857    2.857    4.286    4.000    6.286 
#    0.000    2.143    0.000    0.000    0.000    0.000 
#    0.000    0.000    0.000    0.000    0.000    0.000 
#
# Total GULP energy -78293.583294 kJ/mol
# GULP energy per Si atom -5592.398807 kJ/mol
# Density = 2.173541 g / cm^3
# Si number density = 21.784995 Si / 1000 Ang^3
#
#
#
# Elastic Constant Matrix: (Units=GPa)
#
#
# Indices 1 2 3 4 5 6 
#
# 1 124.2559 20.1821 51.8721 16.7760 3.5529 18.1748
# 2 20.1821 59.1730 0.4648 11.4300 -3.1904 6.0390
# 3 51.8721 0.4648 106.1143 17.7294 -3.4034 6.5316
# 4 16.7760 11.4300 17.7294 42.1617 -3.0072 1.6563
# 5 3.5529 -3.1904 -3.4034 -3.0072 40.7402 12.0470
# 6 18.1748 6.0390 6.5316 1.6563 12.0470 44.6980
#
#
#
# Elastic Compliance Matrix: (Units=1/GPa)
#
#
# Indices 1 2 3 4 5 6 
#
# 1 0.011418 -0.003305 -0.005164 -0.001413 -0.000856 -0.003158
# 2 -0.003305 0.019251 0.002519 -0.004721 0.002267 -0.002062
# 3 -0.005164 0.002519 0.012647 -0.003823 0.001528 -0.000359
# 4 -0.001413 -0.004721 -0.003823 0.027247 0.001326 0.000404
# 5 -0.000856 0.002267 0.001528 0.001326 0.027265 -0.007579
# 6 -0.003158 -0.002062 -0.000359 0.000404 -0.007579 0.026015
#
#
# Mechanical properties :
#
#
# Convention : Reuss Voigt Hill
#
# Bulk Modulus (GPa) = 31.82883 48.28679 40.05781
# Shear Modulus (GPa) = 34.19671 39.98829 37.09250
#
# Velocity S-wave (km/s) = 3.96629 4.28902 4.13081
# Velocity P-wave (km/s) = 5.96803 6.83673 6.41710
#
# Compressibility (1/GPa) = 0.03141805
#
# Stress axis : x y z
#
# Youngs Moduli (GPa) = 87.58480 51.94409 79.07073
#
# Poissons Ratio (x) = 0.17165 0.40831
# Poissons Ratio (y) = 0.28943 -0.19921
# Poissons Ratio (z) = 0.45227 -0.13087
#
# Static dielectric constant tensor:
#      x y z
#    x 1.867190 -0.007620 0.056950 
#    y -0.007620 1.789310 -0.012570 
#    z 0.056950 -0.012570 1.777100 
# 
# From -- ./inp_files/185562.got.cif
#   From: 2010.05.17/outbox.cif.g08.bks.cpg/sg2_93_cif.got.tgz:185562.got - 2010.06.03 11:33:40.
