data_PCOD9049574
_publ_section_title
;
Structure prediction by ZEFSAII (Michael W. Deem and Ramdas Pophale) SiO2 
 PCOD9049574
Probable space group: P -1
;
_chemical_formula_sum "Si O2"
_cell_formula_units_Z 12
_cell_length_a 6.992027
_cell_length_b 10.949601
_cell_length_c 9.419141
_cell_angle_alpha 92.991485
_cell_angle_beta 93.844116
_cell_angle_gamma 136.336349
_cell_volume 491.429146
_symmetry_space_group_name_H-M "P -1"
_symmetry_group_IT_number 2
_symmetry_cell_setting 'triclinic'
loop_
_space_group_symop_operation_xyz
x,y,z
-x,-y,-z
loop_
_atom_site_type_symbol
_atom_site_label
_atom_site_fract_x
_atom_site_fract_y
_atom_site_fract_z
Si Si1 0.384998 0.534952 0.157577
Si Si2 0.786499 0.370991 0.603783
Si Si3 0.603260 0.210771 0.986390
Si Si4 0.145282 0.846150 0.806323
Si Si5 0.999405 0.271066 0.790748
Si Si6 0.198863 0.974402 0.502849
O O1 0.360292 0.588991 0.313586
O O2 0.328241 0.619050 0.047203
O O3 0.693358 0.629807 0.149891
O O4 0.161244 0.323066 0.155712
O O5 0.000000 0.500000 0.500000
O O6 0.991357 0.398336 0.724339
O O7 0.857425 0.127887 0.360483
O O8 0.790487 0.201424 0.904016
O O9 0.296008 0.032146 0.901221
O O10 0.680128 0.196744 0.145402
O O11 0.476129 0.834801 0.466552
O O12 0.876988 0.126516 0.654060
O O13 0.000000 0.000000 0.500000
#
# Coordination Sequence:
#
# PCOD9049574 Si02
#       6
#     2   2   2   2   2   2
#     4  11  23  43  67 100 130 173 222 271 323 392
#     4  11  24  39  63  99 135 169 220 266 329 391
#     4  10  24  47  65  98 132 176 222 264 327 394
#     4  11  23  43  71  92 138 175 213 278 326 380
#     4  11  23  42  68  94 134 170 218 271 326 389
#     4  12  23  43  68  99 135 171 218 276 328 387
#
# _framework density 24.418572999999999
#
# number of rings (size 3 to 8) (size 9 to 14) (size 15 to 20)
#    0.000    1.000    5.000    2.000    4.667    2.000 
#    0.000    7.500    0.000    0.000    0.000    0.000 
#    0.000    0.000    0.000    0.000    0.000    0.000 
#
# Total GULP energy -67103.414423 kJ/mol
# GULP energy per Si atom -5591.951202 kJ/mol
# Density = 2.436300 g / cm^3
# Si number density = 24.418573 Si / 1000 Ang^3
#
#
#
# Elastic Constant Matrix: (Units=GPa)
#
#
# Indices 1 2 3 4 5 6 
#
# 1 155.9480 61.2131 47.5003 -3.3723 12.4723 8.1335
# 2 61.2131 137.2720 60.5209 -10.2588 -2.4568 32.6360
# 3 47.5003 60.5209 132.8265 -11.3009 7.4010 10.8966
# 4 -3.3723 -10.2588 -11.3009 41.9114 0.9599 -6.9146
# 5 12.4723 -2.4568 7.4010 0.9599 38.5521 7.6414
# 6 8.1335 32.6360 10.8966 -6.9146 7.6414 32.7572
#
#
#
# Elastic Compliance Matrix: (Units=1/GPa)
#
#
# Indices 1 2 3 4 5 6 
#
# 1 0.008487 -0.004025 -0.001272 -0.000057 -0.003371 0.003101
# 2 -0.004025 0.014143 -0.004273 -0.000294 0.005616 -0.013042
# 3 -0.001272 -0.004273 0.010046 0.001972 -0.002270 0.002176
# 4 -0.000057 -0.000294 0.001972 0.025266 -0.002093 0.005473
# 5 -0.003371 0.005616 -0.002270 -0.002093 0.030150 -0.011478
# 6 0.003101 -0.013042 0.002176 0.005473 -0.011478 0.045860
#
#
# Mechanical properties :
#
#
# Convention : Reuss Voigt Hill
#
# Bulk Modulus (GPa) = 73.88144 84.94613 79.41379
# Shear Modulus (GPa) = 31.72527 39.76495 35.74511
#
# Velocity S-wave (km/s) = 3.60839 4.03981 3.83018
# Velocity P-wave (km/s) = 6.90526 7.52483 7.22169
#
# Compressibility (1/GPa) = 0.01353520
#
# Stress axis : x y z
#
# Youngs Moduli (GPa) = 117.83353 70.70825 99.54243
#
# Poissons Ratio (x) = 0.28462 0.12664
# Poissons Ratio (y) = 0.47431 0.42530
# Poissons Ratio (z) = 0.14991 0.30210
#
# Static dielectric constant tensor:
#      x y z
#    x 1.952100 0.005660 -0.046090 
#    y 0.005660 2.003760 0.030710 
#    z -0.046090 0.030710 2.090530 
# 
# From -- ./inp_files/360278.got.cif
#   From: 2010.05.17/outbox.cif.g08.bks.cpg/sg2_181_cif.got.tgz:360278.got - 2010.06.03 11:33:40.
