data_PCOD9049524
_publ_section_title
;
Structure prediction by ZEFSAII (Michael W. Deem and Ramdas Pophale) SiO2 
 PCOD9049524
Probable space group: P -1
;
_chemical_formula_sum "Si O2"
_cell_formula_units_Z 16
_cell_length_a 8.509859
_cell_length_b 8.455601
_cell_length_c 14.722570
_cell_angle_alpha 88.812523
_cell_angle_beta 37.915254
_cell_angle_gamma 80.562767
_cell_volume 631.775357
_symmetry_space_group_name_H-M "P -1"
_symmetry_group_IT_number 2
_symmetry_cell_setting 'triclinic'
loop_
_space_group_symop_operation_xyz
x,y,z
-x,-y,-z
loop_
_atom_site_type_symbol
_atom_site_label
_atom_site_fract_x
_atom_site_fract_y
_atom_site_fract_z
Si Si1 0.538067 0.859474 0.558028
Si Si2 0.945425 0.237604 0.775113
Si Si3 0.122366 0.416555 0.151264
Si Si4 0.487173 0.879767 0.121205
Si Si5 0.290948 0.598165 0.518291
Si Si6 0.324319 0.627865 0.762131
Si Si7 0.707160 0.092937 0.601534
Si Si8 0.182547 0.870839 0.983499
O O1 0.313074 0.771997 0.690180
O O2 0.806230 0.744077 0.397595
O O3 0.500000 0.000000 0.500000
O O4 0.593598 0.943201 0.623690
O O5 0.784697 0.420340 0.869521
O O6 0.796664 0.119464 0.791707
O O7 0.998820 0.161015 0.850826
O O8 0.988431 0.380526 0.306832
O O9 0.898009 0.458130 0.172823
O O10 0.319893 0.258088 0.023764
O O11 0.459992 0.823467 0.237458
O O12 0.594308 0.043288 0.078294
O O13 0.500000 0.500000 0.500000
O O14 0.387083 0.487565 0.386521
O O15 0.307746 0.776153 0.473461
O O16 0.284860 0.709319 0.877565
O O17 0.000000 0.000000 0.500000
O O18 0.000000 0.000000 0.000000
#
# Coordination Sequence:
#
# PCOD9049524 Si02
#       8
#     2   2   2   2   2   2   2   2
#     4  12  24  44  76 107 148 196 261 312 374 451
#     4  12  28  46  72 106 150 201 246 308 390 451
#     4  11  25  47  74 106 150 192 251 307 383 449
#     4  12  27  49  72 107 154 197 251 309 385 458
#     4  10  24  46  76 110 149 198 250 313 376 449
#     4  11  23  46  72 111 141 191 258 317 369 441
#     4  12  27  48  77 111 153 199 254 313 381 453
#     4  12  26  46  72 108 147 196 251 317 377 443
#
# _framework density 25.325457
#
# number of rings (size 3 to 8) (size 9 to 14) (size 15 to 20)
#    0.000    0.500    5.000    3.000    5.250    1.500 
#    0.000    1.250    0.000    0.000    0.000    0.000 
#    0.000    0.000    0.000    0.000    0.000    0.000 
#
# Total GULP energy -89419.659338 kJ/mol
# GULP energy per Si atom -5588.728709 kJ/mol
# Density = 2.526782 g / cm^3
# Si number density = 25.325457 Si / 1000 Ang^3
#
#
#
# Elastic Constant Matrix: (Units=GPa)
#
#
# Indices 1 2 3 4 5 6 
#
# 1 71.3728 25.5652 19.3232 1.6098 9.5107 25.8269
# 2 25.5652 83.2576 24.9953 7.4783 11.7044 13.5939
# 3 19.3232 24.9953 122.9970 21.9197 26.6424 1.5705
# 4 1.6098 7.4783 21.9197 53.1541 4.8240 11.9427
# 5 9.5107 11.7044 26.6424 4.8240 39.4518 1.9041
# 6 25.8269 13.5939 1.5705 11.9427 1.9041 43.7057
#
#
#
# Elastic Compliance Matrix: (Units=1/GPa)
#
#
# Indices 1 2 3 4 5 6 
#
# 1 0.020469 -0.003643 -0.002563 0.003788 -0.002016 -0.011818
# 2 -0.003643 0.014322 -0.001783 -0.000537 -0.002004 -0.002003
# 3 -0.002563 -0.001783 0.010890 -0.004334 -0.005828 0.003116
# 4 0.003788 -0.000537 -0.004334 0.022380 -0.000176 -0.008023
# 5 -0.002016 -0.002004 -0.005828 -0.000176 0.030349 0.000750
# 6 -0.011818 -0.002003 0.003116 -0.008023 0.000750 0.032535
#
#
# Mechanical properties :
#
#
# Convention : Reuss Voigt Hill
#
# Bulk Modulus (GPa) = 33.66550 46.37720 40.02135
# Shear Modulus (GPa) = 31.88292 41.11190 36.49741
#
# Velocity S-wave (km/s) = 3.55199 4.03344 3.80035
# Velocity P-wave (km/s) = 5.49037 6.32802 5.92402
#
# Compressibility (1/GPa) = 0.02970400
#
# Stress axis : x y z
#
# Youngs Moduli (GPa) = 48.85357 69.82292 91.82643
#
# Poissons Ratio (x) = 0.25438 0.23535
# Poissons Ratio (y) = 0.17798 0.16369
# Poissons Ratio (z) = 0.12521 0.12446
#
# Static dielectric constant tensor:
#      x y z
#    x 2.030970 0.002580 -0.023250 
#    y 0.002580 2.066050 0.062330 
#    z -0.023250 0.062330 2.033960 
# 
# From -- ./inp_files/279196.got.cif
#   From: 2010.05.17/outbox.cif.g08.bks.cpg/sg2_140_cif.got.tgz:279196.got - 2010.06.03 11:33:40.
