data_PCOD9049040
_publ_section_title
;
Structure prediction by ZEFSAII (Michael W. Deem and Ramdas Pophale) SiO2 
 PCOD9049040
Probable space group: P -1
;
_chemical_formula_sum "Si O2"
_cell_formula_units_Z 14
_cell_length_a 15.468932
_cell_length_b 15.624439
_cell_length_c 5.630320
_cell_angle_alpha 76.599206
_cell_angle_beta 109.034087
_cell_angle_gamma 153.514959
_cell_volume 567.824270
_symmetry_space_group_name_H-M "P -1"
_symmetry_group_IT_number 2
_symmetry_cell_setting 'triclinic'
loop_
_space_group_symop_operation_xyz
x,y,z
-x,-y,-z
loop_
_atom_site_type_symbol
_atom_site_label
_atom_site_fract_x
_atom_site_fract_y
_atom_site_fract_z
Si Si1 0.581917 0.003727 0.874021
Si Si2 0.742049 0.795405 0.141563
Si Si3 0.951190 0.069485 0.775124
Si Si4 0.317976 0.493142 0.982408
Si Si5 0.768178 0.496807 0.614012
Si Si6 0.801533 0.332607 0.590739
Si Si7 0.194851 0.961401 0.719298
O O1 0.768275 0.213814 0.780715
O O2 0.400237 0.833102 0.640339
O O3 0.650663 0.973117 0.073661
O O4 0.500000 0.000000 0.000000
O O5 0.885799 0.838198 0.315708
O O6 0.794478 0.934806 0.212854
O O7 0.504444 0.585231 0.090586
O O8 0.814986 0.875716 0.886025
O O9 0.790313 0.999293 0.568217
O O10 0.106245 0.259669 0.946638
O O11 0.318809 0.546609 0.695497
O O12 0.340141 0.567376 0.197503
O O13 0.802506 0.421673 0.689719
O O14 0.981957 0.729181 0.675910
O O15 0.000000 0.500000 0.500000
#
# Coordination Sequence:
#
# PCOD9049040 Si02
#       7
#     2   2   2   2   2   2   2
#     4  11  27  47  74 108 142 189 248 303 370 447
#     4  11  23  43  74  99 145 194 243 300 366 436
#     4  10  24  46  67 108 142 191 244 303 366 436
#     4  11  25  46  70 108 144 196 241 305 362 443
#     4  11  26  46  73 106 150 192 246 299 373 436
#     4  11  27  48  73 107 147 194 244 308 372 445
#     4  11  24  44  72 101 147 186 241 305 361 436
#
# _framework density 24.655517
#
# number of rings (size 3 to 8) (size 9 to 14) (size 15 to 20)
#    0.000    1.143    1.429    2.571    8.000    3.429 
#    0.000    2.143    0.000    0.000    0.000    0.000 
#    0.000    0.000    0.000    0.000    0.000    0.000 
#
# Total GULP energy -78252.589825 kJ/mol
# GULP energy per Si atom -5589.470702 kJ/mol
# Density = 2.459940 g / cm^3
# Si number density = 24.655517 Si / 1000 Ang^3
#
#
#
# Elastic Constant Matrix: (Units=GPa)
#
#
# Indices 1 2 3 4 5 6 
#
# 1 116.5852 15.7968 45.2693 -0.2287 -10.3470 -16.5577
# 2 15.7968 97.1939 31.4128 -15.5681 -4.7741 -3.9800
# 3 45.2693 31.4128 98.8705 0.3460 12.8073 0.4487
# 4 -0.2287 -15.5681 0.3460 25.2844 -7.5486 -8.8507
# 5 -10.3470 -4.7741 12.8073 -7.5486 43.9295 -1.3820
# 6 -16.5577 -3.9800 0.4487 -8.8507 -1.3820 43.7411
#
#
#
# Elastic Compliance Matrix: (Units=1/GPa)
#
#
# Indices 1 2 3 4 5 6 
#
# 1 0.012605 0.001702 -0.007184 0.005362 0.006367 0.006286
# 2 0.001702 0.014538 -0.006255 0.012543 0.006110 0.004763
# 3 -0.007184 -0.006255 0.016597 -0.008722 -0.008883 -0.005504
# 4 0.005362 0.012543 -0.008722 0.057459 0.015526 0.015378
# 5 0.006367 0.006110 -0.008883 0.015526 0.030410 0.007160
# 6 0.006286 0.004763 -0.005504 0.015378 0.007160 0.029069
#
#
# Mechanical properties :
#
#
# Convention : Reuss Voigt Hill
#
# Bulk Modulus (GPa) = 49.34507 55.28971 52.31739
# Shear Modulus (GPa) = 26.19058 37.26907 31.72983
#
# Velocity S-wave (km/s) = 3.26277 3.89214 3.59127
# Velocity P-wave (km/s) = 5.85248 6.53237 6.20175
#
# Compressibility (1/GPa) = 0.02026545
#
# Stress axis : x y z
#
# Youngs Moduli (GPa) = 79.33515 68.78502 60.25102
#
# Poissons Ratio (x) = -0.11709 0.43286
# Poissons Ratio (y) = -0.13505 0.37689
# Poissons Ratio (z) = 0.56996 0.43028
#
# Static dielectric constant tensor:
#      x y z
#    x 1.992960 -0.054780 -0.152600 
#    y -0.054780 2.005620 0.082370 
#    z -0.152600 0.082370 2.323510 
# 
# From -- ./inp_files/97995.got.cif
#   From: 2010.05.17/outbox.cif.g08.bks.cpg/sg2_49_cif.got.tgz:97995.got - 2010.06.03 11:33:40.
