data_PCOD9049559
_publ_section_title
;
Structure prediction by ZEFSAII (Michael W. Deem and Ramdas Pophale) SiO2 
 PCOD9049559
Probable space group: P -1
;
_chemical_formula_sum "Si O2"
_cell_formula_units_Z 14
_cell_length_a 7.512648
_cell_length_b 9.915455
_cell_length_c 10.948234
_cell_angle_alpha 123.987620
_cell_angle_beta 64.125858
_cell_angle_gamma 80.001401
_cell_volume 504.194575
_symmetry_space_group_name_H-M "P -1"
_symmetry_group_IT_number 2
_symmetry_cell_setting 'triclinic'
loop_
_space_group_symop_operation_xyz
x,y,z
-x,-y,-z
loop_
_atom_site_type_symbol
_atom_site_label
_atom_site_fract_x
_atom_site_fract_y
_atom_site_fract_z
Si Si1 0.073700 0.103501 0.863088
Si Si2 0.505193 0.567847 0.168661
Si Si3 0.719018 0.771460 0.313611
Si Si4 0.082105 0.749838 0.575920
Si Si5 0.433253 0.093552 0.259212
Si Si6 0.068702 0.567944 0.723990
Si Si7 0.475916 0.245524 0.072624
O O1 0.070205 0.217123 0.799558
O O2 0.358889 0.949684 0.733594
O O3 0.001761 0.953730 0.771508
O O4 0.984825 0.252513 0.079976
O O5 0.657943 0.658027 0.179405
O O6 0.263502 0.712214 0.393288
O O7 0.594596 0.365232 0.108747
O O8 0.500000 0.500000 0.000000
O O9 0.500000 0.000000 0.500000
O O10 0.853433 0.763829 0.594118
O O11 0.181703 0.589441 0.575603
O O12 0.520864 0.131816 0.126113
O O13 0.214695 0.367227 0.657620
O O14 0.450068 0.891190 0.136032
O O15 0.809860 0.614948 0.789366
#
# Coordination Sequence:
#
# PCOD9049559 Si02
#       7
#     2   2   2   2   2   2   2
#     4  11  23  47  75 117 156 203 249 328 396 465
#     4  12  27  48  72 106 156 206 264 313 390 462
#     4  12  27  49  72 111 159 209 259 319 391 464
#     4  11  25  46  79 116 149 205 262 324 390 467
#     4   9  21  43  77 112 153 188 261 319 389 464
#     4  10  24  46  79 113 153 198 260 320 399 466
#     4   9  21  45  72 109 149 200 244 327 386 463
#
# _framework density 27.767057000000001
#
# number of rings (size 3 to 8) (size 9 to 14) (size 15 to 20)
#    0.000    1.429    1.429    3.429    4.000    5.143 
#    2.571    3.571    0.000    0.000    0.000    0.000 
#    0.000    0.000    0.000    0.000    0.000    0.000 
#
# Total GULP energy -78289.409226 kJ/mol
# GULP energy per Si atom -5592.100659 kJ/mol
# Density = 2.770386 g / cm^3
# Si number density = 27.767057 Si / 1000 Ang^3
#
#
#
# Elastic Constant Matrix: (Units=GPa)
#
#
# Indices 1 2 3 4 5 6 
#
# 1 136.5041 49.9733 25.8384 -1.8785 27.0059 -9.5795
# 2 49.9733 153.6151 48.0789 7.4923 17.8692 -15.6179
# 3 25.8384 48.0789 122.8846 0.2983 9.7110 -16.1942
# 4 -1.8785 7.4923 0.2983 51.7134 9.3939 3.4711
# 5 27.0059 17.8692 9.7110 9.3939 46.5629 6.7781
# 6 -9.5795 -15.6179 -16.1942 3.4711 6.7781 58.9792
#
#
#
# Elastic Compliance Matrix: (Units=1/GPa)
#
#
# Indices 1 2 3 4 5 6 
#
# 1 0.009329 -0.002240 -0.000535 0.001476 -0.004920 0.001254
# 2 -0.002240 0.008380 -0.002514 -0.001126 -0.001368 0.001389
# 3 -0.000535 -0.002514 0.009580 0.000353 -0.001083 0.001981
# 4 0.001476 -0.001126 0.000353 0.020417 -0.004523 -0.000643
# 5 -0.004920 -0.001368 -0.001083 -0.004523 0.026612 -0.004251
# 6 0.001254 0.001389 0.001981 -0.000643 -0.004251 0.018597
#
#
# Mechanical properties :
#
#
# Convention : Reuss Voigt Hill
#
# Bulk Modulus (GPa) = 59.83879 73.42056 66.62968
# Shear Modulus (GPa) = 45.84571 50.72531 48.28551
#
# Velocity S-wave (km/s) = 4.06776 4.27876 4.17460
# Velocity P-wave (km/s) = 6.60752 7.13508 6.87636
#
# Compressibility (1/GPa) = 0.01671157
#
# Stress axis : x y z
#
# Youngs Moduli (GPa) = 107.19822 119.32584 104.38817
#
# Poissons Ratio (x) = 0.26724 0.05583
# Poissons Ratio (y) = 0.24008 0.26245
# Poissons Ratio (z) = 0.05733 0.30000
#
# Static dielectric constant tensor:
#      x y z
#    x 2.155640 -0.035640 -0.124710 
#    y -0.035640 2.124200 0.017490 
#    z -0.124710 0.017490 2.409150 
# 
# From -- ./inp_files/195880.got.cif
#   From: 2010.05.17/outbox.cif.g08.bks.cpg/sg2_98_cif.got.tgz:195880.got - 2010.06.03 11:33:40.
