data_PCOD9049456
_publ_section_title
;
Structure prediction by ZEFSAII (Michael W. Deem and Ramdas Pophale) SiO2 
 PCOD9049456
Probable space group: P -1
;
_chemical_formula_sum "Si O2"
_cell_formula_units_Z 16
_cell_length_a 5.910841
_cell_length_b 18.771668
_cell_length_c 9.365889
_cell_angle_alpha 104.446188
_cell_angle_beta 127.592969
_cell_angle_gamma 81.246160
_cell_volume 797.394136
_symmetry_space_group_name_H-M "P -1"
_symmetry_group_IT_number 2
_symmetry_cell_setting 'triclinic'
loop_
_space_group_symop_operation_xyz
x,y,z
-x,-y,-z
loop_
_atom_site_type_symbol
_atom_site_label
_atom_site_fract_x
_atom_site_fract_y
_atom_site_fract_z
Si Si1 0.514846 0.074214 0.453798
Si Si2 0.813352 0.285001 0.046937
Si Si3 0.843894 0.414496 0.556894
Si Si4 0.000004 0.810540 0.655267
Si Si5 0.186642 0.284999 0.738073
Si Si6 0.156110 0.414497 0.357599
Si Si7 0.999990 0.167261 0.833633
Si Si8 0.514854 0.925786 0.879587
O O1 0.500006 0.048202 0.274104
O O2 0.794587 0.116907 0.634995
O O3 0.263410 0.134371 0.394193
O O4 0.500000 0.000000 0.500000
O O5 0.895412 0.241259 0.201442
O O6 0.017688 0.355289 0.168306
O O7 0.499995 0.314742 0.907377
O O8 0.843300 0.222431 0.907417
O O9 0.500001 0.406020 0.453006
O O10 0.907562 0.500000 0.654995
O O11 0.982307 0.355288 0.686977
O O12 0.000005 0.401907 0.450954
O O13 0.263433 0.865625 0.759830
O O14 0.895403 0.758747 0.460167
O O15 0.156681 0.222434 0.815028
O O16 0.205392 0.116903 0.981907
O O17 0.500000 0.000000 0.000000
#
# Coordination Sequence:
#
# PCOD9049456 Si02
#       8
#     2   2   2   2   2   2   2   2
#     4  12  28  45  68  95 135 180 229 292 358 427
#     4  12  26  43  73 105 137 188 239 292 353 431
#     4  10  24  46  74 108 150 195 238 294 362 425
#     4  12  25  46  67  98 138 180 230 294 351 418
#     4  12  26  43  73 105 137 188 239 292 353 431
#     4  10  24  46  74 108 150 195 238 294 362 425
#     4  12  27  44  67 104 136 178 238 294 355 428
#     4  12  28  45  68  95 135 180 229 292 358 427
#
# _framework density 20.065358
#
# number of rings (size 3 to 8) (size 9 to 14) (size 15 to 20)
#    0.000    0.500    6.250    0.750   10.500    2.500 
#    0.000    0.625    0.000    0.000    0.000    0.000 
#    0.000    0.000    0.000    0.000    0.000    0.000 
#
# Total GULP energy -89123.844121 kJ/mol
# GULP energy per Si atom -5570.240258 kJ/mol
# Density = 2.001969 g / cm^3
# Si number density = 20.065358 Si / 1000 Ang^3
#
#
#
# Elastic Constant Matrix: (Units=GPa)
#
#
# Indices 1 2 3 4 5 6 
#
# 1 60.4175 28.2479 37.5368 -1.5823 9.0039 -0.8871
# 2 28.2479 150.3468 36.2542 -59.8236 12.0237 2.3408
# 3 37.5368 36.2542 152.0475 59.6579 5.6026 -4.6226
# 4 -1.5823 -59.8236 59.6579 248.5778 0.3735 -13.7592
# 5 9.0039 12.0237 5.6026 0.3735 37.6930 1.0196
# 6 -0.8871 2.3408 -4.6226 -13.7592 1.0196 45.2693
#
#
#
# Elastic Compliance Matrix: (Units=1/GPa)
#
#
# Indices 1 2 3 4 5 6 
#
# 1 0.021177 -0.002199 -0.004872 0.000800 -0.003650 0.000357
# 2 -0.002199 0.008953 -0.002604 0.002775 -0.001974 0.000116
# 3 -0.004872 -0.002604 0.009536 -0.002941 0.000604 0.000105
# 4 0.000800 0.002775 -0.002941 0.005472 -0.000727 0.001251
# 5 -0.003650 -0.001974 0.000604 -0.000727 0.027970 -0.000759
# 6 0.000357 0.000116 0.000105 0.001251 -0.000759 0.022499
#
#
# Mechanical properties :
#
#
# Convention : Reuss Voigt Hill
#
# Bulk Modulus (GPa) = 49.22729 62.98773 56.10751
# Shear Modulus (GPa) = 41.07465 83.69289 62.38377
#
# Velocity S-wave (km/s) = 4.52933 6.46535 5.58192
# Velocity P-wave (km/s) = 7.20693 9.33776 8.34067
#
# Compressibility (1/GPa) = 0.02031393
#
# Stress axis : x y z
#
# Youngs Moduli (GPa) = 47.22099 111.69777 104.86822
#
# Poissons Ratio (x) = 0.24565 0.51095
# Poissons Ratio (y) = 0.10385 0.27311
# Poissons Ratio (z) = 0.23007 0.29089
#
# Static dielectric constant tensor:
#      x y z
#    x 1.780450 0.000760 -0.008920 
#    y 0.000760 1.702750 0.012680 
#    z -0.008920 0.012680 1.614940 
# 
# From -- ./inp_files/47289.got.cif
#   From: 2010.05.17/outbox.cif.g08.bks.cpg/sg2_24_cif.got.tgz:47289.got - 2010.06.03 11:33:40.
