data_PCOD9049073
_publ_section_title
;
Structure prediction by ZEFSAII (Michael W. Deem and Ramdas Pophale) SiO2 
 PCOD9049073
Probable space group: P -1
;
_chemical_formula_sum "Si O2"
_cell_formula_units_Z 16
_cell_length_a 8.443279
_cell_length_b 14.085835
_cell_length_c 19.853312
_cell_angle_alpha 29.731543
_cell_angle_beta 142.361422
_cell_angle_gamma 145.575246
_cell_volume 637.469476
_symmetry_space_group_name_H-M "P -1"
_symmetry_group_IT_number 2
_symmetry_cell_setting 'triclinic'
loop_
_space_group_symop_operation_xyz
x,y,z
-x,-y,-z
loop_
_atom_site_type_symbol
_atom_site_label
_atom_site_fract_x
_atom_site_fract_y
_atom_site_fract_z
Si Si1 0.990276 0.789449 0.591432
Si Si2 0.183010 0.876951 0.161302
Si Si3 0.707035 0.034669 0.135731
Si Si4 0.208527 0.415711 0.041154
Si Si5 0.989014 0.784343 0.439891
Si Si6 0.456144 0.393003 0.713894
Si Si7 0.537172 0.819818 0.818059
Si Si8 0.672780 0.451781 0.285480
O O1 0.892588 0.766799 0.495433
O O2 0.772890 0.575060 0.689062
O O3 0.317899 0.819508 0.687958
O O4 0.000000 0.000000 0.500000
O O5 0.971675 0.624681 0.244386
O O6 0.455234 0.951753 0.157227
O O7 0.288371 0.955970 0.223939
O O8 0.000000 0.000000 0.000000
O O9 0.867382 0.287976 0.021225
O O10 0.979022 0.997017 0.278536
O O11 0.587053 0.851620 0.150505
O O12 0.259865 0.278512 0.082589
O O13 0.415725 0.427349 0.165130
O O14 0.332032 0.655288 0.907132
O O15 0.755517 0.612564 0.415718
O O16 0.277972 0.754253 0.554375
O O17 0.359304 0.448851 0.716627
#
# Coordination Sequence:
#
# PCOD9049073 Si02
#       8
#     2   2   2   2   2   2   2   2
#     4  12  25  43  72 106 145 188 235 295 354 421
#     4  12  26  47  72 101 140 193 231 293 360 426
#     4  10  26  45  74 103 142 184 238 295 355 416
#     4  11  25  47  72 105 143 185 237 300 343 428
#     4  10  24  46  68 105 142 190 230 296 348 425
#     4  10  26  43  69 108 142 187 238 289 357 421
#     4  11  26  45  71 104 142 187 237 288 365 413
#     4  12  24  45  73 104 148 186 240 291 358 416
#
# _framework density 25.099243000000001
#
# number of rings (size 3 to 8) (size 9 to 14) (size 15 to 20)
#    0.750    0.250    2.500    3.000    7.000    3.000 
#    0.000    1.875    0.000    0.000    0.000    0.000 
#    0.000    0.000    0.000    0.000    0.000    0.000 
#
# Total GULP energy -89589.971362 kJ/mol
# GULP energy per Si atom -5599.373210 kJ/mol
# Density = 2.504212 g / cm^3
# Si number density = 25.099243 Si / 1000 Ang^3
#
#
#
# Elastic Constant Matrix: (Units=GPa)
#
#
# Indices 1 2 3 4 5 6 
#
# 1 94.0886 44.4997 0.9215 -6.5472 -9.0197 -16.6362
# 2 44.4997 140.7838 28.8106 2.7173 -20.0598 3.1378
# 3 0.9215 28.8106 75.9433 6.3769 7.7588 1.8933
# 4 -6.5472 2.7173 6.3769 47.7752 -2.6257 -8.6040
# 5 -9.0197 -20.0598 7.7588 -2.6257 28.0595 -9.1007
# 6 -16.6362 3.1378 1.8933 -8.6040 -9.1007 37.3187
#
#
#
# Elastic Compliance Matrix: (Units=1/GPa)
#
#
# Indices 1 2 3 4 5 6 
#
# 1 0.015143 -0.004449 0.000409 0.004221 0.004983 0.009292
# 2 -0.004449 0.010463 -0.004565 -0.000400 0.006941 -0.001031
# 3 0.000409 -0.004565 0.016118 -0.002876 -0.008855 -0.003074
# 4 0.004221 -0.000400 -0.002876 0.023989 0.007138 0.009333
# 5 0.004983 0.006941 -0.008855 0.007138 0.050526 0.016054
# 6 0.009292 -0.001031 -0.003074 0.009333 0.016054 0.037248
#
#
# Mechanical properties :
#
#
# Convention : Reuss Voigt Hill
#
# Bulk Modulus (GPa) = 40.79460 51.03104 45.91282
# Shear Modulus (GPa) = 27.95365 38.40294 33.17830
#
# Velocity S-wave (km/s) = 3.34087 3.91582 3.63972
# Velocity P-wave (km/s) = 5.58306 6.38911 5.99963
#
# Compressibility (1/GPa) = 0.02451305
#
# Stress axis : x y z
#
# Youngs Moduli (GPa) = 66.03885 95.57367 62.04431
#
# Poissons Ratio (x) = 0.42517 -0.02536
# Poissons Ratio (y) = 0.29378 0.28325
# Poissons Ratio (z) = -0.02699 0.43632
#
# Static dielectric constant tensor:
#      x y z
#    x 1.960920 0.008640 -0.022510 
#    y 0.008640 1.956210 0.003150 
#    z -0.022510 0.003150 2.043110 
# 
# From -- ./inp_files/590459.got.cif
#   From: 2010.05.17/outbox.cif.g08.bks.cpg/sg2_296_cif.got.tgz:590459.got - 2010.06.03 11:33:40.
