data_PCOD9049753
_publ_section_title
;
Structure prediction by ZEFSAII (Michael W. Deem and Ramdas Pophale) SiO2 
 PCOD9049753
Probable space group: P -1
;
_chemical_formula_sum "Si O2"
_cell_formula_units_Z 16
_cell_length_a 5.626172
_cell_length_b 12.163455
_cell_length_c 27.778303
_cell_angle_alpha 26.295864
_cell_angle_beta 129.847212
_cell_angle_gamma 122.083051
_cell_volume 641.301701
_symmetry_space_group_name_H-M "P -1"
_symmetry_group_IT_number 2
_symmetry_cell_setting 'triclinic'
loop_
_space_group_symop_operation_xyz
x,y,z
-x,-y,-z
loop_
_atom_site_type_symbol
_atom_site_label
_atom_site_fract_x
_atom_site_fract_y
_atom_site_fract_z
Si Si1 0.827425 0.083266 0.364787
Si Si2 0.909757 0.648826 0.977795
Si Si3 0.040723 0.727535 0.453318
Si Si4 0.591068 0.642597 0.094949
Si Si5 0.903766 0.686910 0.218982
Si Si6 0.746557 0.148761 0.186552
Si Si7 0.459839 0.940377 0.143327
Si Si8 0.681357 0.810033 0.542523
O O1 0.682412 0.343010 0.219148
O O2 0.181050 0.121624 0.414139
O O3 0.667521 0.033828 0.414241
O O4 0.810982 0.845851 0.420466
O O5 0.805764 0.434715 0.083157
O O6 0.221568 0.724629 0.010559
O O7 0.615872 0.845043 0.848090
O O8 0.000000 0.500000 0.000000
O O9 0.364619 0.690739 0.538730
O O10 0.000000 0.500000 0.500000
O O11 0.998974 0.969313 0.318310
O O12 0.704672 0.701502 0.138883
O O13 0.720025 0.821255 0.002091
O O14 0.665960 0.770123 0.198483
O O15 0.207652 0.817585 0.190553
O O16 0.050241 0.402221 0.358496
O O17 0.716688 0.043306 0.170530
#
# Coordination Sequence:
#
# PCOD9049753 Si02
#       8
#     2   2   2   2   2   2   2   2
#     4  10  24  47  73 106 139 189 256 307 373 442
#     4  11  22  44  67  98 142 186 241 299 360 440
#     4  12  26  44  69 106 143 191 246 306 376 441
#     4  11  23  46  74 107 143 195 243 309 370 446
#     4  11  27  46  77 109 149 195 246 306 376 445
#     4  11  26  41  69 103 144 194 238 297 372 443
#     4  12  25  48  71 110 155 193 241 303 379 449
#     4  10  24  49  74 102 141 197 249 313 366 438
#
# _framework density 24.949255999999998
#
# number of rings (size 3 to 8) (size 9 to 14) (size 15 to 20)
#    0.000    1.000    1.250    4.125    5.250    1.500 
#   13.500    0.000    0.000    0.000    0.000    0.000 
#    0.000    0.000    0.000    0.000    0.000    0.000 
#
# Total GULP energy -89307.863794 kJ/mol
# GULP energy per Si atom -5581.741487 kJ/mol
# Density = 2.489247 g / cm^3
# Si number density = 24.949256 Si / 1000 Ang^3
#
#
#
# Elastic Constant Matrix: (Units=GPa)
#
#
# Indices 1 2 3 4 5 6 
#
# 1 78.0109 34.6502 16.1671 -10.5469 9.1712 -2.8333
# 2 34.6502 130.9257 6.3177 3.4065 15.8214 -10.3536
# 3 16.1671 6.3177 112.9256 6.3495 9.0127 -3.5852
# 4 -10.5469 3.4065 6.3495 45.9170 -1.6576 7.1450
# 5 9.1712 15.8214 9.0127 -1.6576 35.6605 2.9385
# 6 -2.8333 -10.3536 -3.5852 7.1450 2.9385 46.3880
#
#
#
# Elastic Compliance Matrix: (Units=1/GPa)
#
#
# Indices 1 2 3 4 5 6 
#
# 1 0.015803 -0.004067 -0.002181 0.004286 -0.001453 -0.000679
# 2 -0.004067 0.009369 0.000544 -0.002214 -0.003553 0.002451
# 3 -0.002181 0.000544 0.009476 -0.002119 -0.002272 0.001191
# 4 0.004286 -0.002214 -0.002119 0.023942 0.001875 -0.004203
# 5 -0.001453 -0.003553 -0.002272 0.001875 0.030926 -0.003305
# 6 -0.000679 0.002451 0.001191 -0.004203 -0.003305 0.023012
#
#
# Mechanical properties :
#
#
# Convention : Reuss Voigt Hill
#
# Bulk Modulus (GPa) = 43.03173 48.45911 45.74542
# Shear Modulus (GPa) = 37.97051 43.24157 40.60604
#
# Velocity S-wave (km/s) = 3.90540 4.16767 4.03866
# Velocity P-wave (km/s) = 6.13362 6.52874 6.33426
#
# Compressibility (1/GPa) = 0.02323867
#
# Stress axis : x y z
#
# Youngs Moduli (GPa) = 63.27991 106.73827 105.53492
#
# Poissons Ratio (x) = 0.43407 0.23022
# Poissons Ratio (y) = 0.25734 -0.05740
# Poissons Ratio (z) = 0.13804 -0.05806
#
# Static dielectric constant tensor:
#      x y z
#    x 2.124430 0.040460 -0.039810 
#    y 0.040460 2.047840 -0.073020 
#    z -0.039810 -0.073020 1.968360 
# 
# From -- ./inp_files/615501.got.cif
#   From: 2010.05.17/outbox.cif.g08.bks.cpg/sg2_308_cif.got.tgz:615501.got - 2010.06.03 11:33:40.
