data_PCOD9049718
_publ_section_title
;
Structure prediction by ZEFSAII (Michael W. Deem and Ramdas Pophale) SiO2 
 PCOD9049718
Probable space group: P -1
;
_chemical_formula_sum "Si O2"
_cell_formula_units_Z 10
_cell_length_a 11.119729
_cell_length_b 9.642329
_cell_length_c 9.044764
_cell_angle_alpha 46.072836
_cell_angle_beta 101.525926
_cell_angle_gamma 66.240966
_cell_volume 438.849677
_symmetry_space_group_name_H-M "P -1"
_symmetry_group_IT_number 2
_symmetry_cell_setting 'triclinic'
loop_
_space_group_symop_operation_xyz
x,y,z
-x,-y,-z
loop_
_atom_site_type_symbol
_atom_site_label
_atom_site_fract_x
_atom_site_fract_y
_atom_site_fract_z
Si Si1 0.997131 0.545580 0.794312
Si Si2 0.005197 0.767439 0.207019
Si Si3 0.731738 0.531486 0.223543
Si Si4 0.282006 0.753001 0.815644
Si Si5 0.602861 0.285231 0.828986
O O1 0.935402 0.436748 0.763174
O O2 0.214814 0.345772 0.950304
O O3 0.843584 0.902078 0.468220
O O4 0.000000 0.500000 0.000000
O O5 0.136465 0.595293 0.508772
O O6 0.792810 0.957679 0.058497
O O7 0.000000 0.000000 0.000000
O O8 0.800068 0.285885 0.304518
O O9 0.534353 0.695458 0.127654
O O10 0.500000 0.500000 0.000000
O O11 0.316071 0.662304 0.065050
O O12 0.500000 0.500000 0.500000
#
# Coordination Sequence:
#
# PCOD9049718 Si02
#       5
#     2   2   2   2   2
#     4  12  27  44  73 109 144 191 247 289 362 430
#     4  12  25  46  74 103 147 193 236 300 361 424
#     4  11  24  46  74 100 149 189 232 303 355 424
#     4  10  24  47  72 106 143 188 236 296 359 428
#     4  11  24  43  75 108 140 189 242 284 371 428
#
# _framework density 22.786846000000001
#
# number of rings (size 3 to 8) (size 9 to 14) (size 15 to 20)
#    0.000    0.800    4.000    2.400    5.600    0.800 
#    3.600    4.000    0.000    0.000    0.000    0.000 
#    0.000    0.000    0.000    0.000    0.000    0.000 
#
# Total GULP energy -55738.912701 kJ/mol
# GULP energy per Si atom -5573.891270 kJ/mol
# Density = 2.273498 g / cm^3
# Si number density = 22.786846 Si / 1000 Ang^3
#
#
#
# Elastic Constant Matrix: (Units=GPa)
#
#
# Indices 1 2 3 4 5 6 
#
# 1 140.0186 59.9849 37.8281 -0.6534 1.6480 -17.1879
# 2 59.9849 223.6543 60.6398 35.6298 0.0950 28.6146
# 3 37.8281 60.6398 78.8577 32.9570 14.3553 6.6058
# 4 -0.6534 35.6298 32.9570 50.0183 -11.6590 -3.9365
# 5 1.6480 0.0950 14.3553 -11.6590 32.6163 -1.6880
# 6 -17.1879 28.6146 6.6058 -3.9365 -1.6880 47.5278
#
#
#
# Elastic Compliance Matrix: (Units=1/GPa)
#
#
# Indices 1 2 3 4 5 6 
#
# 1 0.013202 -0.003852 -0.011863 0.013884 0.010059 0.010249
# 2 -0.003852 0.007387 -0.000363 -0.006081 -0.002170 -0.006371
# 3 -0.011863 -0.000363 0.039127 -0.033557 -0.029306 -0.013330
# 4 0.013884 -0.006081 -0.033557 0.056343 0.035223 0.019264
# 5 0.010059 -0.002170 -0.029306 0.035223 0.056368 0.013937
# 6 0.010249 -0.006371 -0.013330 0.019264 0.013937 0.032526
#
#
# Mechanical properties :
#
#
# Convention : Reuss Voigt Hill
#
# Bulk Modulus (GPa) = 36.28407 84.38181 60.33294
# Shear Modulus (GPa) = 20.30086 44.97101 32.63594
#
# Velocity S-wave (km/s) = 2.98804 4.44729 3.78858
# Velocity P-wave (km/s) = 5.27848 7.96759 6.75813
#
# Compressibility (1/GPa) = 0.02756031
#
# Stress axis : x y z
#
# Youngs Moduli (GPa) = 75.74886 135.36723 25.55769
#
# Poissons Ratio (x) = 0.52138 0.30320
# Poissons Ratio (y) = 0.29175 0.00928
# Poissons Ratio (z) = 0.89863 0.04913
#
# Static dielectric constant tensor:
#      x y z
#    x 2.061900 0.002140 0.020280 
#    y 0.002140 1.896420 0.014820 
#    z 0.020280 0.014820 1.860970 
# 
# From -- ./inp_files/144103.got.cif
#   From: 2010.05.17/outbox.cif.g08.bks.cpg/sg2_73_cif.got.tgz:144103.got - 2010.06.03 11:33:40.
