data_PCOD9049528
_publ_section_title
;
Structure prediction by ZEFSAII (Michael W. Deem and Ramdas Pophale) SiO2 
 PCOD9049528
Probable space group: P -1
;
_chemical_formula_sum "Si O2"
_cell_formula_units_Z 16
_cell_length_a 9.569440
_cell_length_b 12.493752
_cell_length_c 13.365080
_cell_angle_alpha 99.743007
_cell_angle_beta 49.129265
_cell_angle_gamma 67.543736
_cell_volume 893.508717
_symmetry_space_group_name_H-M "P -1"
_symmetry_group_IT_number 2
_symmetry_cell_setting 'triclinic'
loop_
_space_group_symop_operation_xyz
x,y,z
-x,-y,-z
loop_
_atom_site_type_symbol
_atom_site_label
_atom_site_fract_x
_atom_site_fract_y
_atom_site_fract_z
Si Si1 0.991900 0.341016 0.889446
Si Si2 0.617375 0.816218 0.136282
Si Si3 0.757274 0.151615 0.544739
Si Si4 0.566585 0.516349 0.274021
Si Si5 0.965194 0.446846 0.212698
Si Si6 0.910719 0.435142 0.467107
Si Si7 0.231281 0.088290 0.589464
Si Si8 0.791703 0.870560 0.623521
O O1 0.046537 0.432737 0.820201
O O2 0.191861 0.249435 0.870492
O O3 0.035910 0.224006 0.774506
O O4 0.727066 0.453235 0.086283
O O5 0.401456 0.824741 0.281835
O O6 0.480458 0.980823 0.200149
O O7 0.765380 0.705280 0.960175
O O8 0.586772 0.313669 0.607122
O O9 0.009636 0.110511 0.450233
O O10 0.794714 0.030755 0.439176
O O11 0.362736 0.501993 0.368661
O O12 0.771186 0.439050 0.252278
O O13 0.915854 0.469007 0.355532
O O14 0.000000 0.500000 0.500000
O O15 0.102895 0.265494 0.379241
O O16 0.214757 0.148749 0.496182
O O17 0.500000 0.000000 0.500000
#
# Coordination Sequence:
#
# PCOD9049528 Si02
#       8
#     2   2   2   2   2   2   2   2
#     4  11  19  34  64  98 113 139 198 260 284 321
#     4  10  17  34  60  88 114 144 195 247 283 334
#     4  10  18  35  55  87 122 148 182 239 295 339
#     4  10  20  40  63  86 113 154 202 240 282 345
#     4  11  20  37  65  84 115 157 202 229 286 355
#     4  11  25  42  55  82 122 163 187 240 295 349
#     4  11  18  31  57  91 118 145 184 243 296 334
#     4  10  22  37  56  82 123 154 191 230 296 353
#
# _framework density 17.906932000000001
#
# number of rings (size 3 to 8) (size 9 to 14) (size 15 to 20)
#    0.000    1.500    5.000    3.375    0.000    0.500 
#    4.500    1.875    0.000    1.500    0.000    0.000 
#    0.000    0.000    0.000    0.000    0.000    0.000 
#
# Total GULP energy -89159.701504 kJ/mol
# GULP energy per Si atom -5572.481344 kJ/mol
# Density = 1.786618 g / cm^3
# Si number density = 17.906932 Si / 1000 Ang^3
#
#
#
# Elastic Constant Matrix: (Units=GPa)
#
#
# Indices 1 2 3 4 5 6 
#
# 1 97.2865 44.2684 53.3561 -7.8160 -0.3983 4.6809
# 2 44.2684 59.9133 50.6375 5.4624 -13.7715 -1.0299
# 3 53.3561 50.6375 98.8132 8.0697 0.1243 4.7470
# 4 -7.8160 5.4624 8.0697 27.7723 -0.8288 0.5659
# 5 -0.3983 -13.7715 0.1243 -0.8288 20.3589 0.2187
# 6 4.6809 -1.0299 4.7470 0.5659 0.2187 27.8326
#
#
#
# Elastic Compliance Matrix: (Units=1/GPa)
#
#
# Indices 1 2 3 4 5 6 
#
# 1 0.019794 -0.014116 -0.004047 0.009330 -0.008722 -0.003282
# 2 -0.014116 0.051491 -0.018519 -0.007846 0.034269 0.007328
# 3 -0.004047 -0.018519 0.022337 -0.004298 -0.012879 -0.003626
# 4 0.009330 -0.007846 -0.004298 0.041363 -0.003394 -0.001941
# 5 -0.008722 0.034269 -0.012879 -0.003394 0.072022 0.004435
# 6 -0.003282 0.007328 -0.003626 -0.001941 0.004435 0.037375
#
#
# Mechanical properties :
#
#
# Convention : Reuss Voigt Hill
#
# Bulk Modulus (GPa) = 49.36610 61.39300 55.37955
# Shear Modulus (GPa) = 15.40836 22.37615 18.89225
#
# Velocity S-wave (km/s) = 2.93656 3.53878 3.25164
# Velocity P-wave (km/s) = 6.25506 7.14536 6.71498
#
# Compressibility (1/GPa) = 0.02025682
#
# Stress axis : x y z
#
# Youngs Moduli (GPa) = 50.52127 19.42083 44.76831
#
# Poissons Ratio (x) = 0.27414 0.18120
# Poissons Ratio (y) = 0.71316 0.82907
# Poissons Ratio (z) = 0.20448 0.35966
#
# Static dielectric constant tensor:
#      x y z
#    x 1.613200 -0.010700 -0.006520 
#    y -0.010700 1.697780 0.037970 
#    z -0.006520 0.037970 1.623410 
# 
# From -- ./inp_files/257181.got.cif
#   From: 2010.05.17/outbox.cif.g08.bks.cpg/sg2_129_cif.got.tgz:257181.got - 2010.06.03 11:33:40.
