data_PCOD9049992
_publ_section_title
;
Structure prediction by ZEFSAII (Michael W. Deem and Ramdas Pophale) SiO2 
 PCOD9049992
Probable space group: P -1
;
_chemical_formula_sum "Si O2"
_cell_formula_units_Z 15
_cell_length_a 8.244731
_cell_length_b 11.956709
_cell_length_c 13.883678
_cell_angle_alpha 149.039140
_cell_angle_beta 111.562584
_cell_angle_gamma 71.362909
_cell_volume 654.802146
_symmetry_space_group_name_H-M "P -1"
_symmetry_group_IT_number 2
_symmetry_cell_setting 'triclinic'
loop_
_space_group_symop_operation_xyz
x,y,z
-x,-y,-z
loop_
_atom_site_type_symbol
_atom_site_label
_atom_site_fract_x
_atom_site_fract_y
_atom_site_fract_z
Si Si1 0.758701 0.408343 0.075715
Si Si2 0.864142 0.739417 0.971311
Si Si3 0.773798 0.381440 0.829265
Si Si4 0.419847 0.206886 0.580254
Si Si5 0.317363 0.394710 0.348358
Si Si6 0.000000 0.000000 0.500000
Si Si7 0.193373 0.851004 0.626048
Si Si8 0.400811 0.034858 0.241921
O O1 0.713481 0.650655 0.280782
O O2 0.954405 0.338564 0.092528
O O3 0.740229 0.402692 0.951516
O O4 0.637011 0.221211 0.954877
O O5 0.850966 0.599146 0.962482
O O6 0.705798 0.688447 0.827324
O O7 0.871686 0.987850 0.186570
O O8 0.589579 0.353742 0.714986
O O9 0.893134 0.175544 0.676518
O O10 0.352291 0.125353 0.403850
O O11 0.500000 0.000000 0.500000
O O12 0.500000 0.500000 0.500000
O O13 0.190889 0.603804 0.478969
O O14 0.295244 0.182658 0.252524
O O15 0.909078 0.114101 0.469418
O O16 0.394027 0.921951 0.699359
#
# Coordination Sequence:
#
# PCOD9049992 Si02
#       8
#     2   2   2   2   2   1   2   2
#     4  12  28  43  65 108 142 184 234 286 354 428
#     4  12  26  43  72 102 138 184 231 295 352 413
#     4  12  24  42  70 104 142 184 227 287 355 417
#     4  12  26  43  69  99 145 187 232 288 356 420
#     4  10  24  48  72 102 136 183 242 289 349 418
#     4  12  22  40  76 108 140 174 240 290 352 408
#     4  11  24  43  75 105 139 182 237 291 354 416
#     4  11  25  46  71  99 140 190 231 289 352 421
#
# _framework density 22.907685000000001
#
# number of rings (size 3 to 8) (size 9 to 14) (size 15 to 20)
#    0.000    0.533    5.333    2.400    3.733    4.800 
#    0.000    1.333    0.000    0.000    0.000    0.000 
#    0.000    0.000    0.000    0.000    0.000    0.000 
#
# Total GULP energy -83695.068679 kJ/mol
# GULP energy per Si atom -5579.671245 kJ/mol
# Density = 2.285555 g / cm^3
# Si number density = 22.907685 Si / 1000 Ang^3
#
#
#
# Elastic Constant Matrix: (Units=GPa)
#
#
# Indices 1 2 3 4 5 6 
#
# 1 49.8054 23.7310 35.1180 2.6925 -14.2539 -4.5108
# 2 23.7310 165.2702 53.8387 16.3149 -13.7446 -8.3368
# 3 35.1180 53.8387 124.9511 12.9516 -30.8835 -7.5424
# 4 2.6925 16.3149 12.9516 38.2236 -5.4673 3.0556
# 5 -14.2539 -13.7446 -30.8835 -5.4673 48.9360 5.7713
# 6 -4.5108 -8.3368 -7.5424 3.0556 5.7713 26.6834
#
#
#
# Elastic Compliance Matrix: (Units=1/GPa)
#
#
# Indices 1 2 3 4 5 6 
#
# 1 0.025974 -0.001603 -0.005805 0.001202 0.003425 0.001371
# 2 -0.001603 0.007376 -0.002483 -0.002391 -0.000430 0.001698
# 3 -0.005805 -0.002483 0.012197 -0.002018 0.004984 0.000843
# 4 0.001202 -0.002391 -0.002018 0.028477 0.002157 -0.004842
# 5 0.003425 -0.000430 0.004984 0.002157 0.025150 -0.003833
# 6 0.001371 0.001698 0.000843 -0.004842 -0.003833 0.039861
#
#
# Mechanical properties :
#
#
# Convention : Reuss Voigt Hill
#
# Bulk Modulus (GPa) = 38.81409 62.82246 50.81828
# Shear Modulus (GPa) = 29.86752 37.92453 33.89602
#
# Velocity S-wave (km/s) = 3.61476 4.07324 3.85083
# Velocity P-wave (km/s) = 5.86536 7.04312 6.48105
#
# Compressibility (1/GPa) = 0.02576384
#
# Stress axis : x y z
#
# Youngs Moduli (GPa) = 38.49954 135.57728 81.99002
#
# Poissons Ratio (x) = 0.21738 0.47593
# Poissons Ratio (y) = 0.06173 0.20362
# Poissons Ratio (z) = 0.22348 0.33669
#
# Static dielectric constant tensor:
#      x y z
#    x 1.930790 -0.005030 0.040980 
#    y -0.005030 1.822750 0.009870 
#    z 0.040980 0.009870 1.872890 
# 
# From -- ./inp_files/501256.got.cif
#   From: 2010.05.17/outbox.cif.g08.bks.cpg/sg2_251_cif.got.tgz:501256.got - 2010.06.03 11:33:40.
