data_PCOD9049267
_publ_section_title
;
Structure prediction by ZEFSAII (Michael W. Deem and Ramdas Pophale) SiO2 
 PCOD9049267
Probable space group: P -1
;
_chemical_formula_sum "Si O2"
_cell_formula_units_Z 16
_cell_length_a 8.132494
_cell_length_b 13.295960
_cell_length_c 6.472265
_cell_angle_alpha 105.758390
_cell_angle_beta 93.245249
_cell_angle_gamma 94.163653
_cell_volume 669.633495
_symmetry_space_group_name_H-M "P -1"
_symmetry_group_IT_number 2
_symmetry_cell_setting 'triclinic'
loop_
_space_group_symop_operation_xyz
x,y,z
-x,-y,-z
loop_
_atom_site_type_symbol
_atom_site_label
_atom_site_fract_x
_atom_site_fract_y
_atom_site_fract_z
Si Si1 0.361998 0.816930 0.966621
Si Si2 0.444893 0.760714 0.499027
Si Si3 0.920019 0.602043 0.471616
Si Si4 0.602754 0.598624 0.161561
Si Si5 0.181576 0.022929 0.939078
Si Si6 0.180797 0.256418 0.066986
Si Si7 0.871398 0.257844 0.763190
Si Si8 0.382005 0.079468 0.630919
O O1 0.420714 0.761052 0.738151
O O2 0.278684 0.924513 0.964397
O O3 0.240152 0.732517 0.034159
O O4 0.509926 0.862197 0.147596
O O5 0.472995 0.654385 0.326186
O O6 0.275097 0.802755 0.419456
O O7 0.613303 0.831208 0.489207
O O8 0.752481 0.575675 0.312542
O O9 0.880618 0.676618 0.706047
O O10 0.000000 0.500000 0.500000
O O11 0.050708 0.657616 0.347311
O O12 0.500000 0.500000 0.000000
O O13 0.686189 0.671789 0.022219
O O14 0.217137 0.030272 0.698773
O O15 0.227400 0.142916 0.081882
O O16 0.000000 0.000000 0.000000
O O17 0.034052 0.223222 0.869973
O O18 0.500000 0.000000 0.500000
#
# Coordination Sequence:
#
# PCOD9049267 Si02
#       8
#     2   2   2   2   2   2   2   2
#     4  11  24  44  73 107 150 199 246 305 379 459
#     4  11  24  44  74 105 145 196 249 307 376 448
#     4  11  28  49  79 107 148 199 247 318 397 448
#     4  11  28  49  77 112 145 193 260 320 377 454
#     4  12  24  43  71 110 151 197 246 306 373 450
#     4  11  25  49  71 108 156 193 248 317 376 449
#     4  10  24  46  71 107 145 193 243 305 372 459
#     4  11  24  43  69 103 150 198 247 303 375 457
#
# _framework density 23.893668000000002
#
# number of rings (size 3 to 8) (size 9 to 14) (size 15 to 20)
#    0.000    1.000    3.750    1.125    5.250    1.500 
#    0.000    1.875    0.000    0.000    0.000    0.000 
#    0.000    0.000    0.000    0.000    0.000    0.000 
#
# Total GULP energy -89213.268594 kJ/mol
# GULP energy per Si atom -5575.829287 kJ/mol
# Density = 2.383928 g / cm^3
# Si number density = 23.893668 Si / 1000 Ang^3
#
#
#
# Elastic Constant Matrix: (Units=GPa)
#
#
# Indices 1 2 3 4 5 6 
#
# 1 120.3560 63.1833 72.5506 -6.7697 -9.2867 18.6019
# 2 63.1833 128.4671 92.6795 6.4864 -22.8263 -6.1444
# 3 72.5506 92.6795 196.0542 -4.7658 -35.6273 3.0948
# 4 -6.7697 6.4864 -4.7658 44.5925 -1.6258 -11.5851
# 5 -9.2867 -22.8263 -35.6273 -1.6258 56.6379 -7.9645
# 6 18.6019 -6.1444 3.0948 -11.5851 -7.9645 39.4675
#
#
#
# Elastic Compliance Matrix: (Units=1/GPa)
#
#
# Indices 1 2 3 4 5 6 
#
# 1 0.014063 -0.005754 -0.002874 0.000554 -0.002891 -0.007719
# 2 -0.005754 0.014665 -0.004411 -0.001985 0.002886 0.005341
# 3 -0.002874 -0.004411 0.008918 0.001589 0.003569 0.001155
# 4 0.000554 -0.001985 0.001589 0.024860 0.001988 0.007004
# 5 -0.002891 0.002886 0.003569 0.001988 0.021556 0.006466
# 6 -0.007719 0.005341 0.001155 0.007004 0.006466 0.033077
#
#
# Mechanical properties :
#
#
# Convention : Reuss Voigt Hill
#
# Bulk Modulus (GPa) = 86.44649 100.18935 93.31792
# Shear Modulus (GPa) = 33.99641 42.57049 38.28345
#
# Velocity S-wave (km/s) = 3.77612 4.22556 4.00714
# Velocity P-wave (km/s) = 7.43440 8.11354 7.78138
#
# Compressibility (1/GPa) = 0.01156785
#
# Stress axis : x y z
#
# Youngs Moduli (GPa) = 71.10877 68.18993 112.12708
#
# Poissons Ratio (x) = 0.39236 0.32225
# Poissons Ratio (y) = 0.40915 0.49463
# Poissons Ratio (z) = 0.20437 0.30081
#
# Static dielectric constant tensor:
#      x y z
#    x 2.022420 0.005480 -0.011690 
#    y 0.005480 1.995960 -0.064310 
#    z -0.011690 -0.064310 1.902530 
# 
# From -- ./inp_files/39767.got.cif
#   From: 2010.05.17/outbox.cif.g08.bks.cpg/sg2_20_cif.got.tgz:39767.got - 2010.06.03 11:33:40.
