data_PCOD9049862
_publ_section_title
;
Structure prediction by ZEFSAII (Michael W. Deem and Ramdas Pophale) SiO2 
 PCOD9049862
Probable space group: P -1
;
_chemical_formula_sum "Si O2"
_cell_formula_units_Z 13
_cell_length_a 11.409774
_cell_length_b 8.587918
_cell_length_c 5.243556
_cell_angle_alpha 93.572729
_cell_angle_beta 106.616744
_cell_angle_gamma 100.596809
_cell_volume 480.328425
_symmetry_space_group_name_H-M "P -1"
_symmetry_group_IT_number 2
_symmetry_cell_setting 'triclinic'
loop_
_space_group_symop_operation_xyz
x,y,z
-x,-y,-z
loop_
_atom_site_type_symbol
_atom_site_label
_atom_site_fract_x
_atom_site_fract_y
_atom_site_fract_z
Si Si1 0.355379 0.285005 0.253079
Si Si2 0.000000 0.500000 0.000000
Si Si3 0.354338 0.977709 0.473673
Si Si4 0.193650 0.128630 0.756249
Si Si5 0.185927 0.675966 0.512731
Si Si6 0.008796 0.829791 0.777302
Si Si7 0.397345 0.542278 0.748022
O O1 0.311931 0.100026 0.268073
O O2 0.352684 0.408910 0.490813
O O3 0.503646 0.312220 0.303536
O O4 0.266089 0.291806 0.956460
O O5 0.102065 0.535124 0.290389
O O6 0.996228 0.298558 0.010452
O O7 0.307234 0.045999 0.716950
O O8 0.500000 0.000000 0.500000
O O9 0.274666 0.799679 0.394897
O O10 0.116028 0.164858 0.462681
O O11 0.089187 0.013666 0.855130
O O12 0.278158 0.610326 0.758292
O O13 0.096391 0.760267 0.624684
O O14 0.500000 0.500000 0.000000
#
# Coordination Sequence:
#
# PCOD9049862 Si02
#       7
#     2   1   2   2   2   2   2
#     4  11  24  44  73 105 146 200 246 312 374 454
#     4  12  26  44  72 110 150 196 250 312 376 442
#     4  11  23  47  73 108 147 197 254 312 375 452
#     4  10  24  47  77 108 150 199 261 306 384 451
#     4  11  26  47  73 111 150 193 253 311 381 447
#     4  10  25  48  73 111 150 200 251 318 368 460
#     4  11  26  46  69 110 153 198 246 308 380 457
#
# _framework density 27.064814999999999
#
# number of rings (size 3 to 8) (size 9 to 14) (size 15 to 20)
#    0.000    1.231    1.538    2.308    6.462    3.077 
#    8.308    4.615    0.000    0.000    0.000    0.000 
#    0.000    0.000    0.000    0.000    0.000    0.000 
#
# Total GULP energy -72383.428815 kJ/mol
# GULP energy per Si atom -5567.956063 kJ/mol
# Density = 2.700321 g / cm^3
# Si number density = 27.064815 Si / 1000 Ang^3
#
#
#
# Elastic Constant Matrix: (Units=GPa)
#
#
# Indices 1 2 3 4 5 6 
#
# 1 150.4138 6.4556 25.0972 5.6778 29.8887 -12.7904
# 2 6.4556 124.1098 20.1684 -8.7023 26.2959 4.8750
# 3 25.0972 20.1684 116.7496 23.9314 36.7023 2.2424
# 4 5.6778 -8.7023 23.9314 37.4778 12.1439 8.5211
# 5 29.8887 26.2959 36.7023 12.1439 38.0099 -4.2231
# 6 -12.7904 4.8750 2.2424 8.5211 -4.2231 28.4162
#
#
#
# Elastic Compliance Matrix: (Units=1/GPa)
#
#
# Indices 1 2 3 4 5 6 
#
# 1 0.008190 0.001078 0.000161 0.000801 -0.007358 0.002155
# 2 0.001078 0.011174 0.000080 0.007361 -0.011604 -0.005370
# 3 0.000161 0.000080 0.013062 -0.004271 -0.011587 -0.001414
# 4 0.000801 0.007361 -0.004271 0.039492 -0.015857 -0.014764
# 5 -0.007358 -0.011604 -0.011587 -0.015857 0.057815 0.012940
# 6 0.002155 -0.005370 -0.001414 -0.014764 0.012940 0.043544
#
#
# Mechanical properties :
#
#
# Convention : Reuss Voigt Hill
#
# Bulk Modulus (GPa) = 28.51876 54.96841 41.74359
# Shear Modulus (GPa) = 27.42310 43.41758 35.42034
#
# Velocity S-wave (km/s) = 3.18659 4.00960 3.62155
# Velocity P-wave (km/s) = 4.90910 6.46451 5.73974
#
# Compressibility (1/GPa) = 0.03506464
#
# Stress axis : x y z
#
# Youngs Moduli (GPa) = 122.09436 89.49395 76.55718
#
# Poissons Ratio (x) = -0.09651 -0.01229
# Poissons Ratio (y) = -0.13167 -0.00613
# Poissons Ratio (z) = -0.01960 -0.00717
#
# Static dielectric constant tensor:
#      x y z
#    x 2.153790 0.105730 -0.165990 
#    y 0.105730 2.451930 -0.187310 
#    z -0.165990 -0.187310 2.251980 
# 
# From -- ./inp_files/59801.got.cif
#   From: 2010.05.17/outbox.cif.g08.bks.cpg/sg2_30_cif.got.tgz:59801.got - 2010.06.03 11:33:40.
