data_PCOD9049445
_publ_section_title
;
Structure prediction by ZEFSAII (Michael W. Deem and Ramdas Pophale) SiO2 
 PCOD9049445
Probable space group: P -1
;
_chemical_formula_sum "Si O2"
_cell_formula_units_Z 14
_cell_length_a 10.248849
_cell_length_b 9.877814
_cell_length_c 8.586197
_cell_angle_alpha 61.592664
_cell_angle_beta 94.640606
_cell_angle_gamma 54.674669
_cell_volume 541.639223
_symmetry_space_group_name_H-M "P -1"
_symmetry_group_IT_number 2
_symmetry_cell_setting 'triclinic'
loop_
_space_group_symop_operation_xyz
x,y,z
-x,-y,-z
loop_
_atom_site_type_symbol
_atom_site_label
_atom_site_fract_x
_atom_site_fract_y
_atom_site_fract_z
Si Si1 0.553270 0.764885 0.675759
Si Si2 0.179199 0.070417 0.667878
Si Si3 0.714761 0.361308 0.085481
Si Si4 0.180850 0.494507 0.720857
Si Si5 0.485622 0.330692 0.614794
Si Si6 0.182312 0.258988 0.108853
Si Si7 0.134609 0.035811 0.012710
O O1 0.382688 0.915569 0.698973
O O2 0.699697 0.503905 0.871850
O O3 0.672309 0.817163 0.701740
O O4 0.000000 0.500000 0.000000
O O5 0.165594 0.893310 0.768779
O O6 0.122494 0.152043 0.795930
O O7 0.035695 0.296231 0.438702
O O8 0.765074 0.405138 0.223550
O O9 0.500000 0.500000 0.000000
O O10 0.297311 0.418996 0.616970
O O11 0.245376 0.293955 0.936713
O O12 0.500000 0.500000 0.500000
O O13 0.511707 0.226413 0.508237
O O14 0.646747 0.177879 0.841347
O O15 0.119388 0.140913 0.116628
O O16 0.000000 0.000000 0.000000
#
# Coordination Sequence:
#
# PCOD9049445 Si02
#       7
#     2   2   2   2   2   2   2
#     4  10  24  46  74 106 153 197 249 303 376 445
#     4  11  23  42  75 110 146 195 249 302 375 447
#     4   9  18  38  67 103 146 194 239 298 359 438
#     4  11  25  44  74 107 153 197 248 309 376 440
#     4  12  25  46  77 118 155 197 250 311 370 448
#     4  11  29  52  75 107 153 199 250 315 381 444
#     4  12  29  48  77 110 150 199 256 313 374 447
#
# _framework density 25.847462
#
# number of rings (size 3 to 8) (size 9 to 14) (size 15 to 20)
#    0.000    1.143    0.000    6.429   10.000    3.429 
#    0.000    0.000    0.000    0.000    0.000    0.000 
#    0.000    0.000    0.000    0.000    0.000    0.000 
#
# Total GULP energy -78167.621033 kJ/mol
# GULP energy per Si atom -5583.401502 kJ/mol
# Density = 2.578863 g / cm^3
# Si number density = 25.847462 Si / 1000 Ang^3
#
#
#
# Elastic Constant Matrix: (Units=GPa)
#
#
# Indices 1 2 3 4 5 6 
#
# 1 146.7510 56.0933 30.5462 15.4605 22.8011 6.6671
# 2 56.0933 78.1237 -6.9539 22.3663 13.7497 12.6432
# 3 30.5462 -6.9539 97.6380 10.9364 20.1426 -1.5482
# 4 15.4605 22.3663 10.9364 42.8265 4.1673 3.2130
# 5 22.8011 13.7497 20.1426 4.1673 50.7659 -0.1345
# 6 6.6671 12.6432 -1.5482 3.2130 -0.1345 56.7198
#
#
#
# Elastic Compliance Matrix: (Units=1/GPa)
#
#
# Indices 1 2 3 4 5 6 
#
# 1 0.010864 -0.008468 -0.003935 0.001587 -0.001154 0.000411
# 2 -0.008468 0.023707 0.006315 -0.010253 -0.004291 -0.003546
# 3 -0.003935 0.006315 0.013466 -0.004817 -0.004892 -0.000316
# 4 0.001587 -0.010253 -0.004817 0.029184 0.001580 0.000318
# 5 -0.001154 -0.004291 -0.004892 0.001580 0.023192 0.000924
# 6 0.000411 -0.003546 -0.000316 0.000318 0.000924 0.018348
#
#
# Mechanical properties :
#
#
# Convention : Reuss Voigt Hill
#
# Bulk Modulus (GPa) = 27.88559 53.54266 40.71413
# Shear Modulus (GPa) = 34.99166 46.25090 40.62128
#
# Velocity S-wave (km/s) = 3.68336 4.23469 3.96861
# Velocity P-wave (km/s) = 5.37601 6.68356 6.06512
#
# Compressibility (1/GPa) = 0.03586081
#
# Stress axis : x y z
#
# Youngs Moduli (GPa) = 92.05107 42.18167 74.25887
#
# Poissons Ratio (x) = 0.35720 0.29221
# Poissons Ratio (y) = 0.77950 -0.46896
# Poissons Ratio (z) = 0.36223 -0.26638
#
# Static dielectric constant tensor:
#      x y z
#    x 2.074300 -0.024820 -0.136470 
#    y -0.024820 2.126260 -0.023050 
#    z -0.136470 -0.023050 1.839840 
# 
# From -- ./inp_files/392081.got.cif
#   From: 2010.05.17/outbox.cif.g08.bks.cpg/sg2_197_cif.got.tgz:392081.got - 2010.06.03 11:33:40.
