data_PCOD9049551
_publ_section_title
;
Structure prediction by ZEFSAII (Michael W. Deem and Ramdas Pophale) SiO2 
 PCOD9049551
Probable space group: P -1
;
_chemical_formula_sum "Si O2"
_cell_formula_units_Z 16
_cell_length_a 14.248458
_cell_length_b 10.482370
_cell_length_c 8.798708
_cell_angle_alpha 128.529108
_cell_angle_beta 58.634747
_cell_angle_gamma 84.625759
_cell_volume 684.827844
_symmetry_space_group_name_H-M "P -1"
_symmetry_group_IT_number 2
_symmetry_cell_setting 'triclinic'
loop_
_space_group_symop_operation_xyz
x,y,z
-x,-y,-z
loop_
_atom_site_type_symbol
_atom_site_label
_atom_site_fract_x
_atom_site_fract_y
_atom_site_fract_z
Si Si1 0.580640 0.189991 0.047154
Si Si2 0.950722 0.669602 0.992267
Si Si3 0.706886 0.693411 0.070279
Si Si4 0.035057 0.710599 0.617509
Si Si5 0.084707 0.959148 0.553608
Si Si6 0.408399 0.539740 0.957120
Si Si7 0.824657 0.768311 0.596824
Si Si8 0.446343 0.040196 0.873602
O O1 0.532644 0.411061 0.198614
O O2 0.750524 0.242436 0.735260
O O3 0.747910 0.008830 0.798227
O O4 0.513998 0.169578 0.239673
O O5 0.807161 0.701762 0.104436
O O6 0.999160 0.709585 0.820759
O O7 0.077792 0.426364 0.739640
O O8 0.933650 0.835468 0.240619
O O9 0.613732 0.632897 0.171287
O O10 0.610375 0.900699 0.203902
O O11 0.814916 0.499716 0.721047
O O12 0.921514 0.715434 0.619501
O O13 0.025864 0.901340 0.699318
O O14 0.000000 0.000000 0.500000
O O15 0.500000 0.500000 0.000000
O O16 0.449725 0.909221 0.138972
O O17 0.689904 0.791203 0.780993
#
# Coordination Sequence:
#
# PCOD9049551 Si02
#       8
#     2   2   2   2   2   2   2   2
#     4   9  17  30  53  89 120 162 191 237 294 359
#     4  11  19  37  63  88 117 156 205 255 293 357
#     4  10  18  33  60  94 114 153 202 243 296 359
#     4  10  17  34  60  88 118 152 195 249 299 356
#     4  11  26  40  57  88 125 161 201 251 312 364
#     4  11  22  38  61  82 122 165 197 241 306 361
#     4   9  16  31  61  89 117 146 193 249 298 349
#     4   9  15  29  57  89 117 151 204 237 287 355
#
# _framework density 23.363536
#
# number of rings (size 3 to 8) (size 9 to 14) (size 15 to 20)
#    0.750    1.250    3.750    1.875    0.000    0.000 
#    0.000   10.625    2.750    0.000    0.000    7.000 
#    0.000    0.000    0.000    0.000    0.000    0.000 
#
# Total GULP energy -89240.677861 kJ/mol
# GULP energy per Si atom -5577.542366 kJ/mol
# Density = 2.331036 g / cm^3
# Si number density = 23.363536 Si / 1000 Ang^3
#
#
#
# Elastic Constant Matrix: (Units=GPa)
#
#
# Indices 1 2 3 4 5 6 
#
# 1 109.6084 52.4434 23.2495 3.9658 3.3949 -0.6758
# 2 52.4434 190.7700 13.9541 2.6240 6.7867 12.5151
# 3 23.2495 13.9541 58.2210 2.3169 11.7580 -0.5977
# 4 3.9658 2.6240 2.3169 25.2675 5.4402 -3.9289
# 5 3.3949 6.7867 11.7580 5.4402 23.3433 8.2487
# 6 -0.6758 12.5151 -0.5977 -3.9289 8.2487 42.1024
#
#
#
# Elastic Compliance Matrix: (Units=1/GPa)
#
#
# Indices 1 2 3 4 5 6 
#
# 1 0.011382 -0.002901 -0.004059 -0.001303 0.001322 0.000607
# 2 -0.002901 0.006199 -0.000222 -0.000332 -0.000550 -0.001816
# 3 -0.004059 -0.000222 0.021091 0.001566 -0.011272 0.002655
# 4 -0.001303 -0.000332 0.001566 0.043518 -0.013016 0.006711
# 5 0.001322 -0.000550 -0.011272 -0.013016 0.055801 -0.012123
# 6 0.000607 -0.001816 0.002655 0.006711 -0.012123 0.027340
#
#
# Mechanical properties :
#
#
# Convention : Reuss Voigt Hill
#
# Bulk Modulus (GPa) = 41.13650 59.76592 50.45121
# Shear Modulus (GPa) = 26.62440 36.07282 31.34861
#
# Velocity S-wave (km/s) = 3.37942 3.93361 3.66700
# Velocity P-wave (km/s) = 5.73347 6.80202 6.29047
#
# Compressibility (1/GPa) = 0.02430931
#
# Stress axis : x y z
#
# Youngs Moduli (GPa) = 87.85551 161.31960 47.41310
#
# Poissons Ratio (x) = 0.46800 0.19244
# Poissons Ratio (y) = 0.25487 0.01051
# Poissons Ratio (z) = 0.35659 0.03575
#
# Static dielectric constant tensor:
#      x y z
#    x 1.859490 0.035760 -0.067210 
#    y 0.035760 2.029580 -0.073100 
#    z -0.067210 -0.073100 1.973720 
# 
# From -- ./inp_files/305865.got.cif
#   From: 2010.05.17/outbox.cif.g08.bks.cpg/sg2_153_cif.got.tgz:305865.got - 2010.06.03 11:33:40.
