data_PCOD9049452
_publ_section_title
;
Structure prediction by ZEFSAII (Michael W. Deem and Ramdas Pophale) SiO2 
 PCOD9049452
Probable space group: P -1
;
_chemical_formula_sum "Si O2"
_cell_formula_units_Z 15
_cell_length_a 9.258068
_cell_length_b 11.569808
_cell_length_c 12.028748
_cell_angle_alpha 108.487864
_cell_angle_beta 97.814067
_cell_angle_gamma 139.316982
_cell_volume 631.881086
_symmetry_space_group_name_H-M "P -1"
_symmetry_group_IT_number 2
_symmetry_cell_setting 'triclinic'
loop_
_space_group_symop_operation_xyz
x,y,z
-x,-y,-z
loop_
_atom_site_type_symbol
_atom_site_label
_atom_site_fract_x
_atom_site_fract_y
_atom_site_fract_z
Si Si1 0.196417 0.841978 0.924343
Si Si2 0.632527 0.373395 0.809244
Si Si3 0.846921 0.106233 0.304743
Si Si4 0.695546 0.739475 0.650556
Si Si5 0.467676 0.168333 0.495268
Si Si6 0.500000 0.500000 0.000000
Si Si7 0.049077 0.677384 0.398687
Si Si8 0.564505 0.732164 0.871095
O O1 0.097998 0.785293 0.769799
O O2 0.963949 0.603653 0.895682
O O3 0.500000 0.000000 0.000000
O O4 0.235817 0.008237 0.021940
O O5 0.491651 0.268433 0.639299
O O6 0.571608 0.450431 0.895230
O O7 0.479641 0.150758 0.785080
O O8 0.974197 0.270117 0.470435
O O9 0.997273 0.082682 0.301130
O O10 0.500000 0.500000 0.500000
O O11 0.612771 0.809506 0.611736
O O12 0.661425 0.720289 0.772868
O O13 0.756186 0.300540 0.556440
O O14 0.226783 0.896457 0.407139
O O15 0.544970 0.643494 0.955350
O O16 0.746550 0.441551 0.244531
#
# Coordination Sequence:
#
# PCOD9049452 Si02
#       8
#     2   2   2   2   2   1   2   2
#     4  12  28  49  73 108 152 198 248 305 373 446
#     4  11  26  46  74 105 151 197 242 301 368 444
#     4  11  25  48  73 111 150 194 248 308 370 446
#     4  12  25  45  75 111 149 189 247 313 372 435
#     4  10  24  46  74 108 145 188 248 311 368 442
#     4  12  26  48  70 106 154 200 242 306 368 456
#     4  10  24  46  75 108 142 192 250 303 377 436
#     4  12  27  44  74 110 146 197 248 305 375 438
#
# _framework density 23.738643
#
# number of rings (size 3 to 8) (size 9 to 14) (size 15 to 20)
#    0.000    0.800    2.667    3.200    5.600    3.200 
#    4.800    0.000    0.000    0.000    0.000    0.000 
#    0.000    0.000    0.000    0.000    0.000    0.000 
#
# Total GULP energy -83791.069406 kJ/mol
# GULP energy per Si atom -5586.071294 kJ/mol
# Density = 2.368461 g / cm^3
# Si number density = 23.738643 Si / 1000 Ang^3
#
#
#
# Elastic Constant Matrix: (Units=GPa)
#
#
# Indices 1 2 3 4 5 6 
#
# 1 81.5705 48.4120 34.9709 -13.8807 3.8009 0.4770
# 2 48.4120 130.2085 48.5297 6.9219 6.1278 12.5062
# 3 34.9709 48.5297 82.1978 -6.5263 -4.8409 5.5191
# 4 -13.8807 6.9219 -6.5263 39.9068 6.0027 3.0093
# 5 3.8009 6.1278 -4.8409 6.0027 22.0766 -3.2108
# 6 0.4770 12.5062 5.5191 3.0093 -3.2108 31.5403
#
#
#
# Elastic Compliance Matrix: (Units=1/GPa)
#
#
# Indices 1 2 3 4 5 6 
#
# 1 0.019067 -0.005755 -0.004494 0.007444 -0.004460 0.001616
# 2 -0.005755 0.012491 -0.005184 -0.004272 -0.003013 -0.003858
# 3 -0.004494 -0.005184 0.017616 0.001412 0.005616 -0.000522
# 4 0.007444 -0.004272 0.001412 0.030048 -0.008302 -0.002378
# 5 -0.004460 -0.003013 0.005616 -0.008302 0.051305 0.006294
# 6 0.001616 -0.003858 -0.000522 -0.002378 0.006294 0.034170
#
#
# Mechanical properties :
#
#
# Convention : Reuss Voigt Hill
#
# Bulk Modulus (GPa) = 54.62134 61.97800 58.29967
# Shear Modulus (GPa) = 24.79345 29.50902 27.15123
#
# Velocity S-wave (km/s) = 3.23528 3.52956 3.38562
# Velocity P-wave (km/s) = 6.08403 6.54030 6.31629
#
# Compressibility (1/GPa) = 0.01830786
#
# Stress axis : x y z
#
# Youngs Moduli (GPa) = 52.44683 80.05570 56.76558
#
# Poissons Ratio (x) = 0.46073 0.25512
# Poissons Ratio (y) = 0.30184 0.29427
# Poissons Ratio (z) = 0.23571 0.41500
#
# Static dielectric constant tensor:
#      x y z
#    x 1.899480 0.034710 0.002340 
#    y 0.034710 1.900190 0.043950 
#    z 0.002340 0.043950 1.884570 
# 
# From -- ./inp_files/390737.got.cif
#   From: 2010.05.17/outbox.cif.g08.bks.cpg/sg2_196_cif.got.tgz:390737.got - 2010.06.03 11:33:40.
