data_PCOD9049047
_publ_section_title
;
Structure prediction by ZEFSAII (Michael W. Deem and Ramdas Pophale) SiO2 
 PCOD9049047
Probable space group: P -1
;
_chemical_formula_sum "Si O2"
_cell_formula_units_Z 14
_cell_length_a 24.454826
_cell_length_b 14.877916
_cell_length_c 5.530767
_cell_angle_alpha 98.682505
_cell_angle_beta 88.012799
_cell_angle_gamma 21.077334
_cell_volume 622.096265
_symmetry_space_group_name_H-M "P -1"
_symmetry_group_IT_number 2
_symmetry_cell_setting 'triclinic'
loop_
_space_group_symop_operation_xyz
x,y,z
-x,-y,-z
loop_
_atom_site_type_symbol
_atom_site_label
_atom_site_fract_x
_atom_site_fract_y
_atom_site_fract_z
Si Si1 0.241493 0.483160 0.783978
Si Si2 0.055567 0.680687 0.529265
Si Si3 0.632983 0.864082 0.037556
Si Si4 0.446107 0.314888 0.512034
Si Si5 0.220452 0.111965 0.552192
Si Si6 0.917092 0.045734 0.388490
Si Si7 0.922433 0.734954 0.868736
O O1 0.188800 0.548823 0.543516
O O2 0.311417 0.277653 0.787316
O O3 0.381754 0.340948 0.725194
O O4 0.064135 0.792380 0.064362
O O5 0.977579 0.749377 0.792774
O O6 0.185308 0.411518 0.248061
O O7 0.912922 0.960928 0.515894
O O8 0.546453 0.096322 0.206066
O O9 0.500000 0.000000 0.000000
O O10 0.270581 0.635392 0.562956
O O11 0.581617 0.169658 0.549730
O O12 0.187751 0.123080 0.294281
O O13 0.093779 0.400060 0.709293
O O14 0.165733 0.136588 0.802834
O O15 0.000000 0.000000 0.500000
#
# Coordination Sequence:
#
# PCOD9049047 Si02
#       7
#     2   2   2   2   2   2   2
#     4  11  23  41  65  97 134 175 221 274 354 415
#     4  11  24  42  68  93 135 184 216 278 349 413
#     4  11  23  37  61 103 135 163 223 288 346 409
#     4  12  23  41  67 102 134 173 232 283 343 406
#     4  10  25  43  70 100 135 181 233 292 337 402
#     4  11  24  44  63 100 140 182 217 272 353 424
#     4  10  24  46  67  98 139 181 233 282 351 400
#
# _framework density 22.504556999999998
#
# number of rings (size 3 to 8) (size 9 to 14) (size 15 to 20)
#    0.000    1.143    2.857    2.571   12.000    1.143 
#    0.000    1.429    0.000    0.000    0.000    0.000 
#    0.000    0.000    0.000    0.000    0.000    0.000 
#
# Total GULP energy -78271.070979 kJ/mol
# GULP energy per Si atom -5590.790784 kJ/mol
# Density = 2.245334 g / cm^3
# Si number density = 22.504557 Si / 1000 Ang^3
#
#
#
# Elastic Constant Matrix: (Units=GPa)
#
#
# Indices 1 2 3 4 5 6 
#
# 1 76.5792 39.1202 32.3659 4.2034 -19.0782 -3.7517
# 2 39.1202 119.3186 43.8205 6.5781 -4.9562 -13.4442
# 3 32.3659 43.8205 73.4763 0.0956 -9.4147 16.8975
# 4 4.2034 6.5781 0.0956 26.2726 5.8883 1.4298
# 5 -19.0782 -4.9562 -9.4147 5.8883 41.6415 -5.8006
# 6 -3.7517 -13.4442 16.8975 1.4298 -5.8006 40.9848
#
#
#
# Elastic Compliance Matrix: (Units=1/GPa)
#
#
# Indices 1 2 3 4 5 6 
#
# 1 0.020286 -0.002658 -0.007485 -0.004807 0.008728 0.005474
# 2 -0.002658 0.013526 -0.008709 -0.003360 -0.000001 0.007901
# 3 -0.007485 -0.008709 0.025203 0.004372 -0.001375 -0.014280
# 4 -0.004807 -0.003360 0.004372 0.041858 -0.008367 -0.005989
# 5 0.008728 -0.000001 -0.001375 -0.008367 0.029702 0.005861
# 6 0.005474 0.007901 -0.014280 -0.005989 0.005861 0.034418
#
#
# Mechanical properties :
#
#
# Convention : Reuss Voigt Hill
#
# Bulk Modulus (GPa) = 46.92309 55.55414 51.23862
# Shear Modulus (GPa) = 23.83214 32.05095 27.94155
#
# Velocity S-wave (km/s) = 3.25775 3.77795 3.52745
# Velocity P-wave (km/s) = 5.91999 6.61588 6.27759
#
# Compressibility (1/GPa) = 0.02131147
#
# Stress axis : x y z
#
# Youngs Moduli (GPa) = 49.29504 73.93064 39.67766
#
# Poissons Ratio (x) = 0.19649 0.29699
# Poissons Ratio (y) = 0.13101 0.34555
# Poissons Ratio (z) = 0.36898 0.64386
#
# Static dielectric constant tensor:
#      x y z
#    x 1.855520 -0.016940 0.026280 
#    y -0.016940 1.860510 -0.047410 
#    z 0.026280 -0.047410 1.906160 
# 
# From -- ./inp_files/26782.got.cif
#   From: 2010.05.17/outbox.cif.g08.bks.cpg/sg2_14_cif.got.tgz:26782.got - 2010.06.03 11:33:40.
