data_PCOD9049745
_publ_section_title
;
Structure prediction by ZEFSAII (Michael W. Deem and Ramdas Pophale) SiO2 
 PCOD9049745
Probable space group: P -1
;
_chemical_formula_sum "Si O2"
_cell_formula_units_Z 14
_cell_length_a 20.794232
_cell_length_b 7.944193
_cell_length_c 5.553295
_cell_angle_alpha 88.806090
_cell_angle_beta 111.631065
_cell_angle_gamma 134.941699
_cell_volume 562.180660
_symmetry_space_group_name_H-M "P -1"
_symmetry_group_IT_number 2
_symmetry_cell_setting 'triclinic'
loop_
_space_group_symop_operation_xyz
x,y,z
-x,-y,-z
loop_
_atom_site_type_symbol
_atom_site_label
_atom_site_fract_x
_atom_site_fract_y
_atom_site_fract_z
Si Si1 0.731921 0.850965 0.882383
Si Si2 0.244848 0.488445 0.950154
Si Si3 0.946161 0.223623 0.878949
Si Si4 0.851950 0.567255 0.671993
Si Si5 0.417285 0.415171 0.696669
Si Si6 0.801629 0.114771 0.395327
Si Si7 0.469171 0.028810 0.206719
O O1 0.622246 0.712811 0.620288
O O2 0.832813 0.997552 0.849335
O O3 0.716084 0.634842 0.979072
O O4 0.780053 0.096327 0.086819
O O5 0.170774 0.374495 0.612305
O O6 0.201267 0.456749 0.157948
O O7 0.343471 0.792444 0.033940
O O8 0.904311 0.181189 0.551414
O O9 0.000000 0.500000 0.000000
O O10 0.026898 0.235153 0.086168
O O11 0.813075 0.306648 0.554177
O O12 0.460879 0.678117 0.705714
O O13 0.305698 0.177098 0.676571
O O14 0.500000 0.500000 0.000000
O O15 0.500000 0.000000 0.500000
O O16 0.500000 0.000000 0.000000
#
# Coordination Sequence:
#
# PCOD9049745 Si02
#       7
#     2   2   2   2   2   2   2
#     4  11  25  45  75 102 144 192 243 305 365 444
#     4  12  27  46  72 110 151 187 245 299 372 434
#     4   9  23  44  72 102 142 191 243 295 371 422
#     4  11  27  46  73 107 150 190 244 306 360 437
#     4  11  25  46  70 106 141 186 253 304 360 432
#     4  10  24  47  73 104 143 193 251 297 363 437
#     4  12  25  48  76 102 147 199 240 294 377 441
#
# _framework density 24.903023000000001
#
# number of rings (size 3 to 8) (size 9 to 14) (size 15 to 20)
#    0.000    1.143    1.429    2.571   12.000    2.857 
#    0.000    0.000    0.000    0.000    0.000    0.000 
#    0.000    0.000    0.000    0.000    0.000    0.000 
#
# Total GULP energy -77972.196678 kJ/mol
# GULP energy per Si atom -5569.442620 kJ/mol
# Density = 2.484634 g / cm^3
# Si number density = 24.903023 Si / 1000 Ang^3
#
#
#
# Elastic Constant Matrix: (Units=GPa)
#
#
# Indices 1 2 3 4 5 6 
#
# 1 89.1209 19.3390 82.4910 -0.8796 -8.5550 2.1213
# 2 19.3390 63.9472 20.6384 4.9498 4.7708 -12.1539
# 3 82.4910 20.6384 234.9127 -3.5600 21.0252 -4.8865
# 4 -0.8796 4.9498 -3.5600 45.5560 9.0488 2.5810
# 5 -8.5550 4.7708 21.0252 9.0488 47.1272 4.3698
# 6 2.1213 -12.1539 -4.8865 2.5810 4.3698 28.2837
#
#
#
# Elastic Compliance Matrix: (Units=1/GPa)
#
#
# Indices 1 2 3 4 5 6 
#
# 1 0.020368 -0.005492 -0.007568 -0.000906 0.008398 -0.006410
# 2 -0.005492 0.019318 0.000742 -0.001936 -0.003802 0.009606
# 3 -0.007568 0.000742 0.007398 0.001232 -0.005251 0.002863
# 4 -0.000906 -0.001936 0.001232 0.023306 -0.004814 -0.001934
# 5 0.008398 -0.003802 -0.005251 -0.004814 0.027036 -0.006909
# 6 -0.006410 0.009606 0.002863 -0.001934 -0.006909 0.041703
#
#
# Mechanical properties :
#
#
# Convention : Reuss Voigt Hill
#
# Bulk Modulus (GPa) = 44.54826 70.32417 57.43622
# Shear Modulus (GPa) = 29.19747 41.89420 35.54584
#
# Velocity S-wave (km/s) = 3.42782 4.10603 3.78215
# Velocity P-wave (km/s) = 5.79604 7.12599 6.49515
#
# Compressibility (1/GPa) = 0.02244756
#
# Stress axis : x y z
#
# Youngs Moduli (GPa) = 49.09767 51.76408 135.17761
#
# Poissons Ratio (x) = 0.28427 1.02308
# Poissons Ratio (y) = 0.26962 -0.10030
# Poissons Ratio (z) = 0.37159 -0.03841
#
# Static dielectric constant tensor:
#      x y z
#    x 1.526770 0.853250 -0.525080 
#    y 0.853250 0.924490 0.448480 
#    z -0.525080 0.448480 1.951660 
# 
# From -- ./inp_files/117083.got.cif
#   From: 2010.05.17/outbox.cif.g08.bks.cpg/sg2_59_cif.got.tgz:117083.got - 2010.06.03 11:33:40.
