data_PCOD9049952
_publ_section_title
;
Structure prediction by ZEFSAII (Michael W. Deem and Ramdas Pophale) SiO2 
 PCOD9049952
Probable space group: P -1
;
_chemical_formula_sum "Si O2"
_cell_formula_units_Z 16
_cell_length_a 16.138803
_cell_length_b 8.760082
_cell_length_c 14.182542
_cell_angle_alpha 73.559816
_cell_angle_beta 152.221382
_cell_angle_gamma 121.867319
_cell_volume 702.564482
_symmetry_space_group_name_H-M "P -1"
_symmetry_group_IT_number 2
_symmetry_cell_setting 'triclinic'
loop_
_space_group_symop_operation_xyz
x,y,z
-x,-y,-z
loop_
_atom_site_type_symbol
_atom_site_label
_atom_site_fract_x
_atom_site_fract_y
_atom_site_fract_z
Si Si1 0.796205 0.770379 0.804016
Si Si2 0.383018 0.780920 0.378078
Si Si3 0.811094 0.761974 0.598281
Si Si4 0.951979 0.725399 0.453338
Si Si5 0.280027 0.736718 0.643113
Si Si6 0.782503 0.946666 0.171495
Si Si7 0.876736 0.448808 0.669794
Si Si8 0.330768 0.629360 0.153295
O O1 0.563230 0.739320 0.579948
O O2 0.830474 0.748195 0.732488
O O3 0.755874 0.590692 0.856661
O O4 0.000000 0.000000 0.000000
O O5 0.169603 0.632584 0.255974
O O6 0.330424 0.750277 0.220133
O O7 0.500000 0.000000 0.500000
O O8 0.785817 0.577556 0.554403
O O9 0.587753 0.743927 0.358711
O O10 0.043168 0.960614 0.756672
O O11 0.126496 0.776852 0.536910
O O12 0.825864 0.495102 0.397590
O O13 0.777483 0.764406 0.238142
O O14 0.099450 0.881723 0.658995
O O15 0.250134 0.731138 0.501519
O O16 0.540050 0.879657 0.910482
O O17 0.146133 0.587642 0.900596
#
# Coordination Sequence:
#
# PCOD9049952 Si02
#       8
#     2   2   2   2   2   2   2   2
#     4  11  23  40  65  94 135 182 224 281 333 393
#     4  11  23  40  65  96 131 181 233 272 337 399
#     4  11  24  43  65 100 135 175 226 281 335 393
#     4  10  24  48  70 105 133 176 218 277 359 401
#     4  11  25  45  71 105 137 170 227 282 337 411
#     4  11  24  45  76 100 136 176 223 278 344 414
#     4  12  24  41  69  97 135 181 223 279 340 386
#     4  11  24  45  64  93 145 178 227 286 325 397
#
# _framework density 22.773709
#
# number of rings (size 3 to 8) (size 9 to 14) (size 15 to 20)
#    0.000    1.000    3.750    2.625    3.500    5.000 
#    9.000    0.000    0.000    0.000    0.000    0.000 
#    0.000    0.000    0.000    0.000    0.000    0.000 
#
# Total GULP energy -89565.332336 kJ/mol
# GULP energy per Si atom -5597.833271 kJ/mol
# Density = 2.272187 g / cm^3
# Si number density = 22.773709 Si / 1000 Ang^3
#
#
#
# Elastic Constant Matrix: (Units=GPa)
#
#
# Indices 1 2 3 4 5 6 
#
# 1 82.8566 11.3525 15.6799 -1.8961 4.5265 -18.5154
# 2 11.3525 50.6093 -17.0067 15.7741 -1.7571 -11.0260
# 3 15.6799 -17.0067 94.8228 5.6363 0.3471 -9.9320
# 4 -1.8961 15.7741 5.6363 30.0881 1.4478 3.3348
# 5 4.5265 -1.7571 0.3471 1.4478 27.0504 2.9954
# 6 -18.5154 -11.0260 -9.9320 3.3348 2.9954 20.6449
#
#
#
# Elastic Compliance Matrix: (Units=1/GPa)
#
#
# Indices 1 2 3 4 5 6 
#
# 1 0.015737 -0.001704 -0.001599 0.000958 -0.004202 0.012889
# 2 -0.001704 0.038258 0.011645 -0.025546 0.000831 0.028513
# 3 -0.001599 0.011645 0.014960 -0.010521 -0.000122 0.013699
# 4 0.000958 -0.025546 -0.010521 0.051612 -0.001573 -0.025955
# 5 -0.004202 0.000831 -0.000122 -0.001573 0.038781 -0.008756
# 6 0.012889 0.028513 0.013699 -0.025955 -0.008756 0.087279
#
#
# Mechanical properties :
#
#
# Convention : Reuss Voigt Hill
#
# Bulk Modulus (GPa) = 11.67702 27.59334 19.63518
# Shear Modulus (GPa) = 19.34321 30.10755 24.72538
#
# Velocity S-wave (km/s) = 2.91755 3.63992 3.29857
# Velocity P-wave (km/s) = 4.06054 5.45967 4.81124
#
# Compressibility (1/GPa) = 0.08563830
#
# Stress axis : x y z
#
# Youngs Moduli (GPa) = 63.54498 26.13841 66.84595
#
# Poissons Ratio (x) = 0.04454 0.10692
# Poissons Ratio (y) = 0.10828 -0.77844
# Poissons Ratio (z) = 0.10164 -0.30439
#
# Static dielectric constant tensor:
#      x y z
#    x 1.861670 0.039280 0.001010 
#    y 0.039280 1.885640 0.013310 
#    z 0.001010 0.013310 1.810530 
# 
# From -- ./inp_files/529843.got.cif
#   From: 2010.05.17/outbox.cif.g08.bks.cpg/sg2_265_cif.got.tgz:529843.got - 2010.06.03 11:33:40.
