data_PCOD9049012
_publ_section_title
;
Structure prediction by ZEFSAII (Michael W. Deem and Ramdas Pophale) SiO2 
 PCOD9049012
Probable space group: P -1
;
_chemical_formula_sum "Si O2"
_cell_formula_units_Z 13
_cell_length_a 8.543627
_cell_length_b 8.832148
_cell_length_c 11.889585
_cell_angle_alpha 120.105924
_cell_angle_beta 127.052574
_cell_angle_gamma 81.411642
_cell_volume 604.044747
_symmetry_space_group_name_H-M "P -1"
_symmetry_group_IT_number 2
_symmetry_cell_setting 'triclinic'
loop_
_space_group_symop_operation_xyz
x,y,z
-x,-y,-z
loop_
_atom_site_type_symbol
_atom_site_label
_atom_site_fract_x
_atom_site_fract_y
_atom_site_fract_z
Si Si1 0.081282 0.607019 0.463048
Si Si2 0.086742 0.376497 0.830612
Si Si3 0.500000 0.000000 0.000000
Si Si4 0.693680 0.450298 0.799721
Si Si5 0.627166 0.858119 0.540531
Si Si6 0.917178 0.027235 0.294771
Si Si7 0.464698 0.262879 0.291132
O O1 0.084150 0.818259 0.556827
O O2 0.314551 0.605935 0.545651
O O3 0.000000 0.500000 0.500000
O O4 0.941918 0.539390 0.270962
O O5 0.872526 0.364509 0.796554
O O6 0.128994 0.178912 0.761950
O O7 0.252295 0.491685 0.027415
O O8 0.253893 0.962484 0.865640
O O9 0.509731 0.885154 0.844113
O O10 0.479407 0.317249 0.641466
O O11 0.683063 0.624397 0.786274
O O12 0.600781 0.817883 0.646177
O O13 0.859527 0.925643 0.639861
O O14 0.500000 0.000000 0.500000
#
# Coordination Sequence:
#
# PCOD9049012 Si02
#       7
#     2   2   1   2   2   2   2
#     4  11  24  43  70 103 139 189 228 279 351 418
#     4  11  23  44  69 101 141 182 228 291 339 412
#     4  10  24  46  66 102 132 184 224 286 344 402
#     4  11  23  43  69 102 140 180 229 289 349 396
#     4  12  24  43  71 109 135 182 233 288 349 413
#     4  11  23  45  72 100 140 182 235 276 353 414
#     4  11  23  45  71  94 146 178 232 286 344 414
#
# _framework density 21.521583
#
# number of rings (size 3 to 8) (size 9 to 14) (size 15 to 20)
#    0.000    0.923    4.615    1.846    2.154    1.846 
#    5.538    1.538    0.000    0.000    0.000    0.000 
#    0.000    0.000    0.000    0.000    0.000    0.000 
#
# Total GULP energy -72416.113361 kJ/mol
# GULP energy per Si atom -5570.470259 kJ/mol
# Density = 2.147260 g / cm^3
# Si number density = 21.521583 Si / 1000 Ang^3
#
#
#
# Elastic Constant Matrix: (Units=GPa)
#
#
# Indices 1 2 3 4 5 6 
#
# 1 35.9323 5.5245 30.3959 -12.7235 20.9039 -14.6641
# 2 5.5245 62.6494 45.0622 -8.4543 -12.4570 -12.2397
# 3 30.3959 45.0622 179.5015 -30.4240 -6.2416 5.0706
# 4 -12.7235 -8.4543 -30.4240 27.6130 -4.4873 -3.8122
# 5 20.9039 -12.4570 -6.2416 -4.4873 38.4696 -4.4222
# 6 -14.6641 -12.2397 5.0706 -3.8122 -4.4222 28.6844
#
#
#
# Elastic Compliance Matrix: (Units=1/GPa)
#
#
# Indices 1 2 3 4 5 6 
#
# 1 0.100404 0.009962 -0.017420 0.030667 -0.044153 0.055928
# 2 0.009962 0.026204 -0.007262 0.008118 0.005073 0.019419
# 3 -0.017420 -0.007262 0.011247 0.001652 0.007685 -0.012588
# 4 0.030667 0.008118 0.001652 0.057560 -0.004079 0.025870
# 5 -0.044153 0.005073 0.007685 -0.004079 0.050735 -0.014486
# 6 0.055928 0.019419 -0.012588 0.025870 -0.014486 0.075170
#
#
# Mechanical properties :
#
#
# Convention : Reuss Voigt Hill
#
# Bulk Modulus (GPa) = 9.22378 48.89426 29.05902
# Shear Modulus (GPa) = 12.92328 32.09343 22.50836
#
# Velocity S-wave (km/s) = 2.45313 3.86582 3.23747
# Velocity P-wave (km/s) = 3.50983 6.53408 5.24467
#
# Compressibility (1/GPa) = 0.10841547
#
# Stress axis : x y z
#
# Youngs Moduli (GPa) = 9.95977 38.16139 88.91535
#
# Poissons Ratio (x) = -0.38016 1.54892
# Poissons Ratio (y) = -0.09922 0.64566
# Poissons Ratio (z) = 0.17350 0.27711
#
# Static dielectric constant tensor:
#      x y z
#    x 1.751620 -0.036330 -0.016090 
#    y -0.036330 1.824180 0.013630 
#    z -0.016090 0.013630 1.771500 
# 
# From -- ./inp_files/147227.got.cif
#   From: 2010.05.17/outbox.cif.g08.bks.cpg/sg2_74_cif.got.tgz:147227.got - 2010.06.03 11:33:40.
