data_PCOD9049722
_publ_section_title
;
Structure prediction by ZEFSAII (Michael W. Deem and Ramdas Pophale) SiO2 
 PCOD9049722
Probable space group: P -1
;
_chemical_formula_sum "Si O2"
_cell_formula_units_Z 16
_cell_length_a 11.468733
_cell_length_b 15.202309
_cell_length_c 8.139458
_cell_angle_alpha 33.399810
_cell_angle_beta 114.752763
_cell_angle_gamma 128.452837
_cell_volume 594.926122
_symmetry_space_group_name_H-M "P -1"
_symmetry_group_IT_number 2
_symmetry_cell_setting 'triclinic'
loop_
_space_group_symop_operation_xyz
x,y,z
-x,-y,-z
loop_
_atom_site_type_symbol
_atom_site_label
_atom_site_fract_x
_atom_site_fract_y
_atom_site_fract_z
Si Si1 0.122809 0.214086 0.679125
Si Si2 0.084788 0.718726 0.748930
Si Si3 0.735760 0.471525 0.446510
Si Si4 0.609874 0.104953 0.553437
Si Si5 0.887671 0.282187 0.843933
Si Si6 0.905227 0.840041 0.826771
Si Si7 0.398908 0.199176 0.737238
Si Si8 0.584399 0.727574 0.730502
O O1 0.167057 0.384871 0.567937
O O2 0.279019 0.232550 0.701798
O O3 0.036236 0.226003 0.452445
O O4 0.000000 0.000000 0.000000
O O5 0.223065 0.808971 0.560170
O O6 0.119421 0.741185 0.927181
O O7 0.000000 0.500000 0.000000
O O8 0.736033 0.280895 0.718518
O O9 0.564370 0.394085 0.517725
O O10 0.808336 0.607657 0.116915
O O11 0.551248 0.242952 0.347596
O O12 0.500000 0.000000 0.500000
O O13 0.588657 0.955964 0.912223
O O14 0.000000 0.500000 0.500000
O O15 0.947716 0.154914 0.008209
O O16 0.742247 0.828320 0.780389
O O17 0.000000 0.000000 0.500000
O O18 0.354119 0.158989 0.582009
O O19 0.500000 0.500000 0.000000
#
# Coordination Sequence:
#
# PCOD9049722 Si02
#       8
#     2   2   2   2   2   2   2   2
#     4  12  27  47  74 115 154 199 263 325 395 460
#     4  12  26  47  78 110 152 199 258 319 392 465
#     4  11  25  46  74 110 154 208 254 321 395 466
#     4  12  31  51  79 114 156 208 261 322 392 472
#     4  10  24  47  72 107 147 196 249 308 390 456
#     4  11  27  44  77 109 151 194 264 319 388 460
#     4  12  27  51  77 108 158 205 262 320 390 478
#     4  12  29  52  78 115 156 207 258 324 395 464
#
# _framework density 26.894096000000001
#
# number of rings (size 3 to 8) (size 9 to 14) (size 15 to 20)
#    0.000    0.500    3.750    2.250   12.250    0.000 
#    0.000    0.000    0.000    0.000    0.000    0.000 
#    0.000    0.000    0.000    0.000    0.000    0.000 
#
# Total GULP energy -89212.936664 kJ/mol
# GULP energy per Si atom -5575.808541 kJ/mol
# Density = 2.683288 g / cm^3
# Si number density = 26.894096 Si / 1000 Ang^3
#
#
#
# Elastic Constant Matrix: (Units=GPa)
#
#
# Indices 1 2 3 4 5 6 
#
# 1 185.7243 36.4632 74.7863 -9.7669 12.6425 16.6135
# 2 36.4632 94.7520 30.9931 -11.4596 -7.1553 5.9520
# 3 74.7863 30.9931 190.7125 -0.1295 3.0986 5.7481
# 4 -9.7669 -11.4596 -0.1295 27.4745 15.1435 -2.5516
# 5 12.6425 -7.1553 3.0986 15.1435 62.9618 -7.7076
# 6 16.6135 5.9520 5.7481 -2.5516 -7.7076 55.1216
#
#
#
# Elastic Compliance Matrix: (Units=1/GPa)
#
#
# Indices 1 2 3 4 5 6 
#
# 1 0.007202 -0.001667 -0.002452 0.003042 -0.002484 -0.001941
# 2 -0.001667 0.012199 -0.001327 0.004029 0.000771 -0.000382
# 3 -0.002452 -0.001327 0.006406 -0.001619 0.000440 0.000201
# 4 0.003042 0.004029 -0.001619 0.045164 -0.011013 -0.000633
# 5 -0.002484 0.000771 0.000440 -0.011013 0.019443 0.002828
# 6 -0.001941 -0.000382 0.000201 -0.000633 0.002828 0.019113
#
#
# Mechanical properties :
#
#
# Convention : Reuss Voigt Hill
#
# Bulk Modulus (GPa) = 67.04854 83.96381 75.50618
# Shear Modulus (GPa) = 39.87527 51.04131 45.45829
#
# Velocity S-wave (km/s) = 3.85473 4.36117 4.11575
# Velocity P-wave (km/s) = 6.69303 7.52647 7.12195
#
# Compressibility (1/GPa) = 0.01491457
#
# Stress axis : x y z
#
# Youngs Moduli (GPa) = 138.85325 81.97431 156.09184
#
# Poissons Ratio (x) = 0.13665 0.38278
# Poissons Ratio (y) = 0.23147 0.20714
# Poissons Ratio (z) = 0.34051 0.10878
#
# Static dielectric constant tensor:
#      x y z
#    x 2.302030 0.041810 0.048710 
#    y 0.041810 2.306290 0.026040 
#    z 0.048710 0.026040 2.076760 
# 
# From -- ./inp_files/278699.got.cif
#   From: 2010.05.17/outbox.cif.g08.bks.cpg/sg2_140_cif.got.tgz:278699.got - 2010.06.03 11:33:40.
