data_PCOD9049451
_publ_section_title
;
Structure prediction by ZEFSAII (Michael W. Deem and Ramdas Pophale) SiO2 
 PCOD9049451
Probable space group: P -1
;
_chemical_formula_sum "Si O2"
_cell_formula_units_Z 14
_cell_length_a 18.547358
_cell_length_b 9.212488
_cell_length_c 12.875180
_cell_angle_alpha 50.136312
_cell_angle_beta 27.740230
_cell_angle_gamma 36.820032
_cell_volume 595.418188
_symmetry_space_group_name_H-M "P -1"
_symmetry_group_IT_number 2
_symmetry_cell_setting 'triclinic'
loop_
_space_group_symop_operation_xyz
x,y,z
-x,-y,-z
loop_
_atom_site_type_symbol
_atom_site_label
_atom_site_fract_x
_atom_site_fract_y
_atom_site_fract_z
Si Si1 0.175517 0.698286 0.136357
Si Si2 0.494345 0.746102 0.329902
Si Si3 0.191840 0.409381 0.621385
Si Si4 0.422939 0.238483 0.185560
Si Si5 0.489337 0.382762 0.401527
Si Si6 0.036429 0.749488 0.080656
Si Si7 0.113157 0.014233 0.255840
O O1 0.297732 0.442600 0.161687
O O2 0.025311 0.725188 0.230616
O O3 0.080221 0.915293 0.241176
O O4 0.335924 0.694349 0.866251
O O5 0.389695 0.664347 0.433036
O O6 0.441196 0.759528 0.512134
O O7 0.454904 0.991017 0.235362
O O8 0.735310 0.500699 0.125773
O O9 0.304650 0.354182 0.392845
O O10 0.340260 0.356283 0.547745
O O11 0.117005 0.254517 0.787977
O O12 0.991410 0.699066 0.751806
O O13 0.645988 0.155376 0.951996
O O14 0.000000 0.000000 0.000000
O O15 0.000000 0.000000 0.500000
#
# Coordination Sequence:
#
# PCOD9049451 Si02
#       7
#     2   2   2   2   2   2   2
#     4  11  25  48  75 105 153 199 239 309 375 438
#     4  10  25  48  72 108 152 195 249 303 372 444
#     4  12  26  45  77 109 148 195 250 309 365 440
#     4  12  25  48  74 111 148 195 253 302 371 446
#     4  10  24  46  74 108 141 202 242 304 374 431
#     4  11  28  49  70 112 152 193 252 307 369 444
#     4  12  24  47  73 114 151 189 250 306 374 438
#
# _framework density 23.512885000000001
#
# number of rings (size 3 to 8) (size 9 to 14) (size 15 to 20)
#    0.000    0.857    4.286    1.286    8.000    5.143 
#    2.571    0.000    0.000    0.000    0.000    0.000 
#    0.000    0.000    0.000    0.000    0.000    0.000 
#
# Total GULP energy -78438.908108 kJ/mol
# GULP energy per Si atom -5602.779151 kJ/mol
# Density = 2.345937 g / cm^3
# Si number density = 23.512885 Si / 1000 Ang^3
#
#
#
# Elastic Constant Matrix: (Units=GPa)
#
#
# Indices 1 2 3 4 5 6 
#
# 1 154.9311 48.3600 53.7982 -8.8019 -13.1786 28.1500
# 2 48.3600 159.6982 45.7121 -4.6791 2.9173 21.9584
# 3 53.7982 45.7121 92.3893 -4.9576 2.6903 10.2152
# 4 -8.8019 -4.6791 -4.9576 35.2158 7.7653 -2.0943
# 5 -13.1786 2.9173 2.6903 7.7653 48.6864 -1.6665
# 6 28.1500 21.9584 10.2152 -2.0943 -1.6665 34.3015
#
#
#
# Elastic Compliance Matrix: (Units=1/GPa)
#
#
# Indices 1 2 3 4 5 6 
#
# 1 0.009628 -0.000826 -0.004589 0.000732 0.002593 -0.005836
# 2 -0.000826 0.007869 -0.002988 0.000368 -0.000708 -0.003482
# 3 -0.004589 -0.002988 0.014959 0.001078 -0.002021 0.001191
# 4 0.000732 0.000368 0.001078 0.029826 -0.004626 0.000439
# 5 0.002593 -0.000708 -0.002021 -0.004626 0.022124 -0.000280
# 6 -0.005836 -0.003482 0.001191 0.000439 -0.000280 0.035830
#
#
# Mechanical properties :
#
#
# Convention : Reuss Voigt Hill
#
# Bulk Modulus (GPa) = 63.88733 78.08438 70.98586
# Shear Modulus (GPa) = 35.14739 40.91730 38.03234
#
# Velocity S-wave (km/s) = 3.87048 4.17610 4.02619
# Velocity P-wave (km/s) = 6.87054 7.51894 7.20204
#
# Compressibility (1/GPa) = 0.01565256
#
# Stress axis : x y z
#
# Youngs Moduli (GPa) = 103.86315 127.07289 66.84904
#
# Poissons Ratio (x) = 0.10491 0.30677
# Poissons Ratio (y) = 0.08575 0.19971
# Poissons Ratio (z) = 0.47662 0.37964
#
# Static dielectric constant tensor:
#      x y z
#    x 1.885320 -0.006560 -0.034890 
#    y -0.006560 1.896340 0.038050 
#    z -0.034890 0.038050 1.912940 
# 
# From -- ./inp_files/461851.got.cif
#   From: 2010.05.17/outbox.cif.g08.bks.cpg/sg2_231_cif.got.tgz:461851.got - 2010.06.03 11:33:40.
