data_PCOD9049707
_publ_section_title
;
Structure prediction by ZEFSAII (Michael W. Deem and Ramdas Pophale) SiO2 
 PCOD9049707
Probable space group: P -1
;
_chemical_formula_sum "Si O2"
_cell_formula_units_Z 14
_cell_length_a 11.342274
_cell_length_b 13.159237
_cell_length_c 8.152555
_cell_angle_alpha 56.267570
_cell_angle_beta 54.950240
_cell_angle_gamma 31.120828
_cell_volume 508.990457
_symmetry_space_group_name_H-M "P -1"
_symmetry_group_IT_number 2
_symmetry_cell_setting 'triclinic'
loop_
_space_group_symop_operation_xyz
x,y,z
-x,-y,-z
loop_
_atom_site_type_symbol
_atom_site_label
_atom_site_fract_x
_atom_site_fract_y
_atom_site_fract_z
Si Si1 0.780986 0.990987 0.209910
Si Si2 0.821876 0.836151 0.795461
Si Si3 0.861037 0.694367 0.258615
Si Si4 0.191559 0.763351 0.575449
Si Si5 0.679212 0.686779 0.893460
Si Si6 0.274557 0.717158 0.911546
Si Si7 0.583024 0.690474 0.314964
O O1 0.771977 0.849323 0.328312
O O2 0.589459 0.158048 0.075308
O O3 0.710452 0.145298 0.256388
O O4 0.051413 0.839683 0.093619
O O5 0.731085 0.794011 0.783138
O O6 0.055128 0.743570 0.615231
O O7 0.624392 0.071527 0.749346
O O8 0.826734 0.780423 0.028075
O O9 0.735201 0.647339 0.378891
O O10 0.139362 0.485585 0.229338
O O11 0.207218 0.707941 0.799328
O O12 0.444560 0.655657 0.446528
O O13 0.000000 0.000000 0.500000
O O14 0.730135 0.601133 0.109958
O O15 0.500000 0.500000 0.000000
#
# Coordination Sequence:
#
# PCOD9049707 Si02
#       7
#     2   2   2   2   2   2   2
#     4  11  21  39  68  89 129 169 227 263 316 377
#     4  10  17  34  60  94 128 167 217 269 318 384
#     4  11  19  35  60  94 128 171 221 260 316 393
#     4  10  21  39  68  99 136 165 212 276 338 376
#     4  11  20  35  65  99 123 169 225 267 314 388
#     4  11  24  43  69  99 127 174 224 263 319 402
#     4  10  18  34  59  92 138 162 207 274 334 366
#
# _framework density 27.505424999999999
#
# number of rings (size 3 to 8) (size 9 to 14) (size 15 to 20)
#    0.000    1.429    4.286    4.286    0.000    0.000 
#    0.000    3.571   25.143    1.714    0.000    0.000 
#    0.000    0.000    0.000    0.000    0.000    0.000 
#
# Total GULP energy -78238.642097 kJ/mol
# GULP energy per Si atom -5588.474436 kJ/mol
# Density = 2.744282 g / cm^3
# Si number density = 27.505425 Si / 1000 Ang^3
#
#
#
# Elastic Constant Matrix: (Units=GPa)
#
#
# Indices 1 2 3 4 5 6 
#
# 1 137.3799 39.7127 41.8760 -6.2950 -40.1680 14.5976
# 2 39.7127 140.1119 33.1608 -0.7725 -19.5902 -12.3735
# 3 41.8760 33.1608 75.9354 8.1981 -18.9854 -5.0266
# 4 -6.2950 -0.7725 8.1981 39.8760 -12.0911 -14.4877
# 5 -40.1680 -19.5902 -18.9854 -12.0911 54.0232 -7.0118
# 6 14.5976 -12.3735 -5.0266 -14.4877 -7.0118 59.2390
#
#
#
# Elastic Compliance Matrix: (Units=1/GPa)
#
#
# Indices 1 2 3 4 5 6 
#
# 1 0.011536 -0.001288 -0.004554 0.004373 0.007286 -0.001566
# 2 -0.001288 0.008655 -0.002599 0.002099 0.002083 0.002664
# 3 -0.004554 -0.002599 0.017596 -0.003515 0.001245 0.001360
# 4 0.004373 0.002099 -0.003515 0.033027 0.011268 0.008473
# 5 0.007286 0.002083 0.001245 0.011268 0.028272 0.004848
# 6 -0.001566 0.002664 0.001360 0.008473 0.004848 0.020585
#
#
# Mechanical properties :
#
#
# Convention : Reuss Voigt Hill
#
# Bulk Modulus (GPa) = 47.83046 64.76955 56.30001
# Shear Modulus (GPa) = 34.83794 46.53948 40.68871
#
# Velocity S-wave (km/s) = 3.56277 4.11787 3.85034
# Velocity P-wave (km/s) = 5.86103 6.79766 6.34665
#
# Compressibility (1/GPa) = 0.02090718
#
# Stress axis : x y z
#
# Youngs Moduli (GPa) = 86.68173 115.53481 56.83033
#
# Poissons Ratio (x) = 0.14876 0.25880
# Poissons Ratio (y) = 0.11161 0.14770
# Poissons Ratio (z) = 0.39474 0.30027
#
# Static dielectric constant tensor:
#      x y z
#    x 2.133170 0.065400 -0.103170 
#    y 0.065400 2.090430 0.039830 
#    z -0.103170 0.039830 2.189730 
# 
# From -- ./inp_files/431005.got.cif
#   From: 2010.05.17/outbox.cif.g08.bks.cpg/sg2_216_cif.got.tgz:431005.got - 2010.06.03 11:33:40.
