data_PCOD9049879
_publ_section_title
;
Structure prediction by ZEFSAII (Michael W. Deem and Ramdas Pophale) SiO2 
 PCOD9049879
Probable space group: P -1
;
_chemical_formula_sum "Si O2"
_cell_formula_units_Z 16
_cell_length_a 9.073588
_cell_length_b 5.591579
_cell_length_c 16.547837
_cell_angle_alpha 90.056681
_cell_angle_beta 90.596693
_cell_angle_gamma 53.283895
_cell_volume 672.951517
_symmetry_space_group_name_H-M "P -1"
_symmetry_group_IT_number 2
_symmetry_cell_setting 'triclinic'
loop_
_space_group_symop_operation_xyz
x,y,z
-x,-y,-z
loop_
_atom_site_type_symbol
_atom_site_label
_atom_site_fract_x
_atom_site_fract_y
_atom_site_fract_z
Si Si1 0.128105 0.012141 0.182204
Si Si2 0.689673 0.416097 0.967677
Si Si3 0.056820 0.203468 0.603213
Si Si4 0.547795 0.167125 0.706001
Si Si5 0.101424 0.495370 0.921206
Si Si6 0.160367 0.094653 0.419012
Si Si7 0.755185 0.199190 0.255481
Si Si8 0.464494 0.901869 0.851588
O O1 0.213224 0.833660 0.099747
O O2 0.286830 0.849177 0.248623
O O3 0.036155 0.352257 0.154652
O O4 0.950737 0.051169 0.215551
O O5 0.622848 0.716887 0.918467
O O6 0.500000 0.500000 0.000000
O O7 0.822486 0.327905 0.043509
O O8 0.151714 0.112895 0.515925
O O9 0.951262 0.559651 0.611514
O O10 0.204524 0.033195 0.675397
O O11 0.932224 0.076614 0.603508
O O12 0.348233 0.481093 0.702475
O O13 0.529519 0.973182 0.771354
O O14 0.637956 0.059614 0.618323
O O15 0.287019 0.190042 0.892676
O O16 0.000000 0.500000 0.000000
O O17 0.612405 0.269568 0.184714
#
# Coordination Sequence:
#
# PCOD9049879 Si02
#       8
#     2   2   2   2   2   2   2   2
#     4  12  24  45  67  98 137 183 234 301 364 431
#     4  12  24  44  67  95 134 180 238 306 366 432
#     4  10  24  47  78 112 149 194 244 292 359 439
#     4  12  26  45  70 106 144 188 238 300 364 432
#     4  12  24  42  65  95 128 184 236 294 366 431
#     4  10  24  47  78 112 149 195 240 297 360 430
#     4  12  26  45  70 106 142 190 237 296 361 440
#     4  12  26  43  67 104 139 177 244 305 357 440
#
# _framework density 23.775857999999999
#
# number of rings (size 3 to 8) (size 9 to 14) (size 15 to 20)
#    0.000    0.500    3.750    4.500    7.000    0.500 
#    0.000    0.625    0.000    0.000    0.000    0.000 
#    0.000    0.000    0.000    0.000    0.000    0.000 
#
# Total GULP energy -89351.228642 kJ/mol
# GULP energy per Si atom -5584.451790 kJ/mol
# Density = 2.372174 g / cm^3
# Si number density = 23.775858 Si / 1000 Ang^3
#
#
#
# Elastic Constant Matrix: (Units=GPa)
#
#
# Indices 1 2 3 4 5 6 
#
# 1 81.7154 25.5633 31.1671 12.3045 -24.2870 -15.9201
# 2 25.5633 82.0962 19.2646 -5.2952 -14.6600 -8.0087
# 3 31.1671 19.2646 103.3889 -8.2381 -34.4005 -7.2460
# 4 12.3045 -5.2952 -8.2381 43.0282 -8.9360 -4.2982
# 5 -24.2870 -14.6600 -34.4005 -8.9360 39.7767 -2.1886
# 6 -15.9201 -8.0087 -7.2460 -4.2982 -2.1886 30.0090
#
#
#
# Elastic Compliance Matrix: (Units=1/GPa)
#
#
# Indices 1 2 3 4 5 6 
#
# 1 0.018657 -0.003279 -0.001984 -0.003566 0.008141 0.008627
# 2 -0.003279 0.014542 0.000446 0.004139 0.004849 0.003196
# 3 -0.001984 0.000446 0.016011 0.007245 0.014705 0.005042
# 4 -0.003566 0.004139 0.007245 0.029370 0.012547 0.006084
# 5 0.008141 0.004849 0.014705 0.012547 0.048230 0.014478
# 6 0.008627 0.003196 0.005042 0.006084 0.014478 0.041898
#
#
# Mechanical properties :
#
#
# Convention : Reuss Voigt Hill
#
# Bulk Modulus (GPa) = 25.26821 46.57674 35.92247
# Shear Modulus (GPa) = 26.10502 35.30979 30.70740
#
# Velocity S-wave (km/s) = 3.31715 3.85789 3.59770
# Velocity P-wave (km/s) = 5.03210 6.28307 5.69205
#
# Compressibility (1/GPa) = 0.03957542
#
# Stress axis : x y z
#
# Youngs Moduli (GPa) = 53.59807 68.76794 62.45839
#
# Poissons Ratio (x) = 0.22547 0.12394
# Poissons Ratio (y) = 0.17573 -0.02785
# Poissons Ratio (z) = 0.10636 -0.03066
#
# Static dielectric constant tensor:
#      x y z
#    x 2.018790 0.067920 -0.006640 
#    y 0.067920 1.973100 0.028600 
#    z -0.006640 0.028600 1.952190 
# 
# From -- ./inp_files/48012.got.cif
#   From: 2010.05.17/outbox.cif.g08.bks.cpg/sg2_25_cif.got.tgz:48012.got - 2010.06.03 11:33:40.
