data_PCOD9049913
_publ_section_title
;
Structure prediction by ZEFSAII (Michael W. Deem and Ramdas Pophale) SiO2 
 PCOD9049913
Probable space group: P -1
;
_chemical_formula_sum "Si O2"
_cell_formula_units_Z 15
_cell_length_a 10.871019
_cell_length_b 13.382809
_cell_length_c 4.748603
_cell_angle_alpha 78.172056
_cell_angle_beta 70.016470
_cell_angle_gamma 56.934505
_cell_volume 543.955272
_symmetry_space_group_name_H-M "P -1"
_symmetry_group_IT_number 2
_symmetry_cell_setting 'triclinic'
loop_
_space_group_symop_operation_xyz
x,y,z
-x,-y,-z
loop_
_atom_site_type_symbol
_atom_site_label
_atom_site_fract_x
_atom_site_fract_y
_atom_site_fract_z
Si Si1 0.441513 0.658891 0.359505
Si Si2 0.097782 0.031750 0.103907
Si Si3 0.821982 0.803603 0.422805
Si Si4 0.249863 0.524558 0.969149
Si Si5 0.842651 0.565669 0.415665
Si Si6 0.105936 0.741659 0.591604
Si Si7 0.500000 0.000000 0.500000
Si Si8 0.589068 0.188643 0.161924
O O1 0.580671 0.526383 0.255528
O O2 0.274928 0.689794 0.360524
O O3 0.409526 0.723470 0.651002
O O4 0.502918 0.727902 0.074841
O O5 0.141841 0.124107 0.878857
O O6 0.256377 0.908980 0.064609
O O7 0.979613 0.115934 0.385783
O O8 0.000000 0.000000 0.000000
O O9 0.791598 0.703462 0.383391
O O10 0.662850 0.910693 0.610629
O O11 0.971872 0.735136 0.540562
O O12 0.169035 0.471540 0.867102
O O13 0.149537 0.664329 0.890109
O O14 0.253684 0.478809 0.304575
O O15 0.000000 0.500000 0.500000
O O16 0.462400 0.894323 0.603592
#
# Coordination Sequence:
#
# PCOD9049913 Si02
#       8
#     2   2   2   2   2   2   1   2
#     4  12  26  48  73 107 148 195 245 301 371 435
#     4  11  24  46  71 103 145 192 246 306 364 437
#     4  11  25  44  73 105 141 195 241 306 366 443
#     4  12  27  47  77 109 152 195 243 306 368 439
#     4  12  25  49  76 109 150 193 246 303 369 440
#     4  12  27  44  75 107 147 194 250 302 371 440
#     4  10  24  48  66 104 140 186 246 298 360 432
#     4  11  26  47  74 103 146 196 243 305 369 434
#
# _framework density 27.575794999999999
#
# number of rings (size 3 to 8) (size 9 to 14) (size 15 to 20)
#    0.000    0.533    2.667    4.800    5.600    1.600 
#    2.400    2.667    0.000    0.000    0.000    0.000 
#    0.000    0.000    0.000    0.000    0.000    0.000 
#
# Total GULP energy -83631.868528 kJ/mol
# GULP energy per Si atom -5575.457902 kJ/mol
# Density = 2.751303 g / cm^3
# Si number density = 27.575795 Si / 1000 Ang^3
#
#
#
# Elastic Constant Matrix: (Units=GPa)
#
#
# Indices 1 2 3 4 5 6 
#
# 1 103.4034 25.7020 10.8539 16.9843 -7.0088 -6.0054
# 2 25.7020 135.8565 19.1810 22.3615 -13.4686 -21.7641
# 3 10.8539 19.1810 88.3985 -2.4561 9.7336 6.9649
# 4 16.9843 22.3615 -2.4561 44.6710 -0.7697 -9.7160
# 5 -7.0088 -13.4686 9.7336 -0.7697 32.7657 2.8059
# 6 -6.0054 -21.7641 6.9649 -9.7160 2.8059 60.2435
#
#
#
# Elastic Compliance Matrix: (Units=1/GPa)
#
#
# Indices 1 2 3 4 5 6 
#
# 1 0.010831 -0.000988 -0.001480 -0.003621 0.002247 0.000205
# 2 -0.000988 0.009415 -0.002704 -0.003804 0.004132 0.002810
# 3 -0.001480 -0.002704 0.012852 0.002093 -0.005022 -0.002039
# 4 -0.003621 -0.003804 0.002093 0.026255 -0.002546 0.002376
# 5 0.002247 0.004132 -0.005022 -0.002546 0.034105 0.000298
# 6 0.000205 0.002810 -0.002039 0.002376 0.000298 0.018240
#
#
# Mechanical properties :
#
#
# Convention : Reuss Voigt Hill
#
# Bulk Modulus (GPa) = 43.94588 48.79247 46.36917
# Shear Modulus (GPa) = 38.57225 45.66416 42.11820
#
# Velocity S-wave (km/s) = 3.74407 4.07375 3.91239
# Velocity P-wave (km/s) = 5.88742 6.31345 6.10415
#
# Compressibility (1/GPa) = 0.02275526
#
# Stress axis : x y z
#
# Youngs Moduli (GPa) = 92.32845 106.21113 77.80603
#
# Poissons Ratio (x) = 0.10499 0.11512
# Poissons Ratio (y) = 0.09126 0.21036
# Poissons Ratio (z) = 0.13661 0.28715
#
# Static dielectric constant tensor:
#      x y z
#    x 2.128240 -0.010870 -0.073080 
#    y -0.010870 2.015580 -0.054730 
#    z -0.073080 -0.054730 2.123980 
# 
# From -- ./inp_files/75678.got.cif
#   From: 2010.05.17/outbox.cif.g08.bks.cpg/sg2_38_cif.got.tgz:75678.got - 2010.06.03 11:33:40.
