data_PCOD9049589
_publ_section_title
;
Structure prediction by ZEFSAII (Michael W. Deem and Ramdas Pophale) SiO2 
 PCOD9049589
Probable space group: P -1
;
_chemical_formula_sum "Si O2"
_cell_formula_units_Z 16
_cell_length_a 15.110003
_cell_length_b 9.467968
_cell_length_c 11.790979
_cell_angle_alpha 48.123624
_cell_angle_beta 113.963889
_cell_angle_gamma 142.388566
_cell_volume 738.096307
_symmetry_space_group_name_H-M "P -1"
_symmetry_group_IT_number 2
_symmetry_cell_setting 'triclinic'
loop_
_space_group_symop_operation_xyz
x,y,z
-x,-y,-z
loop_
_atom_site_type_symbol
_atom_site_label
_atom_site_fract_x
_atom_site_fract_y
_atom_site_fract_z
Si Si1 0.254341 0.305033 0.164579
Si Si2 0.641477 0.854194 0.383693
Si Si3 0.573375 0.901218 0.079373
Si Si4 0.135763 0.352021 0.878976
Si Si5 0.072355 0.673167 0.325910
Si Si6 0.297736 0.777702 0.246344
Si Si7 0.577721 0.129563 0.349727
Si Si8 0.842659 0.817727 0.570935
O O1 0.429158 0.555933 0.156130
O O2 0.157356 0.187827 0.290326
O O3 0.192962 0.021724 0.227152
O O4 0.224657 0.438515 0.994357
O O5 0.500000 0.500000 0.500000
O O6 0.644829 0.946226 0.210410
O O7 0.783070 0.933608 0.441892
O O8 0.616139 0.981877 0.394232
O O9 0.500000 0.000000 0.000000
O O10 0.690664 0.091806 0.935330
O O11 0.263617 0.521779 0.757976
O O12 0.053625 0.425842 0.769205
O O13 0.000000 0.000000 0.000000
O O14 0.162665 0.643848 0.326554
O O15 0.000000 0.500000 0.500000
O O16 0.274965 0.521586 0.346189
O O17 0.455572 0.040919 0.251127
O O18 0.500000 0.000000 0.500000
O O19 0.000000 0.000000 0.500000
#
# Coordination Sequence:
#
# PCOD9049589 Si02
#       8
#     2   2   2   2   2   2   2   2
#     4  11  22  45  72  93 141 188 224 294 355 413
#     4  12  24  46  72 103 139 186 230 298 353 409
#     4  12  21  45  72 100 140 175 237 295 338 418
#     4  10  24  47  67  99 145 187 227 289 370 413
#     4  11  26  45  67 103 145 181 234 297 359 419
#     4  12  25  45  69 104 137 184 238 291 344 424
#     4  12  25  42  76 104 138 182 245 287 352 425
#     4  12  27  45  69 104 142 183 239 288 354 425
#
# _framework density 21.677388000000001
#
# number of rings (size 3 to 8) (size 9 to 14) (size 15 to 20)
#    0.000    0.500    6.250    1.500    5.250    2.500 
#    4.500    1.250    0.000    0.000    0.000    0.000 
#    0.000    0.000    0.000    0.000    0.000    0.000 
#
# Total GULP energy -89497.761545 kJ/mol
# GULP energy per Si atom -5593.610097 kJ/mol
# Density = 2.162805 g / cm^3
# Si number density = 21.677388 Si / 1000 Ang^3
#
#
#
# Elastic Constant Matrix: (Units=GPa)
#
#
# Indices 1 2 3 4 5 6 
#
# 1 124.6929 26.2617 67.4745 23.7728 -12.1670 7.3936
# 2 26.2617 69.1889 35.6130 -3.0821 -3.6920 -1.5618
# 3 67.4745 35.6130 150.2974 17.9128 -14.8987 0.3084
# 4 23.7728 -3.0821 17.9128 44.8638 4.4528 -1.7641
# 5 -12.1670 -3.6920 -14.8987 4.4528 42.3686 -0.4208
# 6 7.3936 -1.5618 0.3084 -1.7641 -0.4208 34.0709
#
#
#
# Elastic Compliance Matrix: (Units=1/GPa)
#
#
# Indices 1 2 3 4 5 6 
#
# 1 0.012173 -0.002788 -0.003910 -0.005438 0.002420 -0.002986
# 2 -0.002788 0.017484 -0.003491 0.004230 -0.000933 0.001646
# 3 -0.003910 -0.003491 0.009725 -0.002253 0.002234 0.000511
# 4 -0.005438 0.004230 -0.002253 0.026944 -0.004790 0.002730
# 5 0.002420 -0.000933 0.002234 -0.004790 0.025500 -0.000521
# 6 -0.002986 0.001646 0.000511 0.002730 -0.000521 0.030204
#
#
# Mechanical properties :
#
#
# Convention : Reuss Voigt Hill
#
# Bulk Modulus (GPa) = 52.62304 66.98641 59.80472
# Shear Modulus (GPa) = 33.61501 38.58266 36.09884
#
# Velocity S-wave (km/s) = 3.94216 4.22341 4.08521
# Velocity P-wave (km/s) = 6.71186 7.39943 7.06401
#
# Compressibility (1/GPa) = 0.01900308
#
# Stress axis : x y z
#
# Youngs Moduli (GPa) = 82.15135 57.19438 102.82813
#
# Poissons Ratio (x) = 0.15947 0.40206
# Poissons Ratio (y) = 0.22906 0.35898
# Poissons Ratio (z) = 0.32121 0.19967
#
# Static dielectric constant tensor:
#      x y z
#    x 1.758300 0.012560 -0.012780 
#    y 0.012560 1.866440 -0.054060 
#    z -0.012780 -0.054060 1.844700 
# 
# From -- ./inp_files/446810.got.cif
#   From: 2010.05.17/outbox.cif.g08.bks.cpg/sg2_224_cif.got.tgz:446810.got - 2010.06.03 11:33:40.
