data_PCOD9049056
_publ_section_title
;
Structure prediction by ZEFSAII (Michael W. Deem and Ramdas Pophale) SiO2 
 PCOD9049056
Probable space group: P -1
;
_chemical_formula_sum "Si O2"
_cell_formula_units_Z 13
_cell_length_a 17.526338
_cell_length_b 21.110484
_cell_length_c 9.961299
_cell_angle_alpha 146.426654
_cell_angle_beta 30.287555
_cell_angle_gamma 162.068483
_cell_volume 570.678171
_symmetry_space_group_name_H-M "P -1"
_symmetry_group_IT_number 2
_symmetry_cell_setting 'triclinic'
loop_
_space_group_symop_operation_xyz
x,y,z
-x,-y,-z
loop_
_atom_site_type_symbol
_atom_site_label
_atom_site_fract_x
_atom_site_fract_y
_atom_site_fract_z
Si Si1 0.722220 0.040819 0.235575
Si Si2 0.477977 0.445593 0.589741
Si Si3 0.372286 0.119129 0.192054
Si Si4 0.109460 0.812870 0.296084
Si Si5 0.728375 0.911229 0.250161
Si Si6 0.322831 0.474265 0.132634
Si Si7 0.000000 0.500000 0.000000
O O1 0.500000 0.000000 0.500000
O O2 0.659621 0.896924 0.176472
O O3 0.002575 0.266402 0.271477
O O4 0.735289 0.999956 0.994048
O O5 0.500000 0.500000 0.500000
O O6 0.329780 0.230235 0.455366
O O7 0.354949 0.459346 0.902637
O O8 0.790743 0.632847 0.488354
O O9 0.700425 0.315909 0.053148
O O10 0.222182 0.955041 0.249443
O O11 0.123254 0.684980 0.046299
O O12 0.241175 0.952743 0.474079
O O13 0.470936 0.685816 0.307860
O O14 0.000000 0.000000 0.000000
O O15 0.500000 0.500000 0.000000
#
# Coordination Sequence:
#
# PCOD9049056 Si02
#       7
#     2   2   2   2   2   2   1
#     4  12  28  47  68 107 151 191 242 304 362 428
#     4  11  23  39  65 103 140 176 236 299 356 420
#     4  11  25  42  73 102 143 189 244 297 364 430
#     4  11  23  43  70 103 136 187 239 300 356 434
#     4  12  24  45  74 104 147 191 241 297 365 436
#     4  12  24  43  72 104 142 193 240 290 364 436
#     4  10  24  46  68 100 144 190 242 288 370 440
#
# _framework density 22.779913000000001
#
# number of rings (size 3 to 8) (size 9 to 14) (size 15 to 20)
#    0.000    0.615    3.077    4.154    0.000    6.769 
#    0.000    0.000    0.000    0.000    0.000    0.000 
#    0.000    0.000    0.000    0.000    0.000    0.000 
#
# Total GULP energy -72416.582805 kJ/mol
# GULP energy per Si atom -5570.506370 kJ/mol
# Density = 2.272807 g / cm^3
# Si number density = 22.779913 Si / 1000 Ang^3
#
#
#
# Elastic Constant Matrix: (Units=GPa)
#
#
# Indices 1 2 3 4 5 6 
#
# 1 121.4640 41.7305 26.9517 5.4785 2.2197 -25.2848
# 2 41.7305 167.1597 27.9673 26.4500 -13.5182 -7.3824
# 3 26.9517 27.9673 53.7922 12.6020 7.7151 -12.1162
# 4 5.4785 26.4500 12.6020 28.4439 0.9194 -12.6802
# 5 2.2197 -13.5182 7.7151 0.9194 38.0636 -6.0140
# 6 -25.2848 -7.3824 -12.1162 -12.6802 -6.0140 58.5092
#
#
#
# Elastic Compliance Matrix: (Units=1/GPa)
#
#
# Indices 1 2 3 4 5 6 
#
# 1 0.010683 -0.002429 -0.004022 0.003910 -0.000083 0.004316
# 2 -0.002429 0.008303 -0.002312 -0.007080 0.003468 -0.001659
# 3 -0.004022 -0.002312 0.024484 -0.007348 -0.005228 0.000911
# 4 0.003910 -0.007080 -0.007348 0.048604 -0.000892 0.009716
# 5 -0.000083 0.003468 -0.005228 -0.000892 0.028921 0.002099
# 6 0.004316 -0.001659 0.000911 0.009716 0.002099 0.021257
#
#
# Mechanical properties :
#
#
# Convention : Reuss Voigt Hill
#
# Bulk Modulus (GPa) = 38.54415 59.52388 49.03401
# Shear Modulus (GPa) = 29.68664 41.38777 35.53720
#
# Velocity S-wave (km/s) = 3.61389 4.26708 3.95400
# Velocity P-wave (km/s) = 5.86264 7.10380 6.51286
#
# Compressibility (1/GPa) = 0.02594427
#
# Stress axis : x y z
#
# Youngs Moduli (GPa) = 93.60264 120.43761 40.84378
#
# Poissons Ratio (x) = 0.29253 0.16426
# Poissons Ratio (y) = 0.22735 0.09444
# Poissons Ratio (z) = 0.37645 0.27848
#
# Static dielectric constant tensor:
#      x y z
#    x 2.003130 -0.354830 -0.004410 
#    y -0.354830 2.654640 -0.102950 
#    z -0.004410 -0.102950 1.827260 
# 
# From -- ./inp_files/131980.got.cif
#   From: 2010.05.17/outbox.cif.g08.bks.cpg/sg2_66_cif.got.tgz:131980.got - 2010.06.03 11:33:40.
