data_PCOD9049061
_publ_section_title
;
Structure prediction by ZEFSAII (Michael W. Deem and Ramdas Pophale) SiO2 
 PCOD9049061
Probable space group: P -1
;
_chemical_formula_sum "Si O2"
_cell_formula_units_Z 14
_cell_length_a 13.553032
_cell_length_b 18.475462
_cell_length_c 25.880503
_cell_angle_alpha 15.288194
_cell_angle_beta 155.846009
_cell_angle_gamma 148.414570
_cell_volume 674.715370
_symmetry_space_group_name_H-M "P -1"
_symmetry_group_IT_number 2
_symmetry_cell_setting 'triclinic'
loop_
_space_group_symop_operation_xyz
x,y,z
-x,-y,-z
loop_
_atom_site_type_symbol
_atom_site_label
_atom_site_fract_x
_atom_site_fract_y
_atom_site_fract_z
Si Si1 0.354515 0.142008 0.752374
Si Si2 0.485229 0.706055 0.026067
Si Si3 0.090162 0.276108 0.866589
Si Si4 0.211355 0.764224 0.032784
Si Si5 0.322334 0.306824 0.065078
Si Si6 0.364218 0.910409 0.446463
Si Si7 0.973503 0.311356 0.251473
O O1 0.591937 0.211681 0.845575
O O2 0.129017 0.429132 0.443803
O O3 0.422025 0.992202 0.832389
O O4 0.284157 0.904491 0.919042
O O5 0.690361 0.705149 0.080936
O O6 0.586336 0.426514 0.301515
O O7 0.241813 0.655056 0.917046
O O8 0.200678 0.227810 0.010080
O O9 0.000000 0.000000 0.000000
O O10 0.190492 0.438806 0.244207
O O11 0.931995 0.954581 0.780900
O O12 0.451043 0.046174 0.343370
O O13 0.500000 0.500000 0.000000
O O14 0.115636 0.499331 0.870918
O O15 0.500000 0.000000 0.500000
O O16 0.000000 0.000000 0.500000
#
# Coordination Sequence:
#
# PCOD9049061 Si02
#       7
#     2   2   2   2   2   2   2
#     4  11  27  46  71 106 146 186 241 292 362 432
#     4  12  25  46  75 103 138 193 238 293 357 422
#     4  12  28  47  71 105 147 188 233 298 361 426
#     4  10  24  46  68 102 148 185 238 300 347 429
#     4  11  23  42  70 102 137 183 234 292 350 419
#     4  11  21  45  74 100 140 186 241 289 349 425
#     4  11  24  42  69 103 141 183 239 295 353 418
#
# _framework density 20.749490999999999
#
# number of rings (size 3 to 8) (size 9 to 14) (size 15 to 20)
#    0.000    0.857    5.714    0.857    6.000    5.143 
#    0.000    0.000    0.000    0.000    0.000    0.000 
#    0.000    0.000    0.000    0.000    0.000    0.000 
#
# Total GULP energy -78218.545823 kJ/mol
# GULP energy per Si atom -5587.038987 kJ/mol
# Density = 2.070226 g / cm^3
# Si number density = 20.749491 Si / 1000 Ang^3
#
#
#
# Elastic Constant Matrix: (Units=GPa)
#
#
# Indices 1 2 3 4 5 6 
#
# 1 90.4584 59.3338 55.6904 8.0659 -9.6013 -15.5668
# 2 59.3338 146.2416 58.4558 6.3300 -9.1150 -7.9043
# 3 55.6904 58.4558 92.9748 -16.8191 -19.5148 -7.2418
# 4 8.0659 6.3300 -16.8191 36.6763 0.1371 -1.0888
# 5 -9.6013 -9.1150 -19.5148 0.1371 40.5151 -6.2549
# 6 -15.5668 -7.9043 -7.2418 -1.0888 -6.2549 41.7089
#
#
#
# Elastic Compliance Matrix: (Units=1/GPa)
#
#
# Indices 1 2 3 4 5 6 
#
# 1 0.023408 -0.003367 -0.013606 -0.010645 -0.000906 0.005323
# 2 -0.003367 0.010454 -0.005485 -0.003590 -0.001152 -0.000495
# 3 -0.013606 -0.005485 0.027146 0.016365 0.008610 0.000314
# 4 -0.010645 -0.003590 0.016365 0.037709 0.004399 -0.000168
# 5 -0.000906 -0.001152 0.008610 0.004399 0.029179 0.005429
# 6 0.005323 -0.000495 0.000314 -0.000168 0.005429 0.026733
#
#
# Mechanical properties :
#
#
# Convention : Reuss Voigt Hill
#
# Bulk Modulus (GPa) = 62.14237 75.18165 68.66201
# Shear Modulus (GPa) = 24.40110 34.19307 29.29709
#
# Velocity S-wave (km/s) = 3.43299 4.06384 3.76166
# Velocity P-wave (km/s) = 6.76223 7.63750 7.21315
#
# Compressibility (1/GPa) = 0.01609208
#
# Stress axis : x y z
#
# Youngs Moduli (GPa) = 42.71954 95.66160 36.83783
#
# Poissons Ratio (x) = 0.32209 0.50120
# Poissons Ratio (y) = 0.14384 0.20207
# Poissons Ratio (z) = 0.58122 0.52474
#
# Static dielectric constant tensor:
#      x y z
#    x 1.793980 0.047310 -0.027980 
#    y 0.047310 1.715380 -0.018880 
#    z -0.027980 -0.018880 1.829750 
# 
# From -- ./inp_files/261613.got.cif
#   From: 2010.05.17/outbox.cif.g08.bks.cpg/sg2_131_cif.got.tgz:261613.got - 2010.06.03 11:33:40.
