data_PCOD9049510
_publ_section_title
;
Structure prediction by ZEFSAII (Michael W. Deem and Ramdas Pophale) SiO2 
 PCOD9049510
Probable space group: P -1
;
_chemical_formula_sum "Si O2"
_cell_formula_units_Z 15
_cell_length_a 9.523623
_cell_length_b 18.951745
_cell_length_c 10.249501
_cell_angle_alpha 154.662907
_cell_angle_beta 53.373661
_cell_angle_gamma 127.828814
_cell_volume 620.379642
_symmetry_space_group_name_H-M "P -1"
_symmetry_group_IT_number 2
_symmetry_cell_setting 'triclinic'
loop_
_space_group_symop_operation_xyz
x,y,z
-x,-y,-z
loop_
_atom_site_type_symbol
_atom_site_label
_atom_site_fract_x
_atom_site_fract_y
_atom_site_fract_z
Si Si1 0.683057 0.499787 0.319589
Si Si2 0.867698 0.319369 0.281902
Si Si3 0.000000 0.000000 0.000000
Si Si4 0.798739 0.767941 0.485019
Si Si5 0.437318 0.120713 0.629213
Si Si6 0.833474 0.203265 0.816757
Si Si7 0.178083 0.240007 0.119040
Si Si8 0.468037 0.689693 0.362034
O O1 0.500000 0.500000 0.500000
O O2 0.713171 0.598059 0.330997
O O3 0.828167 0.612806 0.527581
O O4 0.727456 0.316928 0.979079
O O5 0.707077 0.324449 0.476448
O O6 0.000000 0.500000 0.500000
O O7 0.000180 0.210302 0.083773
O O8 0.807386 0.259574 0.072270
O O9 0.881564 0.899750 0.772457
O O10 0.833128 0.925683 0.065109
O O11 0.636945 0.793297 0.524636
O O12 0.963816 0.754223 0.275993
O O13 0.551031 0.205781 0.585154
O O14 0.500000 0.000000 0.500000
O O15 0.257578 0.992776 0.464207
O O16 0.358057 0.270828 0.989121
O O17 0.500000 0.500000 0.000000
#
# Coordination Sequence:
#
# PCOD9049510 Si02
#       8
#     2   2   1   2   2   2   2   2
#     4  11  24  43  74 107 153 203 260 322 384 469
#     4  12  26  49  76 111 154 203 261 321 395 466
#     4  10  24  46  76 106 148 204 252 318 376 470
#     4  11  25  47  77 110 153 206 267 314 396 460
#     4  12  29  48  77 116 161 198 258 329 394 466
#     4  12  25  46  75 111 152 205 255 324 393 464
#     4  11  24  46  74 103 156 201 249 314 393 464
#     4  12  30  50  80 115 156 210 266 325 391 485
#
# _framework density 24.178743000000001
#
# number of rings (size 3 to 8) (size 9 to 14) (size 15 to 20)
#    0.000    0.533    2.667    4.400    7.467    2.667 
#    0.000    0.000    0.000    0.000    0.000    0.000 
#    0.000    0.000    0.000    0.000    0.000    0.000 
#
# Total GULP energy -83585.838077 kJ/mol
# GULP energy per Si atom -5572.389205 kJ/mol
# Density = 2.412371 g / cm^3
# Si number density = 24.178743 Si / 1000 Ang^3
#
#
#
# Elastic Constant Matrix: (Units=GPa)
#
#
# Indices 1 2 3 4 5 6 
#
# 1 93.9864 44.2554 33.9054 -14.7736 -8.6738 -2.7169
# 2 44.2554 200.6115 46.6007 -34.7486 -15.9914 -1.3682
# 3 33.9054 46.6007 75.1669 -12.8332 7.5702 -8.4612
# 4 -14.7736 -34.7486 -12.8332 47.1396 9.5510 -4.1227
# 5 -8.6738 -15.9914 7.5702 9.5510 41.0340 -4.4487
# 6 -2.7169 -1.3682 -8.4612 -4.1227 -4.4487 45.1486
#
#
#
# Elastic Compliance Matrix: (Units=1/GPa)
#
#
# Indices 1 2 3 4 5 6 
#
# 1 0.013709 -0.001288 -0.005469 0.001239 0.003136 0.000183
# 2 -0.001288 0.006771 -0.003283 0.003246 0.002219 0.000028
# 3 -0.005469 -0.003283 0.019198 0.002609 -0.006282 0.002789
# 4 0.001239 0.003246 0.002609 0.025882 -0.004701 0.002562
# 5 0.003136 0.002219 -0.006282 -0.004701 0.028307 0.001439
# 6 0.000183 0.000028 0.002789 0.002562 0.001439 0.023059
#
#
# Mechanical properties :
#
#
# Convention : Reuss Voigt Hill
#
# Bulk Modulus (GPa) = 51.02556 68.80974 59.91765
# Shear Modulus (GPa) = 34.83414 42.99800 38.91607
#
# Velocity S-wave (km/s) = 3.79976 4.22161 4.01623
# Velocity P-wave (km/s) = 6.35612 7.23071 6.80748
#
# Compressibility (1/GPa) = 0.01959802
#
# Stress axis : x y z
#
# Youngs Moduli (GPa) = 72.94696 147.69022 52.08921
#
# Poissons Ratio (x) = 0.19022 0.28486
# Poissons Ratio (y) = 0.09395 0.17100
# Poissons Ratio (z) = 0.39893 0.48485
#
# Static dielectric constant tensor:
#      x y z
#    x 1.958800 -0.035650 0.041630 
#    y -0.035650 1.909140 0.010160 
#    z 0.041630 0.010160 1.883810 
# 
# From -- ./inp_files/219001.got.cif
#   From: 2010.05.17/outbox.cif.g08.bks.cpg/sg2_110_cif.got.tgz:219001.got - 2010.06.03 11:33:40.
