data_PCOD9049949
_publ_section_title
;
Structure prediction by ZEFSAII (Michael W. Deem and Ramdas Pophale) SiO2 
 PCOD9049949
Probable space group: P -1
;
_chemical_formula_sum "Si O2"
_cell_formula_units_Z 13
_cell_length_a 9.489116
_cell_length_b 9.090319
_cell_length_c 12.149006
_cell_angle_alpha 37.948360
_cell_angle_beta 71.214510
_cell_angle_gamma 79.415090
_cell_volume 605.658953
_symmetry_space_group_name_H-M "P -1"
_symmetry_group_IT_number 2
_symmetry_cell_setting 'triclinic'
loop_
_space_group_symop_operation_xyz
x,y,z
-x,-y,-z
loop_
_atom_site_type_symbol
_atom_site_label
_atom_site_fract_x
_atom_site_fract_y
_atom_site_fract_z
Si Si1 0.715198 0.325580 0.022280
Si Si2 0.823465 0.919651 0.095994
Si Si3 0.000000 0.500000 0.000000
Si Si4 0.649864 0.990598 0.897333
Si Si5 0.124542 0.816879 0.580969
Si Si6 0.851531 0.456099 0.489121
Si Si7 0.599405 0.825294 0.756154
O O1 0.577892 0.189031 0.208287
O O2 0.746322 0.147363 0.021929
O O3 0.869139 0.401359 0.000696
O O4 0.653600 0.572911 0.856153
O O5 0.793563 0.704489 0.318608
O O6 0.761430 0.859411 0.024646
O O7 0.000000 0.000000 0.000000
O O8 0.094164 0.656222 0.789035
O O9 0.730067 0.259825 0.692464
O O10 0.624400 0.860825 0.861999
O O11 0.500000 0.000000 0.000000
O O12 0.105825 0.662239 0.565983
O O13 0.290229 0.962611 0.450481
O O14 0.000000 0.000000 0.500000
O O15 0.000000 0.500000 0.500000
#
# Coordination Sequence:
#
# PCOD9049949 Si02
#       7
#     2   2   1   2   2   2   2
#     4  11  25  44  71 103 140 189 231 293 352 423
#     4  12  25  43  73 105 142 187 241 285 359 421
#     4  12  26  42  74 102 138 184 240 286 348 422
#     4  11  24  47  72 100 142 187 230 298 351 417
#     4  11  25  44  71 100 140 185 234 290 350 414
#     4  11  26  43  70 105 139 185 236 290 350 418
#     4  10  24  48  70 103 145 184 237 289 364 414
#
# _framework density 21.464226
#
# number of rings (size 3 to 8) (size 9 to 14) (size 15 to 20)
#    0.000    0.923    4.615    0.923    6.462    1.231 
#    0.000    0.000    0.000    0.000    0.000    0.000 
#    0.000    0.000    0.000    0.000    0.000    0.000 
#
# Total GULP energy -72442.308386 kJ/mol
# GULP energy per Si atom -5572.485260 kJ/mol
# Density = 2.141537 g / cm^3
# Si number density = 21.464226 Si / 1000 Ang^3
#
#
#
# Elastic Constant Matrix: (Units=GPa)
#
#
# Indices 1 2 3 4 5 6 
#
# 1 60.0323 -5.3130 12.3026 -11.2441 -9.5316 2.3470
# 2 -5.3130 68.4094 22.7771 -17.7825 6.1482 -27.2844
# 3 12.3026 22.7771 135.3193 11.3719 -8.2043 -7.8229
# 4 -11.2441 -17.7825 11.3719 25.8434 5.6150 -9.9696
# 5 -9.5316 6.1482 -8.2043 5.6150 31.9918 4.7473
# 6 2.3470 -27.2844 -7.8229 -9.9696 4.7473 21.5235
#
#
#
# Elastic Compliance Matrix: (Units=1/GPa)
#
#
# Indices 1 2 3 4 5 6 
#
# 1 0.017210 -0.007102 -0.000227 -0.005433 0.009705 -0.015619
# 2 -0.007102 -0.023963 0.006838 -0.047830 0.020624 -0.053820
# 3 -0.000227 0.006838 0.006214 0.008776 -0.003677 0.015827
# 4 -0.005433 -0.047830 0.008776 -0.037694 0.028396 -0.080573
# 5 0.009705 0.020624 -0.003677 0.028396 0.019419 0.032619
# 6 -0.015619 -0.053820 0.015827 -0.080573 0.032619 -0.058824
#
#
# Mechanical properties :
#
#
# Convention : Reuss Voigt Hill
#
# Bulk Modulus (GPa) = -657.20594 35.92159 -310.64218
# Shear Modulus (GPa) = -64.79779 31.47136 -16.66321
#
# Velocity S-wave (km/s) = -5.50039 3.83328 -2.78928
# Velocity P-wave (km/s) = 18.63305 6.03026 12.46648
#
# Compressibility (1/GPa) = -0.00152159
#
# Stress axis : x y z
#
# Youngs Moduli (GPa) = 58.10676 -41.73171 160.92201
#
# Poissons Ratio (x) = -0.29637 0.03656
# Poissons Ratio (y) = 0.41267 -1.10032
# Poissons Ratio (z) = 0.01320 0.28535
#
# Static dielectric constant tensor:
#      x y z
#    x 1.519670 -0.016190 -0.286850 
#    y -0.016190 1.778060 -0.041020 
#    z -0.286850 -0.041020 1.503830 
# 
# From -- ./inp_files/301827.got.cif
#   From: 2010.05.17/outbox.cif.g08.bks.cpg/sg2_151_cif.got.tgz:301827.got - 2010.06.03 11:33:40.
