data_PCOD9049328
_publ_section_title
;
Structure prediction by ZEFSAII (Michael W. Deem and Ramdas Pophale) SiO2 
 PCOD9049328
Probable space group: P -1
;
_chemical_formula_sum "Si O2"
_cell_formula_units_Z 12
_cell_length_a 15.409335
_cell_length_b 12.268791
_cell_length_c 5.570865
_cell_angle_alpha 103.504613
_cell_angle_beta 84.708116
_cell_angle_gamma 33.551265
_cell_volume 478.618328
_symmetry_space_group_name_H-M "P -1"
_symmetry_group_IT_number 2
_symmetry_cell_setting 'triclinic'
loop_
_space_group_symop_operation_xyz
x,y,z
-x,-y,-z
loop_
_atom_site_type_symbol
_atom_site_label
_atom_site_fract_x
_atom_site_fract_y
_atom_site_fract_z
Si Si1 0.602896 0.287876 0.022757
Si Si2 0.536689 0.124548 0.689547
Si Si3 0.147022 0.585703 0.998324
Si Si4 0.635426 0.547508 0.468105
Si Si5 0.006292 0.113903 0.436524
Si Si6 0.093754 0.431985 0.687607
O O1 0.585335 0.185647 0.845289
O O2 0.500000 0.500000 0.000000
O O3 0.501966 0.386168 0.352889
O O4 0.819240 0.072732 0.877207
O O5 0.331169 0.319220 0.929253
O O6 0.495919 0.202048 0.459268
O O7 0.699084 0.852232 0.524886
O O8 0.236824 0.599479 0.880568
O O9 0.091323 0.568809 0.787128
O O10 0.978370 0.807164 0.323923
O O11 0.799987 0.368608 0.523762
O O12 0.000000 0.000000 0.500000
O O13 0.000000 0.500000 0.500000
O O14 0.000000 0.500000 0.000000
#
# Coordination Sequence:
#
# PCOD9049328 Si02
#       6
#     2   2   2   2   2   2
#     4  12  24  45  71 105 149 193 253 314 376 455
#     4  10  25  46  70 103 146 194 249 309 379 446
#     4  10  25  48  70 106 149 197 251 313 382 448
#     4  10  24  46  72 105 146 199 251 308 385 444
#     4  12  24  46  72 107 150 196 250 310 379 454
#     4  12  29  46  77 118 148 202 259 316 387 461
#
# _framework density 25.072168999999999
#
# number of rings (size 3 to 8) (size 9 to 14) (size 15 to 20)
#    1.000    0.000    3.333    1.500    7.000    2.667 
#    0.000    3.333    0.000    0.000    0.000    0.000 
#    0.000    0.000    0.000    0.000    0.000    0.000 
#
# Total GULP energy -66928.808475 kJ/mol
# GULP energy per Si atom -5577.400706 kJ/mol
# Density = 2.501510 g / cm^3
# Si number density = 25.072169 Si / 1000 Ang^3
#
#
#
# Elastic Constant Matrix: (Units=GPa)
#
#
# Indices 1 2 3 4 5 6 
#
# 1 104.0713 23.8566 42.1036 12.2802 11.2743 -6.5301
# 2 23.8566 118.8842 34.8208 1.7171 8.8522 -0.9751
# 3 42.1036 34.8208 117.3419 14.2052 -21.7628 1.8797
# 4 12.2802 1.7171 14.2052 25.6857 2.9076 -3.9175
# 5 11.2743 8.8522 -21.7628 2.9076 55.3350 1.6586
# 6 -6.5301 -0.9751 1.8797 -3.9175 1.6586 34.5556
#
#
#
# Elastic Compliance Matrix: (Units=1/GPa)
#
#
# Indices 1 2 3 4 5 6 
#
# 1 0.012668 -0.000735 -0.004878 -0.002427 -0.004332 0.002571
# 2 -0.000735 0.009752 -0.003421 0.002023 -0.002883 0.000690
# 3 -0.004878 -0.003421 0.013409 -0.006097 0.007219 -0.002785
# 4 -0.002427 0.002023 -0.006097 0.044661 -0.004730 0.005220
# 5 -0.004332 -0.002883 0.007219 -0.004730 0.022590 -0.002913
# 6 0.002571 0.000690 -0.002785 0.005220 -0.002913 0.030327
#
#
# Mechanical properties :
#
#
# Convention : Reuss Voigt Hill
#
# Bulk Modulus (GPa) = 56.30098 60.20662 58.25380
# Shear Modulus (GPa) = 31.76725 39.08300 35.42513
#
# Velocity S-wave (km/s) = 3.56340 3.95247 3.76297
# Velocity P-wave (km/s) = 6.27971 6.70036 6.49344
#
# Compressibility (1/GPa) = 0.01776168
#
# Stress axis : x y z
#
# Youngs Moduli (GPa) = 78.94136 102.54285 74.57657
#
# Poissons Ratio (x) = 0.07533 0.36379
# Poissons Ratio (y) = 0.05799 0.25512
# Poissons Ratio (z) = 0.38508 0.35079
#
# Static dielectric constant tensor:
#      x y z
#    x 2.080580 -0.045490 0.018550 
#    y -0.045490 2.039000 -0.098220 
#    z 0.018550 -0.098220 2.012130 
# 
# From -- ./inp_files/110108.got.cif
#   From: 2010.05.17/outbox.cif.g08.bks.cpg/sg2_56_cif.got.tgz:110108.got - 2010.06.03 11:33:40.
