data_PCOD9049592
_publ_section_title
;
Structure prediction by ZEFSAII (Michael W. Deem and Ramdas Pophale) SiO2 
 PCOD9049592
Probable space group: P -1
;
_chemical_formula_sum "Si O2"
_cell_formula_units_Z 16
_cell_length_a 12.907897
_cell_length_b 8.629108
_cell_length_c 18.540678
_cell_angle_alpha 137.831709
_cell_angle_beta 35.349560
_cell_angle_gamma 143.233796
_cell_volume 691.796101
_symmetry_space_group_name_H-M "P -1"
_symmetry_group_IT_number 2
_symmetry_cell_setting 'triclinic'
loop_
_space_group_symop_operation_xyz
x,y,z
-x,-y,-z
loop_
_atom_site_type_symbol
_atom_site_label
_atom_site_fract_x
_atom_site_fract_y
_atom_site_fract_z
Si Si1 0.881671 0.684334 0.938369
Si Si2 0.121888 0.849131 0.395785
Si Si3 0.968985 0.346014 0.389946
Si Si4 0.460453 0.911556 0.834054
Si Si5 0.834556 0.581824 0.091188
Si Si6 0.734640 0.375354 0.299372
Si Si7 0.200899 0.164970 0.107575
Si Si8 0.329140 0.142233 0.528716
O O1 0.753219 0.663514 0.932752
O O2 0.050637 0.600805 0.795273
O O3 0.787615 0.541731 0.018723
O O4 0.000000 0.000000 0.000000
O O5 0.972319 0.539924 0.393092
O O6 0.296288 0.920648 0.260942
O O7 0.241818 0.979778 0.447581
O O8 0.000000 0.000000 0.500000
O O9 0.000000 0.500000 0.500000
O O10 0.164120 0.308921 0.245447
O O11 0.764960 0.061040 0.422041
O O12 0.377479 0.622682 0.818664
O O13 0.353617 0.837935 0.790007
O O14 0.365212 0.065341 0.984547
O O15 0.970176 0.900175 0.137149
O O16 0.000000 0.500000 0.000000
O O17 0.574374 0.289690 0.426898
O O18 0.747647 0.643352 0.353369
#
# Coordination Sequence:
#
# PCOD9049592 Si02
#       8
#     2   2   2   2   2   2   2   2
#     4  10  18  31  52  92 130 145 171 237 305 364
#     4  10  23  42  56  80 117 160 207 246 280 334
#     4  10  22  42  59  78 111 163 209 241 281 344
#     4  10  19  36  61  87 118 154 191 239 296 360
#     4   9  16  31  55  92 122 147 179 231 306 367
#     4  10  17  34  60  90 119 145 192 231 313 354
#     4  10  20  34  60  89 119 150 187 248 303 349
#     4   9  21  36  62  79 111 164 194 240 288 363
#
# _framework density 23.128201000000001
#
# number of rings (size 3 to 8) (size 9 to 14) (size 15 to 20)
#    0.000    2.250    3.750    0.750    3.500    0.500 
#    4.500    1.875    0.000    3.750    0.000    0.000 
#    0.000    0.000    0.000    0.000    0.000    0.000 
#
# Total GULP energy -89299.744513 kJ/mol
# GULP energy per Si atom -5581.234032 kJ/mol
# Density = 2.307556 g / cm^3
# Si number density = 23.128201 Si / 1000 Ang^3
#
#
#
# Elastic Constant Matrix: (Units=GPa)
#
#
# Indices 1 2 3 4 5 6 
#
# 1 52.0532 31.2204 29.5204 -15.8468 9.8730 -6.3929
# 2 31.2204 154.1216 57.2269 -24.0089 -12.2854 -33.7753
# 3 29.5204 57.2269 140.2740 3.3124 6.5245 -17.1477
# 4 -15.8468 -24.0089 3.3124 29.9159 0.1122 12.3885
# 5 9.8730 -12.2854 6.5245 0.1122 31.7333 0.6964
# 6 -6.3929 -33.7753 -17.1477 12.3885 0.6964 29.1766
#
#
#
# Elastic Compliance Matrix: (Units=1/GPa)
#
#
# Indices 1 2 3 4 5 6 
#
# 1 0.031131 -0.004058 -0.005886 0.017446 -0.009921 -0.008507
# 2 -0.004058 0.011474 -0.003121 0.003724 0.006139 0.008831
# 3 -0.005886 -0.003121 0.010553 -0.008905 -0.001627 0.005119
# 4 0.017446 0.003724 -0.008905 0.055123 -0.001901 -0.020460
# 5 -0.009921 0.006139 -0.001627 -0.001901 0.037232 0.003895
# 6 -0.008507 0.008831 0.005119 -0.020460 0.003895 0.054237
#
#
# Mechanical properties :
#
#
# Convention : Reuss Voigt Hill
#
# Bulk Modulus (GPa) = 36.99928 64.70935 50.85431
# Shear Modulus (GPa) = 21.28655 33.39724 27.34190
#
# Velocity S-wave (km/s) = 3.03706 3.80413 3.44203
# Velocity P-wave (km/s) = 5.32264 6.88001 6.15081
#
# Compressibility (1/GPa) = 0.02702755
#
# Stress axis : x y z
#
# Youngs Moduli (GPa) = 32.12190 87.15204 94.76221
#
# Poissons Ratio (x) = 0.35367 0.55781
# Poissons Ratio (y) = 0.13035 0.29575
# Poissons Ratio (z) = 0.18908 0.27200
#
# Static dielectric constant tensor:
#      x y z
#    x 1.897500 0.048930 0.051850 
#    y 0.048930 1.950090 0.013270 
#    z 0.051850 0.013270 1.893690 
# 
# From -- ./inp_files/597453.got.cif
#   From: 2010.05.17/outbox.cif.g08.bks.cpg/sg2_299_cif.got.tgz:597453.got - 2010.06.03 11:33:40.
