data_PCOD9049378
_publ_section_title
;
Structure prediction by ZEFSAII (Michael W. Deem and Ramdas Pophale) SiO2 
 PCOD9049378
Probable space group: P -1
;
_chemical_formula_sum "Si O2"
_cell_formula_units_Z 16
_cell_length_a 22.263086
_cell_length_b 8.989510
_cell_length_c 7.985583
_cell_angle_alpha 34.604781
_cell_angle_beta 48.465334
_cell_angle_gamma 45.353409
_cell_volume 631.403608
_symmetry_space_group_name_H-M "P -1"
_symmetry_group_IT_number 2
_symmetry_cell_setting 'triclinic'
loop_
_space_group_symop_operation_xyz
x,y,z
-x,-y,-z
loop_
_atom_site_type_symbol
_atom_site_label
_atom_site_fract_x
_atom_site_fract_y
_atom_site_fract_z
Si Si1 0.732772 0.917759 0.689848
Si Si2 0.222371 0.814731 0.939511
Si Si3 0.511526 0.393460 0.271918
Si Si4 0.313278 0.559813 0.540325
Si Si5 0.423933 0.147340 0.133084
Si Si6 0.860895 0.383218 0.983599
Si Si7 0.764390 0.650907 0.404048
Si Si8 0.949789 0.298766 0.233881
O O1 0.832500 0.707692 0.677766
O O2 0.720371 0.147587 0.352865
O O3 0.717295 0.095968 0.724658
O O4 0.657815 0.813069 0.871060
O O5 0.222376 0.061807 0.836456
O O6 0.137663 0.809783 0.999114
O O7 0.252387 0.515454 0.251807
O O8 0.415738 0.472337 0.456083
O O9 0.563542 0.067635 0.532300
O O10 0.500000 0.500000 0.000000
O O11 0.561623 0.576081 0.090295
O O12 0.307092 0.366992 0.575387
O O13 0.230376 0.549462 0.808943
O O14 0.500000 0.000000 0.000000
O O15 0.934530 0.283333 0.077260
O O16 0.855546 0.440236 0.358478
O O17 0.000000 0.000000 0.500000
O O18 0.000000 0.500000 0.000000
#
# Coordination Sequence:
#
# PCOD9049378 Si02
#       8
#     2   2   2   2   2   2   2   2
#     4  11  24  43  72  98 135 185 234 287 341 415
#     4  11  24  42  69 102 137 172 232 282 338 391
#     4  12  28  45  64 101 144 185 233 301 365 405
#     4  10  25  41  70  95 140 183 239 279 346 415
#     4  12  26  45  68  96 138 185 245 289 355 419
#     4  10  24  46  73 102 137 182 235 274 344 420
#     4  11  25  44  71 104 137 177 229 281 337 405
#     4  11  26  47  75 103 141 182 224 272 339 418
#
# _framework density 25.340367000000001
#
# number of rings (size 3 to 8) (size 9 to 14) (size 15 to 20)
#    0.000    1.000    2.500    2.250   15.750    0.000 
#    0.000    3.750    0.000    0.000    0.000    0.000 
#    0.000    0.000    0.000    0.000    0.000    0.000 
#
# Total GULP energy -89230.095589 kJ/mol
# GULP energy per Si atom -5576.880974 kJ/mol
# Density = 2.528269 g / cm^3
# Si number density = 25.340367 Si / 1000 Ang^3
#
#
#
# Elastic Constant Matrix: (Units=GPa)
#
#
# Indices 1 2 3 4 5 6 
#
# 1 141.2110 4.9587 24.7876 -38.7386 -4.6787 15.2167
# 2 4.9587 56.5041 -2.8526 -25.2714 -5.5498 12.8655
# 3 24.7876 -2.8526 101.2277 -28.9328 4.4103 -1.0068
# 4 -38.7386 -25.2714 -28.9328 56.3909 3.5126 -8.9822
# 5 -4.6787 -5.5498 4.4103 3.5126 32.8624 -3.4925
# 6 15.2167 12.8655 -1.0068 -8.9822 -3.4925 43.1568
#
#
#
# Elastic Compliance Matrix: (Units=1/GPa)
#
#
# Indices 1 2 3 4 5 6 
#
# 1 0.009291 0.003069 -0.000196 0.007187 0.000819 -0.002633
# 2 0.003069 0.025624 0.004017 0.014662 0.002084 -0.005407
# 3 -0.000196 0.004017 0.012504 0.008314 -0.001837 0.000745
# 4 0.007187 0.014662 0.008314 0.033610 -0.001189 0.000188
# 5 0.000819 0.002084 -0.001837 -0.001189 0.031415 0.001342
# 6 -0.002633 -0.005407 0.000745 0.000188 0.001342 0.025877
#
#
# Mechanical properties :
#
#
# Convention : Reuss Voigt Hill
#
# Bulk Modulus (GPa) = 16.34064 39.19225 27.76644
# Shear Modulus (GPa) = 34.49668 44.61861 39.55765
#
# Velocity S-wave (km/s) = 3.69363 4.20071 3.95530
# Velocity P-wave (km/s) = 4.96518 6.24723 5.64273
#
# Compressibility (1/GPa) = 0.06119712
#
# Stress axis : x y z
#
# Youngs Moduli (GPa) = 107.63459 39.02518 79.97692
#
# Poissons Ratio (x) = -0.11977 0.01571
# Poissons Ratio (y) = -0.33033 -0.32123
# Poissons Ratio (z) = 0.02114 -0.15675
#
# Static dielectric constant tensor:
#      x y z
#    x 2.055120 0.023920 0.173180 
#    y 0.023920 2.332440 -0.348280 
#    z 0.173180 -0.348280 2.886190 
# 
# From -- ./inp_files/351947.got.cif
#   From: 2010.05.17/outbox.cif.g08.bks.cpg/sg2_176_cif.got.tgz:351947.got - 2010.06.03 11:33:40.
