data_PCOD9049930
_publ_section_title
;
Structure prediction by ZEFSAII (Michael W. Deem and Ramdas Pophale) SiO2 
 PCOD9049930
Probable space group: P -1
;
_chemical_formula_sum "Si O2"
_cell_formula_units_Z 14
_cell_length_a 14.590938
_cell_length_b 13.357466
_cell_length_c 8.423568
_cell_angle_alpha 117.043149
_cell_angle_beta 46.311280
_cell_angle_gamma 150.453662
_cell_volume 533.907018
_symmetry_space_group_name_H-M "P -1"
_symmetry_group_IT_number 2
_symmetry_cell_setting 'triclinic'
loop_
_space_group_symop_operation_xyz
x,y,z
-x,-y,-z
loop_
_atom_site_type_symbol
_atom_site_label
_atom_site_fract_x
_atom_site_fract_y
_atom_site_fract_z
Si Si1 0.290280 0.176569 0.420001
Si Si2 0.578244 0.053859 0.670949
Si Si3 0.933237 0.032958 0.959164
Si Si4 0.033761 0.735823 0.427581
Si Si5 0.104521 0.743001 0.853780
Si Si6 0.316286 0.617729 0.688189
Si Si7 0.458803 0.593982 0.053566
O O1 0.491968 0.325631 0.428882
O O2 0.433749 0.313326 0.185076
O O3 0.081144 0.103370 0.676980
O O4 0.159338 0.953760 0.406158
O O5 0.323479 0.927226 0.858821
O O6 0.478926 0.850301 0.619191
O O7 0.744771 0.177978 0.718750
O O8 0.763792 0.218785 0.421623
O O9 0.639715 0.801899 0.103917
O O10 0.989556 0.205795 0.044559
O O11 0.000000 0.000000 0.000000
O O12 0.864000 0.566760 0.363771
O O13 0.827773 0.590612 0.709869
O O14 0.875325 0.499336 0.024719
O O15 0.500000 0.500000 0.000000
#
# Coordination Sequence:
#
# PCOD9049930 Si02
#       7
#     2   2   2   2   2   2   2
#     4  11  25  44  66 103 142 176 219 280 342 407
#     4  10  24  48  68  97 137 175 228 286 333 402
#     4  12  25  44  70 102 139 180 230 276 338 412
#     4  11  23  45  71 100 137 176 224 283 338 402
#     4  11  24  44  71  96 136 181 223 282 342 396
#     4  11  24  43  75 101 130 178 231 275 344 406
#     4  12  25  41  68  99 139 181 220 275 342 405
#
# _framework density 26.221795
#
# number of rings (size 3 to 8) (size 9 to 14) (size 15 to 20)
#    0.000    0.857    1.429    6.000    4.000    1.143 
#    0.000    7.857    0.000    0.000    0.000    0.000 
#    0.000    0.000    0.000    0.000    0.000    0.000 
#
# Total GULP energy -78540.152451 kJ/mol
# GULP energy per Si atom -5610.010889 kJ/mol
# Density = 2.616211 g / cm^3
# Si number density = 26.221795 Si / 1000 Ang^3
#
#
#
# Elastic Constant Matrix: (Units=GPa)
#
#
# Indices 1 2 3 4 5 6 
#
# 1 138.4047 40.1345 22.5769 -4.5047 -0.2889 25.1005
# 2 40.1345 112.3034 10.6712 -1.4993 7.8308 31.8846
# 3 22.5769 10.6712 132.5738 -25.8177 19.2685 -3.0260
# 4 -4.5047 -1.4993 -25.8177 35.6421 1.3980 -4.2039
# 5 -0.2889 7.8308 19.2685 1.3980 44.5644 -8.1882
# 6 25.1005 31.8846 -3.0260 -4.2039 -8.1882 41.4165
#
#
#
# Elastic Compliance Matrix: (Units=1/GPa)
#
#
# Indices 1 2 3 4 5 6 
#
# 1 0.008728 -0.001881 -0.001599 -0.000614 0.000372 -0.003947
# 2 -0.001881 0.012538 -0.000586 -0.001099 -0.003652 -0.009389
# 3 -0.001599 -0.000586 0.009935 0.007376 -0.004050 0.002094
# 4 -0.000614 -0.001099 0.007376 0.033940 -0.003226 0.004565
# 5 0.000372 -0.003652 -0.004050 -0.003226 0.026250 0.007153
# 6 -0.003947 -0.009389 0.002094 0.004565 0.007153 0.035796
#
#
# Mechanical properties :
#
#
# Convention : Reuss Voigt Hill
#
# Bulk Modulus (GPa) = 43.34776 58.89414 51.12095
# Shear Modulus (GPa) = 34.96274 44.98455 39.97364
#
# Velocity S-wave (km/s) = 3.65546 4.14640 3.90865
# Velocity P-wave (km/s) = 5.86376 6.74035 6.31727
#
# Compressibility (1/GPa) = 0.02306924
#
# Stress axis : x y z
#
# Youngs Moduli (GPa) = 114.57369 79.75732 100.65221
#
# Poissons Ratio (x) = 0.15000 0.16092
# Poissons Ratio (y) = 0.21548 0.05903
# Poissons Ratio (z) = 0.18318 0.04677
#
# Static dielectric constant tensor:
#      x y z
#    x 2.081020 0.048580 0.022100 
#    y 0.048580 2.069510 -0.036640 
#    z 0.022100 -0.036640 2.078560 
# 
# From -- ./inp_files/315540.got.cif
#   From: 2010.05.17/outbox.cif.g08.bks.cpg/sg2_158_cif.got.tgz:315540.got - 2010.06.03 11:33:40.
