data_PCOD9049421
_publ_section_title
;
Structure prediction by ZEFSAII (Michael W. Deem and Ramdas Pophale) SiO2 
 PCOD9049421
Probable space group: P -1
;
_chemical_formula_sum "Si O2"
_cell_formula_units_Z 14
_cell_length_a 9.354234
_cell_length_b 5.873922
_cell_length_c 13.869060
_cell_angle_alpha 68.380917
_cell_angle_beta 112.912609
_cell_angle_gamma 115.657039
_cell_volume 614.110969
_symmetry_space_group_name_H-M "P -1"
_symmetry_group_IT_number 2
_symmetry_cell_setting 'triclinic'
loop_
_space_group_symop_operation_xyz
x,y,z
-x,-y,-z
loop_
_atom_site_type_symbol
_atom_site_label
_atom_site_fract_x
_atom_site_fract_y
_atom_site_fract_z
Si Si1 0.507885 0.285633 0.110724
Si Si2 0.067820 0.505800 0.239795
Si Si3 0.575242 0.435753 0.628682
Si Si4 0.547633 0.137569 0.387943
Si Si5 0.797407 0.542332 0.298811
Si Si6 0.244825 0.964572 0.841427
Si Si7 0.172311 0.956620 0.049664
O O1 0.651184 0.420076 0.202106
O O2 0.580132 0.074580 0.118257
O O3 0.321047 0.160325 0.115403
O O4 0.500000 0.500000 0.000000
O O5 0.226471 0.465095 0.334547
O O6 0.140559 0.687810 0.138245
O O7 0.973462 0.609031 0.282597
O O8 0.915373 0.274574 0.193135
O O9 0.500000 0.500000 0.500000
O O10 0.528780 0.624622 0.664858
O O11 0.510928 0.113883 0.661375
O O12 0.742218 0.309853 0.398274
O O13 0.500000 0.000000 0.500000
O O14 0.770862 0.812959 0.268943
O O15 0.225584 0.993857 0.946321
O O16 0.000000 0.000000 0.000000
#
# Coordination Sequence:
#
# PCOD9049421 Si02
#       7
#     2   2   2   2   2   2   2
#     4  11  23  40  62  92 135 187 232 279 337 409
#     4  11  25  40  67  99 137 183 228 289 349 411
#     4  10  24  48  74 103 133 176 238 292 355 418
#     4  10  24  46  73  99 133 176 231 290 352 417
#     4  11  24  42  66  97 138 177 234 284 348 420
#     4  11  24  41  61  97 139 184 230 277 346 413
#     4  12  22  41  61  96 141 179 231 276 338 413
#
# _framework density 22.797184999999999
#
# number of rings (size 3 to 8) (size 9 to 14) (size 15 to 20)
#    0.000    1.143    2.857    2.571    8.000    1.143 
#    0.000    5.714    0.000    0.000    0.000    0.000 
#    0.000    0.000    0.000    0.000    0.000    0.000 
#
# Total GULP energy -77982.288044 kJ/mol
# GULP energy per Si atom -5570.163432 kJ/mol
# Density = 2.274530 g / cm^3
# Si number density = 22.797185 Si / 1000 Ang^3
#
#
#
# Elastic Constant Matrix: (Units=GPa)
#
#
# Indices 1 2 3 4 5 6 
#
# 1 122.3892 23.1798 24.8524 3.0502 14.8524 -2.5282
# 2 23.1798 110.1941 3.5659 -17.3359 0.8783 6.9182
# 3 24.8524 3.5659 83.3788 -8.5173 2.0978 5.7375
# 4 3.0502 -17.3359 -8.5173 36.6573 11.1542 -4.3844
# 5 14.8524 0.8783 2.0978 11.1542 40.7450 2.6716
# 6 -2.5282 6.9182 5.7375 -4.3844 2.6716 43.6128
#
#
#
# Elastic Compliance Matrix: (Units=1/GPa)
#
#
# Indices 1 2 3 4 5 6 
#
# 1 0.009614 -0.002217 -0.002936 -0.001461 -0.002993 0.001332
# 2 -0.002217 0.010458 0.000881 0.005443 -0.000867 -0.001303
# 3 -0.002936 0.000881 0.013340 0.003729 -0.000548 -0.001656
# 4 -0.001461 0.005443 0.003729 0.033957 -0.009239 0.002541
# 5 -0.002993 -0.000867 -0.000548 -0.009239 0.028383 -0.002631
# 6 0.001332 -0.001303 -0.001656 0.002541 -0.002631 0.023848
#
#
# Mechanical properties :
#
#
# Convention : Reuss Voigt Hill
#
# Bulk Modulus (GPa) = 40.21401 46.57317 43.39359
# Shear Modulus (GPa) = 36.64833 41.82727 39.23780
#
# Velocity S-wave (km/s) = 4.01382 4.28805 4.15320
# Velocity P-wave (km/s) = 6.25773 6.70748 6.48650
#
# Compressibility (1/GPa) = 0.02486695
#
# Stress axis : x y z
#
# Youngs Moduli (GPa) = 104.01623 95.62330 74.96429
#
# Poissons Ratio (x) = 0.21198 0.22012
# Poissons Ratio (y) = 0.23059 -0.06604
# Poissons Ratio (z) = 0.30542 -0.08424
#
# Static dielectric constant tensor:
#      x y z
#    x 1.989310 -0.001870 -0.060220 
#    y -0.001870 2.048030 -0.096500 
#    z -0.060220 -0.096500 2.172180 
# 
# From -- ./inp_files/34277.got.cif
#   From: 2010.05.17/outbox.cif.g08.bks.cpg/sg2_18_cif.got.tgz:34277.got - 2010.06.03 11:33:40.
