data_PCOD9049066
_publ_section_title
;
Structure prediction by ZEFSAII (Michael W. Deem and Ramdas Pophale) SiO2 
 PCOD9049066
Probable space group: P -1
;
_chemical_formula_sum "Si O2"
_cell_formula_units_Z 15
_cell_length_a 21.645907
_cell_length_b 11.688028
_cell_length_c 4.895856
_cell_angle_alpha 84.136668
_cell_angle_beta 82.981535
_cell_angle_gamma 149.204716
_cell_volume 574.741357
_symmetry_space_group_name_H-M "P -1"
_symmetry_group_IT_number 2
_symmetry_cell_setting 'triclinic'
loop_
_space_group_symop_operation_xyz
x,y,z
-x,-y,-z
loop_
_atom_site_type_symbol
_atom_site_label
_atom_site_fract_x
_atom_site_fract_y
_atom_site_fract_z
Si Si1 0.167076 0.312756 0.700012
Si Si2 0.133929 0.683881 0.733576
Si Si3 0.742852 0.333970 0.118159
Si Si4 0.641530 0.504988 0.796740
Si Si5 0.572581 0.017711 0.794183
Si Si6 0.500000 0.500000 0.000000
Si Si7 0.785501 0.052793 0.900885
Si Si8 0.087405 0.983478 0.166258
O O1 0.203879 0.451289 0.908988
O O2 0.306907 0.503447 0.449125
O O3 0.101136 0.082213 0.860160
O O4 0.058634 0.211652 0.615012
O O5 0.155716 0.587705 0.816164
O O6 0.153269 0.759601 0.399711
O O7 0.238355 0.925683 0.801658
O O8 0.000000 0.500000 0.000000
O O9 0.617785 0.116436 0.441107
O O10 0.703024 0.225110 0.867652
O O11 0.781201 0.760488 0.806651
O O12 0.524740 0.250025 0.087117
O O13 0.573223 0.514541 0.761394
O O14 0.500000 0.000000 0.000000
O O15 0.354768 0.220641 0.057298
O O16 0.885313 0.106817 0.856333
#
# Coordination Sequence:
#
# PCOD9049066 Si02
#       8
#     2   2   2   2   2   1   2   2
#     4  11  24  44  70 102 140 185 234 295 354 429
#     4  12  26  48  74 107 144 190 242 295 359 426
#     4  12  26  45  73 105 143 189 234 296 357 422
#     4  11  23  43  69  98 139 184 232 292 352 422
#     4  12  25  45  70 104 144 184 236 291 359 423
#     4  10  24  46  68 104 138 188 236 292 348 428
#     4  11  26  49  74 106 145 192 241 299 357 427
#     4  10  25  45  69 103 138 186 239 291 356 421
#
# _framework density 26.098697999999999
#
# number of rings (size 3 to 8) (size 9 to 14) (size 15 to 20)
#    0.000    0.800    1.333    5.200    5.600    1.600 
#    2.400    0.000    0.000    0.000    0.000    0.000 
#    0.000    0.000    0.000    0.000    0.000    0.000 
#
# Total GULP energy -83598.778646 kJ/mol
# GULP energy per Si atom -5573.251910 kJ/mol
# Density = 2.603930 g / cm^3
# Si number density = 26.098698 Si / 1000 Ang^3
#
#
#
# Elastic Constant Matrix: (Units=GPa)
#
#
# Indices 1 2 3 4 5 6 
#
# 1 184.9630 7.7987 29.2591 -4.1406 -27.9879 20.0743
# 2 7.7987 123.2534 17.2872 0.0557 -2.8595 13.9875
# 3 29.2591 17.2872 81.3175 3.2869 -7.6968 12.4983
# 4 -4.1406 0.0557 3.2869 36.1671 8.6952 -11.3420
# 5 -27.9879 -2.8595 -7.6968 8.6952 38.3064 -7.0367
# 6 20.0743 13.9875 12.4983 -11.3420 -7.0367 43.2994
#
#
#
# Elastic Compliance Matrix: (Units=1/GPa)
#
#
# Indices 1 2 3 4 5 6 
#
# 1 0.006508 0.000154 -0.001616 -0.000791 0.004232 -0.002120
# 2 0.000154 0.008605 -0.001442 -0.000715 0.000150 -0.002598
# 3 -0.001616 -0.001442 0.013958 -0.002864 0.001558 -0.003311
# 4 -0.000791 -0.000715 -0.002864 0.032224 -0.006915 0.008741
# 5 0.004232 0.000150 0.001558 -0.006915 0.031239 0.000805
# 6 -0.002120 -0.002598 -0.003311 0.008741 0.000805 0.028293
#
#
# Mechanical properties :
#
#
# Convention : Reuss Voigt Hill
#
# Bulk Modulus (GPa) = 42.98906 55.35819 49.17363
# Shear Modulus (GPa) = 37.20516 45.90052 41.55284
#
# Velocity S-wave (km/s) = 3.77975 4.19827 3.99449
# Velocity P-wave (km/s) = 5.96290 6.69012 6.33695
#
# Compressibility (1/GPa) = 0.02326173
#
# Stress axis : x y z
#
# Youngs Moduli (GPa) = 153.64721 116.21803 71.64506
#
# Poissons Ratio (x) = -0.01790 0.11579
# Poissons Ratio (y) = -0.02366 0.10333
# Poissons Ratio (z) = 0.24833 0.16761
#
# Static dielectric constant tensor:
#      x y z
#    x 2.114930 0.077570 0.006820 
#    y 0.077570 2.186950 -0.004630 
#    z 0.006820 -0.004630 2.061050 
# 
# From -- ./inp_files/65863.got.cif
#   From: 2010.05.17/outbox.cif.g08.bks.cpg/sg2_33_cif.got.tgz:65863.got - 2010.06.03 11:33:40.
