data_PCOD9049672
_publ_section_title
;
Structure prediction by ZEFSAII (Michael W. Deem and Ramdas Pophale) SiO2 
 PCOD9049672
Probable space group: P -1
;
_chemical_formula_sum "Si O2"
_cell_formula_units_Z 13
_cell_length_a 10.559660
_cell_length_b 15.489188
_cell_length_c 8.827163
_cell_angle_alpha 56.814190
_cell_angle_beta 123.532773
_cell_angle_gamma 156.601471
_cell_volume 474.367086
_symmetry_space_group_name_H-M "P -1"
_symmetry_group_IT_number 2
_symmetry_cell_setting 'triclinic'
loop_
_space_group_symop_operation_xyz
x,y,z
-x,-y,-z
loop_
_atom_site_type_symbol
_atom_site_label
_atom_site_fract_x
_atom_site_fract_y
_atom_site_fract_z
Si Si1 0.289882 0.455596 0.306396
Si Si2 0.705428 0.250026 0.604527
Si Si3 0.319505 0.334545 0.174231
Si Si4 0.383764 0.727898 0.997447
Si Si5 0.500000 0.000000 0.000000
Si Si6 0.241879 0.077167 0.251551
Si Si7 0.955625 0.701158 0.409321
O O1 0.500000 0.500000 0.500000
O O2 0.159247 0.322015 0.195252
O O3 0.465141 0.667247 0.189764
O O4 0.012257 0.310613 0.383556
O O5 0.668238 0.185539 0.810862
O O6 0.000000 0.500000 0.500000
O O7 0.768587 0.187561 0.606413
O O8 0.388266 0.117062 0.463506
O O9 0.141052 0.132556 0.172205
O O10 0.609819 0.460407 0.345767
O O11 0.500000 0.500000 0.000000
O O12 0.493673 0.772187 0.853022
O O13 0.000000 0.500000 0.000000
O O14 0.532013 0.922066 0.973404
O O15 0.970213 0.832159 0.265259
#
# Coordination Sequence:
#
# PCOD9049672 Si02
#       7
#     2   2   2   2   1   2   2
#     4  10  24  47  71 102 148 192 236 298 369 437
#     4  12  24  47  73 107 148 189 238 308 371 428
#     4  11  24  46  70  99 138 190 239 294 363 434
#     4  12  26  46  73 107 143 189 244 302 368 434
#     4  12  28  42  72 114 144 186 246 302 366 440
#     4  12  25  44  72 103 142 185 236 300 364 434
#     4  11  24  45  68 100 142 183 234 297 359 431
#
# _framework density 27.404935999999999
#
# number of rings (size 3 to 8) (size 9 to 14) (size 15 to 20)
#    0.000    0.615    4.615    3.231    4.308    1.231 
#    0.000    0.000    0.000    0.000    0.000    0.000 
#    0.000    0.000    0.000    0.000    0.000    0.000 
#
# Total GULP energy -72524.856367 kJ/mol
# GULP energy per Si atom -5578.835105 kJ/mol
# Density = 2.734256 g / cm^3
# Si number density = 27.404936 Si / 1000 Ang^3
#
#
#
# Elastic Constant Matrix: (Units=GPa)
#
#
# Indices 1 2 3 4 5 6 
#
# 1 135.8712 30.0536 61.5637 -8.6420 -20.8485 -48.2958
# 2 30.0536 130.7464 49.7000 -28.7493 6.4438 -36.1224
# 3 61.5637 49.7000 202.4147 -29.9991 -27.3669 -22.6617
# 4 -8.6420 -28.7493 -29.9991 46.1518 -4.8250 5.7133
# 5 -20.8485 6.4438 -27.3669 -4.8250 68.3206 -3.1278
# 6 -48.2958 -36.1224 -22.6617 5.7133 -3.1278 54.1423
#
#
#
# Elastic Compliance Matrix: (Units=1/GPa)
#
#
# Indices 1 2 3 4 5 6 
#
# 1 0.012723 0.000981 -0.002333 0.000449 0.003399 0.011176
# 2 0.000981 0.011140 -0.001573 0.005154 -0.000694 0.007066
# 3 -0.002333 -0.001573 0.006790 0.003306 0.002367 -0.000501
# 4 0.000449 0.005154 0.003306 0.027112 0.003006 0.002535
# 5 0.003399 -0.000694 0.002367 0.003006 0.017093 0.004230
# 6 0.011176 0.007066 -0.000501 0.002535 0.004230 0.032920
#
#
# Mechanical properties :
#
#
# Convention : Reuss Voigt Hill
#
# Bulk Modulus (GPa) = 40.31677 83.51855 61.91766
# Shear Modulus (GPa) = 41.01881 55.57061 48.29471
#
# Velocity S-wave (km/s) = 3.87300 4.50795 4.20249
# Velocity P-wave (km/s) = 5.89438 7.59193 6.79636
#
# Compressibility (1/GPa) = 0.02480358
#
# Stress axis : x y z
#
# Youngs Moduli (GPa) = 78.60049 89.76534 147.27227
#
# Poissons Ratio (x) = -0.08809 0.34362
# Poissons Ratio (y) = -0.07713 0.23162
# Poissons Ratio (z) = 0.18340 0.14117
#
# Static dielectric constant tensor:
#      x y z
#    x 2.553250 0.243490 0.353040 
#    y 0.243490 2.370970 0.243260 
#    z 0.353040 0.243260 2.601760 
# 
# From -- ./inp_files/267181.got.cif
#   From: 2010.05.17/outbox.cif.g08.bks.cpg/sg2_134_cif.got.tgz:267181.got - 2010.06.03 11:33:40.
