data_PCOD9049194
_publ_section_title
;
Structure prediction by ZEFSAII (Michael W. Deem and Ramdas Pophale) SiO2 
 PCOD9049194
Probable space group: P -1
;
_chemical_formula_sum "Si O2"
_cell_formula_units_Z 13
_cell_length_a 16.890963
_cell_length_b 7.822894
_cell_length_c 11.490609
_cell_angle_alpha 131.902549
_cell_angle_beta 151.220407
_cell_angle_gamma 49.280085
_cell_volume 534.465989
_symmetry_space_group_name_H-M "P -1"
_symmetry_group_IT_number 2
_symmetry_cell_setting 'triclinic'
loop_
_space_group_symop_operation_xyz
x,y,z
-x,-y,-z
loop_
_atom_site_type_symbol
_atom_site_label
_atom_site_fract_x
_atom_site_fract_y
_atom_site_fract_z
Si Si1 0.455067 0.412097 0.167887
Si Si2 0.500735 0.153865 0.452328
Si Si3 0.000000 0.500000 0.000000
Si Si4 0.830295 0.072122 0.679528
Si Si5 0.688351 0.044595 0.225187
Si Si6 0.155492 0.089238 0.859567
Si Si7 0.090039 0.688574 0.761966
O O1 0.533126 0.571792 0.430266
O O2 0.593296 0.313254 0.203394
O O3 0.417698 0.157329 0.033124
O O4 0.274928 0.563523 0.979744
O O5 0.677853 0.098263 0.587502
O O6 0.500000 0.000000 0.500000
O O7 0.342764 0.113980 0.156128
O O8 0.914414 0.297802 0.869139
O O9 0.036494 0.323194 0.854948
O O10 0.752115 0.025294 0.430846
O O11 0.974200 0.841413 0.779425
O O12 0.835362 0.973300 0.291262
O O13 0.117225 0.877287 0.788671
O O14 0.000000 0.500000 0.500000
#
# Coordination Sequence:
#
# PCOD9049194 Si02
#       7
#     2   2   1   2   2   2   2
#     4  11  23  43  69 104 137 184 238 292 358 411
#     4  12  25  46  72 103 141 190 239 294 353 425
#     4  10  24  46  70 108 144 184 228 298 360 420
#     4  11  25  47  73 103 147 186 242 294 357 429
#     4  11  24  44  74 103 134 191 239 294 352 417
#     4  11  25  46  72 105 142 184 245 289 357 426
#     4  11  24  45  67 103 146 183 234 296 361 422
#
# _framework density 24.323345
#
# number of rings (size 3 to 8) (size 9 to 14) (size 15 to 20)
#    0.000    0.923    3.077    3.692    0.000    6.769 
#    5.538    0.000    0.000    0.000    0.000    0.000 
#    0.000    0.000    0.000    0.000    0.000    0.000 
#
# Total GULP energy -72396.938894 kJ/mol
# GULP energy per Si atom -5568.995300 kJ/mol
# Density = 2.426798 g / cm^3
# Si number density = 24.323345 Si / 1000 Ang^3
#
#
#
# Elastic Constant Matrix: (Units=GPa)
#
#
# Indices 1 2 3 4 5 6 
#
# 1 152.0737 62.1662 43.4168 28.0822 -2.5975 -31.7212
# 2 62.1662 152.7409 59.3712 30.0065 3.3206 -34.4328
# 3 43.4168 59.3712 102.6900 19.5181 10.8232 7.9326
# 4 28.0822 30.0065 19.5181 56.4507 3.5378 0.9388
# 5 -2.5975 3.3206 10.8232 3.5378 40.4070 6.2855
# 6 -31.7212 -34.4328 7.9326 0.9388 6.2855 39.6800
#
#
#
# Elastic Compliance Matrix: (Units=1/GPa)
#
#
# Indices 1 2 3 4 5 6 
#
# 1 0.010564 0.000646 -0.004907 -0.004115 0.000750 0.009965
# 2 0.000646 0.013721 -0.008303 -0.004941 -0.000654 0.014303
# 3 -0.004907 -0.008303 0.017750 0.001097 -0.002252 -0.014345
# 4 -0.004115 -0.004941 0.001097 0.022196 -0.000821 -0.008191
# 5 0.000750 -0.000654 -0.002252 -0.000821 0.026090 -0.003631
# 6 0.009965 0.014303 -0.014345 -0.008191 -0.003631 0.049217
#
#
# Mechanical properties :
#
#
# Convention : Reuss Voigt Hill
#
# Bulk Modulus (GPa) = 59.14395 81.93478 70.53936
# Shear Modulus (GPa) = 29.35990 43.47758 36.41874
#
# Velocity S-wave (km/s) = 3.47806 4.23245 3.87366
# Velocity P-wave (km/s) = 6.36378 7.59234 7.00504
#
# Compressibility (1/GPa) = 0.01690790
#
# Stress axis : x y z
#
# Youngs Moduli (GPa) = 94.66342 72.88273 56.33812
#
# Poissons Ratio (x) = -0.04711 0.27644
# Poissons Ratio (y) = -0.06119 0.46777
# Poissons Ratio (z) = 0.46449 0.60513
#
# Static dielectric constant tensor:
#      x y z
#    x 2.208940 -0.168110 0.145190 
#    y -0.168110 2.027070 -0.131430 
#    z 0.145190 -0.131430 2.039230 
# 
# From -- ./inp_files/461715.got.cif
#   From: 2010.05.17/outbox.cif.g08.bks.cpg/sg2_231_cif.got.tgz:461715.got - 2010.06.03 11:33:40.
