data_PCOD9049546
_publ_section_title
;
Structure prediction by ZEFSAII (Michael W. Deem and Ramdas Pophale) SiO2 
 PCOD9049546
Probable space group: P -1
;
_chemical_formula_sum "Si O2"
_cell_formula_units_Z 9
_cell_length_a 8.788667
_cell_length_b 12.306082
_cell_length_c 5.090470
_cell_angle_alpha 105.501467
_cell_angle_beta 119.755573
_cell_angle_gamma 39.870347
_cell_volume 299.943958
_symmetry_space_group_name_H-M "P -1"
_symmetry_group_IT_number 2
_symmetry_cell_setting 'triclinic'
loop_
_space_group_symop_operation_xyz
x,y,z
-x,-y,-z
loop_
_atom_site_type_symbol
_atom_site_label
_atom_site_fract_x
_atom_site_fract_y
_atom_site_fract_z
Si Si1 0.452534 0.344298 0.303879
Si Si2 0.002651 0.107652 0.765092
Si Si3 0.518068 0.124684 0.599175
Si Si4 0.500000 0.500000 0.000000
Si Si5 0.967875 0.685579 0.382410
O O1 0.682437 0.292243 0.663252
O O2 0.478944 0.204515 0.340190
O O3 0.528210 0.368664 0.119671
O O4 0.158304 0.524996 0.247157
O O5 0.802154 0.012571 0.904192
O O6 0.119737 0.159421 0.748662
O O7 0.000000 0.000000 0.500000
O O8 0.500000 0.000000 0.500000
O O9 0.733631 0.724462 0.330190
O O10 0.820734 0.375880 0.258543
#
# Coordination Sequence:
#
# PCOD9049546 Si02
#       5
#     2   2   2   1   2
#     4  11  26  49  80 110 156 213 262 321 384 483
#     4  11  25  50  77 110 158 211 258 319 398 471
#     4  12  28  48  78 120 161 201 259 333 400 458
#     4  10  24  46  78 106 156 200 270 302 400 446
#     4  11  26  47  77 114 156 204 264 326 384 477
#
# _framework density 30.005603000000001
#
# number of rings (size 3 to 8) (size 9 to 14) (size 15 to 20)
#    0.000    0.889    0.000    6.000   12.444    0.889 
#    0.000    0.000    0.000    0.000    0.000    0.000 
#    0.000    0.000    0.000    0.000    0.000    0.000 
#
# Total GULP energy -50358.082519 kJ/mol
# GULP energy per Si atom -5595.342502 kJ/mol
# Density = 2.993731 g / cm^3
# Si number density = 30.005603 Si / 1000 Ang^3
#
#
#
# Elastic Constant Matrix: (Units=GPa)
#
#
# Indices 1 2 3 4 5 6 
#
# 1 239.6245 72.1635 68.6974 -21.5981 -23.7130 3.0432
# 2 72.1635 155.8844 52.3727 -43.6794 -22.4982 23.0996
# 3 68.6974 52.3727 187.7428 -45.8403 -24.8742 23.2902
# 4 -21.5981 -43.6794 -45.8403 49.3244 16.8570 -11.9637
# 5 -23.7130 -22.4982 -24.8742 16.8570 72.3192 -10.3313
# 6 3.0432 23.0996 23.2902 -11.9637 -10.3313 86.1778
#
#
#
# Elastic Compliance Matrix: (Units=1/GPa)
#
#
# Indices 1 2 3 4 5 6 
#
# 1 0.005270 -0.002250 -0.001592 -0.001280 0.000890 0.000776
# 2 -0.002250 0.009727 0.000118 0.007226 0.000429 -0.001505
# 3 -0.001592 0.000118 0.007543 0.005954 0.000561 -0.001120
# 4 -0.001280 0.007226 0.005954 0.033081 -0.003743 0.000643
# 5 0.000890 0.000429 0.000561 -0.003743 0.015466 0.001036
# 6 0.000776 -0.001505 -0.001120 0.000643 0.001036 0.012496
#
#
# Mechanical properties :
#
#
# Convention : Reuss Voigt Hill
#
# Bulk Modulus (GPa) = 66.25911 107.74652 87.00282
# Shear Modulus (GPa) = 52.04965 67.56549 59.80757
#
# Velocity S-wave (km/s) = 4.16945 4.75042 4.46939
# Velocity P-wave (km/s) = 6.73121 8.12868 7.46273
#
# Compressibility (1/GPa) = 0.01509226
#
# Stress axis : x y z
#
# Youngs Moduli (GPa) = 189.75553 102.80840 132.57219
#
# Poissons Ratio (x) = 0.23133 0.21100
# Poissons Ratio (y) = 0.42698 -0.01563
# Poissons Ratio (z) = 0.30201 -0.01212
#
# Static dielectric constant tensor:
#      x y z
#    x 2.259510 -0.127950 0.037680 
#    y -0.127950 2.529630 0.189280 
#    z 0.037680 0.189280 2.294070 
# 
# From -- ./inp_files/18993.got.cif
#   From: 2010.05.17/outbox.cif.g08.bks.cpg/sg2_10_cif.got.tgz:18993.got - 2010.06.03 11:33:40.
