data_PCOD9049649
_publ_section_title
;
Structure prediction by ZEFSAII (Michael W. Deem and Ramdas Pophale) SiO2 
 PCOD9049649
Probable space group: P -1
;
_chemical_formula_sum "Si O2"
_cell_formula_units_Z 14
_cell_length_a 22.591574
_cell_length_b 4.953787
_cell_length_c 8.825677
_cell_angle_alpha 56.648097
_cell_angle_beta 39.766786
_cell_angle_gamma 54.826094
_cell_volume 505.515954
_symmetry_space_group_name_H-M "P -1"
_symmetry_group_IT_number 2
_symmetry_cell_setting 'triclinic'
loop_
_space_group_symop_operation_xyz
x,y,z
-x,-y,-z
loop_
_atom_site_type_symbol
_atom_site_label
_atom_site_fract_x
_atom_site_fract_y
_atom_site_fract_z
Si Si1 0.801146 0.806064 0.736770
Si Si2 0.759968 0.682003 0.345743
Si Si3 0.904087 0.361858 0.921707
Si Si4 0.917394 0.714003 0.247161
Si Si5 0.500000 0.500000 0.500000
Si Si6 0.701973 0.277175 0.053568
Si Si7 0.500000 0.000000 0.500000
Si Si8 0.456930 0.190594 0.178230
O O1 0.851171 0.889336 0.464594
O O2 0.881078 0.504394 0.757029
O O3 0.715166 0.645718 0.915470
O O4 0.760856 0.090639 0.851498
O O5 0.803914 0.465284 0.179243
O O6 0.843104 0.581842 0.337657
O O7 0.658312 0.681925 0.616789
O O8 0.743555 0.052736 0.187919
O O9 0.945437 0.967670 0.995316
O O10 0.984098 0.505690 0.801948
O O11 0.590035 0.274860 0.262780
O O12 0.571373 0.605036 0.462400
O O13 0.507426 0.056179 0.669470
O O14 0.500000 0.500000 0.000000
O O15 0.500000 0.000000 0.000000
#
# Coordination Sequence:
#
# PCOD9049649 Si02
#       8
#     2   2   2   2   1   2   1   2
#     4  11  25  46  74 107 145 190 249 301 372 446
#     4  11  25  49  72 105 154 191 247 311 374 443
#     4  10  24  47  70 108 148 191 244 306 377 447
#     4  11  24  45  77 105 144 197 242 309 379 444
#     4  12  24  44  78 102 144 206 250 298 386 444
#     4  11  25  46  72 104 146 197 239 311 364 442
#     4  12  26  48  76 102 150 198 250 308 388 426
#     4  12  30  51  77 114 154 201 261 316 374 461
#
# _framework density 27.694476999999999
#
# number of rings (size 3 to 8) (size 9 to 14) (size 15 to 20)
#    0.000    0.857    2.857    2.571    6.000    3.429 
#    0.000    2.143    0.000    0.000    0.000    0.000 
#    0.000    0.000    0.000    0.000    0.000    0.000 
#
# Total GULP energy -78177.576594 kJ/mol
# GULP energy per Si atom -5584.112614 kJ/mol
# Density = 2.763144 g / cm^3
# Si number density = 27.694477 Si / 1000 Ang^3
#
#
#
# Elastic Constant Matrix: (Units=GPa)
#
#
# Indices 1 2 3 4 5 6 
#
# 1 123.1887 38.8406 71.0629 1.6863 11.8687 21.4030
# 2 38.8406 82.1168 47.4125 -11.2623 12.2804 37.2247
# 3 71.0629 47.4125 174.2421 9.5076 1.3469 11.7011
# 4 1.6863 -11.2623 9.5076 47.1248 -7.7616 15.7564
# 5 11.8687 12.2804 1.3469 -7.7616 44.0205 13.1130
# 6 21.4030 37.2247 11.7011 15.7564 13.1130 65.2476
#
#
#
# Elastic Compliance Matrix: (Units=1/GPa)
#
#
# Indices 1 2 3 4 5 6 
#
# 1 0.011560 -0.002220 -0.004001 0.000017 -0.001949 -0.001420
# 2 -0.002220 0.025325 -0.005615 0.012700 0.000686 -0.015918
# 3 -0.004001 -0.005615 0.008866 -0.004190 0.000492 0.003839
# 4 0.000017 0.012700 -0.004190 0.031360 0.006703 -0.015420
# 5 -0.001949 0.000686 0.000492 0.006703 0.026222 -0.006729
# 6 -0.001420 -0.015918 0.003839 -0.015420 -0.006729 0.029261
#
#
# Mechanical properties :
#
#
# Convention : Reuss Voigt Hill
#
# Bulk Modulus (GPa) = 45.29314 77.13106 61.21210
# Shear Modulus (GPa) = 30.55779 46.09402 38.32590
#
# Velocity S-wave (km/s) = 3.32533 4.08410 3.72409
# Velocity P-wave (km/s) = 5.57977 7.08174 6.37514
#
# Compressibility (1/GPa) = 0.02207840
#
# Stress axis : x y z
#
# Youngs Moduli (GPa) = 86.50588 39.48726 112.79330
#
# Poissons Ratio (x) = 0.08767 0.45128
# Poissons Ratio (y) = 0.19205 0.63332
# Poissons Ratio (z) = 0.34611 0.22172
#
# Static dielectric constant tensor:
#      x y z
#    x 1.851310 -0.070030 0.300100 
#    y -0.070030 2.266960 0.181590 
#    z 0.300100 0.181590 1.911060 
# 
# From -- ./inp_files/350930.got.cif
#   From: 2010.05.17/outbox.cif.g08.bks.cpg/sg2_176_cif.got.tgz:350930.got - 2010.06.03 11:33:40.
