data_PCOD9049112
_publ_section_title
;
Structure prediction by ZEFSAII (Michael W. Deem and Ramdas Pophale) SiO2 
 PCOD9049112
Probable space group: P -1
;
_chemical_formula_sum "Si O2"
_cell_formula_units_Z 16
_cell_length_a 12.350179
_cell_length_b 7.053389
_cell_length_c 21.584229
_cell_angle_alpha 46.094807
_cell_angle_beta 35.559257
_cell_angle_gamma 41.907548
_cell_volume 711.332093
_symmetry_space_group_name_H-M "P -1"
_symmetry_group_IT_number 2
_symmetry_cell_setting 'triclinic'
loop_
_space_group_symop_operation_xyz
x,y,z
-x,-y,-z
loop_
_atom_site_type_symbol
_atom_site_label
_atom_site_fract_x
_atom_site_fract_y
_atom_site_fract_z
Si Si1 0.733619 0.661328 0.515805
Si Si2 0.189538 0.692021 0.996112
Si Si3 0.032939 0.926311 0.313869
Si Si4 0.845016 0.540580 0.228308
Si Si5 0.537837 0.013548 0.169665
Si Si6 0.150089 0.975363 0.379442
Si Si7 0.591946 0.728386 0.424371
Si Si8 0.486043 0.802109 0.107514
O O1 0.725974 0.372345 0.610241
O O2 0.686577 0.662427 0.464168
O O3 0.949996 0.682929 0.414156
O O4 0.580658 0.943045 0.560923
O O5 0.075417 0.520310 0.121321
O O6 0.316448 0.506982 0.920791
O O7 0.363958 0.757661 0.933457
O O8 0.000000 0.000000 0.000000
O O9 0.029954 0.074566 0.348564
O O10 0.263072 0.799795 0.209366
O O11 0.873631 0.207415 0.286099
O O12 0.700366 0.741683 0.195560
O O13 0.743685 0.697009 0.304180
O O14 0.314234 0.105941 0.284487
O O15 0.503811 0.930650 0.135675
O O16 0.000000 0.000000 0.500000
O O17 0.500000 0.500000 0.500000
O O18 0.500000 0.000000 0.000000
#
# Coordination Sequence:
#
# PCOD9049112 Si02
#       8
#     2   2   2   2   2   2   2   2
#     4  11  25  42  68 100 135 190 223 278 358 405
#     4  10  24  46  69 102 131 181 232 279 347 403
#     4  11  24  43  67 103 137 176 232 276 352 413
#     4  11  22  44  70 100 138 176 232 292 333 416
#     4  10  26  44  70  99 137 180 234 279 348 406
#     4  11  25  43  66  99 140 183 228 286 343 416
#     4  11  23  42  69 101 139 175 235 288 339 413
#     4  11  24  47  70  99 142 177 225 294 338 414
#
# _framework density 22.493010000000002
#
# number of rings (size 3 to 8) (size 9 to 14) (size 15 to 20)
#    0.000    1.250    2.500    1.875    5.250    7.500 
#    0.000    0.000    0.000    0.000    0.000    0.000 
#    0.000    0.000    0.000    0.000    0.000    0.000 
#
# Total GULP energy -89409.536415 kJ/mol
# GULP energy per Si atom -5588.096026 kJ/mol
# Density = 2.244181 g / cm^3
# Si number density = 22.493010 Si / 1000 Ang^3
#
#
#
# Elastic Constant Matrix: (Units=GPa)
#
#
# Indices 1 2 3 4 5 6 
#
# 1 75.1216 4.2879 36.8164 1.0689 -8.8126 6.0454
# 2 4.2879 57.2240 14.1536 11.5968 4.8752 7.7380
# 3 36.8164 14.1536 127.9207 22.3168 -16.1892 10.8380
# 4 1.0689 11.5968 22.3168 40.4802 2.7642 0.9532
# 5 -8.8126 4.8752 -16.1892 2.7642 39.3049 -11.3762
# 6 6.0454 7.7380 10.8380 0.9532 -11.3762 27.3365
#
#
#
# Elastic Compliance Matrix: (Units=1/GPa)
#
#
# Indices 1 2 3 4 5 6 
#
# 1 0.015811 -0.000439 -0.004640 0.002210 0.001213 -0.001105
# 2 -0.000439 0.020100 -0.001334 -0.004519 -0.004824 -0.006914
# 3 -0.004640 -0.001334 0.010858 -0.005703 0.003657 -0.001180
# 4 0.002210 -0.004519 -0.005703 0.029282 -0.003143 0.000723
# 5 0.001213 -0.004824 0.003657 -0.003143 0.031800 0.012991
# 6 -0.001105 -0.006914 -0.001180 0.000723 0.012991 0.044631
#
#
# Mechanical properties :
#
#
# Convention : Reuss Voigt Hill
#
# Bulk Modulus (GPa) = 29.46150 41.19801 35.32976
# Shear Modulus (GPa) = 28.30914 35.09156 31.70035
#
# Velocity S-wave (km/s) = 3.55149 3.95411 3.75819
# Velocity P-wave (km/s) = 5.47211 6.26117 5.87989
#
# Compressibility (1/GPa) = 0.03394260
#
# Stress axis : x y z
#
# Youngs Moduli (GPa) = 63.24836 49.75205 92.09581
#
# Poissons Ratio (x) = 0.02183 0.42735
# Poissons Ratio (y) = 0.02775 0.12286
# Poissons Ratio (z) = 0.29349 0.06637
#
# Static dielectric constant tensor:
#      x y z
#    x 1.848080 -0.044100 -0.017640 
#    y -0.044100 1.874760 -0.008560 
#    z -0.017640 -0.008560 1.854000 
# 
# From -- ./inp_files/356026.got.cif
#   From: 2010.05.17/outbox.cif.g08.bks.cpg/sg2_179_cif.got.tgz:356026.got - 2010.06.03 11:33:40.
