data_PCOD9049891
_publ_section_title
;
Structure prediction by ZEFSAII (Michael W. Deem and Ramdas Pophale) SiO2 
 PCOD9049891
Probable space group: P -1
;
_chemical_formula_sum "Si O2"
_cell_formula_units_Z 14
_cell_length_a 23.996885
_cell_length_b 4.833521
_cell_length_c 9.070956
_cell_angle_alpha 62.385830
_cell_angle_beta 141.443396
_cell_angle_gamma 129.726518
_cell_volume 502.918856
_symmetry_space_group_name_H-M "P -1"
_symmetry_group_IT_number 2
_symmetry_cell_setting 'triclinic'
loop_
_space_group_symop_operation_xyz
x,y,z
-x,-y,-z
loop_
_atom_site_type_symbol
_atom_site_label
_atom_site_fract_x
_atom_site_fract_y
_atom_site_fract_z
Si Si1 0.888012 0.636621 0.019252
Si Si2 0.220635 0.294521 0.813950
Si Si3 0.848591 0.242029 0.755217
Si Si4 0.602649 0.531250 0.032232
Si Si5 0.671226 0.265665 0.806113
Si Si6 0.090304 0.630479 0.491160
Si Si7 0.385197 0.343424 0.624396
O O1 0.976167 0.569271 0.281412
O O2 0.883273 0.584983 0.845116
O O3 0.774871 0.344690 0.913664
O O4 0.901863 0.023870 0.984880
O O5 0.125872 0.340184 0.666967
O O6 0.164128 0.970957 0.660484
O O7 0.315365 0.575091 0.833397
O O8 0.289664 0.404485 0.078202
O O9 0.879376 0.307022 0.633777
O O10 0.726360 0.975210 0.574753
O O11 0.481500 0.283238 0.809973
O O12 0.632091 0.901992 0.910033
O O13 0.616216 0.589743 0.220568
O O14 0.600486 0.314707 0.527786
#
# Coordination Sequence:
#
# PCOD9049891 Si02
#       7
#     2   2   2   2   2   2   2
#     4  11  26  42  73 108 148 198 252 295 384 431
#     4  12  25  45  72 105 155 189 247 304 370 434
#     4  11  22  45  70 111 148 190 252 316 354 453
#     4  11  24  51  71 113 144 198 245 310 367 448
#     4  11  26  47  73 111 154 190 248 311 360 454
#     4  12  24  45  73 106 150 202 241 314 362 442
#     4  10  24  47  80 104 147 198 246 303 382 430
#
# _framework density 27.837492999999998
#
# number of rings (size 3 to 8) (size 9 to 14) (size 15 to 20)
#    0.000    0.857    2.857    3.000    6.000    1.714 
#    5.143    2.143    0.000    0.000    0.000    0.000 
#    0.000    0.000    0.000    0.000    0.000    0.000 
#
# Total GULP energy -78406.461140 kJ/mol
# GULP energy per Si atom -5600.461510 kJ/mol
# Density = 2.777413 g / cm^3
# Si number density = 27.837493 Si / 1000 Ang^3
#
#
#
# Elastic Constant Matrix: (Units=GPa)
#
#
# Indices 1 2 3 4 5 6 
#
# 1 139.5220 30.8436 57.9921 19.4394 0.4182 -3.8018
# 2 30.8436 70.1568 25.2566 -2.5342 -13.6858 -9.3554
# 3 57.9921 25.2566 167.1882 -5.6831 7.1794 5.0737
# 4 19.4394 -2.5342 -5.6831 50.6541 17.8652 -7.9423
# 5 0.4182 -13.6858 7.1794 17.8652 64.7238 1.2126
# 6 -3.8018 -9.3554 5.0737 -7.9423 1.2126 43.5312
#
#
#
# Elastic Compliance Matrix: (Units=1/GPa)
#
#
# Indices 1 2 3 4 5 6 
#
# 1 0.009804 -0.003238 -0.003097 -0.004638 0.000882 -0.000349
# 2 -0.003238 0.017547 -0.001750 0.001291 0.003497 0.003830
# 3 -0.003097 -0.001750 0.007512 0.002430 -0.001835 -0.001028
# 4 -0.004638 0.001291 0.002430 0.024989 -0.006945 0.004342
# 5 0.000882 0.003497 -0.001835 -0.006945 0.018318 -0.000735
# 6 -0.000349 0.003830 -0.001028 0.004342 -0.000735 0.024697
#
#
# Mechanical properties :
#
#
# Convention : Reuss Voigt Hill
#
# Bulk Modulus (GPa) = 53.49142 67.22794 60.35968
# Shear Modulus (GPa) = 39.91425 49.30012 44.60718
#
# Velocity S-wave (km/s) = 3.79070 4.21289 4.00736
# Velocity P-wave (km/s) = 6.19811 6.91861 6.56825
#
# Compressibility (1/GPa) = 0.01869459
#
# Stress axis : x y z
#
# Youngs Moduli (GPa) = 101.99761 56.99023 133.11379
#
# Poissons Ratio (x) = 0.18451 0.41220
# Poissons Ratio (y) = 0.33022 0.23299
# Poissons Ratio (z) = 0.31584 0.09975
#
# Static dielectric constant tensor:
#      x y z
#    x 2.184570 0.006100 0.059020 
#    y 0.006100 2.318700 -0.189280 
#    z 0.059020 -0.189280 2.196880 
# 
# From -- ./inp_files/111588.got.cif
#   From: 2010.05.17/outbox.cif.g08.bks.cpg/sg2_56_cif.got.tgz:111588.got - 2010.06.03 11:33:40.
