data_PCOD9049658
_publ_section_title
;
Structure prediction by ZEFSAII (Michael W. Deem and Ramdas Pophale) SiO2 
 PCOD9049658
Probable space group: P -1
;
_chemical_formula_sum "Si O2"
_cell_formula_units_Z 16
_cell_length_a 11.489513
_cell_length_b 9.785204
_cell_length_c 14.727164
_cell_angle_alpha 26.815696
_cell_angle_beta 66.423127
_cell_angle_gamma 64.310259
_cell_volume 672.757354
_symmetry_space_group_name_H-M "P -1"
_symmetry_group_IT_number 2
_symmetry_cell_setting 'triclinic'
loop_
_space_group_symop_operation_xyz
x,y,z
-x,-y,-z
loop_
_atom_site_type_symbol
_atom_site_label
_atom_site_fract_x
_atom_site_fract_y
_atom_site_fract_z
Si Si1 0.082930 0.253693 0.414860
Si Si2 0.555413 0.734701 0.209587
Si Si3 0.418902 0.930471 0.812410
Si Si4 0.707872 0.489244 0.547459
Si Si5 0.816419 0.529418 0.292480
Si Si6 0.095243 0.872008 0.157601
Si Si7 0.302640 0.354384 0.153240
Si Si8 0.089341 0.732352 0.873181
O O1 0.066859 0.581612 0.281355
O O2 0.204662 0.237973 0.320586
O O3 0.951293 0.303136 0.367532
O O4 0.100343 0.979639 0.644659
O O5 0.436697 0.575408 0.366341
O O6 0.693943 0.526101 0.266379
O O7 0.593873 0.897161 0.191143
O O8 0.500000 0.000000 0.000000
O O9 0.570264 0.888793 0.767720
O O10 0.321817 0.141940 0.648061
O O11 0.369372 0.614408 0.025345
O O12 0.777422 0.429244 0.464368
O O13 0.794282 0.284721 0.714529
O O14 0.850533 0.872101 0.069598
O O15 0.979383 0.064950 0.139881
O O16 0.219686 0.515218 0.998591
O O17 0.000000 0.500000 0.000000
#
# Coordination Sequence:
#
# PCOD9049658 Si02
#       8
#     2   2   2   2   2   2   2   2
#     4  12  25  45  76 105 134 192 239 285 354 421
#     4  11  23  40  68 102 135 178 229 292 344 407
#     4  10  24  47  70  98 142 189 227 291 350 421
#     4  11  23  42  68 104 138 177 236 287 351 408
#     4  11  22  39  69 103 136 175 238 289 347 403
#     4  12  24  43  75 107 138 178 241 298 344 418
#     4  11  26  49  69  98 146 184 235 285 353 427
#     4  12  29  46  68 108 149 185 228 295 361 419
#
# _framework density 23.782717999999999
#
# number of rings (size 3 to 8) (size 9 to 14) (size 15 to 20)
#    0.000    0.750    3.750    4.500    5.250    1.500 
#    6.750    1.875    0.000    0.000    0.000    0.000 
#    0.000    0.000    0.000    0.000    0.000    0.000 
#
# Total GULP energy -89522.689907 kJ/mol
# GULP energy per Si atom -5595.168119 kJ/mol
# Density = 2.372859 g / cm^3
# Si number density = 23.782718 Si / 1000 Ang^3
#
#
#
# Elastic Constant Matrix: (Units=GPa)
#
#
# Indices 1 2 3 4 5 6 
#
# 1 124.9381 27.5074 40.0652 9.6014 20.9142 -30.3803
# 2 27.5074 70.9644 37.0328 3.0868 -0.3138 -29.3076
# 3 40.0652 37.0328 152.9669 24.0445 10.8022 -15.5936
# 4 9.6014 3.0868 24.0445 41.0981 -8.2606 -4.7197
# 5 20.9142 -0.3138 10.8022 -8.2606 43.7559 2.4235
# 6 -30.3803 -29.3076 -15.5936 -4.7197 2.4235 43.9325
#
#
#
# Elastic Compliance Matrix: (Units=1/GPa)
#
#
# Indices 1 2 3 4 5 6 
#
# 1 0.011487 -0.000782 -0.001327 -0.002242 -0.005982 0.007040
# 2 -0.000782 0.021763 -0.004315 0.002814 0.001424 0.012670
# 3 -0.001327 -0.004315 0.008802 -0.005139 -0.002479 -0.001088
# 4 -0.002242 0.002814 -0.005139 0.029367 0.007837 0.001225
# 5 -0.005982 0.001424 -0.002479 0.007837 0.028079 -0.004773
# 6 0.007040 0.012670 -0.001088 0.001225 -0.004773 0.036092
#
#
# Mechanical properties :
#
#
# Convention : Reuss Voigt Hill
#
# Bulk Modulus (GPa) = 34.24198 62.00892 48.12545
# Shear Modulus (GPa) = 31.61120 42.04156 36.82638
#
# Velocity S-wave (km/s) = 3.64973 4.20901 3.93931
# Velocity P-wave (km/s) = 5.67360 7.05342 6.40080
#
# Compressibility (1/GPa) = 0.02920392
#
# Stress axis : x y z
#
# Youngs Moduli (GPa) = 87.05348 45.94994 113.61592
#
# Poissons Ratio (x) = 0.03591 0.15076
# Poissons Ratio (y) = 0.06804 0.49030
# Poissons Ratio (z) = 0.11551 0.19829
#
# Static dielectric constant tensor:
#      x y z
#    x 2.053520 -0.124530 0.057790 
#    y -0.124530 2.013090 -0.099210 
#    z 0.057790 -0.099210 1.957020 
# 
# From -- ./inp_files/569078.got.cif
#   From: 2010.05.17/outbox.cif.g08.bks.cpg/sg2_285_cif.got.tgz:569078.got - 2010.06.03 11:33:40.
