data_PCOD9049633
_publ_section_title
;
Structure prediction by ZEFSAII (Michael W. Deem and Ramdas Pophale) SiO2 
 PCOD9049633
Probable space group: P -1
;
_chemical_formula_sum "Si O2"
_cell_formula_units_Z 12
_cell_length_a 5.506416
_cell_length_b 8.665514
_cell_length_c 12.209118
_cell_angle_alpha 110.170812
_cell_angle_beta 87.608422
_cell_angle_gamma 120.577605
_cell_volume 464.310538
_symmetry_space_group_name_H-M "P -1"
_symmetry_group_IT_number 2
_symmetry_cell_setting 'triclinic'
loop_
_space_group_symop_operation_xyz
x,y,z
-x,-y,-z
loop_
_atom_site_type_symbol
_atom_site_label
_atom_site_fract_x
_atom_site_fract_y
_atom_site_fract_z
Si Si1 0.907477 0.283264 0.839759
Si Si2 0.451324 0.652642 0.981741
Si Si3 0.873064 0.884202 0.362992
Si Si4 0.342678 0.051663 0.109267
Si Si5 0.369806 0.579422 0.430946
Si Si6 0.223703 0.798410 0.660863
O O1 0.144649 0.509157 0.892131
O O2 0.923205 0.187046 0.704949
O O3 0.939698 0.141585 0.891161
O O4 0.622588 0.256776 0.891380
O O5 0.672612 0.785102 0.916827
O O6 0.500000 0.500000 0.000000
O O7 0.579097 0.689960 0.353605
O O8 0.832663 0.031004 0.324777
O O9 0.000000 0.000000 0.500000
O O10 0.545931 0.143748 0.233383
O O11 0.500000 0.000000 0.000000
O O12 0.500000 0.500000 0.500000
O O13 0.321387 0.732747 0.534787
O O14 0.074826 0.395525 0.351545
#
# Coordination Sequence:
#
# PCOD9049633 Si02
#       6
#     2   2   2   2   2   2
#     4  10  25  45  69 106 144 179 244 290 358 422
#     4  10  24  49  71 103 138 192 240 295 355 416
#     4  12  25  45  73 105 146 185 232 298 360 427
#     4  10  24  47  70 101 142 184 241 291 350 424
#     4  11  25  48  72 106 142 189 243 290 362 426
#     4  11  26  46  72 104 144 193 238 294 356 424
#
# _framework density 25.84477
#
# number of rings (size 3 to 8) (size 9 to 14) (size 15 to 20)
#    0.000    1.333    1.667    1.500    7.000    2.000 
#   12.000    0.000    0.000    0.000    0.000    0.000 
#    0.000    0.000    0.000    0.000    0.000    0.000 
#
# Total GULP energy -67125.844606 kJ/mol
# GULP energy per Si atom -5593.820384 kJ/mol
# Density = 2.578595 g / cm^3
# Si number density = 25.844770 Si / 1000 Ang^3
#
#
#
# Elastic Constant Matrix: (Units=GPa)
#
#
# Indices 1 2 3 4 5 6 
#
# 1 55.8261 11.2490 35.2382 9.5412 -3.5810 -15.3713
# 2 11.2490 126.0416 33.4261 0.5510 -3.2427 8.8583
# 3 35.2382 33.4261 138.5552 19.3611 -10.7865 -7.4158
# 4 9.5412 0.5510 19.3611 36.7210 1.4726 -0.4156
# 5 -3.5810 -3.2427 -10.7865 1.4726 59.8634 5.1469
# 6 -15.3713 8.8583 -7.4158 -0.4156 5.1469 48.2258
#
#
#
# Elastic Compliance Matrix: (Units=1/GPa)
#
#
# Indices 1 2 3 4 5 6 
#
# 1 0.023789 -0.001313 -0.004869 -0.003513 -0.000045 0.007050
# 2 -0.001313 0.008765 -0.002068 0.001266 0.000195 -0.002356
# 3 -0.004869 -0.002068 0.009605 -0.003823 0.001411 0.000122
# 4 -0.003513 0.001266 -0.003823 0.030183 -0.001442 -0.001526
# 5 -0.000045 0.000195 0.001411 -0.001442 0.017146 -0.001676
# 6 0.007050 -0.002356 0.000122 -0.001526 -0.001676 0.023600
#
#
# Mechanical properties :
#
#
# Convention : Reuss Voigt Hill
#
# Bulk Modulus (GPa) = 38.97337 53.36106 46.16721
# Shear Modulus (GPa) = 36.19491 44.99602 40.59547
#
# Velocity S-wave (km/s) = 3.74635 4.17707 3.96756
# Velocity P-wave (km/s) = 5.81602 6.62989 6.23624
#
# Compressibility (1/GPa) = 0.02565855
#
# Stress axis : x y z
#
# Youngs Moduli (GPa) = 42.03610 114.09412 104.11052
#
# Poissons Ratio (x) = 0.14983 0.50688
# Poissons Ratio (y) = 0.05520 0.21533
# Poissons Ratio (z) = 0.20466 0.23598
#
# Static dielectric constant tensor:
#      x y z
#    x 2.195070 -0.025430 0.037760 
#    y -0.025430 2.289980 0.074370 
#    z 0.037760 0.074370 2.002200 
# 
# From -- ./inp_files/28811.got.cif
#   From: 2010.05.17/outbox.cif.g08.bks.cpg/sg2_15_cif.got.tgz:28811.got - 2010.06.03 11:33:40.
