data_PCOD9049668
_publ_section_title
;
Structure prediction by ZEFSAII (Michael W. Deem and Ramdas Pophale) SiO2 
 PCOD9049668
Probable space group: P -1
;
_chemical_formula_sum "Si O2"
_cell_formula_units_Z 14
_cell_length_a 5.315745
_cell_length_b 20.734244
_cell_length_c 8.936570
_cell_angle_alpha 138.310570
_cell_angle_beta 77.891530
_cell_angle_gamma 82.071195
_cell_volume 571.031520
_symmetry_space_group_name_H-M "P -1"
_symmetry_group_IT_number 2
_symmetry_cell_setting 'triclinic'
loop_
_space_group_symop_operation_xyz
x,y,z
-x,-y,-z
loop_
_atom_site_type_symbol
_atom_site_label
_atom_site_fract_x
_atom_site_fract_y
_atom_site_fract_z
Si Si1 0.618125 0.034339 0.189001
Si Si2 0.956219 0.499053 0.681511
Si Si3 0.774668 0.382152 0.714984
Si Si4 0.199567 0.827426 0.800735
Si Si5 0.715950 0.369159 0.024698
Si Si6 0.366117 0.802636 0.068874
Si Si7 0.271550 0.110856 0.651590
O O1 0.727001 0.117862 0.255216
O O2 0.368638 0.101660 0.452940
O O3 0.500000 0.000000 0.000000
O O4 0.869269 0.922338 0.033868
O O5 0.016156 0.404332 0.633908
O O6 0.615174 0.552754 0.824200
O O7 0.000000 0.500000 0.500000
O O8 0.106967 0.568323 0.842164
O O9 0.741919 0.294130 0.459799
O O10 0.500000 0.500000 0.000000
O O11 0.848560 0.321742 0.763146
O O12 0.374874 0.816065 0.913054
O O13 0.683931 0.298743 0.042488
O O14 0.635853 0.805269 0.126847
O O15 0.038704 0.886978 0.299110
O O16 0.500000 0.000000 0.500000
#
# Coordination Sequence:
#
# PCOD9049668 Si02
#       7
#     2   2   2   2   2   2   2
#     4  11  26  45  71 108 144 187 242 293 365 429
#     4  11  23  45  70  99 139 179 236 299 353 419
#     4  10  24  47  71 102 141 192 241 295 362 424
#     4  11  25  46  71 103 146 189 239 303 355 433
#     4  11  24  44  68 102 137 182 237 290 356 427
#     4  12  26  45  72 108 142 192 241 291 367 427
#     4  12  25  45  71 101 148 186 236 297 358 432
#
# _framework density 24.517033999999999
#
# number of rings (size 3 to 8) (size 9 to 14) (size 15 to 20)
#    0.000    0.857    1.429    4.714    6.000    2.286 
#    5.143    0.000    0.000    0.000    0.000    0.000 
#    0.000    0.000    0.000    0.000    0.000    0.000 
#
# Total GULP energy -77989.631740 kJ/mol
# GULP energy per Si atom -5570.687981 kJ/mol
# Density = 2.446123 g / cm^3
# Si number density = 24.517034 Si / 1000 Ang^3
#
#
#
# Elastic Constant Matrix: (Units=GPa)
#
#
# Indices 1 2 3 4 5 6 
#
# 1 106.9932 18.8270 31.7574 8.0706 21.1496 6.2400
# 2 18.8270 113.7571 38.1744 -18.3966 -8.2083 19.1659
# 3 31.7574 38.1744 91.1237 -14.1206 17.2578 3.2736
# 4 8.0706 -18.3966 -14.1206 59.6691 -0.2866 8.2734
# 5 21.1496 -8.2083 17.2578 -0.2866 42.4587 3.1402
# 6 6.2400 19.1659 3.2736 8.2734 3.1402 43.0900
#
#
#
# Elastic Compliance Matrix: (Units=1/GPa)
#
#
# Indices 1 2 3 4 5 6 
#
# 1 0.011716 -0.001889 -0.002782 -0.002889 -0.005111 0.000282
# 2 -0.001889 0.012929 -0.005054 0.003946 0.005986 -0.006287
# 3 -0.002782 -0.005054 0.015489 0.002250 -0.005981 0.001478
# 4 -0.002889 0.003946 0.002250 0.019658 0.001821 -0.005415
# 5 -0.005111 0.005986 -0.005981 0.001821 0.029995 -0.004004
# 6 0.000282 -0.006287 0.001478 -0.005415 -0.004004 0.027182
#
#
# Mechanical properties :
#
#
# Convention : Reuss Voigt Hill
#
# Bulk Modulus (GPa) = 48.34636 54.37685 51.36160
# Shear Modulus (GPa) = 34.88835 43.91793 39.40314
#
# Velocity S-wave (km/s) = 3.77639 4.23699 4.01331
# Velocity P-wave (km/s) = 6.22713 6.79437 6.51693
#
# Compressibility (1/GPa) = 0.02068408
#
# Stress axis : x y z
#
# Youngs Moduli (GPa) = 85.35169 77.34721 64.56099
#
# Poissons Ratio (x) = 0.14612 0.17959
# Poissons Ratio (y) = 0.16124 0.32631
# Poissons Ratio (z) = 0.23742 0.39093
#
# Static dielectric constant tensor:
#      x y z
#    x 2.143220 -0.379320 -0.356930 
#    y -0.379320 2.814980 0.667370 
#    z -0.356930 0.667370 2.634520 
# 
# From -- ./inp_files/141053.got.cif
#   From: 2010.05.17/outbox.cif.g08.bks.cpg/sg2_71_cif.got.tgz:141053.got - 2010.06.03 11:33:40.
