data_PCOD9049053
_publ_section_title
;
Structure prediction by ZEFSAII (Michael W. Deem and Ramdas Pophale) SiO2 
 PCOD9049053
Probable space group: P -1
;
_chemical_formula_sum "Si O2"
_cell_formula_units_Z 16
_cell_length_a 17.853552
_cell_length_b 8.749876
_cell_length_c 9.290683
_cell_angle_alpha 99.197547
_cell_angle_beta 38.320835
_cell_angle_gamma 119.860471
_cell_volume 704.931918
_symmetry_space_group_name_H-M "P -1"
_symmetry_group_IT_number 2
_symmetry_cell_setting 'triclinic'
loop_
_space_group_symop_operation_xyz
x,y,z
-x,-y,-z
loop_
_atom_site_type_symbol
_atom_site_label
_atom_site_fract_x
_atom_site_fract_y
_atom_site_fract_z
Si Si1 0.107802 0.393687 0.544456
Si Si2 0.813431 0.352283 0.933938
Si Si3 0.655459 0.022803 0.364778
Si Si4 0.567415 0.403271 0.806129
Si Si5 0.171186 0.292340 0.142431
Si Si6 0.054384 0.951589 0.048390
Si Si7 0.477734 0.370990 0.648869
Si Si8 0.564761 0.016817 0.063551
O O1 0.287414 0.556261 0.324828
O O2 0.093275 0.277632 0.406447
O O3 0.990177 0.441316 0.699201
O O4 0.052427 0.258746 0.748242
O O5 0.800418 0.525727 0.959996
O O6 0.729325 0.208975 0.176481
O O7 0.726089 0.210670 0.904922
O O8 0.557026 0.827021 0.387121
O O9 0.556572 0.012093 0.641751
O O10 0.790919 0.019589 0.216023
O O11 0.606277 0.473213 0.591950
O O12 0.439355 0.171523 0.951371
O O13 0.500000 0.500000 0.000000
O O14 0.082544 0.102349 0.150239
O O15 0.329997 0.331362 0.940309
O O16 0.000000 0.000000 0.000000
O O17 0.500000 0.500000 0.500000
O O18 0.500000 0.000000 0.000000
#
# Coordination Sequence:
#
# PCOD9049053 Si02
#       8
#     2   2   2   2   2   2   2   2
#     4  11  25  45  68 101 143 182 229 285 357 407
#     4  11  24  46  72 101 141 184 231 282 356 413
#     4  10  24  46  68 100 136 186 230 280 352 407
#     4  12  27  45  70 107 139 177 238 292 342 412
#     4  11  23  43  72  98 135 189 230 282 346 414
#     4  10  25  43  68 103 139 183 232 285 344 414
#     4  11  24  42  72  99 137 183 233 285 341 408
#     4  12  27  45  73 103 140 182 237 289 340 416
#
# _framework density 22.697229
#
# number of rings (size 3 to 8) (size 9 to 14) (size 15 to 20)
#    0.000    1.000    2.500    2.625    7.000    3.000 
#    0.000    2.500    0.000    0.000    0.000    0.000 
#    0.000    0.000    0.000    0.000    0.000    0.000 
#
# Total GULP energy -89480.920468 kJ/mol
# GULP energy per Si atom -5592.557529 kJ/mol
# Density = 2.264557 g / cm^3
# Si number density = 22.697229 Si / 1000 Ang^3
#
#
#
# Elastic Constant Matrix: (Units=GPa)
#
#
# Indices 1 2 3 4 5 6 
#
# 1 167.9834 17.2732 36.5324 5.5278 -1.4045 -11.3753
# 2 17.2732 87.3627 19.6339 8.2794 -11.3464 -19.6643
# 3 36.5324 19.6339 78.3227 20.1943 -2.5387 -5.9439
# 4 5.5278 8.2794 20.1943 31.8032 -0.1710 -4.3302
# 5 -1.4045 -11.3464 -2.5387 -0.1710 39.5554 -1.0724
# 6 -11.3753 -19.6643 -5.9439 -4.3302 -1.0724 31.1931
#
#
#
# Elastic Compliance Matrix: (Units=1/GPa)
#
#
# Indices 1 2 3 4 5 6 
#
# 1 0.006777 -0.000314 -0.003259 0.001221 -0.000004 0.001822
# 2 -0.000314 0.014664 -0.002480 -0.000986 0.004267 0.008668
# 3 -0.003259 -0.002480 0.017424 -0.009960 0.000226 -0.000806
# 4 0.001221 -0.000986 -0.009960 0.038246 -0.000626 0.003214
# 5 -0.000004 0.004267 0.000226 -0.000626 0.026613 0.003560
# 6 0.001822 0.008668 -0.000806 0.003214 0.003560 0.038602
#
#
# Mechanical properties :
#
#
# Convention : Reuss Voigt Hill
#
# Bulk Modulus (GPa) = 37.36868 53.39421 45.38144
# Shear Modulus (GPa) = 30.60883 37.85896 34.23390
#
# Velocity S-wave (km/s) = 3.67627 4.08855 3.88788
# Velocity P-wave (km/s) = 5.87535 6.77229 6.33970
#
# Compressibility (1/GPa) = 0.02676038
#
# Stress axis : x y z
#
# Youngs Moduli (GPa) = 147.55376 68.19275 57.39303
#
# Poissons Ratio (x) = 0.02138 0.18706
# Poissons Ratio (y) = 0.04627 0.14231
# Poissons Ratio (z) = 0.48091 0.16909
#
# Static dielectric constant tensor:
#      x y z
#    x 1.885100 0.001320 0.029300 
#    y 0.001320 1.820160 -0.046890 
#    z 0.029300 -0.046890 1.894780 
# 
# From -- ./inp_files/329111.got.cif
#   From: 2010.05.17/outbox.cif.g08.bks.cpg/sg2_165_cif.got.tgz:329111.got - 2010.06.03 11:33:40.
