data_PCOD9049345
_publ_section_title
;
Structure prediction by ZEFSAII (Michael W. Deem and Ramdas Pophale) SiO2 
 PCOD9049345
Probable space group: P -1
;
_chemical_formula_sum "Si O2"
_cell_formula_units_Z 12
_cell_length_a 11.080948
_cell_length_b 17.621720
_cell_length_c 10.538062
_cell_angle_alpha 152.156924
_cell_angle_beta 38.919523
_cell_angle_gamma 149.896890
_cell_volume 481.277606
_symmetry_space_group_name_H-M "P -1"
_symmetry_group_IT_number 2
_symmetry_cell_setting 'triclinic'
loop_
_space_group_symop_operation_xyz
x,y,z
-x,-y,-z
loop_
_atom_site_type_symbol
_atom_site_label
_atom_site_fract_x
_atom_site_fract_y
_atom_site_fract_z
Si Si1 0.747005 0.780360 0.850069
Si Si2 0.752272 0.280413 0.360618
Si Si3 0.079258 0.750897 0.061772
Si Si4 0.986643 0.376823 0.704483
Si Si5 0.462412 0.439456 0.792154
Si Si6 0.555100 0.068178 0.740184
O O1 0.612806 0.639835 0.876614
O O2 0.817311 0.663437 0.531438
O O3 0.568189 0.818318 0.988912
O O4 0.000000 0.000000 0.000000
O O5 0.805921 0.164889 0.045707
O O6 0.566955 0.313881 0.503348
O O7 0.000000 0.500000 0.500000
O O8 0.654300 0.165076 0.403389
O O9 0.022724 0.528999 0.792520
O O10 0.266555 0.878850 0.209301
O O11 0.820706 0.701122 0.214337
O O12 0.730009 0.156148 0.605962
O O13 0.000000 0.500000 0.000000
O O14 0.500000 0.500000 0.000000
#
# Coordination Sequence:
#
# PCOD9049345 Si02
#       6
#     2   2   2   2   2   2
#     4  12  27  45  76 111 146 195 251 306 368 440
#     4  12  25  45  72 103 149 194 242 303 373 436
#     4  11  24  46  70 105 145 194 241 305 367 435
#     4  10  24  46  72 108 146 191 241 304 373 430
#     4  12  26  44  72 104 146 194 243 300 373 443
#     4  11  27  45  73 109 146 188 253 305 366 440
#
# _framework density 24.933634000000001
#
# number of rings (size 3 to 8) (size 9 to 14) (size 15 to 20)
#    0.000    0.667    5.000    1.500    2.333    6.667 
#    0.000    0.000    0.000    0.000    0.000    0.000 
#    0.000    0.000    0.000    0.000    0.000    0.000 
#
# Total GULP energy -67184.763214 kJ/mol
# GULP energy per Si atom -5598.730268 kJ/mol
# Density = 2.487688 g / cm^3
# Si number density = 24.933634 Si / 1000 Ang^3
#
#
#
# Elastic Constant Matrix: (Units=GPa)
#
#
# Indices 1 2 3 4 5 6 
#
# 1 116.4522 56.7374 42.6821 -15.6049 -13.1786 10.8119
# 2 56.7374 170.2049 38.1384 -3.6104 -9.2596 -3.1892
# 3 42.6821 38.1384 76.3741 -19.2982 -19.8271 19.1113
# 4 -15.6049 -3.6104 -19.2982 51.2868 7.2259 -11.0451
# 5 -13.1786 -9.2596 -19.8271 7.2259 54.9003 -11.7175
# 6 10.8119 -3.1892 19.1113 -11.0451 -11.7175 51.9212
#
#
#
# Elastic Compliance Matrix: (Units=1/GPa)
#
#
# Indices 1 2 3 4 5 6 
#
# 1 0.012007 -0.002924 -0.004618 0.001532 0.000399 -0.000564
# 2 -0.002924 0.007502 -0.002828 -0.001026 0.000085 0.001912
# 3 -0.004618 -0.002828 0.020526 0.004480 0.004199 -0.004867
# 4 0.001532 -0.001026 0.004480 0.022210 -0.000563 0.002567
# 5 0.000399 0.000085 0.004199 -0.000563 0.020533 0.002890
# 6 -0.000564 0.001912 -0.004867 0.002567 0.002890 0.022485
#
#
# Mechanical properties :
#
#
# Convention : Reuss Voigt Hill
#
# Bulk Modulus (GPa) = 51.82448 70.90522 61.36485
# Shear Modulus (GPa) = 37.75430 46.65319 42.20375
#
# Velocity S-wave (km/s) = 3.89548 4.33031 4.11864
# Velocity P-wave (km/s) = 6.40805 7.31447 6.87621
#
# Compressibility (1/GPa) = 0.01929590
#
# Stress axis : x y z
#
# Youngs Moduli (GPa) = 83.28139 133.29195 48.71801
#
# Poissons Ratio (x) = 0.38977 0.22499
# Poissons Ratio (y) = 0.24353 0.13776
# Poissons Ratio (z) = 0.38462 0.37690
#
# Static dielectric constant tensor:
#      x y z
#    x 1.992250 -0.023100 0.091420 
#    y -0.023100 2.105920 0.002780 
#    z 0.091420 0.002780 2.011900 
# 
# From -- ./inp_files/435116.got.cif
#   From: 2010.05.17/outbox.cif.g08.bks.cpg/sg2_218_cif.got.tgz:435116.got - 2010.06.03 11:33:40.
