data_PCOD9049415
_publ_section_title
;
Structure prediction by ZEFSAII (Michael W. Deem and Ramdas Pophale) SiO2 
 PCOD9049415
Probable space group: P -1
;
_chemical_formula_sum "Si O2"
_cell_formula_units_Z 16
_cell_length_a 19.289820
_cell_length_b 7.171744
_cell_length_c 16.019770
_cell_angle_alpha 102.410799
_cell_angle_beta 17.231453
_cell_angle_gamma 101.368483
_cell_volume 640.914455
_symmetry_space_group_name_H-M "P -1"
_symmetry_group_IT_number 2
_symmetry_cell_setting 'triclinic'
loop_
_space_group_symop_operation_xyz
x,y,z
-x,-y,-z
loop_
_atom_site_type_symbol
_atom_site_label
_atom_site_fract_x
_atom_site_fract_y
_atom_site_fract_z
Si Si1 0.755371 0.371099 0.974648
Si Si2 0.599637 0.436664 0.977471
Si Si3 0.709319 0.791933 0.797941
Si Si4 0.467590 0.757004 0.648232
Si Si5 0.786116 0.107095 0.307193
Si Si6 0.757832 0.423235 0.239420
Si Si7 0.867136 0.313234 0.409893
Si Si8 0.939923 0.980199 0.701512
O O1 0.934443 0.528893 0.808973
O O2 0.824794 0.154919 0.901037
O O3 0.726171 0.375562 0.910003
O O4 0.512612 0.372857 0.303390
O O5 0.516219 0.252080 0.004427
O O6 0.376179 0.571085 0.276528
O O7 0.754291 0.570509 0.753744
O O8 0.743348 0.895289 0.857708
O O9 0.875867 0.907953 0.556972
O O10 0.629719 0.627606 0.386311
O O11 0.227080 0.709788 0.872988
O O12 0.579676 0.958736 0.544676
O O13 0.687186 0.273698 0.377401
O O14 0.851227 0.195698 0.330876
O O15 0.000000 0.000000 0.000000
O O16 0.000000 0.500000 0.000000
O O17 0.944142 0.173477 0.384491
#
# Coordination Sequence:
#
# PCOD9049415 Si02
#       8
#     2   2   2   2   2   2   2   2
#     4  12  27  47  70 106 146 189 238 298 359 424
#     4  11  25  47  76 102 147 194 237 295 361 430
#     4  10  24  46  73 110 141 192 242 291 360 432
#     4  11  27  43  74 103 138 187 239 290 360 427
#     4  12  27  46  74 104 142 187 241 296 357 427
#     4  11  23  48  72 101 139 182 232 298 358 422
#     4  12  28  48  70 107 150 189 241 303 361 423
#     4  11  26  45  76 106 145 191 238 297 358 426
#
# _framework density 24.964331000000001
#
# number of rings (size 3 to 8) (size 9 to 14) (size 15 to 20)
#    0.000    0.750    3.750    1.875    7.000    8.000 
#    0.000    0.000    0.000    0.000    0.000    0.000 
#    0.000    0.000    0.000    0.000    0.000    0.000 
#
# Total GULP energy -89290.590803 kJ/mol
# GULP energy per Si atom -5580.661925 kJ/mol
# Density = 2.490751 g / cm^3
# Si number density = 24.964331 Si / 1000 Ang^3
#
#
#
# Elastic Constant Matrix: (Units=GPa)
#
#
# Indices 1 2 3 4 5 6 
#
# 1 179.1900 73.3922 32.1655 -25.3958 -0.4920 31.0916
# 2 73.3922 169.9546 54.0222 -36.8607 -12.0200 13.0461
# 3 32.1655 54.0222 47.0938 -16.9850 4.0964 -7.8006
# 4 -25.3958 -36.8607 -16.9850 65.9149 1.0778 -6.1878
# 5 -0.4920 -12.0200 4.0964 1.0778 26.2359 -9.7167
# 6 31.0916 13.0461 -7.8006 -6.1878 -9.7167 60.5061
#
#
#
# Elastic Compliance Matrix: (Units=1/GPa)
#
#
# Indices 1 2 3 4 5 6 
#
# 1 0.007821 -0.001948 -0.003411 0.000674 -0.001819 -0.004262
# 2 -0.001948 0.011664 -0.012040 0.002396 0.006426 -0.001789
# 3 -0.003411 -0.012040 0.040795 0.003411 -0.008933 0.008523
# 4 0.000674 0.002396 0.003411 0.017780 0.000387 0.001457
# 5 -0.001819 0.006426 -0.008933 0.000387 0.044471 0.005579
# 6 -0.004262 -0.001789 0.008523 0.001457 0.005579 0.021247
#
#
# Mechanical properties :
#
#
# Convention : Reuss Voigt Hill
#
# Bulk Modulus (GPa) = 39.24660 79.48869 59.36765
# Shear Modulus (GPa) = 26.72781 46.30859 36.51820
#
# Velocity S-wave (km/s) = 3.27561 4.31163 3.82883
# Velocity P-wave (km/s) = 5.48283 7.52974 6.58629
#
# Compressibility (1/GPa) = 0.02547991
#
# Stress axis : x y z
#
# Youngs Moduli (GPa) = 127.85951 85.73371 24.51299
#
# Poissons Ratio (x) = 0.16704 0.08362
# Poissons Ratio (y) = 0.24911 0.29514
# Poissons Ratio (z) = 0.43617 1.03226
#
# Static dielectric constant tensor:
#      x y z
#    x -0.502180 -0.630940 -1.438360 
#    y -0.630940 1.909290 -0.005030 
#    z -1.438360 -0.005030 2.168620 
# 
# From -- ./inp_files/576803.got.cif
#   From: 2010.05.17/outbox.cif.g08.bks.cpg/sg2_289_cif.got.tgz:576803.got - 2010.06.03 11:33:40.
