data_PCOD9049598
_publ_section_title
;
Structure prediction by ZEFSAII (Michael W. Deem and Ramdas Pophale) SiO2 
 PCOD9049598
Probable space group: P -1
;
_chemical_formula_sum "Si O2"
_cell_formula_units_Z 13
_cell_length_a 15.111437
_cell_length_b 12.042188
_cell_length_c 17.538883
_cell_angle_alpha 152.652366
_cell_angle_beta 156.507948
_cell_angle_gamma 25.606114
_cell_volume 513.989774
_symmetry_space_group_name_H-M "P -1"
_symmetry_group_IT_number 2
_symmetry_cell_setting 'triclinic'
loop_
_space_group_symop_operation_xyz
x,y,z
-x,-y,-z
loop_
_atom_site_type_symbol
_atom_site_label
_atom_site_fract_x
_atom_site_fract_y
_atom_site_fract_z
Si Si1 0.000000 0.500000 0.500000
Si Si2 0.518623 0.475207 0.181349
Si Si3 0.027559 0.012412 0.121316
Si Si4 0.184867 0.072162 0.834252
Si Si5 0.403364 0.786411 0.695387
Si Si6 0.491515 0.238732 0.870387
Si Si7 0.351974 0.816954 0.491751
O O1 0.254265 0.504619 0.668590
O O2 0.017714 0.286168 0.313794
O O3 0.643026 0.246865 0.203628
O O4 0.293246 0.762879 0.203757
O O5 0.400484 0.347400 0.948889
O O6 0.783158 0.002911 0.956954
O O7 0.000000 0.000000 0.000000
O O8 0.185782 0.043587 0.726144
O O9 0.919096 0.165429 0.720309
O O10 0.337286 0.221337 0.075632
O O11 0.387442 0.828032 0.617475
O O12 0.435184 0.481146 0.547427
O O13 0.345039 0.097169 0.625746
O O14 0.500000 0.500000 0.000000
#
# Coordination Sequence:
#
# PCOD9049598 Si02
#       7
#     1   2   2   2   2   2   2
#     4  10  26  42  66 100 142 182 248 288 350 446
#     4  11  24  43  67 104 142 187 233 298 360 426
#     4  11  24  44  69  95 145 193 237 294 356 432
#     4  11  24  44  72 102 140 177 234 301 354 423
#     4  10  24  47  68 105 135 182 240 289 358 420
#     4  11  24  44  68 104 142 186 235 291 357 436
#     4  11  24  45  74 101 139 186 233 291 359 421
#
# _framework density 25.292334
#
# number of rings (size 3 to 8) (size 9 to 14) (size 15 to 20)
#    0.000    1.231    3.077    1.385    4.308    4.923 
#   11.077    0.000    0.000    0.000    0.000    0.000 
#    0.000    0.000    0.000    0.000    0.000    0.000 
#
# Total GULP energy -72464.855557 kJ/mol
# GULP energy per Si atom -5574.219658 kJ/mol
# Density = 2.523477 g / cm^3
# Si number density = 25.292334 Si / 1000 Ang^3
#
#
#
# Elastic Constant Matrix: (Units=GPa)
#
#
# Indices 1 2 3 4 5 6 
#
# 1 49.5319 9.0832 8.9441 15.5812 -6.6989 -0.1350
# 2 9.0832 103.0760 18.4915 20.0567 11.2301 -11.4493
# 3 8.9441 18.4915 122.8132 16.5292 10.8815 -5.8670
# 4 15.5812 20.0567 16.5292 39.5103 -1.4852 5.0243
# 5 -6.6989 11.2301 10.8815 -1.4852 50.4609 -1.2724
# 6 -0.1350 -11.4493 -5.8670 5.0243 -1.2724 26.6263
#
#
#
# Elastic Compliance Matrix: (Units=1/GPa)
#
#
# Indices 1 2 3 4 5 6 
#
# 1 0.023618 -0.000384 -0.000660 -0.008934 0.003142 0.001645
# 2 -0.000384 0.012102 -0.000347 -0.006746 -0.002710 0.006269
# 3 -0.000660 -0.000347 0.009040 -0.003733 -0.002008 0.002448
# 4 -0.008934 -0.006746 -0.003733 0.035203 0.001896 -0.010320
# 5 0.003142 -0.002710 -0.002008 0.001896 0.021303 -0.000932
# 6 0.001645 0.006269 0.002448 -0.010320 -0.000932 0.042703
#
#
# Mechanical properties :
#
#
# Convention : Reuss Voigt Hill
#
# Bulk Modulus (GPa) = 23.82113 38.71764 31.26938
# Shear Modulus (GPa) = 31.10571 39.24634 35.17602
#
# Velocity S-wave (km/s) = 3.51072 3.94345 3.73336
# Velocity P-wave (km/s) = 5.08648 6.00630 5.56543
#
# Compressibility (1/GPa) = 0.04197954
#
# Stress axis : x y z
#
# Youngs Moduli (GPa) = 42.33997 82.63241 110.62102
#
# Poissons Ratio (x) = 0.03173 0.07296
# Poissons Ratio (y) = 0.01626 0.03835
# Poissons Ratio (z) = 0.02792 0.02865
#
# Static dielectric constant tensor:
#      x y z
#    x 2.136390 -0.001140 -0.034410 
#    y -0.001140 2.262420 -0.033760 
#    z -0.034410 -0.033760 1.990190 
# 
# From -- ./inp_files/77883.got.cif
#   From: 2010.05.17/outbox.cif.g08.bks.cpg/sg2_39_cif.got.tgz:77883.got - 2010.06.03 11:33:40.
