data_PCOD9049165
_publ_section_title
;
Structure prediction by ZEFSAII (Michael W. Deem and Ramdas Pophale) SiO2 
 PCOD9049165
Probable space group: P -1
;
_chemical_formula_sum "Si O2"
_cell_formula_units_Z 15
_cell_length_a 12.116896
_cell_length_b 8.736290
_cell_length_c 9.410559
_cell_angle_alpha 108.411187
_cell_angle_beta 41.955047
_cell_angle_gamma 109.406895
_cell_volume 624.405067
_symmetry_space_group_name_H-M "P -1"
_symmetry_group_IT_number 2
_symmetry_cell_setting 'triclinic'
loop_
_space_group_symop_operation_xyz
x,y,z
-x,-y,-z
loop_
_atom_site_type_symbol
_atom_site_label
_atom_site_fract_x
_atom_site_fract_y
_atom_site_fract_z
Si Si1 0.186565 0.816676 0.085071
Si Si2 0.500000 0.500000 0.500000
Si Si3 0.469131 0.304488 0.957208
Si Si4 0.247258 0.876028 0.498410
Si Si5 0.557821 0.808531 0.729166
Si Si6 0.192711 0.689219 0.755500
Si Si7 0.013993 0.431943 0.624948
Si Si8 0.122524 0.169457 0.281374
O O1 0.157962 0.669088 0.181533
O O2 0.129719 0.980025 0.244445
O O3 0.380325 0.864896 0.880501
O O4 0.100951 0.741929 0.999777
O O5 0.562234 0.635947 0.602150
O O6 0.347317 0.604178 0.633152
O O7 0.623686 0.243192 0.712886
O O8 0.500000 0.500000 0.000000
O O9 0.449141 0.213863 0.101662
O O10 0.282644 0.246685 0.055371
O O11 0.249435 0.853728 0.659020
O O12 0.056269 0.827871 0.618545
O O13 0.307783 0.051852 0.425200
O O14 0.085412 0.564093 0.712267
O O15 0.125212 0.288101 0.450417
O O16 0.000000 0.500000 0.500000
#
# Coordination Sequence:
#
# PCOD9049165 Si02
#       8
#     2   1   2   2   2   2   2   2
#     4  11  27  48  74 110 152 205 254 313 391 470
#     4  10  24  46  70 102 148 206 248 306 394 456
#     4  12  27  45  74 115 151 202 263 321 382 463
#     4  12  26  48  75 109 155 197 255 325 379 460
#     4  11  25  47  71 109 155 199 258 319 385 459
#     4  11  26  51  74 111 154 205 257 319 392 466
#     4  12  25  47  76 113 150 199 255 323 383 461
#     4  12  27  45  78 111 150 204 255 313 392 453
#
# _framework density 24.022867000000002
#
# number of rings (size 3 to 8) (size 9 to 14) (size 15 to 20)
#    0.000    0.533    2.667    4.400    7.467    2.667 
#    2.400    0.000    0.000    0.000    0.000    0.000 
#    0.000    0.000    0.000    0.000    0.000    0.000 
#
# Total GULP energy -83647.116986 kJ/mol
# GULP energy per Si atom -5576.474466 kJ/mol
# Density = 2.396819 g / cm^3
# Si number density = 24.022867 Si / 1000 Ang^3
#
#
#
# Elastic Constant Matrix: (Units=GPa)
#
#
# Indices 1 2 3 4 5 6 
#
# 1 87.5193 29.5237 36.9838 -10.9209 2.1807 23.4949
# 2 29.5237 111.5657 45.5465 -3.5115 22.1022 2.3223
# 3 36.9838 45.5465 81.0526 -3.8969 0.8391 10.5965
# 4 -10.9209 -3.5115 -3.8969 48.8081 6.7002 6.1529
# 5 2.1807 22.1022 0.8391 6.7002 53.3292 -3.0577
# 6 23.4949 2.3223 10.5965 6.1529 -3.0577 19.2200
#
#
#
# Elastic Compliance Matrix: (Units=1/GPa)
#
#
# Indices 1 2 3 4 5 6 
#
# 1 0.023176 -0.002823 -0.004838 0.008510 -0.002401 -0.028429
# 2 -0.002823 0.013387 -0.006821 -0.000132 -0.005032 0.004835
# 3 -0.004838 -0.006821 0.018769 -0.000022 0.002549 -0.003197
# 4 0.008510 -0.000132 -0.000022 0.025438 -0.004593 -0.019249
# 5 -0.002401 -0.005032 0.002549 -0.004593 0.021878 0.007088
# 6 -0.028429 0.004835 -0.003197 -0.019249 0.007088 0.095249
#
#
# Mechanical properties :
#
#
# Convention : Reuss Voigt Hill
#
# Bulk Modulus (GPa) = 37.92492 56.02732 46.97612
# Shear Modulus (GPa) = 21.21777 35.47703 28.34740
#
# Velocity S-wave (km/s) = 2.97515 3.84709 3.43886
# Velocity P-wave (km/s) = 5.25579 6.56556 5.94684
#
# Compressibility (1/GPa) = 0.02636788
#
# Stress axis : x y z
#
# Youngs Moduli (GPa) = 43.14738 74.69919 53.27954
#
# Poissons Ratio (x) = 0.21085 0.25779
# Poissons Ratio (y) = 0.12179 0.36343
# Poissons Ratio (z) = 0.20877 0.50953
#
# Static dielectric constant tensor:
#      x y z
#    x 2.023270 0.022470 -0.047270 
#    y 0.022470 1.927410 -0.008540 
#    z -0.047270 -0.008540 1.970000 
# 
# From -- ./inp_files/244328.got.cif
#   From: 2010.05.17/outbox.cif.g08.bks.cpg/sg2_123_cif.got.tgz:244328.got - 2010.06.03 11:33:40.
