data_PCOD9049453
_publ_section_title
;
Structure prediction by ZEFSAII (Michael W. Deem and Ramdas Pophale) SiO2 
 PCOD9049453
Probable space group: P -1
;
_chemical_formula_sum "Si O2"
_cell_formula_units_Z 15
_cell_length_a 8.048505
_cell_length_b 17.946325
_cell_length_c 4.928705
_cell_angle_alpha 75.694976
_cell_angle_beta 84.463689
_cell_angle_gamma 57.743942
_cell_volume 582.828618
_symmetry_space_group_name_H-M "P -1"
_symmetry_group_IT_number 2
_symmetry_cell_setting 'triclinic'
loop_
_space_group_symop_operation_xyz
x,y,z
-x,-y,-z
loop_
_atom_site_type_symbol
_atom_site_label
_atom_site_fract_x
_atom_site_fract_y
_atom_site_fract_z
Si Si1 0.584816 0.057021 0.569210
Si Si2 0.058862 0.121241 0.408874
Si Si3 0.000000 0.500000 0.000000
Si Si4 0.777002 0.838047 0.146817
Si Si5 0.399840 0.356755 0.720840
Si Si6 0.347302 0.503800 0.230064
Si Si7 0.405430 0.774599 0.696518
Si Si8 0.963879 0.632382 0.406603
O O1 0.455924 0.096410 0.826914
O O2 0.552075 0.145333 0.342251
O O3 0.500000 0.000000 0.500000
O O4 0.816231 0.983081 0.617964
O O5 0.115071 0.126856 0.704491
O O6 0.827608 0.174650 0.357185
O O7 0.148171 0.166476 0.162797
O O8 0.784366 0.526452 0.882533
O O9 0.994907 0.581279 0.726374
O O10 0.843477 0.739233 0.329797
O O11 0.430079 0.435368 0.535035
O O12 0.481534 0.283845 0.531293
O O13 0.160258 0.398016 0.743725
O O14 0.519132 0.297060 0.009166
O O15 0.175527 0.600624 0.278185
O O16 0.500000 0.500000 0.000000
#
# Coordination Sequence:
#
# PCOD9049453 Si02
#       8
#     2   2   1   2   2   2   2   2
#     4  10  24  46  75 106 144 192 250 301 373 444
#     4  11  26  46  70 109 149 185 248 306 371 439
#     4  10  24  46  74 108 146 200 246 306 378 454
#     4  11  25  44  75 106 142 196 245 305 365 446
#     4  11  27  46  76 109 149 198 251 298 383 446
#     4  11  28  48  76 111 153 199 253 321 375 451
#     4  12  26  47  73 108 149 195 239 311 368 448
#     4  11  26  45  78 103 151 197 255 305 382 440
#
# _framework density 25.736550999999999
#
# number of rings (size 3 to 8) (size 9 to 14) (size 15 to 20)
#    0.000    1.067    1.333    3.200   14.933    3.733 
#    0.000    4.667    0.000    0.000    0.000    0.000 
#    0.000    0.000    0.000    0.000    0.000    0.000 
#
# Total GULP energy -83914.979227 kJ/mol
# GULP energy per Si atom -5594.331948 kJ/mol
# Density = 2.567797 g / cm^3
# Si number density = 25.736551 Si / 1000 Ang^3
#
#
#
# Elastic Constant Matrix: (Units=GPa)
#
#
# Indices 1 2 3 4 5 6 
#
# 1 106.7571 35.0753 29.8021 8.9987 -20.4832 -42.6794
# 2 35.0753 145.7209 29.5930 -26.8963 -18.7207 -24.4152
# 3 29.8021 29.5930 123.9495 -3.4449 -2.6615 -17.2305
# 4 8.9987 -26.8963 -3.4449 44.0413 -3.5748 -1.5012
# 5 -20.4832 -18.7207 -2.6615 -3.5748 51.2205 7.0761
# 6 -42.6794 -24.4152 -17.2305 -1.5012 7.0761 47.2113
#
#
#
# Elastic Compliance Matrix: (Units=1/GPa)
#
#
# Indices 1 2 3 4 5 6 
#
# 1 0.016607 -0.001690 -0.001838 -0.003817 0.003899 0.012763
# 2 -0.001690 0.009517 -0.001250 0.006380 0.002807 0.002720
# 3 -0.001838 -0.001250 0.008950 0.000280 -0.000859 0.001096
# 4 -0.003817 0.006380 0.000280 0.027637 0.002690 0.000426
# 5 0.003899 0.002807 -0.000859 0.002690 0.022052 0.001443
# 6 0.012763 0.002720 0.001096 0.000426 0.001443 0.034323
#
#
# Mechanical properties :
#
#
# Convention : Reuss Voigt Hill
#
# Bulk Modulus (GPa) = 39.18627 62.81871 51.00249
# Shear Modulus (GPa) = 36.45687 47.29178 41.87432
#
# Velocity S-wave (km/s) = 3.76778 4.29130 4.03803
# Velocity P-wave (km/s) = 5.84698 7.00107 6.44989
#
# Compressibility (1/GPa) = 0.02551914
#
# Stress axis : x y z
#
# Youngs Moduli (GPa) = 60.21408 105.07501 111.73340
#
# Poissons Ratio (x) = 0.17753 0.20535
# Poissons Ratio (y) = 0.10173 0.13969
# Poissons Ratio (z) = 0.11066 0.13137
#
# Static dielectric constant tensor:
#      x y z
#    x 2.070990 0.008090 0.018650 
#    y 0.008090 1.917980 -0.016110 
#    z 0.018650 -0.016110 1.946490 
# 
# From -- ./inp_files/52431.got.cif
#   From: 2010.05.17/outbox.cif.g08.bks.cpg/sg2_27_cif.got.tgz:52431.got - 2010.06.03 11:33:40.
