data_PCOD9049075
_publ_section_title
;
Structure prediction by ZEFSAII (Michael W. Deem and Ramdas Pophale) SiO2 
 PCOD9049075
Probable space group: P -1
;
_chemical_formula_sum "Si O2"
_cell_formula_units_Z 12
_cell_length_a 7.687836
_cell_length_b 13.540716
_cell_length_c 8.905045
_cell_angle_alpha 119.176238
_cell_angle_beta 145.282010
_cell_angle_gamma 68.294108
_cell_volume 460.089457
_symmetry_space_group_name_H-M "P -1"
_symmetry_group_IT_number 2
_symmetry_cell_setting 'triclinic'
loop_
_space_group_symop_operation_xyz
x,y,z
-x,-y,-z
loop_
_atom_site_type_symbol
_atom_site_label
_atom_site_fract_x
_atom_site_fract_y
_atom_site_fract_z
Si Si1 0.355490 0.099589 0.884263
Si Si2 0.839514 0.393524 0.724404
Si Si3 0.256764 0.174389 0.389447
Si Si4 0.245405 0.275956 0.138030
Si Si5 0.215916 0.991006 0.416885
Si Si6 0.803092 0.580498 0.314618
O O1 0.375523 0.085340 0.712447
O O2 0.456014 0.217474 0.120176
O O3 0.006303 0.079408 0.679045
O O4 0.500000 0.000000 0.000000
O O5 0.010745 0.389292 0.683694
O O6 0.473831 0.379015 0.436173
O O7 0.944598 0.304025 0.856232
O O8 0.000000 0.500000 0.000000
O O9 0.183773 0.197419 0.180858
O O10 0.044250 0.073936 0.243807
O O11 0.261448 0.297873 0.563582
O O12 0.557877 0.100421 0.550366
O O13 0.000000 0.500000 0.500000
O O14 0.500000 0.500000 0.000000
#
# Coordination Sequence:
#
# PCOD9049075 Si02
#       6
#     2   2   2   2   2   2
#     4  11  23  43  69 103 141 191 242 287 364 436
#     4  12  26  48  74 102 139 188 244 294 359 428
#     4  11  24  45  71 104 145 192 241 303 367 430
#     4  12  25  44  72 104 141 190 233 298 354 432
#     4  10  24  46  68 105 149 193 242 302 364 435
#     4  12  27  49  74 106 143 189 245 307 364 430
#
# _framework density 26.081882
#
# number of rings (size 3 to 8) (size 9 to 14) (size 15 to 20)
#    0.000    0.667    1.667    5.500    4.667    2.000 
#    3.000    0.000    0.000    0.000    0.000    0.000 
#    0.000    0.000    0.000    0.000    0.000    0.000 
#
# Total GULP energy -67038.650959 kJ/mol
# GULP energy per Si atom -5586.554247 kJ/mol
# Density = 2.602252 g / cm^3
# Si number density = 26.081882 Si / 1000 Ang^3
#
#
#
# Elastic Constant Matrix: (Units=GPa)
#
#
# Indices 1 2 3 4 5 6 
#
# 1 117.0109 32.2261 36.9466 -2.3195 -37.7455 6.5073
# 2 32.2261 174.1466 41.2962 -1.0099 -27.3626 -1.3721
# 3 36.9466 41.2962 116.4305 -14.1063 -14.7017 8.3754
# 4 -2.3195 -1.0099 -14.1063 50.3040 1.9564 -14.2323
# 5 -37.7455 -27.3626 -14.7017 1.9564 54.0823 4.6827
# 6 6.5073 -1.3721 8.3754 -14.2323 4.6827 54.3222
#
#
#
# Elastic Compliance Matrix: (Units=1/GPa)
#
#
# Indices 1 2 3 4 5 6 
#
# 1 0.012087 -0.000406 -0.002705 -0.001071 0.007706 -0.001986
# 2 -0.000406 0.006691 -0.001993 -0.000494 0.002563 0.000175
# 3 -0.002705 -0.001993 0.010507 0.002598 -0.000077 -0.000659
# 4 -0.001071 -0.000494 0.002598 0.022215 -0.001586 0.005672
# 5 0.007706 0.002563 -0.000077 -0.001586 0.025501 -0.003460
# 6 -0.001986 0.000175 -0.000659 0.005672 -0.003460 0.020537
#
#
# Mechanical properties :
#
#
# Convention : Reuss Voigt Hill
#
# Bulk Modulus (GPa) = 52.42328 69.83620 61.12974
# Shear Modulus (GPa) = 43.81880 51.54963 47.68422
#
# Velocity S-wave (km/s) = 4.10329 4.45056 4.28044
# Velocity P-wave (km/s) = 6.52629 7.29684 6.92229
#
# Compressibility (1/GPa) = 0.01907550
#
# Stress axis : x y z
#
# Youngs Moduli (GPa) = 82.73146 149.44773 95.17784
#
# Poissons Ratio (x) = 0.06072 0.25750
# Poissons Ratio (y) = 0.03362 0.18970
# Poissons Ratio (z) = 0.22382 0.29787
#
# Static dielectric constant tensor:
#      x y z
#    x 2.133560 -0.132450 -0.182410 
#    y -0.132450 2.098810 -0.067530 
#    z -0.182410 -0.067530 1.934320 
# 
# From -- ./inp_files/182122.got.cif
#   From: 2010.05.17/outbox.cif.g08.bks.cpg/sg2_92_cif.got.tgz:182122.got - 2010.06.03 11:33:40.
