data_PCOD9049347
_publ_section_title
;
Structure prediction by ZEFSAII (Michael W. Deem and Ramdas Pophale) SiO2 
 PCOD9049347
Probable space group: P -1
;
_chemical_formula_sum "Si O2"
_cell_formula_units_Z 14
_cell_length_a 7.444292
_cell_length_b 5.339675
_cell_length_c 17.416379
_cell_angle_alpha 122.375106
_cell_angle_beta 110.914972
_cell_angle_gamma 78.328611
_cell_volume 546.112549
_symmetry_space_group_name_H-M "P -1"
_symmetry_group_IT_number 2
_symmetry_cell_setting 'triclinic'
loop_
_space_group_symop_operation_xyz
x,y,z
-x,-y,-z
loop_
_atom_site_type_symbol
_atom_site_label
_atom_site_fract_x
_atom_site_fract_y
_atom_site_fract_z
Si Si1 0.551411 0.412602 0.620147
Si Si2 0.118876 0.223736 0.007448
Si Si3 0.296206 0.661006 0.201965
Si Si4 0.883514 0.809374 0.683982
Si Si5 0.236688 0.754433 0.823312
Si Si6 0.544858 0.722404 0.117522
Si Si7 0.166135 0.110256 0.483498
O O1 0.578351 0.355738 0.705482
O O2 0.667130 0.701346 0.655150
O O3 0.323562 0.368444 0.566470
O O4 0.684761 0.164719 0.555721
O O5 0.207699 0.022928 0.923000
O O6 0.262424 0.336789 0.112229
O O7 0.000000 0.500000 0.000000
O O8 0.000000 0.000000 0.000000
O O9 0.359010 0.794933 0.152450
O O10 0.111521 0.847671 0.232395
O O11 0.920804 0.797242 0.597363
O O12 0.044167 0.651159 0.734157
O O13 0.330308 0.486393 0.840375
O O14 0.361515 0.954020 0.818736
O O15 0.500000 0.500000 0.000000
O O16 0.000000 0.000000 0.500000
#
# Coordination Sequence:
#
# PCOD9049347 Si02
#       7
#     2   2   2   2   2   2   2
#     4  10  24  46  72 108 148 190 255 313 385 467
#     4  12  24  41  70 102 140 196 250 304 362 436
#     4  11  26  43  70 101 147 196 247 311 379 443
#     4  11  25  46  75 106 144 196 256 313 383 463
#     4  12  27  44  73 106 150 196 261 307 373 453
#     4  12  28  47  67 108 155 201 250 319 376 440
#     4  10  24  47  76 108 147 193 246 319 392 467
#
# _framework density 25.635739999999998
#
# number of rings (size 3 to 8) (size 9 to 14) (size 15 to 20)
#    0.000    0.857    2.857    2.571    8.000    0.571 
#    0.000    0.000    0.000    0.000    0.000    0.000 
#    0.000    0.000    0.000    0.000    0.000    0.000 
#
# Total GULP energy -78145.909276 kJ/mol
# GULP energy per Si atom -5581.850663 kJ/mol
# Density = 2.557739 g / cm^3
# Si number density = 25.635740 Si / 1000 Ang^3
#
#
#
# Elastic Constant Matrix: (Units=GPa)
#
#
# Indices 1 2 3 4 5 6 
#
# 1 106.0127 43.3269 57.1974 -13.3840 15.6261 18.8006
# 2 43.3269 133.9674 27.4248 -16.6443 16.3687 2.2147
# 3 57.1974 27.4248 118.5604 -31.7241 9.1334 13.0779
# 4 -13.3840 -16.6443 -31.7241 36.7065 -2.6688 9.4473
# 5 15.6261 16.3687 9.1334 -2.6688 35.2571 0.6587
# 6 18.8006 2.2147 13.0779 9.4473 0.6587 59.3550
#
#
#
# Elastic Compliance Matrix: (Units=1/GPa)
#
#
# Indices 1 2 3 4 5 6 
#
# 1 0.015016 -0.003208 -0.006054 -0.000660 -0.003588 -0.003158
# 2 -0.003208 0.009125 0.000481 0.003162 -0.002701 0.000097
# 3 -0.006054 0.000481 0.014703 0.011502 -0.000419 -0.003166
# 4 -0.000660 0.003162 0.011502 0.040600 -0.000916 -0.008895
# 5 -0.003588 -0.002701 -0.000419 -0.000916 0.031226 0.001129
# 6 -0.003158 0.000097 -0.003166 -0.008895 0.001129 0.019945
#
#
# Mechanical properties :
#
#
# Convention : Reuss Voigt Hill
#
# Bulk Modulus (GPa) = 46.99051 68.27097 57.63074
# Shear Modulus (GPa) = 32.20140 41.63647 36.91893
#
# Velocity S-wave (km/s) = 3.54801 4.03446 3.79903
# Velocity P-wave (km/s) = 5.92912 6.95639 6.46320
#
# Compressibility (1/GPa) = 0.02128089
#
# Stress axis : x y z
#
# Youngs Moduli (GPa) = 66.59569 109.58804 68.01204
#
# Poissons Ratio (x) = 0.35161 0.41174
# Poissons Ratio (y) = 0.21367 -0.03269
# Poissons Ratio (z) = 0.40316 -0.05267
#
# Static dielectric constant tensor:
#      x y z
#    x 3.491240 1.210570 0.649410 
#    y 1.210570 3.086950 0.596720 
#    z 0.649410 0.596720 2.247760 
# 
# From -- ./inp_files/552256.got.cif
#   From: 2010.05.17/outbox.cif.g08.bks.cpg/sg2_277_cif.got.tgz:552256.got - 2010.06.03 11:33:40.
