data_PCOD9049245
_publ_section_title
;
Structure prediction by ZEFSAII (Michael W. Deem and Ramdas Pophale) SiO2 
 PCOD9049245
Probable space group: P -1
;
_chemical_formula_sum "Si O2"
_cell_formula_units_Z 16
_cell_length_a 10.503374
_cell_length_b 11.609622
_cell_length_c 5.965087
_cell_angle_alpha 85.886448
_cell_angle_beta 112.872533
_cell_angle_gamma 97.859197
_cell_volume 663.758362
_symmetry_space_group_name_H-M "P -1"
_symmetry_group_IT_number 2
_symmetry_cell_setting 'triclinic'
loop_
_space_group_symop_operation_xyz
x,y,z
-x,-y,-z
loop_
_atom_site_type_symbol
_atom_site_label
_atom_site_fract_x
_atom_site_fract_y
_atom_site_fract_z
Si Si1 0.066896 0.986083 0.799759
Si Si2 0.043810 0.733746 0.979414
Si Si3 0.566508 0.095101 0.356945
Si Si4 0.754676 0.611256 0.779039
Si Si5 0.665112 0.906807 0.182655
Si Si6 0.496362 0.284759 0.602670
Si Si7 0.734365 0.408713 0.062934
Si Si8 0.121791 0.576389 0.429027
O O1 0.104137 0.855346 0.891782
O O2 0.194464 0.087556 0.858725
O O3 0.000000 0.000000 0.500000
O O4 0.000000 0.000000 0.000000
O O5 0.877572 0.716472 0.835378
O O6 0.126603 0.640693 0.922898
O O7 0.069491 0.688873 0.256959
O O8 0.581112 0.209036 0.504052
O O9 0.500000 0.000000 0.500000
O O10 0.681296 0.028888 0.317775
O O11 0.457038 0.104122 0.081983
O O12 0.601908 0.635299 0.603035
O O13 0.744178 0.547385 0.020242
O O14 0.815966 0.512879 0.684674
O O15 0.618408 0.804467 0.335013
O O16 0.603347 0.349183 0.844243
O O17 0.745596 0.382169 0.332427
O O18 0.000000 0.500000 0.500000
#
# Coordination Sequence:
#
# PCOD9049245 Si02
#       8
#     2   2   2   2   2   2   2   2
#     4  12  31  49  76 118 155 196 259 324 382 462
#     4  11  25  43  76 101 143 200 248 309 384 452
#     4   9  22  43  71  96 141 191 242 301 372 453
#     4  11  23  43  66 103 145 187 244 319 381 449
#     4  10  24  46  71 102 145 192 250 303 378 454
#     4  11  25  42  72 107 149 193 248 316 391 446
#     4  11  24  43  69 106 140 191 251 301 382 466
#     4  11  21  44  73 101 144 191 254 313 375 463
#
# _framework density 24.105157999999999
#
# number of rings (size 3 to 8) (size 9 to 14) (size 15 to 20)
#    0.000    1.250    2.500    1.875   12.250    4.500 
#    0.000    0.000    0.000    0.000    0.000    0.000 
#    0.000    0.000    0.000    0.000    0.000    0.000 
#
# Total GULP energy -89193.204258 kJ/mol
# GULP energy per Si atom -5574.575266 kJ/mol
# Density = 2.405029 g / cm^3
# Si number density = 24.105158 Si / 1000 Ang^3
#
#
#
# Elastic Constant Matrix: (Units=GPa)
#
#
# Indices 1 2 3 4 5 6 
#
# 1 64.6712 15.9362 5.0692 -6.3177 -7.0436 25.1003
# 2 15.9362 67.9049 29.3898 -21.1953 -5.8768 17.7277
# 3 5.0692 29.3898 103.7655 -34.4135 0.0097 4.6501
# 4 -6.3177 -21.1953 -34.4135 32.6713 5.6464 -3.2576
# 5 -7.0436 -5.8768 0.0097 5.6464 42.3403 -4.3637
# 6 25.1003 17.7277 4.6501 -3.2576 -4.3637 36.4049
#
#
#
# Elastic Compliance Matrix: (Units=1/GPa)
#
#
# Indices 1 2 3 4 5 6 
#
# 1 0.021515 -0.000640 0.000681 0.002763 0.001662 -0.014163
# 2 -0.000640 0.021418 -0.002149 0.010543 0.000564 -0.008703
# 3 0.000681 -0.002149 0.015255 0.015165 -0.002240 -0.000283
# 4 0.002763 0.010543 0.015165 0.054486 -0.005841 -0.004801
# 5 0.001662 0.000564 -0.002240 -0.005841 0.024889 0.001326
# 6 -0.014163 -0.008703 -0.000283 -0.004801 0.001326 0.041237
#
#
# Mechanical properties :
#
#
# Convention : Reuss Voigt Hill
#
# Bulk Modulus (GPa) = 18.52800 37.45911 27.99355
# Shear Modulus (GPa) = 24.87478 34.67973 29.77725
#
# Velocity S-wave (km/s) = 3.21585 3.79712 3.51851
# Velocity P-wave (km/s) = 4.63594 5.89896 5.30517
#
# Compressibility (1/GPa) = 0.05397236
#
# Stress axis : x y z
#
# Youngs Moduli (GPa) = 46.47906 46.68921 65.55362
#
# Poissons Ratio (x) = 0.02990 -0.04466
# Poissons Ratio (y) = 0.02976 0.14085
# Poissons Ratio (z) = -0.03166 0.10032
#
# Static dielectric constant tensor:
#      x y z
#    x 1.977880 0.000560 -0.050080 
#    y 0.000560 2.016940 0.033300 
#    z -0.050080 0.033300 2.023700 
# 
# From -- ./inp_files/70169.got.cif
#   From: 2010.05.17/outbox.cif.g08.bks.cpg/sg2_36_cif.got.tgz:70169.got - 2010.06.03 11:33:40.
