data_PCOD9049711
_publ_section_title
;
Structure prediction by ZEFSAII (Michael W. Deem and Ramdas Pophale) SiO2 
 PCOD9049711
Probable space group: P -1
;
_chemical_formula_sum "Si O2"
_cell_formula_units_Z 14
_cell_length_a 21.422964
_cell_length_b 5.084142
_cell_length_c 9.210199
_cell_angle_alpha 103.737086
_cell_angle_beta 42.139429
_cell_angle_gamma 120.666099
_cell_volume 561.450974
_symmetry_space_group_name_H-M "P -1"
_symmetry_group_IT_number 2
_symmetry_cell_setting 'triclinic'
loop_
_space_group_symop_operation_xyz
x,y,z
-x,-y,-z
loop_
_atom_site_type_symbol
_atom_site_label
_atom_site_fract_x
_atom_site_fract_y
_atom_site_fract_z
Si Si1 0.454480 0.076565 0.447737
Si Si2 0.341364 0.262709 0.883596
Si Si3 0.879423 0.731808 0.733532
Si Si4 0.008760 0.182901 0.158387
Si Si5 0.324800 0.651063 0.363400
Si Si6 0.612518 0.812241 0.892841
Si Si7 0.115880 0.476247 0.593206
O O1 0.364010 0.145306 0.677387
O O2 0.556184 0.379466 0.241077
O O3 0.500000 0.000000 0.500000
O O4 0.396603 0.793384 0.399057
O O5 0.221823 0.212832 0.089976
O O6 0.364443 0.119172 0.968075
O O7 0.850440 0.461943 0.626587
O O8 0.894219 0.673920 0.870536
O O9 0.000000 0.000000 0.500000
O O10 0.976648 0.442167 0.215951
O O11 0.920094 0.883246 0.362299
O O12 0.000000 0.000000 0.000000
O O13 0.307681 0.311425 0.312970
O O14 0.212530 0.649093 0.563319
O O15 0.378974 0.896187 0.169702
O O16 0.500000 0.500000 0.000000
#
# Coordination Sequence:
#
# PCOD9049711 Si02
#       7
#     2   2   2   2   2   2   2
#     4  11  27  46  69 106 149 192 237 294 368 435
#     4  11  25  47  70 104 146 193 237 299 363 429
#     4  10  24  47  72 104 141 187 240 297 355 422
#     4  11  25  46  71 103 144 185 239 294 357 427
#     4  12  26  43  74 103 143 186 240 297 355 429
#     4  12  24  44  71 102 139 186 242 292 351 422
#     4  11  24  46  70 104 141 185 238 295 357 422
#
# _framework density 24.935393999999999
#
# number of rings (size 3 to 8) (size 9 to 14) (size 15 to 20)
#    0.000    0.857    2.857    3.000    8.000    1.143 
#    5.143    0.000    0.000    0.000    0.000    0.000 
#    0.000    0.000    0.000    0.000    0.000    0.000 
#
# Total GULP energy -78159.092739 kJ/mol
# GULP energy per Si atom -5582.792338 kJ/mol
# Density = 2.487864 g / cm^3
# Si number density = 24.935394 Si / 1000 Ang^3
#
#
#
# Elastic Constant Matrix: (Units=GPa)
#
#
# Indices 1 2 3 4 5 6 
#
# 1 175.5979 12.9261 49.9379 8.3398 -0.1021 17.8954
# 2 12.9261 54.6332 20.1222 15.0166 7.5602 -1.4741
# 3 49.9379 20.1222 109.8922 22.4481 -13.7813 10.3168
# 4 8.3398 15.0166 22.4481 42.4538 2.2305 4.3927
# 5 -0.1021 7.5602 -13.7813 2.2305 48.0037 8.3629
# 6 17.8954 -1.4741 10.3168 4.3927 8.3629 37.3958
#
#
#
# Elastic Compliance Matrix: (Units=1/GPa)
#
#
# Indices 1 2 3 4 5 6 
#
# 1 0.006796 -0.000771 -0.002902 0.000747 -0.000296 -0.002504
# 2 -0.000771 0.022212 -0.003480 -0.006022 -0.004918 0.004012
# 3 -0.002902 -0.003480 0.012978 -0.005028 0.004999 -0.002856
# 4 0.000747 -0.006022 -0.005028 0.028504 -0.001428 -0.002236
# 5 -0.000296 -0.004918 0.004999 -0.001428 0.024273 -0.006692
# 6 -0.002504 0.004012 -0.002856 -0.002236 -0.006692 0.030644
#
#
# Mechanical properties :
#
#
# Convention : Reuss Voigt Hill
#
# Bulk Modulus (GPa) = 36.12664 56.23287 46.17976
# Shear Modulus (GPa) = 33.57048 42.71311 38.14180
#
# Velocity S-wave (km/s) = 3.67317 4.14327 3.91528
# Velocity P-wave (km/s) = 5.70168 6.74458 6.24494
#
# Compressibility (1/GPa) = 0.02768040
#
# Stress axis : x y z
#
# Youngs Moduli (GPa) = 147.13778 45.02046 77.05387
#
# Poissons Ratio (x) = 0.03471 0.22359
# Poissons Ratio (y) = 0.11346 0.26816
# Poissons Ratio (z) = 0.42696 0.15668
#
# Static dielectric constant tensor:
#      x y z
#    x 2.045430 0.008960 -0.019180 
#    y 0.008960 2.065690 -0.076390 
#    z -0.019180 -0.076390 2.119150 
# 
# From -- ./inp_files/56306.got.cif
#   From: 2010.05.17/outbox.cif.g08.bks.cpg/sg2_29_cif.got.tgz:56306.got - 2010.06.03 11:33:40.
