data_PCOD9049103
_publ_section_title
;
Structure prediction by ZEFSAII (Michael W. Deem and Ramdas Pophale) SiO2 
 PCOD9049103
Probable space group: P -1
;
_chemical_formula_sum "Si O2"
_cell_formula_units_Z 16
_cell_length_a 15.644234
_cell_length_b 8.314622
_cell_length_c 11.467533
_cell_angle_alpha 107.653909
_cell_angle_beta 35.656762
_cell_angle_gamma 122.750355
_cell_volume 702.474557
_symmetry_space_group_name_H-M "P -1"
_symmetry_group_IT_number 2
_symmetry_cell_setting 'triclinic'
loop_
_space_group_symop_operation_xyz
x,y,z
-x,-y,-z
loop_
_atom_site_type_symbol
_atom_site_label
_atom_site_fract_x
_atom_site_fract_y
_atom_site_fract_z
Si Si1 0.406379 0.447442 0.234254
Si Si2 0.276699 0.942680 0.650804
Si Si3 0.884841 0.495193 0.515182
Si Si4 0.578684 0.891246 0.224618
Si Si5 0.920582 0.606871 0.039512
Si Si6 0.776206 0.296950 0.954941
Si Si7 0.412847 0.773338 0.081436
Si Si8 0.354901 0.331984 0.536134
O O1 0.231592 0.406530 0.353773
O O2 0.473964 0.326528 0.061352
O O3 0.376517 0.369135 0.383027
O O4 0.536368 0.683937 0.171530
O O5 0.399156 0.857944 0.469287
O O6 0.339273 0.126622 0.537481
O O7 0.302914 0.027362 0.772652
O O8 0.075644 0.775609 0.827521
O O9 0.715924 0.273463 0.676992
O O10 0.000000 0.500000 0.500000
O O11 0.021569 0.596867 0.281177
O O12 0.675018 0.070142 0.062666
O O13 0.771087 0.429769 0.091024
O O14 0.827877 0.691351 0.235758
O O15 0.000000 0.500000 0.000000
O O16 0.697250 0.328818 0.934783
O O17 0.500000 0.000000 0.000000
O O18 0.500000 0.500000 0.500000
#
# Coordination Sequence:
#
# PCOD9049103 Si02
#       8
#     2   2   2   2   2   2   2   2
#     4  12  24  43  73 101 135 189 233 284 360 427
#     4  11  23  39  62 100 151 190 226 279 326 415
#     4  10  24  46  69 100 135 172 239 306 352 402
#     4  11  22  39  67 100 137 189 233 270 345 419
#     4  12  23  40  66 101 146 187 230 278 343 425
#     4  11  23  42  69  98 137 189 226 290 357 412
#     4  11  25  48  73  99 134 179 241 303 355 413
#     4  12  24  41  64 105 148 187 232 276 344 433
#
# _framework density 22.776624999999999
#
# number of rings (size 3 to 8) (size 9 to 14) (size 15 to 20)
#    0.000    0.750    2.500    6.000    0.000    1.000 
#    0.000    6.875    0.000    0.000    0.000    0.000 
#    0.000    0.000    0.000    0.000    0.000    0.000 
#
# Total GULP energy -89204.142387 kJ/mol
# GULP energy per Si atom -5575.258899 kJ/mol
# Density = 2.272478 g / cm^3
# Si number density = 22.776625 Si / 1000 Ang^3
#
#
#
# Elastic Constant Matrix: (Units=GPa)
#
#
# Indices 1 2 3 4 5 6 
#
# 1 104.1780 8.8324 -1.3583 5.3185 8.1898 -5.3334
# 2 8.8324 110.9934 42.3001 -3.2832 -7.2476 -7.9886
# 3 -1.3583 42.3001 136.9525 -12.1722 -4.6419 -11.9359
# 4 5.3185 -3.2832 -12.1722 36.5998 -9.7096 9.0673
# 5 8.1898 -7.2476 -4.6419 -9.7096 39.6330 -1.0646
# 6 -5.3334 -7.9886 -11.9359 9.0673 -1.0646 26.1581
#
#
#
# Elastic Compliance Matrix: (Units=1/GPa)
#
#
# Indices 1 2 3 4 5 6 
#
# 1 0.010210 -0.000999 0.000295 -0.002942 -0.002903 0.002813
# 2 -0.000999 0.010487 -0.003029 0.000165 0.001854 0.001635
# 3 0.000295 -0.003029 0.008681 0.002259 0.001019 0.002354
# 4 -0.002942 0.000165 0.002259 0.033529 0.008827 -0.010782
# 5 -0.002903 0.001854 0.001019 0.008827 0.028413 -0.001464
# 6 0.002813 0.001635 0.002354 -0.010782 -0.001464 0.044054
#
#
# Mechanical properties :
#
#
# Convention : Reuss Voigt Hill
#
# Bulk Modulus (GPa) = 45.63731 50.18580 47.91155
# Shear Modulus (GPa) = 33.30138 40.63482 36.96810
#
# Velocity S-wave (km/s) = 3.82787 4.22839 4.03311
# Velocity P-wave (km/s) = 6.29422 6.77649 6.53980
#
# Compressibility (1/GPa) = 0.02191190
#
# Stress axis : x y z
#
# Youngs Moduli (GPa) = 97.94367 95.35591 115.19662
#
# Poissons Ratio (x) = 0.09527 -0.03399
# Poissons Ratio (y) = 0.09785 0.34893
# Poissons Ratio (z) = -0.02890 0.28883
#
# Static dielectric constant tensor:
#      x y z
#    x 1.972420 -0.017500 -0.015150 
#    y -0.017500 1.868490 0.017570 
#    z -0.015150 0.017570 1.904830 
# 
# From -- ./inp_files/447483.got.cif
#   From: 2010.05.17/outbox.cif.g08.bks.cpg/sg2_224_cif.got.tgz:447483.got - 2010.06.03 11:33:40.
