data_PCOD9049051
_publ_section_title
;
Structure prediction by ZEFSAII (Michael W. Deem and Ramdas Pophale) SiO2 
 PCOD9049051
Probable space group: P -1
;
_chemical_formula_sum "Si O2"
_cell_formula_units_Z 16
_cell_length_a 6.414055
_cell_length_b 12.358429
_cell_length_c 22.770842
_cell_angle_alpha 150.110016
_cell_angle_beta 56.678888
_cell_angle_gamma 116.701751
_cell_volume 750.048652
_symmetry_space_group_name_H-M "P -1"
_symmetry_group_IT_number 2
_symmetry_cell_setting 'triclinic'
loop_
_space_group_symop_operation_xyz
x,y,z
-x,-y,-z
loop_
_atom_site_type_symbol
_atom_site_label
_atom_site_fract_x
_atom_site_fract_y
_atom_site_fract_z
Si Si1 0.284087 0.156787 0.079483
Si Si2 0.201545 0.346814 0.005479
Si Si3 0.080705 0.520115 0.564583
Si Si4 0.439238 0.314285 0.834855
Si Si5 0.253663 0.913829 0.847697
Si Si6 0.472272 0.529217 0.357739
Si Si7 0.500141 0.193359 0.399356
Si Si8 0.345041 0.488016 0.806120
O O1 0.408528 0.382095 0.160890
O O2 0.024259 0.158918 0.154574
O O3 0.500000 0.000000 0.000000
O O4 0.240923 0.056773 0.975994
O O5 0.228866 0.381852 0.948109
O O6 0.325331 0.102929 0.881806
O O7 0.345322 0.525641 0.103948
O O8 0.913644 0.363780 0.078303
O O9 0.267534 0.321166 0.463247
O O10 0.251420 0.728388 0.635833
O O11 0.000000 0.500000 0.500000
O O12 0.815131 0.506028 0.630645
O O13 0.348061 0.336210 0.791818
O O14 0.522399 0.062048 0.712886
O O15 0.423435 0.697747 0.734877
O O16 0.487513 0.708849 0.490504
O O17 0.624359 0.582107 0.299911
#
# Coordination Sequence:
#
# PCOD9049051 Si02
#       8
#     2   2   2   2   2   2   2   2
#     4  11  20  37  63  97 132 172 208 279 337 381
#     4  11  25  44  65  98 131 179 228 272 334 396
#     4   9  22  44  69 101 128 168 226 277 335 387
#     4  11  27  45  65  90 138 186 222 270 325 408
#     4  11  22  37  66 101 130 162 223 277 336 389
#     4  11  25  39  72 106 133 170 221 286 336 395
#     4  10  24  46  68 100 134 177 222 273 338 391
#     4  12  24  43  66 100 138 175 225 268 337 408
#
# _framework density 21.331948000000001
#
# number of rings (size 3 to 8) (size 9 to 14) (size 15 to 20)
#    0.000    1.250    3.750    1.125    7.000    3.500 
#    2.250    1.250    0.000    0.000    0.000    0.000 
#    0.000    0.000    0.000    0.000    0.000    0.000 
#
# Total GULP energy -89269.310483 kJ/mol
# GULP energy per Si atom -5579.331905 kJ/mol
# Density = 2.128340 g / cm^3
# Si number density = 21.331948 Si / 1000 Ang^3
#
#
#
# Elastic Constant Matrix: (Units=GPa)
#
#
# Indices 1 2 3 4 5 6 
#
# 1 110.4985 45.0554 39.8187 1.0089 -7.2139 -4.0424
# 2 45.0554 117.5656 47.1847 -15.5020 -5.3584 -14.7620
# 3 39.8187 47.1847 106.2586 8.5808 11.7979 -3.2576
# 4 1.0089 -15.5020 8.5808 46.4770 -4.4789 -1.4652
# 5 -7.2139 -5.3584 11.7979 -4.4789 32.1572 -4.3594
# 6 -4.0424 -14.7620 -3.2576 -1.4652 -4.3594 42.3184
#
#
#
# Elastic Compliance Matrix: (Units=1/GPa)
#
#
# Indices 1 2 3 4 5 6 
#
# 1 0.011727 -0.002992 -0.003411 -0.000294 0.003363 0.000150
# 2 -0.002992 0.013729 -0.005938 0.006407 0.005341 0.004818
# 3 -0.003411 -0.005938 0.014606 -0.005465 -0.008187 -0.002305
# 4 -0.000294 0.006407 -0.005465 0.025451 0.007011 0.003390
# 5 0.003363 0.005341 -0.008187 0.007011 0.037489 0.005659
# 6 0.000150 0.004818 -0.002305 0.003390 0.005659 0.025848
#
#
# Mechanical properties :
#
#
# Convention : Reuss Voigt Hill
#
# Bulk Modulus (GPa) = 65.01988 66.49336 65.75662
# Shear Modulus (GPa) = 31.51467 37.67479 34.59473
#
# Velocity S-wave (km/s) = 3.84780 4.20708 4.03144
# Velocity P-wave (km/s) = 7.09133 7.40526 7.24999
#
# Compressibility (1/GPa) = 0.01537991
#
# Stress axis : x y z
#
# Youngs Moduli (GPa) = 85.27594 72.83972 68.46724
#
# Poissons Ratio (x) = 0.21791 0.23354
# Poissons Ratio (y) = 0.25512 0.40655
# Poissons Ratio (z) = 0.29087 0.43251
#
# Static dielectric constant tensor:
#      x y z
#    x 1.838090 -0.012770 0.029720 
#    y -0.012770 1.856420 -0.026810 
#    z 0.029720 -0.026810 1.781570 
# 
# From -- ./inp_files/604473.got.cif
#   From: 2010.05.17/outbox.cif.g08.bks.cpg/sg2_303_cif.got.tgz:604473.got - 2010.06.03 11:33:40.
