data_PCOD9049028
_publ_section_title
;
Structure prediction by ZEFSAII (Michael W. Deem and Ramdas Pophale) SiO2 
 PCOD9049028
Probable space group: P -1
;
_chemical_formula_sum "Si O2"
_cell_formula_units_Z 15
_cell_length_a 9.197512
_cell_length_b 16.134789
_cell_length_c 9.481329
_cell_angle_alpha 25.253024
_cell_angle_beta 77.399029
_cell_angle_gamma 73.284502
_cell_volume 571.855913
_symmetry_space_group_name_H-M "P -1"
_symmetry_group_IT_number 2
_symmetry_cell_setting 'triclinic'
loop_
_space_group_symop_operation_xyz
x,y,z
-x,-y,-z
loop_
_atom_site_type_symbol
_atom_site_label
_atom_site_fract_x
_atom_site_fract_y
_atom_site_fract_z
Si Si1 0.384267 0.623029 0.145055
Si Si2 0.000000 0.000000 0.500000
Si Si3 0.626203 0.819244 0.818410
Si Si4 0.349187 0.204689 0.838084
Si Si5 0.144295 0.321960 0.259423
Si Si6 0.123201 0.895602 0.934897
Si Si7 0.707203 0.147622 0.766930
Si Si8 0.738935 0.348031 0.156323
O O1 0.303050 0.442479 0.470787
O O2 0.553252 0.625683 0.155368
O O3 0.283186 0.813735 0.947589
O O4 0.390111 0.651826 0.932174
O O5 0.985937 0.103899 0.178543
O O6 0.886788 0.202735 0.277926
O O7 0.770806 0.753814 0.788393
O O8 0.500000 0.000000 0.500000
O O9 0.671167 0.874466 0.878911
O O10 0.532584 0.175092 0.817784
O O11 0.266061 0.081659 0.939291
O O12 0.099263 0.126070 0.625399
O O13 0.250368 0.422733 0.180049
O O14 0.000000 0.500000 0.000000
O O15 0.172282 0.801060 0.224368
O O16 0.708224 0.273170 0.431933
#
# Coordination Sequence:
#
# PCOD9049028 Si02
#       8
#     2   1   2   2   2   2   2   2
#     4  11  23  42  70 103 140 183 230 287 357 415
#     4  10  24  46  66  96 138 188 232 284 346 422
#     4  12  23  41  72 103 142 186 233 289 354 413
#     4  11  24  41  66 106 148 174 228 296 359 417
#     4  12  25  44  68 101 138 185 235 285 347 421
#     4  11  23  45  70  98 140 183 230 291 347 414
#     4  11  24  42  69 104 138 181 235 294 349 415
#     4  11  25  43  72 100 139 186 235 290 350 419
#
# _framework density 26.230384000000001
#
# number of rings (size 3 to 8) (size 9 to 14) (size 15 to 20)
#    0.000    0.800    4.000    2.800    3.733    4.800 
#    0.000    0.000    0.000    4.800    0.000    0.000 
#    0.000    0.000    0.000    0.000    0.000    0.000 
#
# Total GULP energy -83546.464422 kJ/mol
# GULP energy per Si atom -5569.764295 kJ/mol
# Density = 2.617068 g / cm^3
# Si number density = 26.230384 Si / 1000 Ang^3
#
#
#
# Elastic Constant Matrix: (Units=GPa)
#
#
# Indices 1 2 3 4 5 6 
#
# 1 51.6613 40.1701 -1.3349 14.6359 10.2254 2.3201
# 2 40.1701 176.7284 32.2571 26.9104 21.3924 4.6927
# 3 -1.3349 32.2571 86.7157 -1.4035 11.7830 3.2689
# 4 14.6359 26.9104 -1.4035 44.4471 8.1521 20.5302
# 5 10.2254 21.3924 11.7830 8.1521 29.0518 -0.4903
# 6 2.3201 4.6927 3.2689 20.5302 -0.4903 55.9797
#
#
#
# Elastic Compliance Matrix: (Units=1/GPa)
#
#
# Indices 1 2 3 4 5 6 
#
# 1 0.025674 -0.005029 0.002851 -0.004797 -0.005129 0.000905
# 2 -0.005029 0.008064 -0.002890 -0.003369 -0.002035 0.000919
# 3 0.002851 -0.002890 0.013479 0.003036 -0.005225 -0.001822
# 4 -0.004797 -0.003369 0.003036 0.032854 -0.006481 -0.011802
# 5 -0.005129 -0.002035 -0.005225 -0.006481 0.041721 0.003430
# 6 0.000905 0.000919 -0.001822 -0.011802 0.003430 0.022214
#
#
# Mechanical properties :
#
#
# Convention : Reuss Voigt Hill
#
# Bulk Modulus (GPa) = 26.96759 50.80999 38.88879
# Shear Modulus (GPa) = 30.03001 42.16324 36.09662
#
# Velocity S-wave (km/s) = 3.38724 4.01361 3.71366
# Velocity P-wave (km/s) = 5.05977 6.39465 5.76597
#
# Compressibility (1/GPa) = 0.03708154
#
# Stress axis : x y z
#
# Youngs Moduli (GPa) = 38.94946 124.01145 74.19171
#
# Poissons Ratio (x) = 0.62364 -0.21152
# Poissons Ratio (y) = 0.19587 0.21439
# Poissons Ratio (z) = -0.11105 0.35835
#
# Static dielectric constant tensor:
#      x y z
#    x 2.190060 0.047980 -0.029550 
#    y 0.047980 2.046990 -0.004930 
#    z -0.029550 -0.004930 2.127190 
# 
# From -- ./inp_files/204502.got.cif
#   From: 2010.05.17/outbox.cif.g08.bks.cpg/sg2_103_cif.got.tgz:204502.got - 2010.06.03 11:33:40.
