data_PCOD9049145
_publ_section_title
;
Structure prediction by ZEFSAII (Michael W. Deem and Ramdas Pophale) SiO2 
 PCOD9049145
Probable space group: P -1
;
_chemical_formula_sum "Si O2"
_cell_formula_units_Z 12
_cell_length_a 10.771827
_cell_length_b 7.519044
_cell_length_c 9.423280
_cell_angle_alpha 48.367370
_cell_angle_beta 111.956450
_cell_angle_gamma 92.968864
_cell_volume 507.349820
_symmetry_space_group_name_H-M "P -1"
_symmetry_group_IT_number 2
_symmetry_cell_setting 'triclinic'
loop_
_space_group_symop_operation_xyz
x,y,z
-x,-y,-z
loop_
_atom_site_type_symbol
_atom_site_label
_atom_site_fract_x
_atom_site_fract_y
_atom_site_fract_z
Si Si1 0.736134 0.702746 0.171099
Si Si2 0.984347 0.763503 0.787067
Si Si3 0.398903 0.539774 0.566379
Si Si4 0.827407 0.916799 0.355978
Si Si5 0.623918 0.299413 0.238995
Si Si6 0.153027 0.949841 0.163265
O O1 0.601416 0.704316 0.212334
O O2 0.745906 0.440798 0.238767
O O3 0.835701 0.739333 0.320193
O O4 0.753929 0.900445 0.959344
O O5 0.121890 0.854397 0.803238
O O6 0.930202 0.781193 0.594938
O O7 0.874343 0.952221 0.740383
O O8 0.000000 0.500000 0.000000
O O9 0.500000 0.500000 0.500000
O O10 0.423357 0.719310 0.608163
O O11 0.246567 0.667941 0.365985
O O12 0.682794 0.051821 0.303998
O O13 0.500000 0.500000 0.000000
O O14 0.000000 0.000000 0.000000
#
# Coordination Sequence:
#
# PCOD9049145 Si02
#       6
#     2   2   2   2   2   2
#     4  10  25  44  71  97 143 184 231 293 359 406
#     4  11  24  41  68 103 142 183 230 285 356 427
#     4  10  26  48  68 101 142 187 241 290 355 420
#     4  11  23  45  66 102 144 178 233 290 351 424
#     4  10  24  46  69  98 140 182 241 297 347 418
#     4  12  24  44  71 108 141 184 236 288 360 433
#
# _framework density 23.652317
#
# number of rings (size 3 to 8) (size 9 to 14) (size 15 to 20)
#    1.000    0.333    3.333    1.000    4.667    3.333 
#    3.000    1.667    0.000    0.000    0.000    0.000 
#    0.000    0.000    0.000    0.000    0.000    0.000 
#
# Total GULP energy -66854.180311 kJ/mol
# GULP energy per Si atom -5571.181693 kJ/mol
# Density = 2.359848 g / cm^3
# Si number density = 23.652317 Si / 1000 Ang^3
#
#
#
# Elastic Constant Matrix: (Units=GPa)
#
#
# Indices 1 2 3 4 5 6 
#
# 1 89.1088 21.4287 32.0584 -0.4014 -24.2723 -25.6568
# 2 21.4287 79.4514 21.5929 17.9042 4.3450 2.9164
# 3 32.0584 21.5929 80.9499 6.8523 -7.0275 -4.0763
# 4 -0.4014 17.9042 6.8523 41.9009 0.7233 -4.5997
# 5 -24.2723 4.3450 -7.0275 0.7233 56.0360 -3.4083
# 6 -25.6568 2.9164 -4.0763 -4.5997 -3.4083 33.8346
#
#
#
# Elastic Compliance Matrix: (Units=1/GPa)
#
#
# Indices 1 2 3 4 5 6 
#
# 1 0.024354 -0.007783 -0.006095 0.006603 0.011548 0.020465
# 2 -0.007783 0.017698 -0.001881 -0.008259 -0.005440 -0.009325
# 3 -0.006095 -0.001881 0.015229 -0.002059 -0.000739 -0.002979
# 4 0.006603 -0.008259 -0.002059 0.028804 0.003463 0.009735
# 5 0.011548 -0.005440 -0.000739 0.003463 0.023863 0.012011
# 6 0.020465 -0.009325 -0.002979 0.009735 0.012011 0.048053
#
#
# Mechanical properties :
#
#
# Convention : Reuss Voigt Hill
#
# Bulk Modulus (GPa) = 38.81517 44.40777 41.61147
# Shear Modulus (GPa) = 25.23906 37.98296 31.61101
#
# Velocity S-wave (km/s) = 3.27017 4.01170 3.65977
# Velocity P-wave (km/s) = 5.54121 6.34620 5.95732
#
# Compressibility (1/GPa) = 0.02576312
#
# Stress axis : x y z
#
# Youngs Moduli (GPa) = 41.06036 56.50505 65.66417
#
# Poissons Ratio (x) = 0.43977 0.40021
# Poissons Ratio (y) = 0.31957 0.12353
# Poissons Ratio (z) = 0.25026 0.10630
#
# Static dielectric constant tensor:
#      x y z
#    x 1.913350 0.086450 0.003880 
#    y 0.086450 1.929330 0.027680 
#    z 0.003880 0.027680 1.870540 
# 
# From -- ./inp_files/161996.got.cif
#   From: 2010.05.17/outbox.cif.g08.bks.cpg/sg2_81_cif.got.tgz:161996.got - 2010.06.03 11:33:40.
