data_PCOD9049122
_publ_section_title
;
Structure prediction by ZEFSAII (Michael W. Deem and Ramdas Pophale) SiO2 
 PCOD9049122
Probable space group: P -1
;
_chemical_formula_sum "Si O2"
_cell_formula_units_Z 16
_cell_length_a 12.136908
_cell_length_b 5.461675
_cell_length_c 20.579884
_cell_angle_alpha 99.657855
_cell_angle_beta 152.266925
_cell_angle_gamma 73.116202
_cell_volume 595.127172
_symmetry_space_group_name_H-M "P -1"
_symmetry_group_IT_number 2
_symmetry_cell_setting 'triclinic'
loop_
_space_group_symop_operation_xyz
x,y,z
-x,-y,-z
loop_
_atom_site_type_symbol
_atom_site_label
_atom_site_fract_x
_atom_site_fract_y
_atom_site_fract_z
Si Si1 0.839266 0.900113 0.772509
Si Si2 0.562915 0.561139 0.394353
Si Si3 0.858228 0.026093 0.497823
Si Si4 0.702999 0.614685 0.338193
Si Si5 0.966446 0.610925 0.701442
Si Si6 0.393665 0.905176 0.079056
Si Si7 0.778025 0.003969 0.200661
Si Si8 0.155242 0.212430 0.087631
O O1 0.684539 0.209988 0.705762
O O2 0.797773 0.749324 0.680348
O O3 0.782600 0.774091 0.803636
O O4 0.136208 0.853717 0.927780
O O5 0.691294 0.260239 0.467126
O O6 0.566729 0.491988 0.315122
O O7 0.788775 0.656954 0.546994
O O8 0.105007 0.944842 0.666960
O O9 0.663704 0.879758 0.369860
O O10 0.000000 0.000000 0.500000
O O11 0.599058 0.665166 0.213760
O O12 0.000000 0.500000 0.500000
O O13 0.090450 0.300641 0.764091
O O14 0.164510 0.770842 0.801438
O O15 0.330722 0.115523 0.112974
O O16 0.502795 0.006646 0.077844
O O17 0.000000 0.500000 0.000000
O O18 0.000000 0.000000 0.000000
#
# Coordination Sequence:
#
# PCOD9049122 Si02
#       8
#     2   2   2   2   2   2   2   2
#     4  11  26  50  73 107 159 203 243 306 377 461
#     4  11  23  44  72 109 150 195 253 304 374 452
#     4  11  21  38  68 108 142 189 240 318 370 427
#     4  12  21  39  70 107 143 186 245 312 377 432
#     4  11  26  49  76 109 148 203 258 303 366 443
#     4  11  25  44  72 111 148 196 249 316 381 446
#     4  11  25  45  75 108 146 194 261 310 365 435
#     4  10  24  46  69 103 144 190 237 293 373 441
#
# _framework density 26.885010999999999
#
# number of rings (size 3 to 8) (size 9 to 14) (size 15 to 20)
#    0.000    1.000    5.000    1.125    0.000    7.000 
#    2.250    1.875    0.000    0.000    0.000    0.000 
#    0.000    0.000    0.000    0.000    0.000    0.000 
#
# Total GULP energy -89158.324408 kJ/mol
# GULP energy per Si atom -5572.395276 kJ/mol
# Density = 2.682382 g / cm^3
# Si number density = 26.885011 Si / 1000 Ang^3
#
#
#
# Elastic Constant Matrix: (Units=GPa)
#
#
# Indices 1 2 3 4 5 6 
#
# 1 118.1328 24.3159 19.7852 -5.0737 -6.6108 -25.1781
# 2 24.3159 126.6541 18.4356 -17.2410 1.4904 -16.7685
# 3 19.7852 18.4356 96.4921 -2.8881 16.8024 -4.6909
# 4 -5.0737 -17.2410 -2.8881 35.0968 -11.6699 7.3590
# 5 -6.6108 1.4904 16.8024 -11.6699 41.6539 8.5228
# 6 -25.1781 -16.7685 -4.6909 7.3590 8.5228 40.8948
#
#
#
# Elastic Compliance Matrix: (Units=1/GPa)
#
#
# Indices 1 2 3 4 5 6 
#
# 1 0.010204 -0.000969 -0.001880 0.000177 0.001367 0.005353
# 2 -0.000969 0.009111 -0.001463 0.004055 0.000823 0.002070
# 3 -0.001880 -0.001463 0.012071 -0.002267 -0.006014 0.001289
# 4 0.000177 0.004055 -0.002267 0.036049 0.012446 -0.007570
# 5 0.001367 0.000823 -0.006014 0.012446 0.031823 -0.008383
# 6 0.005353 0.002070 0.001289 -0.007570 -0.008383 0.031855
#
#
# Mechanical properties :
#
#
# Convention : Reuss Voigt Hill
#
# Bulk Modulus (GPa) = 43.93280 51.81695 47.87488
# Shear Modulus (GPa) = 33.93906 42.11193 38.02549
#
# Velocity S-wave (km/s) = 3.55685 3.96204 3.76490
# Velocity P-wave (km/s) = 5.76582 6.34395 6.06178
#
# Compressibility (1/GPa) = 0.02276204
#
# Stress axis : x y z
#
# Youngs Moduli (GPa) = 97.99831 109.75873 82.84648
#
# Poissons Ratio (x) = 0.10633 0.15572
# Poissons Ratio (y) = 0.09494 0.12123
# Poissons Ratio (z) = 0.18421 0.16061
#
# Static dielectric constant tensor:
#      x y z
#    x 2.365540 0.317780 0.008700 
#    y 0.317780 2.221390 0.056630 
#    z 0.008700 0.056630 2.053550 
# 
# From -- ./inp_files/596739.got.cif
#   From: 2010.05.17/outbox.cif.g08.bks.cpg/sg2_299_cif.got.tgz:596739.got - 2010.06.03 11:33:40.
