data_PCOD9049988
_publ_section_title
;
Structure prediction by ZEFSAII (Michael W. Deem and Ramdas Pophale) SiO2 
 PCOD9049988
Probable space group: P -1
;
_chemical_formula_sum "Si O2"
_cell_formula_units_Z 13
_cell_length_a 5.998511
_cell_length_b 12.248815
_cell_length_c 8.677421
_cell_angle_alpha 63.054287
_cell_angle_beta 114.972508
_cell_angle_gamma 105.909249
_cell_volume 512.506421
_symmetry_space_group_name_H-M "P -1"
_symmetry_group_IT_number 2
_symmetry_cell_setting 'triclinic'
loop_
_space_group_symop_operation_xyz
x,y,z
-x,-y,-z
loop_
_atom_site_type_symbol
_atom_site_label
_atom_site_fract_x
_atom_site_fract_y
_atom_site_fract_z
Si Si1 0.401884 0.212441 0.155292
Si Si2 0.386041 0.752564 0.374767
Si Si3 0.515892 0.629627 0.208722
Si Si4 0.723690 0.991425 0.361808
Si Si5 0.248690 0.597011 0.702651
Si Si6 0.105416 0.912453 0.961536
Si Si7 0.000000 0.500000 0.000000
O O1 0.492029 0.336770 0.193375
O O2 0.123816 0.162765 0.143286
O O3 0.578581 0.105053 0.302155
O O4 0.413618 0.250479 0.954230
O O5 0.523913 0.656674 0.375668
O O6 0.573437 0.860102 0.433720
O O7 0.205533 0.688420 0.491971
O O8 0.242111 0.817648 0.159541
O O9 0.699860 0.531725 0.272990
O O10 0.242980 0.575108 0.108786
O O11 0.740344 0.008978 0.171318
O O12 0.000000 0.000000 0.500000
O O13 0.071854 0.575719 0.809395
O O14 0.000000 0.000000 0.000000
#
# Coordination Sequence:
#
# PCOD9049988 Si02
#       7
#     2   2   2   2   2   2   1
#     4  11  24  47  73 104 146 200 247 297 369 446
#     4  12  26  47  73 117 150 191 247 312 371 439
#     4  11  25  47  73 104 153 191 254 299 370 441
#     4  12  27  47  73 109 148 194 246 304 376 446
#     4  11  27  46  74 107 148 196 252 303 364 442
#     4  12  25  45  75 105 154 194 241 307 374 440
#     4  10  24  48  72 100 140 202 248 296 370 424
#
# _framework density 25.365538000000001
#
# number of rings (size 3 to 8) (size 9 to 14) (size 15 to 20)
#    0.000    0.615    3.077    4.615    6.462    4.308 
#    2.769    0.000    0.000    0.000    0.000    0.000 
#    0.000    0.000    0.000    0.000    0.000    0.000 
#
# Total GULP energy -72642.335877 kJ/mol
# GULP energy per Si atom -5587.871991 kJ/mol
# Density = 2.530781 g / cm^3
# Si number density = 25.365538 Si / 1000 Ang^3
#
#
#
# Elastic Constant Matrix: (Units=GPa)
#
#
# Indices 1 2 3 4 5 6 
#
# 1 62.9547 40.8969 50.5149 -6.9792 -19.8654 13.6454
# 2 40.8969 113.1891 30.2857 -5.6513 -4.8485 0.1201
# 3 50.5149 30.2857 151.9489 -12.8045 -34.5831 5.6229
# 4 -6.9792 -5.6513 -12.8045 34.0093 5.6174 -10.4112
# 5 -19.8654 -4.8485 -34.5831 5.6174 63.0014 3.0620
# 6 13.6454 0.1201 5.6229 -10.4112 3.0620 46.7300
#
#
#
# Elastic Compliance Matrix: (Units=1/GPa)
#
#
# Indices 1 2 3 4 5 6 
#
# 1 0.031023 -0.009162 -0.006956 -0.001463 0.005822 -0.008906
# 2 -0.009162 0.012082 0.000158 0.001492 -0.002156 0.003099
# 3 -0.006956 0.000158 0.009651 0.002111 0.002872 0.001151
# 4 -0.001463 0.001492 0.002111 0.032904 -0.002494 0.007664
# 5 0.005822 -0.002156 0.002872 -0.002494 0.019530 -0.003876
# 6 -0.008906 0.003099 0.001151 0.007664 -0.003876 0.025815
#
#
# Mechanical properties :
#
#
# Convention : Reuss Voigt Hill
#
# Bulk Modulus (GPa) = 47.99379 63.49861 55.74620
# Shear Modulus (GPa) = 29.43424 42.50783 35.97103
#
# Velocity S-wave (km/s) = 3.41016 4.09811 3.76986
# Velocity P-wave (km/s) = 5.87091 6.89060 6.40109
#
# Compressibility (1/GPa) = 0.02083603
#
# Stress axis : x y z
#
# Youngs Moduli (GPa) = 32.23399 82.76991 103.61456
#
# Poissons Ratio (x) = 0.75835 0.72075
# Poissons Ratio (y) = 0.29533 -0.01639
# Poissons Ratio (z) = 0.22422 -0.01309
#
# Static dielectric constant tensor:
#      x y z
#    x 1.893090 -0.034850 0.095200 
#    y -0.034850 2.021730 -0.010790 
#    z 0.095200 -0.010790 1.998270 
# 
# From -- ./inp_files/23118.got.cif
#   From: 2010.05.17/outbox.cif.g08.bks.cpg/sg2_12_cif.got.tgz:23118.got - 2010.06.03 11:33:40.
