data_PCOD9049597
_publ_section_title
;
Structure prediction by ZEFSAII (Michael W. Deem and Ramdas Pophale) SiO2 
 PCOD9049597
Probable space group: P -1
;
_chemical_formula_sum "Si O2"
_cell_formula_units_Z 16
_cell_length_a 24.387955
_cell_length_b 11.429206
_cell_length_c 6.912174
_cell_angle_alpha 42.028315
_cell_angle_beta 51.915141
_cell_angle_gamma 29.519533
_cell_volume 633.001842
_symmetry_space_group_name_H-M "P -1"
_symmetry_group_IT_number 2
_symmetry_cell_setting 'triclinic'
loop_
_space_group_symop_operation_xyz
x,y,z
-x,-y,-z
loop_
_atom_site_type_symbol
_atom_site_label
_atom_site_fract_x
_atom_site_fract_y
_atom_site_fract_z
Si Si1 0.461952 0.890532 0.118332
Si Si2 0.197591 0.411021 0.094300
Si Si3 0.272991 0.079685 0.688530
Si Si4 0.506713 0.675872 0.668140
Si Si5 0.158220 0.847514 0.830668
Si Si6 0.979477 0.872148 0.834057
Si Si7 0.357755 0.540561 0.041976
Si Si8 0.122870 0.181449 0.159987
O O1 0.514953 0.650702 0.452114
O O2 0.523476 0.729949 0.984005
O O3 0.328033 0.136950 0.092751
O O4 0.500000 0.000000 0.000000
O O5 0.185963 0.340989 0.414645
O O6 0.170274 0.666530 0.877291
O O7 0.099758 0.540944 0.005130
O O8 0.380685 0.993312 0.584980
O O9 0.315388 0.823969 0.795958
O O10 0.220149 0.118942 0.953400
O O11 0.500000 0.500000 0.000000
O O12 0.610919 0.568804 0.670132
O O13 0.268809 0.624393 0.996093
O O14 0.142064 0.051581 0.483605
O O15 0.062503 0.014074 0.995877
O O16 0.883677 0.952960 0.831965
O O17 0.000000 0.000000 0.500000
O O18 0.000000 0.500000 0.000000
#
# Coordination Sequence:
#
# PCOD9049597 Si02
#       8
#     2   2   2   2   2   2   2   2
#     4  11  24  44  68 104 141 182 232 288 341 415
#     4  11  25  46  71 106 143 182 238 293 346 420
#     4  10  24  47  68 104 144 182 238 289 347 420
#     4   9  23  42  65  97 139 179 228 281 339 416
#     4  12  26  47  74 103 143 184 233 291 350 420
#     4  12  27  48  74 103 140 185 232 289 357 414
#     4  11  24  44  73 101 142 189 227 283 354 410
#     4  12  28  46  73 105 139 189 236 293 348 416
#
# _framework density 25.276385999999999
#
# number of rings (size 3 to 8) (size 9 to 14) (size 15 to 20)
#    0.000    1.000    3.750    1.125    7.000    8.000 
#    2.250    0.000    0.000    0.000    0.000    0.000 
#    0.000    0.000    0.000    0.000    0.000    0.000 
#
# Total GULP energy -89415.687150 kJ/mol
# GULP energy per Si atom -5588.480447 kJ/mol
# Density = 2.521886 g / cm^3
# Si number density = 25.276386 Si / 1000 Ang^3
#
#
#
# Elastic Constant Matrix: (Units=GPa)
#
#
# Indices 1 2 3 4 5 6 
#
# 1 82.2541 12.8083 7.0304 -4.0514 31.6021 -27.9277
# 2 12.8083 107.5713 31.4209 6.4250 8.6467 -8.4882
# 3 7.0304 31.4209 121.2417 -7.8324 16.3437 -14.1212
# 4 -4.0514 6.4250 -7.8324 30.8702 -7.7012 5.2909
# 5 31.6021 8.6467 16.3437 -7.7012 43.8781 -13.3294
# 6 -27.9277 -8.4882 -14.1212 5.2909 -13.3294 44.5518
#
#
#
# Elastic Compliance Matrix: (Units=1/GPa)
#
#
# Indices 1 2 3 4 5 6 
#
# 1 0.019999 -0.001095 0.001780 -0.001358 -0.012236 0.009392
# 2 -0.001095 0.010520 -0.002711 -0.003296 -0.000654 0.000654
# 3 0.001780 -0.002711 0.009704 0.002025 -0.003260 0.002459
# 4 -0.001358 -0.003296 0.002025 0.035495 0.006125 -0.003220
# 5 -0.012236 -0.000654 -0.003260 0.006125 0.034229 0.000686
# 6 0.009392 0.000654 0.002459 -0.003220 0.000686 0.029825
#
#
# Mechanical properties :
#
#
# Convention : Reuss Voigt Hill
#
# Bulk Modulus (GPa) = 27.64781 45.95403 36.80092
# Shear Modulus (GPa) = 32.07536 41.18053 36.62794
#
# Velocity S-wave (km/s) = 3.56615 4.04073 3.81083
# Velocity P-wave (km/s) = 5.28379 6.32377 5.82703
#
# Compressibility (1/GPa) = 0.03616923
#
# Stress axis : x y z
#
# Youngs Moduli (GPa) = 50.00215 95.06047 103.04897
#
# Poissons Ratio (x) = 0.10412 -0.18341
# Poissons Ratio (y) = 0.05477 0.27940
# Poissons Ratio (z) = -0.08900 0.25774
#
# Static dielectric constant tensor:
#      x y z
#    x 2.124740 -0.021120 -0.025190 
#    y -0.021120 2.027500 -0.018140 
#    z -0.025190 -0.018140 2.001290 
# 
# From -- ./inp_files/126811.got.cif
#   From: 2010.05.17/outbox.cif.g08.bks.cpg/sg2_64_cif.got.tgz:126811.got - 2010.06.03 11:33:40.
