data_PCOD9049236
_publ_section_title
;
Structure prediction by ZEFSAII (Michael W. Deem and Ramdas Pophale) SiO2 
 PCOD9049236
Probable space group: P -1
;
_chemical_formula_sum "Si O2"
_cell_formula_units_Z 10
_cell_length_a 10.390992
_cell_length_b 10.841377
_cell_length_c 7.432351
_cell_angle_alpha 64.274736
_cell_angle_beta 66.222086
_cell_angle_gamma 120.564262
_cell_volume 385.936209
_symmetry_space_group_name_H-M "P -1"
_symmetry_group_IT_number 2
_symmetry_cell_setting 'triclinic'
loop_
_space_group_symop_operation_xyz
x,y,z
-x,-y,-z
loop_
_atom_site_type_symbol
_atom_site_label
_atom_site_fract_x
_atom_site_fract_y
_atom_site_fract_z
Si Si1 0.498626 0.401117 0.390187
Si Si2 0.242146 0.925695 0.793876
Si Si3 0.688589 0.238787 0.873459
Si Si4 0.163760 0.359413 0.505697
Si Si5 0.018554 0.852902 0.613279
O O1 0.500000 0.500000 0.500000
O O2 0.421766 0.185516 0.612664
O O3 0.284669 0.307419 0.458131
O O4 0.747001 0.598199 0.009791
O O5 0.323490 0.843088 0.871648
O O6 0.000000 0.000000 0.500000
O O7 0.205025 0.937016 0.600904
O O8 0.634044 0.356992 0.816557
O O9 0.024208 0.263692 0.834405
O O10 0.500000 0.000000 0.000000
O O11 0.964303 0.203009 0.555317
O O12 0.000000 0.500000 0.500000
#
# Coordination Sequence:
#
# PCOD9049236 Si02
#       5
#     2   2   2   2   2
#     4  12  22  40  69  94 135 179 225 286 344 401
#     4  11  24  44  68  95 137 177 229 285 342 409
#     4  10  24  46  71 101 138 184 232 281 347 416
#     4  11  23  44  68  99 135 182 226 286 344 410
#     4  12  25  41  66 104 137 173 235 284 344 410
#
# _framework density 25.911020000000001
#
# number of rings (size 3 to 8) (size 9 to 14) (size 15 to 20)
#    0.000    0.800    4.000    3.600    2.800    2.400 
#    0.000    1.000    0.000    0.000    0.000    0.000 
#    0.000    0.000    0.000    0.000    0.000    0.000 
#
# Total GULP energy -55910.881723 kJ/mol
# GULP energy per Si atom -5591.088172 kJ/mol
# Density = 2.585204 g / cm^3
# Si number density = 25.911020 Si / 1000 Ang^3
#
#
#
# Elastic Constant Matrix: (Units=GPa)
#
#
# Indices 1 2 3 4 5 6 
#
# 1 105.6809 11.7700 43.3658 -8.9467 19.5627 2.0578
# 2 11.7700 133.1220 28.1360 20.3254 25.4846 6.6282
# 3 43.3658 28.1360 96.8405 -11.4421 32.3883 10.3999
# 4 -8.9467 20.3254 -11.4421 51.1028 2.9674 20.3753
# 5 19.5627 25.4846 32.3883 2.9674 59.7190 -12.2481
# 6 2.0578 6.6282 10.3999 20.3753 -12.2481 42.5834
#
#
#
# Elastic Compliance Matrix: (Units=1/GPa)
#
#
# Indices 1 2 3 4 5 6 
#
# 1 0.011729 0.000045 -0.004508 0.001351 -0.001603 -0.000580
# 2 0.000045 0.009078 -0.002492 -0.004274 -0.002201 0.000606
# 3 -0.004508 -0.002492 0.019089 0.009821 -0.010730 -0.011841
# 4 0.001351 -0.004274 0.009821 0.032238 -0.009648 -0.019999
# 5 -0.001603 -0.002201 -0.010730 -0.009648 0.027713 0.015628
# 6 -0.000580 0.000606 -0.011841 -0.019999 0.015628 0.040373
#
#
# Mechanical properties :
#
#
# Convention : Reuss Voigt Hill
#
# Bulk Modulus (GPa) = 38.47824 55.79857 47.13840
# Shear Modulus (GPa) = 30.71392 47.50582 39.10987
#
# Velocity S-wave (km/s) = 3.44664 4.28649 3.88930
# Velocity P-wave (km/s) = 5.54270 6.78823 6.19684
#
# Compressibility (1/GPa) = 0.02598872
#
# Stress axis : x y z
#
# Youngs Moduli (GPa) = 85.25515 110.15155 52.38530
#
# Poissons Ratio (x) = -0.00498 0.23613
# Poissons Ratio (y) = -0.00385 0.13054
# Poissons Ratio (z) = 0.38429 0.27448
#
# Static dielectric constant tensor:
#      x y z
#    x 2.077510 0.000520 0.055540 
#    y 0.000520 1.842490 0.188500 
#    z 0.055540 0.188500 1.885420 
# 
# From -- ./inp_files/72909.got.cif
#   From: 2010.05.17/outbox.cif.g08.bks.cpg/sg2_37_cif.got.tgz:72909.got - 2010.06.03 11:33:40.
