data_PCOD9049542
_publ_section_title
;
Structure prediction by ZEFSAII (Michael W. Deem and Ramdas Pophale) SiO2 
 PCOD9049542
Probable space group: P -1
;
_chemical_formula_sum "Si O2"
_cell_formula_units_Z 11
_cell_length_a 5.559224
_cell_length_b 8.639748
_cell_length_c 18.280383
_cell_angle_alpha 147.174704
_cell_angle_beta 67.384260
_cell_angle_gamma 99.900496
_cell_volume 418.814347
_symmetry_space_group_name_H-M "P -1"
_symmetry_group_IT_number 2
_symmetry_cell_setting 'triclinic'
loop_
_space_group_symop_operation_xyz
x,y,z
-x,-y,-z
loop_
_atom_site_type_symbol
_atom_site_label
_atom_site_fract_x
_atom_site_fract_y
_atom_site_fract_z
Si Si1 0.000000 0.500000 0.000000
Si Si2 0.497421 0.292012 0.559043
Si Si3 0.522218 0.038974 0.208266
Si Si4 0.216730 0.562316 0.832243
Si Si5 0.349278 0.322346 0.092365
Si Si6 0.846341 0.955088 0.617572
O O1 0.227293 0.178186 0.862161
O O2 0.115954 0.493424 0.896685
O O3 0.375767 0.287344 0.652995
O O4 0.318748 0.181865 0.476053
O O5 0.827404 0.176422 0.476280
O O6 0.431314 0.650275 0.693564
O O7 0.252656 0.102294 0.313437
O O8 0.498539 0.835831 0.060869
O O9 0.439353 0.733153 0.888753
O O10 0.942733 0.727002 0.886420
O O11 0.254699 0.685635 0.238214
#
# Coordination Sequence:
#
# PCOD9049542 Si02
#       6
#     1   2   2   2   2   2
#     4  10  24  46  78 102 144 186 256 292 358 434
#     4  12  29  47  74 111 158 185 244 307 383 429
#     4  11  26  49  77 110 144 203 249 303 357 444
#     4  11  25  46  74 112 141 197 240 313 361 437
#     4  11  25  45  79 102 146 193 261 291 356 444
#     4  12  26  49  75 110 152 199 238 306 370 445
#
# _framework density 26.264621999999999
#
# number of rings (size 3 to 8) (size 9 to 14) (size 15 to 20)
#    0.000    0.727    1.818    3.818    5.091   12.364 
#    0.000    0.000    0.000    0.000    0.000    0.000 
#    0.000    0.000    0.000    0.000    0.000    0.000 
#
# Total GULP energy -61420.845658 kJ/mol
# GULP energy per Si atom -5583.713242 kJ/mol
# Density = 2.620484 g / cm^3
# Si number density = 26.264622 Si / 1000 Ang^3
#
#
#
# Elastic Constant Matrix: (Units=GPa)
#
#
# Indices 1 2 3 4 5 6 
#
# 1 253.8960 56.3977 120.6091 -17.6535 5.6624 4.0951
# 2 56.3977 84.3760 55.6742 -11.9243 -26.8505 10.2455
# 3 120.6091 55.6742 199.7756 -32.6019 9.4290 16.3872
# 4 -17.6535 -11.9243 -32.6019 63.7762 18.4269 -20.2758
# 5 5.6624 -26.8505 9.4290 18.4269 54.4412 2.7691
# 6 4.0951 10.2455 16.3872 -20.2758 2.7691 26.8978
#
#
#
# Elastic Compliance Matrix: (Units=1/GPa)
#
#
# Indices 1 2 3 4 5 6 
#
# 1 0.006018 -0.003236 -0.002649 0.001444 -0.002418 0.003268
# 2 -0.003236 0.023221 -0.005558 -0.008112 0.016146 -0.012743
# 3 -0.002649 -0.005558 0.009135 0.004993 -0.005805 0.001316
# 4 0.001444 -0.008112 0.004993 0.029255 -0.016115 0.023540
# 5 -0.002418 0.016146 -0.005805 -0.016115 0.033953 -0.017888
# 6 0.003268 -0.012743 0.001316 0.023540 -0.017888 0.060318
#
#
# Mechanical properties :
#
#
# Convention : Reuss Voigt Hill
#
# Bulk Modulus (GPa) = 64.57385 111.48992 88.03189
# Shear Modulus (GPa) = 26.32276 49.38082 37.85179
#
# Velocity S-wave (km/s) = 3.16921 4.34075 3.80039
# Velocity P-wave (km/s) = 6.16694 8.22579 7.26962
#
# Compressibility (1/GPa) = 0.01548614
#
# Stress axis : x y z
#
# Youngs Moduli (GPa) = 166.17678 43.06390 109.47154
#
# Poissons Ratio (x) = 0.13937 0.29003
# Poissons Ratio (y) = 0.53782 0.60844
# Poissons Ratio (z) = 0.44026 0.23935
#
# Static dielectric constant tensor:
#      x y z
#    x 2.078860 0.024080 0.026700 
#    y 0.024080 2.107020 0.118690 
#    z 0.026700 0.118690 2.150650 
# 
# From -- ./inp_files/547643.got.cif
#   From: 2010.05.17/outbox.cif.g08.bks.cpg/sg2_274_cif.got.tgz:547643.got - 2010.06.03 11:33:40.
