data_PCOD9049238
_publ_section_title
;
Structure prediction by ZEFSAII (Michael W. Deem and Ramdas Pophale) SiO2 
 PCOD9049238
Probable space group: P -1
;
_chemical_formula_sum "Si O2"
_cell_formula_units_Z 16
_cell_length_a 12.226417
_cell_length_b 11.160981
_cell_length_c 10.745928
_cell_angle_alpha 96.268276
_cell_angle_beta 109.990585
_cell_angle_gamma 140.986711
_cell_volume 671.134013
_symmetry_space_group_name_H-M "P -1"
_symmetry_group_IT_number 2
_symmetry_cell_setting 'triclinic'
loop_
_space_group_symop_operation_xyz
x,y,z
-x,-y,-z
loop_
_atom_site_type_symbol
_atom_site_label
_atom_site_fract_x
_atom_site_fract_y
_atom_site_fract_z
Si Si1 0.538631 0.601640 0.733818
Si Si2 0.534058 0.220164 0.846101
Si Si3 0.667294 0.155280 0.701056
Si Si4 0.828584 0.342107 0.151748
Si Si5 0.270687 0.350151 0.958317
Si Si6 0.178983 0.164503 0.375908
Si Si7 0.640499 0.302328 0.314905
Si Si8 0.971589 0.237483 0.303593
O O1 0.727099 0.713413 0.913340
O O2 0.320431 0.314476 0.577414
O O3 0.648460 0.724674 0.654083
O O4 0.451013 0.649526 0.760913
O O5 0.619296 0.242499 0.752929
O O6 0.676648 0.464917 0.971404
O O7 0.253911 0.990108 0.720549
O O8 0.604645 0.180345 0.966609
O O9 0.939211 0.390999 0.792963
O O10 0.500000 0.000000 0.500000
O O11 0.570085 0.965321 0.735482
O O12 0.781523 0.355241 0.271090
O O13 0.876718 0.242729 0.162932
O O14 0.500000 0.500000 0.000000
O O15 0.047932 0.126185 0.756843
O O16 0.080315 0.208120 0.305070
O O17 0.827813 0.506316 0.517957
#
# Coordination Sequence:
#
# PCOD9049238 Si02
#       8
#     2   2   2   2   2   2   2   2
#     4  10  25  46  73 101 139 191 238 297 353 427
#     4  12  27  44  67 106 145 185 237 291 359 427
#     4  12  26  45  71 106 140 185 236 292 356 427
#     4  12  25  45  71 102 147 182 232 294 357 421
#     4  12  25  46  67 104 143 185 238 292 352 422
#     4  10  24  46  71 102 135 188 241 289 356 419
#     4  11  24  46  73 104 140 187 237 290 363 424
#     4  11  22  45  71  99 140 186 231 290 357 426
#
# _framework density 23.840247000000002
#
# number of rings (size 3 to 8) (size 9 to 14) (size 15 to 20)
#    0.000    0.750    3.750    3.000    3.500    1.500 
#    2.250    0.000    0.000    0.000    0.000    0.000 
#    0.000    0.000    0.000    0.000    0.000    0.000 
#
# Total GULP energy -89552.559092 kJ/mol
# GULP energy per Si atom -5597.034943 kJ/mol
# Density = 2.378599 g / cm^3
# Si number density = 23.840247 Si / 1000 Ang^3
#
#
#
# Elastic Constant Matrix: (Units=GPa)
#
#
# Indices 1 2 3 4 5 6 
#
# 1 115.5159 23.9621 22.0481 10.3281 -17.4068 -0.4081
# 2 23.9621 81.0325 21.9943 25.8152 -10.0854 14.1426
# 3 22.0481 21.9943 68.0299 22.0775 -17.7391 4.9085
# 4 10.3281 25.8152 22.0775 46.0631 -2.5186 7.8583
# 5 -17.4068 -10.0854 -17.7391 -2.5186 45.2539 4.8050
# 6 -0.4081 14.1426 4.9085 7.8583 4.8050 35.0282
#
#
#
# Elastic Compliance Matrix: (Units=1/GPa)
#
#
# Indices 1 2 3 4 5 6 
#
# 1 0.009860 -0.002243 -0.001873 -0.000087 0.002451 0.000966
# 2 -0.002243 0.016951 -0.001327 -0.007300 0.002562 -0.005398
# 3 -0.001873 -0.001327 0.020109 -0.007869 0.006582 -0.001442
# 4 -0.000087 -0.007300 -0.007869 0.029820 -0.002846 -0.002250
# 5 0.002451 0.002562 0.006582 -0.002846 0.026556 -0.004932
# 6 0.000966 -0.005398 -0.001442 -0.002250 -0.004932 0.032122
#
#
# Mechanical properties :
#
#
# Convention : Reuss Voigt Hill
#
# Bulk Modulus (GPa) = 27.75129 44.50968 36.13049
# Shear Modulus (GPa) = 31.58248 38.37398 34.97823
#
# Velocity S-wave (km/s) = 3.64367 4.01637 3.83455
# Velocity P-wave (km/s) = 5.41918 6.34183 5.89857
#
# Compressibility (1/GPa) = 0.03603436
#
# Stress axis : x y z
#
# Youngs Moduli (GPa) = 101.41839 58.99467 49.72859
#
# Poissons Ratio (x) = 0.13234 0.09313
# Poissons Ratio (y) = 0.22752 0.06598
# Poissons Ratio (z) = 0.18993 0.07827
#
# Static dielectric constant tensor:
#      x y z
#    x 1.912900 0.040300 0.005950 
#    y 0.040300 2.098980 0.011990 
#    z 0.005950 0.011990 1.915160 
# 
# From -- ./inp_files/428138.got.cif
#   From: 2010.05.17/outbox.cif.g08.bks.cpg/sg2_215_cif.got.tgz:428138.got - 2010.06.03 11:33:40.
