data_PCOD9049298
_publ_section_title
;
Structure prediction by ZEFSAII (Michael W. Deem and Ramdas Pophale) SiO2 
 PCOD9049298
Probable space group: P -1
;
_chemical_formula_sum "Si O2"
_cell_formula_units_Z 14
_cell_length_a 5.065695
_cell_length_b 11.122310
_cell_length_c 17.722782
_cell_angle_alpha 29.686226
_cell_angle_beta 95.219070
_cell_angle_gamma 95.099827
_cell_volume 492.378522
_symmetry_space_group_name_H-M "P -1"
_symmetry_group_IT_number 2
_symmetry_cell_setting 'triclinic'
loop_
_space_group_symop_operation_xyz
x,y,z
-x,-y,-z
loop_
_atom_site_type_symbol
_atom_site_label
_atom_site_fract_x
_atom_site_fract_y
_atom_site_fract_z
Si Si1 0.919245 0.403781 0.368377
Si Si2 0.219825 0.847372 0.782777
Si Si3 0.210032 0.176293 0.951687
Si Si4 0.845131 0.461961 0.905290
Si Si5 0.378336 0.728801 0.269688
Si Si6 0.630559 0.265992 0.574549
Si Si7 0.593465 0.238129 0.329160
O O1 0.727468 0.628200 0.219104
O O2 0.811440 0.224574 0.528000
O O3 0.880387 0.272280 0.359108
O O4 0.188906 0.539561 0.322703
O O5 0.382725 0.791864 0.742135
O O6 0.955754 0.698565 0.826509
O O7 0.350565 0.118751 0.648319
O O8 0.267550 0.716003 0.935207
O O9 0.066458 0.312953 0.943978
O O10 0.421808 0.987212 0.090803
O O11 0.000000 0.000000 0.000000
O O12 0.620184 0.547268 0.794691
O O13 0.600084 0.555392 0.403983
O O14 0.230434 0.792831 0.310960
O O15 0.500000 0.000000 0.500000
#
# Coordination Sequence:
#
# PCOD9049298 Si02
#       7
#     2   2   2   2   2   2   2
#     4  11  24  43  69 103 145 178 238 294 352 416
#     4  11  26  47  74 106 142 191 236 301 349 436
#     4  10  24  46  72 100 145 190 233 298 344 423
#     4  11  27  48  71 107 145 191 240 288 365 422
#     4  10  26  47  67 104 145 189 246 284 357 424
#     4  11  25  44  75 103 139 194 235 297 357 426
#     4  12  26  44  74 111 140 186 234 300 364 426
#
# _framework density 28.433408
#
# number of rings (size 3 to 8) (size 9 to 14) (size 15 to 20)
#    0.000    1.143    2.857    0.857    8.000    9.143 
#    0.000    0.000    0.000    0.000    0.000    0.000 
#    0.000    0.000    0.000    0.000    0.000    0.000 
#
# Total GULP energy -78042.094271 kJ/mol
# GULP energy per Si atom -5574.435305 kJ/mol
# Density = 2.836869 g / cm^3
# Si number density = 28.433408 Si / 1000 Ang^3
#
#
#
# Elastic Constant Matrix: (Units=GPa)
#
#
# Indices 1 2 3 4 5 6 
#
# 1 63.0341 36.1232 24.3964 12.2185 -16.9643 18.3491
# 2 36.1232 151.8869 26.2727 -0.2596 0.6799 22.6266
# 3 24.3964 26.2727 174.1875 6.1229 -30.0794 -16.7382
# 4 12.2185 -0.2596 6.1229 41.4904 -2.9032 -9.8090
# 5 -16.9643 0.6799 -30.0794 -2.9032 43.7392 -0.2651
# 6 18.3491 22.6266 -16.7382 -9.8090 -0.2651 45.4209
#
#
#
# Elastic Compliance Matrix: (Units=1/GPa)
#
#
# Indices 1 2 3 4 5 6 
#
# 1 0.026671 -0.004230 -0.002497 -0.009705 0.007978 -0.011637
# 2 -0.004230 0.008266 -0.001416 0.000653 -0.002717 -0.002806
# 3 -0.002497 -0.001416 0.007460 0.001039 0.004281 0.004712
# 4 -0.009705 0.000653 0.001039 0.029165 -0.001062 0.010270
# 5 0.007978 -0.002717 0.004281 -0.001062 0.028871 -0.000353
# 6 -0.011637 -0.002806 0.004712 0.010270 -0.000353 0.032067
#
#
# Mechanical properties :
#
#
# Convention : Reuss Voigt Hill
#
# Bulk Modulus (GPa) = 38.29798 62.52146 50.40972
# Shear Modulus (GPa) = 31.74833 46.28452 39.01642
#
# Velocity S-wave (km/s) = 3.34516 4.03900 3.70835
# Velocity P-wave (km/s) = 5.33092 6.61724 6.00860
#
# Compressibility (1/GPa) = 0.02611104
#
# Stress axis : x y z
#
# Youngs Moduli (GPa) = 37.49438 120.97731 134.05145
#
# Poissons Ratio (x) = 0.51173 0.33470
# Poissons Ratio (y) = 0.15860 0.18981
# Poissons Ratio (z) = 0.09362 0.17130
#
# Static dielectric constant tensor:
#      x y z
#    x 2.433220 -0.300390 0.038240 
#    y -0.300390 2.578320 -0.089830 
#    z 0.038240 -0.089830 2.193230 
# 
# From -- ./inp_files/549379.got.cif
#   From: 2010.05.17/outbox.cif.g08.bks.cpg/sg2_275_cif.got.tgz:549379.got - 2010.06.03 11:33:40.
