data_PCOD9049984
_publ_section_title
;
Structure prediction by ZEFSAII (Michael W. Deem and Ramdas Pophale) SiO2 
 PCOD9049984
Probable space group: P -1
;
_chemical_formula_sum "Si O2"
_cell_formula_units_Z 15
_cell_length_a 6.461063
_cell_length_b 18.039635
_cell_length_c 7.341870
_cell_angle_alpha 71.242153
_cell_angle_beta 80.996349
_cell_angle_gamma 51.375999
_cell_volume 631.907687
_symmetry_space_group_name_H-M "P -1"
_symmetry_group_IT_number 2
_symmetry_cell_setting 'triclinic'
loop_
_space_group_symop_operation_xyz
x,y,z
-x,-y,-z
loop_
_atom_site_type_symbol
_atom_site_label
_atom_site_fract_x
_atom_site_fract_y
_atom_site_fract_z
Si Si1 0.321822 0.379912 0.389357
Si Si2 0.945134 0.074354 0.687398
Si Si3 0.500000 0.000000 0.500000
Si Si4 0.629677 0.799982 0.468918
Si Si5 0.186032 0.066042 0.037005
Si Si6 0.099462 0.249617 0.920435
Si Si7 0.189927 0.401638 0.797813
Si Si8 0.456148 0.598873 0.974872
O O1 0.232387 0.312485 0.395788
O O2 0.352355 0.371332 0.609928
O O3 0.099054 0.497740 0.290833
O O4 0.564471 0.349651 0.252294
O O5 0.669987 0.161518 0.564522
O O6 0.212571 0.028161 0.577582
O O7 0.004096 0.101095 0.854607
O O8 0.888508 0.995119 0.797743
O O9 0.392351 0.114960 0.483871
O O10 0.774690 0.787015 0.268193
O O11 0.150592 0.154443 0.082347
O O12 0.500000 0.000000 0.000000
O O13 0.208514 0.306846 0.930806
O O14 0.788080 0.332259 0.911843
O O15 0.296373 0.427234 0.926812
O O16 0.500000 0.500000 0.000000
#
# Coordination Sequence:
#
# PCOD9049984 Si02
#       8
#     2   2   1   2   2   2   2   2
#     4  10  24  48  71 108 142 201 242 308 380 441
#     4  11  24  44  69 100 142 188 248 314 366 452
#     4  12  24  46  66  98 146 190 242 320 370 440
#     4  11  25  47  67 102 151 194 251 304 383 451
#     4  11  23  44  72 100 138 194 251 301 377 449
#     4  11  24  44  72 105 142 199 246 310 380 436
#     4  10  24  49  74 100 157 189 250 316 368 455
#     4  12  26  47  73 111 149 195 256 315 372 449
#
# _framework density 23.737642000000001
#
# number of rings (size 3 to 8) (size 9 to 14) (size 15 to 20)
#    0.000    1.067    4.000    0.800    5.600    0.533 
#    4.800    0.000    0.000    0.000    0.000    0.000 
#    0.000    0.000    0.000    0.000    0.000    0.000 
#
# Total GULP energy -83518.924778 kJ/mol
# GULP energy per Si atom -5567.928319 kJ/mol
# Density = 2.368361 g / cm^3
# Si number density = 23.737642 Si / 1000 Ang^3
#
#
#
# Elastic Constant Matrix: (Units=GPa)
#
#
# Indices 1 2 3 4 5 6 
#
# 1 122.2666 49.4517 55.3050 -4.3154 -28.2952 26.1544
# 2 49.4517 141.1516 23.4931 4.9582 -17.0942 33.2738
# 3 55.3050 23.4931 75.7564 13.4084 -20.2365 10.5710
# 4 -4.3154 4.9582 13.4084 33.2999 3.0840 -20.4202
# 5 -28.2952 -17.0942 -20.2365 3.0840 47.6610 5.5051
# 6 26.1544 33.2738 10.5710 -20.4202 5.5051 59.2151
#
#
#
# Elastic Compliance Matrix: (Units=1/GPa)
#
#
# Indices 1 2 3 4 5 6 
#
# 1 0.015281 -0.002945 -0.009778 0.004735 0.003797 -0.002069
# 2 -0.002945 0.010586 0.002981 -0.008963 0.004902 -0.008726
# 3 -0.009778 0.002981 0.026437 -0.018954 0.008805 -0.009431
# 4 0.004735 -0.008963 -0.018954 0.058081 -0.015419 0.027791
# 5 0.003797 0.004902 0.008805 -0.015419 0.031374 -0.014237
# 6 -0.002069 -0.008726 -0.009431 0.027791 -0.014237 0.035296
#
#
# Mechanical properties :
#
#
# Convention : Reuss Voigt Hill
#
# Bulk Modulus (GPa) = 30.46982 66.18602 48.32792
# Shear Modulus (GPa) = 24.09891 42.09686 33.09789
#
# Velocity S-wave (km/s) = 3.18971 4.21577 3.73811
# Velocity P-wave (km/s) = 5.14097 7.18608 6.24777
#
# Compressibility (1/GPa) = 0.03281936
#
# Stress axis : x y z
#
# Youngs Moduli (GPa) = 65.44001 94.46620 37.82629
#
# Poissons Ratio (x) = 0.27821 0.36985
# Poissons Ratio (y) = 0.19273 -0.11275
# Poissons Ratio (z) = 0.63985 -0.28157
#
# Static dielectric constant tensor:
#      x y z
#    x 2.014710 -0.108760 0.282910 
#    y -0.108760 2.208780 -0.380710 
#    z 0.282910 -0.380710 2.714010 
# 
# From -- ./inp_files/38137.got.cif
#   From: 2010.05.17/outbox.cif.g08.bks.cpg/sg2_20_cif.got.tgz:38137.got - 2010.06.03 11:33:40.
