data_PCOD9049634
_publ_section_title
;
Structure prediction by ZEFSAII (Michael W. Deem and Ramdas Pophale) SiO2 
 PCOD9049634
Probable space group: P -1
;
_chemical_formula_sum "Si O2"
_cell_formula_units_Z 16
_cell_length_a 11.354987
_cell_length_b 9.129194
_cell_length_c 9.336382
_cell_angle_alpha 93.625378
_cell_angle_beta 105.756423
_cell_angle_gamma 134.516182
_cell_volume 617.159346
_symmetry_space_group_name_H-M "P -1"
_symmetry_group_IT_number 2
_symmetry_cell_setting 'triclinic'
loop_
_space_group_symop_operation_xyz
x,y,z
-x,-y,-z
loop_
_atom_site_type_symbol
_atom_site_label
_atom_site_fract_x
_atom_site_fract_y
_atom_site_fract_z
Si Si1 0.237444 0.978273 0.983071
Si Si2 0.049441 0.532436 0.185672
Si Si3 0.434740 0.870710 0.819396
Si Si4 0.343201 0.357947 0.660648
Si Si5 0.176838 0.401748 0.383347
Si Si6 0.765343 0.032940 0.330153
Si Si7 0.770176 0.722916 0.890693
Si Si8 0.852349 0.627444 0.196116
O O1 0.371162 0.027975 0.149615
O O2 0.156538 0.050030 0.032494
O O3 0.111721 0.735164 0.862252
O O4 0.313880 0.098123 0.859976
O O5 0.024995 0.671806 0.251221
O O6 0.000000 0.500000 0.000000
O O7 0.209078 0.585783 0.323283
O O8 0.299565 0.619913 0.804546
O O9 0.336292 0.900964 0.688794
O O10 0.500000 0.000000 0.000000
O O11 0.329182 0.466123 0.538092
O O12 0.295967 0.147897 0.591421
O O13 0.548163 0.544590 0.802135
O O14 0.180890 0.259634 0.712220
O O15 0.165388 0.277267 0.241311
O O16 0.988542 0.241350 0.406797
O O17 0.810786 0.639715 0.021520
#
# Coordination Sequence:
#
# PCOD9049634 Si02
#       8
#     2   2   2   2   2   2   2   2
#     4  10  20  36  63  93 117 152 209 259 298 352
#     4  11  23  41  63  93 124 161 199 257 314 360
#     4  10  17  34  60  92 117 148 203 265 296 341
#     4  12  25  39  63  94 124 165 210 249 302 371
#     4  11  25  42  60  87 136 164 197 249 322 367
#     4  10  21  39  62  86 124 164 204 250 308 360
#     4  12  23  39  66  93 123 161 209 259 304 357
#     4  12  21  36  67  93 116 158 214 254 295 359
#
# _framework density 25.925235000000001
#
# number of rings (size 3 to 8) (size 9 to 14) (size 15 to 20)
#    0.000    1.000    7.500    2.625    0.000    3.500 
#    0.000    0.000    0.000    1.500    0.000    0.000 
#    0.000    0.000    0.000    0.000    0.000    0.000 
#
# Total GULP energy -89216.772618 kJ/mol
# GULP energy per Si atom -5576.048289 kJ/mol
# Density = 2.586623 g / cm^3
# Si number density = 25.925235 Si / 1000 Ang^3
#
#
#
# Elastic Constant Matrix: (Units=GPa)
#
#
# Indices 1 2 3 4 5 6 
#
# 1 109.5545 15.7630 24.7548 -12.0945 24.7507 -37.1474
# 2 15.7630 62.2269 23.2240 -14.5389 19.5306 -17.8975
# 3 24.7548 23.2240 91.5121 -27.9796 26.7788 -15.5474
# 4 -12.0945 -14.5389 -27.9796 31.5091 -16.2198 9.4273
# 5 24.7507 19.5306 26.7788 -16.2198 48.3642 -10.4242
# 6 -37.1474 -17.8975 -15.5474 9.4273 -10.4242 38.6886
#
#
#
# Elastic Compliance Matrix: (Units=1/GPa)
#
#
# Indices 1 2 3 4 5 6 
#
# 1 0.014694 0.001896 -0.000969 -0.001047 -0.005201 0.013450
# 2 0.001896 0.021291 -0.001735 0.003578 -0.005553 0.008604
# 3 -0.000969 -0.001735 0.016318 0.010971 -0.003924 0.001094
# 4 -0.001047 0.003578 0.010971 0.048320 0.008253 -0.004492
# 5 -0.005201 -0.005553 -0.003924 0.008253 0.029851 -0.003107
# 6 0.013450 0.008604 0.001094 -0.004492 -0.003107 0.043439
#
#
# Mechanical properties :
#
#
# Convention : Reuss Voigt Hill
#
# Bulk Modulus (GPa) = 19.72938 43.41969 31.57454
# Shear Modulus (GPa) = 25.98389 37.01583 31.49986
#
# Velocity S-wave (km/s) = 3.16929 3.78271 3.48951
# Velocity P-wave (km/s) = 4.58466 5.98857 5.33301
#
# Compressibility (1/GPa) = 0.05068583
#
# Stress axis : x y z
#
# Youngs Moduli (GPa) = 68.05447 46.96784 61.28074
#
# Poissons Ratio (x) = -0.08903 0.05939
# Poissons Ratio (y) = -0.12901 0.10635
# Poissons Ratio (z) = 0.06595 0.08151
#
# Static dielectric constant tensor:
#      x y z
#    x 2.216490 0.033590 0.069780 
#    y 0.033590 2.112480 -0.048530 
#    z 0.069780 -0.048530 2.266660 
# 
# From -- ./inp_files/243662.got.cif
#   From: 2010.05.17/outbox.cif.g08.bks.cpg/sg2_122_cif.got.tgz:243662.got - 2010.06.03 11:33:40.
