data_PCOD9049473
_publ_section_title
;
Structure prediction by ZEFSAII (Michael W. Deem and Ramdas Pophale) SiO2 
 PCOD9049473
Probable space group: P -1
;
_chemical_formula_sum "Si O2"
_cell_formula_units_Z 15
_cell_length_a 15.110128
_cell_length_b 9.113923
_cell_length_c 8.863667
_cell_angle_alpha 77.405153
_cell_angle_beta 104.436860
_cell_angle_gamma 45.078854
_cell_volume 684.966851
_symmetry_space_group_name_H-M "P -1"
_symmetry_group_IT_number 2
_symmetry_cell_setting 'triclinic'
loop_
_space_group_symop_operation_xyz
x,y,z
-x,-y,-z
loop_
_atom_site_type_symbol
_atom_site_label
_atom_site_fract_x
_atom_site_fract_y
_atom_site_fract_z
Si Si1 0.972578 0.179675 0.846012
Si Si2 0.182810 0.096110 0.750951
Si Si3 0.439397 0.633357 0.612691
Si Si4 0.127853 0.456680 0.042128
Si Si5 0.556123 0.067537 0.604567
Si Si6 0.100630 0.550215 0.678915
Si Si7 0.731159 0.433703 0.437862
Si Si8 0.500000 0.500000 0.000000
O O1 0.874573 0.427364 0.845372
O O2 0.874025 0.251069 0.649944
O O3 0.113570 0.089004 0.860709
O O4 0.000000 0.000000 0.000000
O O5 0.170141 0.290785 0.738643
O O6 0.058646 0.234519 0.531254
O O7 0.354128 0.811661 0.855860
O O8 0.500000 0.500000 0.500000
O O9 0.398267 0.859418 0.508138
O O10 0.308898 0.684320 0.589514
O O11 0.544681 0.478900 0.841095
O O12 0.297386 0.163084 0.178507
O O13 0.080862 0.598579 0.836509
O O14 0.000000 0.500000 0.000000
O O15 0.416729 0.304425 0.598202
O O16 0.500000 0.000000 0.500000
O O17 0.219121 0.522120 0.683955
#
# Coordination Sequence:
#
# PCOD9049473 Si02
#       8
#     2   2   2   2   2   2   2   1
#     4  11  25  43  71 102 150 187 246 297 376 449
#     4  10  25  46  68 108 142 198 237 318 368 446
#     4  10  27  46  71 105 154 186 239 310 372 439
#     4  12  26  44  78 108 139 204 248 303 379 444
#     4  11  25  44  75 109 142 188 249 304 367 441
#     4  10  24  46  75 100 150 186 256 306 374 447
#     4  10  24  47  67 104 145 190 233 316 366 434
#     4  12  28  44  78 106 148 200 250 302 392 434
#
# _framework density 21.898869999999999
#
# number of rings (size 3 to 8) (size 9 to 14) (size 15 to 20)
#    0.000    1.333    2.667    0.000   13.067    2.667 
#    0.000    2.667    0.000    0.000    0.000    0.000 
#    0.000    0.000    0.000    0.000    0.000    0.000 
#
# Total GULP energy -83526.110325 kJ/mol
# GULP energy per Si atom -5568.407355 kJ/mol
# Density = 2.184903 g / cm^3
# Si number density = 21.898870 Si / 1000 Ang^3
#
#
#
# Elastic Constant Matrix: (Units=GPa)
#
#
# Indices 1 2 3 4 5 6 
#
# 1 138.0120 18.3792 13.9043 -10.5911 -29.8076 13.8835
# 2 18.3792 64.7757 10.7002 -20.9604 -3.5381 -0.0017
# 3 13.9043 10.7002 71.9890 -5.4880 -27.8195 -6.4486
# 4 -10.5911 -20.9604 -5.4880 32.2973 -6.0512 1.4253
# 5 -29.8076 -3.5381 -27.8195 -6.0512 34.0332 3.1618
# 6 13.8835 -0.0017 -6.4486 1.4253 3.1618 36.2347
#
#
#
# Elastic Compliance Matrix: (Units=1/GPa)
#
#
# Indices 1 2 3 4 5 6 
#
# 1 0.011062 -0.000825 0.003466 0.006543 0.014074 -0.005107
# 2 -0.000825 0.020310 -0.000590 0.013466 0.003357 -0.000610
# 3 0.003466 -0.000590 0.023081 0.009046 0.023415 0.000381
# 4 0.006543 0.013466 0.009046 0.048002 0.023509 -0.004836
# 5 0.014074 0.003357 0.023415 0.023509 0.066114 -0.007919
# 6 -0.005107 -0.000610 0.000381 -0.004836 -0.007919 0.030504
#
#
# Mechanical properties :
#
#
# Convention : Reuss Voigt Hill
#
# Bulk Modulus (GPa) = 17.07812 40.08269 28.58041
# Shear Modulus (GPa) = 23.31104 35.96589 29.63846
#
# Velocity S-wave (km/s) = 3.26619 4.05700 3.68288
# Velocity P-wave (km/s) = 4.69463 6.34736 5.58250
#
# Compressibility (1/GPa) = 0.05855446
#
# Stress axis : x y z
#
# Youngs Moduli (GPa) = 90.39977 49.23597 43.32508
#
# Poissons Ratio (x) = 0.04064 -0.15017
# Poissons Ratio (y) = 0.07462 0.02557
# Poissons Ratio (z) = -0.31334 0.02906
#
# Static dielectric constant tensor:
#      x y z
#    x 2.002600 -0.405720 -0.008890 
#    y -0.405720 2.763630 0.067030 
#    z -0.008890 0.067030 1.745030 
# 
# From -- ./inp_files/158216.got.cif
#   From: 2010.05.17/outbox.cif.g08.bks.cpg/sg2_80_cif.got.tgz:158216.got - 2010.06.03 11:33:40.
