data_PCOD9049829
_publ_section_title
;
Structure prediction by ZEFSAII (Michael W. Deem and Ramdas Pophale) SiO2 
 PCOD9049829
Probable space group: P -1
;
_chemical_formula_sum "Si O2"
_cell_formula_units_Z 14
_cell_length_a 13.261230
_cell_length_b 10.130530
_cell_length_c 8.528670
_cell_angle_alpha 108.390346
_cell_angle_beta 126.924008
_cell_angle_gamma 36.651762
_cell_volume 512.433755
_symmetry_space_group_name_H-M "P -1"
_symmetry_group_IT_number 2
_symmetry_cell_setting 'triclinic'
loop_
_space_group_symop_operation_xyz
x,y,z
-x,-y,-z
loop_
_atom_site_type_symbol
_atom_site_label
_atom_site_fract_x
_atom_site_fract_y
_atom_site_fract_z
Si Si1 0.502136 0.510838 0.820711
Si Si2 0.101433 0.775282 0.114755
Si Si3 0.142234 0.505268 0.585481
Si Si4 0.045527 0.585198 0.189951
Si Si5 0.803511 0.041537 0.519211
Si Si6 0.438412 0.955976 0.074393
Si Si7 0.372368 0.897826 0.315019
O O1 0.733129 0.351848 0.916215
O O2 0.332800 0.766688 0.677105
O O3 0.485916 0.366265 0.688864
O O4 0.500000 0.500000 0.000000
O O5 0.115470 0.897267 0.283656
O O6 0.175788 0.580790 0.214042
O O7 0.867968 0.937707 0.901487
O O8 0.005941 0.767658 0.561434
O O9 0.348066 0.328082 0.823636
O O10 0.000000 0.500000 0.500000
O O11 0.175529 0.435586 0.409109
O O12 0.000000 0.500000 0.000000
O O13 0.810745 0.852312 0.121345
O O14 0.660732 0.070653 0.515014
O O15 0.416714 0.981239 0.259035
O O16 0.500000 0.000000 0.000000
#
# Coordination Sequence:
#
# PCOD9049829 Si02
#       7
#     2   2   2   2   2   2   2
#     4  11  25  43  75 118 153 201 255 323 394 455
#     4  10  24  50  74 111 153 200 256 317 391 459
#     4  12  29  50  76 115 155 207 264 318 392 458
#     4  11  28  52  78 111 155 206 257 322 389 459
#     4  11  26  49  75 113 157 196 262 322 383 473
#     4  11  26  49  78 115 156 202 267 314 382 467
#     4  10  24  47  75 114 152 203 257 317 396 453
#
# _framework density 27.320603999999999
#
# number of rings (size 3 to 8) (size 9 to 14) (size 15 to 20)
#    0.000    1.143    1.429    3.429   12.000    5.714 
#    0.000    0.714    0.000    0.000    0.000    0.000 
#    0.000    0.000    0.000    0.000    0.000    0.000 
#
# Total GULP energy -78213.381018 kJ/mol
# GULP energy per Si atom -5586.670073 kJ/mol
# Density = 2.725842 g / cm^3
# Si number density = 27.320604 Si / 1000 Ang^3
#
#
#
# Elastic Constant Matrix: (Units=GPa)
#
#
# Indices 1 2 3 4 5 6 
#
# 1 187.2875 23.9632 66.2616 10.5964 -48.0975 -10.9932
# 2 23.9632 148.9631 85.8496 -14.2117 -5.2555 4.5172
# 3 66.2616 85.8496 203.9505 -30.9479 -36.8486 -5.1062
# 4 10.5964 -14.2117 -30.9479 56.7533 -2.6779 -2.3977
# 5 -48.0975 -5.2555 -36.8486 -2.6779 68.4670 -1.3756
# 6 -10.9932 4.5172 -5.1062 -2.3977 -1.3756 34.1964
#
#
#
# Elastic Compliance Matrix: (Units=1/GPa)
#
#
# Indices 1 2 3 4 5 6 
#
# 1 0.007307 -0.000268 -0.001787 -0.002122 0.004111 0.002134
# 2 -0.000268 0.009130 -0.004136 -0.000086 -0.001757 -0.001986
# 3 -0.001787 -0.004136 0.008468 0.004136 0.003180 0.001654
# 4 -0.002122 -0.000086 0.004136 0.020384 0.001555 0.001439
# 5 0.004111 -0.001757 0.003180 0.001555 0.019189 0.002909
# 6 0.002134 -0.001986 0.001654 0.001439 0.002909 0.030656
#
#
# Mechanical properties :
#
#
# Convention : Reuss Voigt Hill
#
# Bulk Modulus (GPa) = 79.85303 99.15000 89.50151
# Shear Modulus (GPa) = 44.76642 56.15844 50.46243
#
# Velocity S-wave (km/s) = 4.05230 4.53872 4.30239
# Velocity P-wave (km/s) = 7.15447 7.98979 7.58364
#
# Compressibility (1/GPa) = 0.01252301
#
# Stress axis : x y z
#
# Youngs Moduli (GPa) = 136.85821 109.52884 118.08645
#
# Poissons Ratio (x) = 0.02931 0.21104
# Poissons Ratio (y) = 0.03662 0.48845
# Poissons Ratio (z) = 0.24459 0.45305
#
# Static dielectric constant tensor:
#      x y z
#    x 2.233190 -0.063810 -0.015090 
#    y -0.063810 2.270130 0.039590 
#    z -0.015090 0.039590 2.189390 
# 
# From -- ./inp_files/258084.got.cif
#   From: 2010.05.17/outbox.cif.g08.bks.cpg/sg2_130_cif.got.tgz:258084.got - 2010.06.03 11:33:40.
