data_PCOD9049204
_publ_section_title
;
Structure prediction by ZEFSAII (Michael W. Deem and Ramdas Pophale) SiO2 
 PCOD9049204
Probable space group: P -1
;
_chemical_formula_sum "Si O2"
_cell_formula_units_Z 14
_cell_length_a 6.831391
_cell_length_b 13.267380
_cell_length_c 11.569433
_cell_angle_alpha 134.534195
_cell_angle_beta 72.738537
_cell_angle_gamma 121.814008
_cell_volume 630.545169
_symmetry_space_group_name_H-M "P -1"
_symmetry_group_IT_number 2
_symmetry_cell_setting 'triclinic'
loop_
_space_group_symop_operation_xyz
x,y,z
-x,-y,-z
loop_
_atom_site_type_symbol
_atom_site_label
_atom_site_fract_x
_atom_site_fract_y
_atom_site_fract_z
Si Si1 0.878276 0.133194 0.742782
Si Si2 0.018547 0.006226 0.193397
Si Si3 0.801209 0.446481 0.687274
Si Si4 0.233861 0.267358 0.171401
Si Si5 0.756665 0.373312 0.081900
Si Si6 0.655795 0.614153 0.162847
Si Si7 0.247057 0.892177 0.512897
O O1 0.890094 0.121724 0.593686
O O2 0.150611 0.229299 0.801843
O O3 0.755138 0.237735 0.888357
O O4 0.806916 0.991219 0.733210
O O5 0.810535 0.020508 0.304421
O O6 0.150708 0.162211 0.216033
O O7 0.919605 0.852428 0.001836
O O8 0.805948 0.574974 0.694094
O O9 0.532145 0.373833 0.714958
O O10 0.816593 0.280874 0.559750
O O11 0.017003 0.563772 0.825861
O O12 0.504749 0.315022 0.138586
O O13 0.786506 0.526780 0.128890
O O14 0.500000 0.500000 0.000000
O O15 0.500000 0.000000 0.500000
#
# Coordination Sequence:
#
# PCOD9049204 Si02
#       7
#     2   2   2   2   2   2   2
#     4  12  21  39  68  98 136 171 213 269 341 394
#     4  11  24  45  64  97 138 173 220 275 322 390
#     4  11  22  42  68  95 130 173 221 269 321 391
#     4  10  24  46  70  93 129 178 232 269 311 386
#     4  11  20  38  66 102 122 172 226 267 318 386
#     4  11  19  33  63 101 132 162 213 278 323 385
#     4  12  26  43  65 101 139 171 212 275 346 392
#
# _framework density 22.203009999999999
#
# number of rings (size 3 to 8) (size 9 to 14) (size 15 to 20)
#    0.000    0.857    4.286    4.286    0.000    1.143 
#    2.571    0.714    0.000    0.000    0.000    0.000 
#    0.000    0.000    0.000    0.000    0.000    0.000 
#
# Total GULP energy -77988.660317 kJ/mol
# GULP energy per Si atom -5570.618594 kJ/mol
# Density = 2.215248 g / cm^3
# Si number density = 22.203010 Si / 1000 Ang^3
#
#
#
# Elastic Constant Matrix: (Units=GPa)
#
#
# Indices 1 2 3 4 5 6 
#
# 1 74.1248 34.6494 5.7642 4.9895 -5.5706 -11.5047
# 2 34.6494 144.7080 36.1482 9.9973 -16.1117 -17.8844
# 3 5.7642 36.1482 44.4569 10.8239 -10.0261 -10.4651
# 4 4.9895 9.9973 10.8239 26.0154 -2.2680 -6.7107
# 5 -5.5706 -16.1117 -10.0261 -2.2680 22.4710 6.8741
# 6 -11.5047 -17.8844 -10.4651 -6.7107 6.8741 38.0389
#
#
#
# Elastic Compliance Matrix: (Units=1/GPa)
#
#
# Indices 1 2 3 4 5 6 
#
# 1 0.015740 -0.003735 0.002409 -0.001669 0.001163 0.003163
# 2 -0.003735 0.009936 -0.006728 0.000261 0.002849 0.001222
# 3 0.002409 -0.006728 0.032730 -0.009911 0.008364 0.003310
# 4 -0.001669 0.000261 -0.009911 0.043908 -0.001731 0.004950
# 5 0.001163 0.002849 0.008364 -0.001731 0.052145 -0.005737
# 6 0.003163 0.001222 0.003310 0.004950 -0.005737 0.030641
#
#
# Mechanical properties :
#
#
# Convention : Reuss Voigt Hill
#
# Bulk Modulus (GPa) = 23.64149 46.26813 34.95481
# Shear Modulus (GPa) = 23.22273 29.75356 26.48814
#
# Velocity S-wave (km/s) = 3.23759 3.66467 3.45773
# Velocity P-wave (km/s) = 4.96457 6.22818 5.63193
#
# Compressibility (1/GPa) = 0.04229852
#
# Stress axis : x y z
#
# Youngs Moduli (GPa) = 63.53276 100.64851 30.55263
#
# Poissons Ratio (x) = 0.37592 -0.07361
# Poissons Ratio (y) = 0.23729 0.20555
# Poissons Ratio (z) = -0.15306 0.67715
#
# Static dielectric constant tensor:
#      x y z
#    x 1.710730 -0.060740 0.112130 
#    y -0.060740 1.844040 -0.015490 
#    z 0.112130 -0.015490 1.943250 
# 
# From -- ./inp_files/67562.got.cif
#   From: 2010.05.17/outbox.cif.g08.bks.cpg/sg2_34_cif.got.tgz:67562.got - 2010.06.03 11:33:40.
