data_PCOD9049109
_publ_section_title
;
Structure prediction by ZEFSAII (Michael W. Deem and Ramdas Pophale) SiO2 
 PCOD9049109
Probable space group: P -1
;
_chemical_formula_sum "Si O2"
_cell_formula_units_Z 16
_cell_length_a 5.956031
_cell_length_b 21.320075
_cell_length_c 14.176095
_cell_angle_alpha 23.384281
_cell_angle_beta 78.259910
_cell_angle_gamma 79.177663
_cell_volume 699.513571
_symmetry_space_group_name_H-M "P -1"
_symmetry_group_IT_number 2
_symmetry_cell_setting 'triclinic'
loop_
_space_group_symop_operation_xyz
x,y,z
-x,-y,-z
loop_
_atom_site_type_symbol
_atom_site_label
_atom_site_fract_x
_atom_site_fract_y
_atom_site_fract_z
Si Si1 0.046777 0.688248 0.603333
Si Si2 0.830882 0.168001 0.414593
Si Si3 0.395229 0.325041 0.234551
Si Si4 0.885533 0.813697 0.939945
Si Si5 0.243466 0.921742 0.118293
Si Si6 0.215880 0.560372 0.337017
Si Si7 0.840215 0.659969 0.970610
Si Si8 0.528363 0.713136 0.256245
O O1 0.776031 0.699654 0.628620
O O2 0.121814 0.702530 0.686286
O O3 0.172905 0.829045 0.346109
O O4 0.105405 0.525384 0.771333
O O5 0.559618 0.172730 0.429750
O O6 0.931380 0.240806 0.210539
O O7 0.934448 0.997245 0.662774
O O8 0.299684 0.325447 0.134975
O O9 0.500000 0.500000 0.000000
O O10 0.750667 0.737960 0.966421
O O11 0.733665 0.807778 0.056725
O O12 0.104031 0.696083 0.095198
O O13 0.314341 0.800563 0.198759
O O14 0.500000 0.000000 0.000000
O O15 0.000000 0.000000 0.000000
O O16 0.405519 0.630373 0.293078
O O17 0.348352 0.398239 0.521174
O O18 0.000000 0.500000 0.500000
#
# Coordination Sequence:
#
# PCOD9049109 Si02
#       8
#     2   2   2   2   2   2   2   2
#     4  11  25  43  75  99 142 196 248 299 381 444
#     4  11  23  44  67 100 146 183 237 312 378 438
#     4  11  21  44  71 101 144 188 247 313 367 452
#     4  11  25  41  72 101 147 186 242 307 382 433
#     4  12  31  48  76 117 153 192 257 318 373 453
#     4   9  22  43  69  93 138 189 236 296 364 442
#     4  11  24  42  67 108 132 189 251 297 366 464
#     4  10  24  46  69 101 145 189 247 299 375 450
#
# _framework density 22.873037
#
# number of rings (size 3 to 8) (size 9 to 14) (size 15 to 20)
#    0.000    1.250    2.500    1.875   14.000    2.500 
#    0.000    0.000    0.000    0.000    0.000    0.000 
#    0.000    0.000    0.000    0.000    0.000    0.000 
#
# Total GULP energy -89089.725517 kJ/mol
# GULP energy per Si atom -5568.107845 kJ/mol
# Density = 2.282098 g / cm^3
# Si number density = 22.873037 Si / 1000 Ang^3
#
#
#
# Elastic Constant Matrix: (Units=GPa)
#
#
# Indices 1 2 3 4 5 6 
#
# 1 75.3236 7.3510 48.3976 0.3409 -2.8243 -27.0352
# 2 7.3510 76.9666 17.3718 -2.5607 5.2061 -22.6864
# 3 48.3976 17.3718 109.1584 -4.7156 2.6872 -18.9575
# 4 0.3409 -2.5607 -4.7156 28.5289 -8.0307 -0.9241
# 5 -2.8243 5.2061 2.6872 -8.0307 32.7770 -4.6220
# 6 -27.0352 -22.6864 -18.9575 -0.9241 -4.6220 34.8972
#
#
#
# Elastic Compliance Matrix: (Units=1/GPa)
#
#
# Indices 1 2 3 4 5 6 
#
# 1 0.025364 0.004746 -0.008866 0.000650 0.004939 0.018590
# 2 0.004746 0.017121 -0.002410 0.001573 0.000185 0.013564
# 3 -0.008866 -0.002410 0.013354 0.001705 -0.001242 -0.001300
# 4 0.000650 0.001573 0.001705 0.038362 0.009736 0.004758
# 5 0.004939 0.000185 -0.001242 0.009736 0.034536 0.008104
# 6 0.018590 0.013564 -0.001300 0.004758 0.008104 0.052368
#
#
# Mechanical properties :
#
#
# Convention : Reuss Voigt Hill
#
# Bulk Modulus (GPa) = 23.37590 45.29881 34.33735
# Shear Modulus (GPa) = 23.98942 31.79584 27.89263
#
# Velocity S-wave (km/s) = 3.24204 3.73245 3.49586
# Velocity P-wave (km/s) = 4.92509 6.19858 5.59816
#
# Compressibility (1/GPa) = 0.04277910
#
# Stress axis : x y z
#
# Youngs Moduli (GPa) = 39.42571 58.40727 74.88489
#
# Poissons Ratio (x) = -0.27718 0.66392
# Poissons Ratio (y) = -0.18710 0.18045
# Poissons Ratio (z) = 0.34955 0.14075
#
# Static dielectric constant tensor:
#      x y z
#    x 1.993590 0.048820 -0.034080 
#    y 0.048820 1.914970 -0.028240 
#    z -0.034080 -0.028240 1.922370 
# 
# From -- ./inp_files/485893.got.cif
#   From: 2010.05.17/outbox.cif.g08.bks.cpg/sg2_243_cif.got.tgz:485893.got - 2010.06.03 11:33:40.
