data_PCOD9049556
_publ_section_title
;
Structure prediction by ZEFSAII (Michael W. Deem and Ramdas Pophale) SiO2 
 PCOD9049556
Probable space group: P -1
;
_chemical_formula_sum "Si O2"
_cell_formula_units_Z 14
_cell_length_a 14.394098
_cell_length_b 15.352251
_cell_length_c 9.036993
_cell_angle_alpha 143.750408
_cell_angle_beta 40.955387
_cell_angle_gamma 151.848959
_cell_volume 550.090738
_symmetry_space_group_name_H-M "P -1"
_symmetry_group_IT_number 2
_symmetry_cell_setting 'triclinic'
loop_
_space_group_symop_operation_xyz
x,y,z
-x,-y,-z
loop_
_atom_site_type_symbol
_atom_site_label
_atom_site_fract_x
_atom_site_fract_y
_atom_site_fract_z
Si Si1 0.290706 0.243879 0.219724
Si Si2 0.284593 0.443239 0.922267
Si Si3 0.300628 0.249534 0.879236
Si Si4 0.230196 0.699841 0.470835
Si Si5 0.991999 0.743426 0.268645
Si Si6 0.366172 0.004895 0.977782
Si Si7 0.255488 0.871621 0.361728
O O1 0.511807 0.481194 0.278972
O O2 0.130272 0.204755 0.460629
O O3 0.218042 0.188892 0.062395
O O4 0.341742 0.124707 0.063703
O O5 0.184342 0.255282 0.898558
O O6 0.142876 0.402130 0.907824
O O7 0.339336 0.627323 0.203338
O O8 0.310758 0.086776 0.591895
O O9 0.500000 0.500000 0.000000
O O10 0.304297 0.822442 0.700993
O O11 0.255599 0.821767 0.464364
O O12 0.000000 0.500000 0.500000
O O13 0.041374 0.696055 0.297493
O O14 0.212296 0.921588 0.179661
O O15 0.593360 0.128531 0.905713
#
# Coordination Sequence:
#
# PCOD9049556 Si02
#       7
#     2   2   2   2   2   2   2
#     4  11  24  47  75 105 147 195 246 304 374 430
#     4  11  25  50  73 109 150 193 248 305 369 435
#     4  10  24  46  79 109 138 193 254 304 361 438
#     4  12  25  48  80 106 146 195 251 310 360 435
#     4  12  29  44  70 112 153 200 238 300 367 458
#     4  12  24  49  74 106 148 195 246 308 368 431
#     4  12  27  49  76 109 150 195 246 308 371 429
#
# _framework density 25.450347000000001
#
# number of rings (size 3 to 8) (size 9 to 14) (size 15 to 20)
#    0.000    0.571    4.286    3.429    6.000    1.143 
#    0.000    0.000    0.000    0.000    0.000    0.000 
#    0.000    0.000    0.000    0.000    0.000    0.000 
#
# Total GULP energy -78299.968297 kJ/mol
# GULP energy per Si atom -5592.854878 kJ/mol
# Density = 2.539242 g / cm^3
# Si number density = 25.450347 Si / 1000 Ang^3
#
#
#
# Elastic Constant Matrix: (Units=GPa)
#
#
# Indices 1 2 3 4 5 6 
#
# 1 137.2295 19.9616 39.3333 7.9912 -6.5717 3.4158
# 2 19.9616 63.9203 37.3007 -11.4083 -5.4934 -6.9630
# 3 39.3333 37.3007 141.1255 -19.1068 -8.4697 -11.6831
# 4 7.9912 -11.4083 -19.1068 39.1591 -0.5645 -3.8727
# 5 -6.5717 -5.4934 -8.4697 -0.5645 41.8033 -0.0175
# 6 3.4158 -6.9630 -11.6831 -3.8727 -0.0175 46.2997
#
#
#
# Elastic Compliance Matrix: (Units=1/GPa)
#
#
# Indices 1 2 3 4 5 6 
#
# 1 0.008588 -0.002063 -0.002479 -0.003742 0.000525 -0.001882
# 2 -0.002063 0.019686 -0.003694 0.004631 0.001578 0.002569
# 3 -0.002479 -0.003694 0.009614 0.004376 0.001133 0.002420
# 4 -0.003742 0.004631 0.004376 0.030260 0.001318 0.004608
# 5 0.000525 0.001578 0.001133 0.001318 0.024459 0.000604
# 6 -0.001882 0.002569 0.002420 0.004608 0.000604 0.023120
#
#
# Mechanical properties :
#
#
# Convention : Reuss Voigt Hill
#
# Bulk Modulus (GPa) = 46.69427 59.49629 53.09528
# Shear Modulus (GPa) = 35.88428 41.83105 38.85767
#
# Velocity S-wave (km/s) = 3.75903 4.05857 3.91167
# Velocity P-wave (km/s) = 6.10143 6.73727 6.42722
#
# Compressibility (1/GPa) = 0.02141590
#
# Stress axis : x y z
#
# Youngs Moduli (GPa) = 116.44720 50.79705 104.01469
#
# Poissons Ratio (x) = 0.10478 0.25786
# Poissons Ratio (y) = 0.24021 0.38423
# Poissons Ratio (z) = 0.28868 0.18765
#
# Static dielectric constant tensor:
#      x y z
#    x 2.084380 0.052390 0.031510 
#    y 0.052390 2.102570 -0.005670 
#    z 0.031510 -0.005670 1.991500 
# 
# From -- ./inp_files/316058.got.cif
#   From: 2010.05.17/outbox.cif.g08.bks.cpg/sg2_159_cif.got.tgz:316058.got - 2010.06.03 11:33:40.
