data_PCOD9049922
_publ_section_title
;
Structure prediction by ZEFSAII (Michael W. Deem and Ramdas Pophale) SiO2 
 PCOD9049922
Probable space group: P -1
;
_chemical_formula_sum "Si O2"
_cell_formula_units_Z 16
_cell_length_a 28.700049
_cell_length_b 6.997053
_cell_length_c 12.355589
_cell_angle_alpha 43.275630
_cell_angle_beta 24.989828
_cell_angle_gamma 41.039562
_cell_volume 679.344977
_symmetry_space_group_name_H-M "P -1"
_symmetry_group_IT_number 2
_symmetry_cell_setting 'triclinic'
loop_
_space_group_symop_operation_xyz
x,y,z
-x,-y,-z
loop_
_atom_site_type_symbol
_atom_site_label
_atom_site_fract_x
_atom_site_fract_y
_atom_site_fract_z
Si Si1 0.883584 0.184112 0.420067
Si Si2 0.403383 0.472999 0.628684
Si Si3 0.275628 0.571043 0.550431
Si Si4 0.482654 0.686526 0.148928
Si Si5 0.676828 0.091173 0.999214
Si Si6 0.937909 0.195258 0.947606
Si Si7 0.993753 0.713848 0.691670
Si Si8 0.268309 0.983302 0.834339
O O1 0.809342 0.342342 0.408690
O O2 0.907769 0.381931 0.384102
O O3 0.804424 0.005775 0.711755
O O4 0.011506 0.997429 0.184082
O O5 0.500000 0.500000 0.500000
O O6 0.439624 0.573813 0.396710
O O7 0.290454 0.717249 0.815214
O O8 0.382971 0.159140 0.791400
O O9 0.376882 0.716071 0.277041
O O10 0.334360 0.217288 0.571924
O O11 0.196191 0.674427 0.784582
O O12 0.598507 0.414545 0.989143
O O13 0.500000 0.000000 0.000000
O O14 0.696897 0.117748 0.074523
O O15 0.993840 0.456339 0.717315
O O16 0.000000 0.000000 0.000000
O O17 0.000000 0.000000 0.500000
O O18 0.865313 0.813859 0.971034
#
# Coordination Sequence:
#
# PCOD9049922 Si02
#       8
#     2   2   2   2   2   2   2   2
#     4  11  26  43  74 102 145 186 228 287 351 408
#     4  12  26  46  76  98 138 193 230 285 361 410
#     4  10  24  48  68 103 147 184 234 292 344 417
#     4  12  28  47  73 106 140 181 239 295 344 416
#     4  12  26  47  71 106 148 177 232 296 342 420
#     4   9  23  45  68  99 142 183 228 280 345 407
#     4  11  24  42  69 105 141 176 236 285 334 419
#     4  11  24  45  71 105 140 185 232 283 355 413
#
# _framework density 23.552099999999999
#
# number of rings (size 3 to 8) (size 9 to 14) (size 15 to 20)
#    0.000    1.000    3.750    1.125    7.000    7.500 
#    0.000    0.000    0.000    0.000    0.000    0.000 
#    0.000    0.000    0.000    0.000    0.000    0.000 
#
# Total GULP energy -89438.302615 kJ/mol
# GULP energy per Si atom -5589.893913 kJ/mol
# Density = 2.349849 g / cm^3
# Si number density = 23.552100 Si / 1000 Ang^3
#
#
#
# Elastic Constant Matrix: (Units=GPa)
#
#
# Indices 1 2 3 4 5 6 
#
# 1 91.6550 9.0898 15.5689 10.7411 -15.2535 -0.1517
# 2 9.0898 100.1807 27.2518 -11.6149 -1.6446 1.8339
# 3 15.5689 27.2518 81.3030 -12.8648 -7.5061 0.7492
# 4 10.7411 -11.6149 -12.8648 37.3761 3.0766 3.5077
# 5 -15.2535 -1.6446 -7.5061 3.0766 38.0369 5.6310
# 6 -0.1517 1.8339 0.7492 3.5077 5.6310 23.5666
#
#
#
# Elastic Compliance Matrix: (Units=1/GPa)
#
#
# Indices 1 2 3 4 5 6 
#
# 1 0.012901 -0.001018 -0.002493 -0.005284 0.005093 -0.000189
# 2 -0.001018 0.011280 -0.003182 0.002853 -0.000622 -0.001059
# 3 -0.002493 -0.003182 0.014762 0.004803 0.001584 -0.001331
# 4 -0.005284 0.002853 0.004803 0.031468 -0.002943 -0.004389
# 5 0.005093 -0.000622 0.001584 -0.002943 0.029843 -0.006662
# 6 -0.000189 -0.001059 -0.001331 -0.004389 -0.006662 0.044801
#
#
# Mechanical properties :
#
#
# Convention : Reuss Voigt Hill
#
# Bulk Modulus (GPa) = 39.12870 41.88440 40.50655
# Shear Modulus (GPa) = 29.94705 34.54448 32.24577
#
# Velocity S-wave (km/s) = 3.56971 3.83394 3.70418
# Velocity P-wave (km/s) = 5.80002 6.11728 5.96076
#
# Compressibility (1/GPa) = 0.02555669
#
# Stress axis : x y z
#
# Youngs Moduli (GPa) = 77.51074 88.65312 67.73986
#
# Poissons Ratio (x) = 0.09023 0.16891
# Poissons Ratio (y) = 0.07889 0.21556
# Poissons Ratio (z) = 0.19327 0.28211
#
# Static dielectric constant tensor:
#      x y z
#    x 1.881100 -0.012160 -0.048270 
#    y -0.012160 1.933610 0.001030 
#    z -0.048270 0.001030 1.918820 
# 
# From -- ./inp_files/475957.got.cif
#   From: 2010.05.17/outbox.cif.g08.bks.cpg/sg2_238_cif.got.tgz:475957.got - 2010.06.03 11:33:40.
