data_PCOD9049260
_publ_section_title
;
Structure prediction by ZEFSAII (Michael W. Deem and Ramdas Pophale) SiO2 
 PCOD9049260
Probable space group: P -1
;
_chemical_formula_sum "Si O2"
_cell_formula_units_Z 14
_cell_length_a 8.683662
_cell_length_b 13.924564
_cell_length_c 16.594228
_cell_angle_alpha 23.173303
_cell_angle_beta 101.474432
_cell_angle_gamma 113.383419
_cell_volume 643.737426
_symmetry_space_group_name_H-M "P -1"
_symmetry_group_IT_number 2
_symmetry_cell_setting 'triclinic'
loop_
_space_group_symop_operation_xyz
x,y,z
-x,-y,-z
loop_
_atom_site_type_symbol
_atom_site_label
_atom_site_fract_x
_atom_site_fract_y
_atom_site_fract_z
Si Si1 0.716132 0.615000 0.158143
Si Si2 0.524816 0.771162 0.418334
Si Si3 0.113193 0.697582 0.632861
Si Si4 0.223039 0.565928 0.096850
Si Si5 0.205780 0.751132 0.293098
Si Si6 0.422306 0.327846 0.207110
Si Si7 0.233601 0.483734 0.344951
O O1 0.588024 0.399372 0.382334
O O2 0.885669 0.570820 0.197451
O O3 0.594563 0.486861 0.163686
O O4 0.770797 0.940035 0.929267
O O5 0.366589 0.736852 0.367866
O O6 0.648712 0.639157 0.512327
O O7 0.673428 0.118407 0.176460
O O8 0.997390 0.590471 0.786764
O O9 0.987202 0.757361 0.513593
O O10 0.318794 0.984280 0.444671
O O11 0.266174 0.365989 0.203656
O O12 0.304309 0.609533 0.164280
O O13 0.233173 0.700232 0.242032
O O14 0.000000 0.500000 0.500000
O O15 0.500000 0.500000 0.000000
#
# Coordination Sequence:
#
# PCOD9049260 Si02
#       7
#     2   2   2   2   2   2   2
#     4  12  26  48  70 110 148 182 248 298 353 439
#     4  12  23  46  75 102 147 187 240 294 365 414
#     4  10  25  45  73 106 149 189 237 294 359 423
#     4  10  24  46  71 105 147 183 243 288 361 423
#     4  12  28  45  76 106 147 194 239 297 363 425
#     4  12  24  47  78 104 146 193 237 301 362 425
#     4  10  25  46  70 105 148 182 247 292 350 432
#
# _framework density 21.747997000000002
#
# number of rings (size 3 to 8) (size 9 to 14) (size 15 to 20)
#    0.857    0.000    2.857    3.000    4.000    5.714 
#    0.000    2.143    0.000    0.000    0.000    0.000 
#    0.000    0.000    0.000    0.000    0.000    0.000 
#
# Total GULP energy -78178.344907 kJ/mol
# GULP energy per Si atom -5584.167493 kJ/mol
# Density = 2.169850 g / cm^3
# Si number density = 21.747997 Si / 1000 Ang^3
#
#
#
# Elastic Constant Matrix: (Units=GPa)
#
#
# Indices 1 2 3 4 5 6 
#
# 1 55.1725 -0.4791 -4.2953 -26.8280 30.1498 -24.1979
# 2 -0.4791 91.2944 28.7168 -8.1236 10.5635 -21.7623
# 3 -4.2953 28.7168 102.7084 -20.1291 12.4968 -15.5324
# 4 -26.8280 -8.1236 -20.1291 17.3298 -4.3929 -5.5011
# 5 30.1498 10.5635 12.4968 -4.3929 31.0387 -8.8291
# 6 -24.1979 -21.7623 -15.5324 -5.5011 -8.8291 30.3216
#
#
#
# Elastic Compliance Matrix: (Units=1/GPa)
#
#
# Indices 1 2 3 4 5 6 
#
# 1 -0.008966 -0.005407 -0.008606 -0.031839 0.003786 -0.020119
# 2 -0.005407 0.011722 -0.005334 -0.008286 0.002397 0.000560
# 3 -0.008606 -0.005334 0.007740 -0.008084 0.003906 -0.007061
# 4 -0.031839 -0.008286 -0.008084 -0.006877 0.027886 -0.028625
# 5 0.003786 0.002397 0.003906 0.027886 0.036477 0.022423
# 6 -0.020119 0.000560 -0.007061 -0.028625 0.022423 0.015045
#
#
# Mechanical properties :
#
#
# Convention : Reuss Voigt Hill
#
# Bulk Modulus (GPa) = -35.46185 33.00668 -1.22758
# Shear Modulus (GPa) = 59.21622 30.75354 44.98488
#
# Velocity S-wave (km/s) = 5.22374 3.76451 4.55297
# Velocity P-wave (km/s) = 4.47684 5.83997 5.20324
#
# Compressibility (1/GPa) = -0.02819932
#
# Stress axis : x y z
#
# Youngs Moduli (GPa) = -111.52633 85.30964 129.19276
#
# Poissons Ratio (x) = 0.46126 1.11186
# Poissons Ratio (y) = -0.60302 0.68917
# Poissons Ratio (z) = -0.95982 0.45508
#
# Static dielectric constant tensor:
#      x y z
#    x 1.858240 0.025840 0.013520 
#    y 0.025840 1.792280 0.011550 
#    z 0.013520 0.011550 1.763820 
# 
# From -- ./inp_files/561087.got.cif
#   From: 2010.05.17/outbox.cif.g08.bks.cpg/sg2_281_cif.got.tgz:561087.got - 2010.06.03 11:33:40.
