data_PCOD9049381
_publ_section_title
;
Structure prediction by ZEFSAII (Michael W. Deem and Ramdas Pophale) SiO2 
 PCOD9049381
Probable space group: P -1
;
_chemical_formula_sum "Si O2"
_cell_formula_units_Z 16
_cell_length_a 8.604692
_cell_length_b 11.818647
_cell_length_c 14.616956
_cell_angle_alpha 30.548935
_cell_angle_beta 70.785240
_cell_angle_gamma 74.332333
_cell_volume 713.174056
_symmetry_space_group_name_H-M "P -1"
_symmetry_group_IT_number 2
_symmetry_cell_setting 'triclinic'
loop_
_space_group_symop_operation_xyz
x,y,z
-x,-y,-z
loop_
_atom_site_type_symbol
_atom_site_label
_atom_site_fract_x
_atom_site_fract_y
_atom_site_fract_z
Si Si1 0.720266 0.481548 0.575546
Si Si2 0.944911 0.230358 0.098552
Si Si3 0.652243 0.691616 0.250177
Si Si4 0.700869 0.857381 0.472139
Si Si5 0.229611 0.568254 0.767406
Si Si6 0.335212 0.463293 0.003222
Si Si7 0.889625 0.048453 0.899746
Si Si8 0.664249 0.953417 0.613635
O O1 0.730195 0.622118 0.381053
O O2 0.542863 0.354440 0.683740
O O3 0.718299 0.650602 0.544101
O O4 0.855636 0.296579 0.698344
O O5 0.858517 0.028589 0.313587
O O6 0.791832 0.392040 0.016353
O O7 0.021048 0.093167 0.096382
O O8 0.087148 0.424470 0.946595
O O9 0.725541 0.539717 0.261618
O O10 0.712865 0.938046 0.039167
O O11 0.687958 0.816298 0.611261
O O12 0.526216 0.969280 0.400191
O O13 0.218057 0.828071 0.568792
O O14 0.363457 0.547392 0.836012
O O15 0.293671 0.200263 0.202100
O O16 0.500000 0.500000 0.000000
O O17 0.000000 0.000000 0.000000
#
# Coordination Sequence:
#
# PCOD9049381 Si02
#       8
#     2   2   2   2   2   2   2   2
#     4  11  24  46  74 101 140 188 240 290 344 422
#     4  11  25  44  66 101 145 177 228 292 352 418
#     4  10  24  46  73 103 136 188 242 289 347 416
#     4  11  22  44  71 101 140 179 232 289 345 425
#     4  11  24  47  68 103 146 172 234 297 348 423
#     4  12  24  42  72 100 136 186 233 286 351 420
#     4  11  26  45  68 104 145 186 233 290 359 417
#     4  11  23  42  70 103 132 180 233 283 349 411
#
# _framework density 22.434916999999999
#
# number of rings (size 3 to 8) (size 9 to 14) (size 15 to 20)
#    0.000    1.000    3.750    2.250    1.750    4.500 
#    4.500    0.000    0.000    0.000    0.000    0.000 
#    0.000    0.000    0.000    0.000    0.000    0.000 
#
# Total GULP energy -89200.029759 kJ/mol
# GULP energy per Si atom -5575.001860 kJ/mol
# Density = 2.238385 g / cm^3
# Si number density = 22.434917 Si / 1000 Ang^3
#
#
#
# Elastic Constant Matrix: (Units=GPa)
#
#
# Indices 1 2 3 4 5 6 
#
# 1 12.5300 13.7343 -3.0431 9.7338 -10.8897 19.9818
# 2 13.7343 99.9173 34.4598 -5.2221 18.7411 -9.3481
# 3 -3.0431 34.4598 123.9026 -0.8160 1.7329 13.5408
# 4 9.7338 -5.2221 -0.8160 25.6155 -6.0324 -17.4156
# 5 -10.8897 18.7411 1.7329 -6.0324 44.7809 -3.1158
# 6 19.9818 -9.3481 13.5408 -17.4156 -3.1158 -1.9497
#
#
#
# Elastic Compliance Matrix: (Units=1/GPa)
#
#
# Indices 1 2 3 4 5 6 
#
# 1 0.021519 0.000276 -0.003195 0.016599 0.009782 0.033121
# 2 0.000276 0.010656 -0.001994 -0.005017 -0.005576 -0.008396
# 3 -0.003195 -0.001994 0.008212 0.003355 0.000416 0.003218
# 4 0.016599 -0.005017 0.003355 0.024400 0.008334 -0.013794
# 5 0.009782 -0.005576 0.000416 0.008334 0.028804 0.009400
# 6 0.033121 -0.008396 0.003218 -0.013794 0.009400 -0.002666
#
#
# Mechanical properties :
#
#
# Convention : Reuss Voigt Hill
#
# Bulk Modulus (GPa) = 32.72409 36.29466 34.50938
# Shear Modulus (GPa) = 45.07013 26.43593 35.75303
#
# Velocity S-wave (km/s) = 4.48697 3.43642 3.99636
# Velocity P-wave (km/s) = 6.43908 5.65316 6.05887
#
# Compressibility (1/GPa) = 0.03055853
#
# Stress axis : x y z
#
# Youngs Moduli (GPa) = 46.47124 93.84083 121.77690
#
# Poissons Ratio (x) = -0.02586 0.38911
# Poissons Ratio (y) = -0.01281 0.24288
# Poissons Ratio (z) = 0.14849 0.18717
#
# Static dielectric constant tensor:
#      x y z
#    x 1.799740 -0.105330 -0.215010 
#    y -0.105330 1.642780 -0.162310 
#    z -0.215010 -0.162310 1.722450 
# 
# From -- ./inp_files/499656.got.cif
#   From: 2010.05.17/outbox.cif.g08.bks.cpg/sg2_250_cif.got.tgz:499656.got - 2010.06.03 11:33:40.
