data_PCOD9049162
_publ_section_title
;
Structure prediction by ZEFSAII (Michael W. Deem and Ramdas Pophale) SiO2 
 PCOD9049162
Probable space group: P -1
;
_chemical_formula_sum "Si O2"
_cell_formula_units_Z 16
_cell_length_a 9.024374
_cell_length_b 19.096734
_cell_length_c 5.383284
_cell_angle_alpha 118.536789
_cell_angle_beta 116.013319
_cell_angle_gamma 76.672903
_cell_volume 732.196841
_symmetry_space_group_name_H-M "P -1"
_symmetry_group_IT_number 2
_symmetry_cell_setting 'triclinic'
loop_
_space_group_symop_operation_xyz
x,y,z
-x,-y,-z
loop_
_atom_site_type_symbol
_atom_site_label
_atom_site_fract_x
_atom_site_fract_y
_atom_site_fract_z
Si Si1 0.388823 0.510872 0.182659
Si Si2 0.807188 0.170387 0.787474
Si Si3 0.598830 0.726355 0.815079
Si Si4 0.986211 0.764945 0.573309
Si Si5 0.740587 0.309522 0.643741
Si Si6 0.603667 0.015822 0.351145
Si Si7 0.264664 0.348358 0.695292
Si Si8 0.166925 0.134020 0.739703
O O1 0.500000 0.500000 0.500000
O O2 0.300402 0.597262 0.247088
O O3 0.500000 0.500000 0.000000
O O4 0.259518 0.439951 0.930759
O O5 0.738532 0.257776 0.805332
O O6 0.673102 0.104356 0.546776
O O7 0.983020 0.146014 0.739505
O O8 0.870476 0.181642 0.128631
O O9 0.402419 0.732213 0.690929
O O10 0.632169 0.666088 0.505504
O O11 0.661910 0.693458 0.071187
O O12 0.694913 0.806542 0.953011
O O13 0.073931 0.709061 0.339865
O O14 0.900502 0.699609 0.568229
O O15 0.854874 0.830236 0.491539
O O16 0.500000 0.000000 0.500000
O O17 0.760307 0.954342 0.355306
O O18 0.500000 0.000000 0.000000
#
# Coordination Sequence:
#
# PCOD9049162 Si02
#       8
#     2   2   2   2   2   2   2   2
#     4  12  24  43  67 103 136 182 235 290 347 401
#     4  11  25  46  71  99 145 184 229 283 351 418
#     4  11  22  40  71  96 134 179 234 280 337 408
#     4  10  25  42  71 101 138 189 229 276 352 410
#     4  11  25  41  69 103 138 183 236 290 344 405
#     4  12  30  48  73 110 140 178 235 290 341 406
#     4  11  22  44  65  99 136 179 231 281 341 412
#     4  10  24  46  70 102 138 188 226 280 347 415
#
# _framework density 21.852045
#
# number of rings (size 3 to 8) (size 9 to 14) (size 15 to 20)
#    0.000    1.000    3.750    1.125   10.500    2.000 
#    0.000    0.625    0.000    0.000    0.000    0.000 
#    0.000    0.000    0.000    0.000    0.000    0.000 
#
# Total GULP energy -89148.881562 kJ/mol
# GULP energy per Si atom -5571.805098 kJ/mol
# Density = 2.180231 g / cm^3
# Si number density = 21.852045 Si / 1000 Ang^3
#
#
#
# Elastic Constant Matrix: (Units=GPa)
#
#
# Indices 1 2 3 4 5 6 
#
# 1 65.4343 11.8524 8.2296 -4.1579 -6.7554 3.4981
# 2 11.8524 109.4582 26.8642 -7.5103 -7.1585 -11.9887
# 3 8.2296 26.8642 101.7629 -1.6951 2.1664 3.9114
# 4 -4.1579 -7.5103 -1.6951 24.5777 9.1601 7.8722
# 5 -6.7554 -7.1585 2.1664 9.1601 37.4582 4.0286
# 6 3.4981 -11.9887 3.9114 7.8722 4.0286 24.5181
#
#
#
# Elastic Compliance Matrix: (Units=1/GPa)
#
#
# Indices 1 2 3 4 5 6 
#
# 1 0.016339 -0.001725 -0.000709 0.002649 0.002475 -0.004319
# 2 -0.001725 0.010773 -0.002936 0.000563 0.001177 0.005608
# 3 -0.000709 -0.002936 0.010832 0.001246 -0.001270 -0.003254
# 4 0.002649 0.000563 0.001246 0.049850 -0.010102 -0.014647
# 5 0.002475 0.001177 -0.001270 -0.010102 0.030048 -0.001269
# 6 -0.004319 0.005608 -0.003254 -0.014647 -0.001269 0.049575
#
#
# Mechanical properties :
#
#
# Convention : Reuss Voigt Hill
#
# Bulk Modulus (GPa) = 36.75707 41.17197 38.96452
# Shear Modulus (GPa) = 26.70622 32.62477 29.66550
#
# Velocity S-wave (km/s) = 3.49970 3.86811 3.68851
# Velocity P-wave (km/s) = 5.76090 6.23152 6.00082
#
# Compressibility (1/GPa) = 0.02720565
#
# Stress axis : x y z
#
# Youngs Moduli (GPa) = 61.20441 92.82491 92.32003
#
# Poissons Ratio (x) = 0.16009 0.06542
# Poissons Ratio (y) = 0.10556 0.27102
# Poissons Ratio (z) = 0.04337 0.27250
#
# Static dielectric constant tensor:
#      x y z
#    x 1.905010 0.022260 -0.008230 
#    y 0.022260 1.807560 -0.033930 
#    z -0.008230 -0.033930 1.901250 
# 
# From -- ./inp_files/49168.got.cif
#   From: 2010.05.17/outbox.cif.g08.bks.cpg/sg2_25_cif.got.tgz:49168.got - 2010.06.03 11:33:40.
