data_PCOD9049168
_publ_section_title
;
Structure prediction by ZEFSAII (Michael W. Deem and Ramdas Pophale) SiO2 
 PCOD9049168
Probable space group: P -1
;
_chemical_formula_sum "Si O2"
_cell_formula_units_Z 16
_cell_length_a 21.221035
_cell_length_b 11.154018
_cell_length_c 8.413072
_cell_angle_alpha 93.587042
_cell_angle_beta 112.772349
_cell_angle_gamma 29.083441
_cell_volume 703.677806
_symmetry_space_group_name_H-M "P -1"
_symmetry_group_IT_number 2
_symmetry_cell_setting 'triclinic'
loop_
_space_group_symop_operation_xyz
x,y,z
-x,-y,-z
loop_
_atom_site_type_symbol
_atom_site_label
_atom_site_fract_x
_atom_site_fract_y
_atom_site_fract_z
Si Si1 0.476162 0.687052 0.606297
Si Si2 0.047013 0.062228 0.534552
Si Si3 0.727912 0.210222 0.538188
Si Si4 0.640460 0.855243 0.538364
Si Si5 0.024846 0.636819 0.957353
Si Si6 0.836599 0.739436 0.239294
Si Si7 0.682966 0.758530 0.219416
Si Si8 0.213911 0.945946 0.954123
O O1 0.556084 0.532797 0.494138
O O2 0.308862 0.874065 0.503984
O O3 0.432615 0.897076 0.571068
O O4 0.628006 0.391147 0.848812
O O5 0.870553 0.404150 0.309222
O O6 0.221533 0.809842 0.578184
O O7 0.086330 0.065242 0.739369
O O8 0.000000 0.000000 0.500000
O O9 0.906837 0.936205 0.793665
O O10 0.799371 0.615164 0.796496
O O11 0.694231 0.710195 0.412265
O O12 0.500000 0.000000 0.500000
O O13 0.082807 0.456443 0.855126
O O14 0.888668 0.821608 0.981104
O O15 0.699090 0.872261 0.199540
O O16 0.000000 0.500000 0.500000
O O17 0.742139 0.016052 0.117904
O O18 0.500000 0.000000 0.000000
#
# Coordination Sequence:
#
# PCOD9049168 Si02
#       8
#     2   2   2   2   2   2   2   2
#     4  10  27  45  69 108 143 187 240 309 368 436
#     4  12  27  46  73 103 150 199 244 305 379 450
#     4  10  24  46  70 103 146 186 241 303 374 437
#     4  12  28  46  73 104 145 195 248 302 370 445
#     4  11  23  43  75 103 144 187 243 303 364 442
#     4  12  23  44  78 109 141 191 245 309 365 441
#     4  12  28  49  69 108 149 192 253 308 373 439
#     4  11  25  45  72 110 140 193 248 300 374 440
#
# _framework density 22.737680000000001
#
# number of rings (size 3 to 8) (size 9 to 14) (size 15 to 20)
#    0.000    0.750    3.750    1.125   14.000    1.500 
#    0.000    2.500    0.000    0.000    0.000    0.000 
#    0.000    0.000    0.000    0.000    0.000    0.000 
#
# Total GULP energy -89344.199667 kJ/mol
# GULP energy per Si atom -5584.012479 kJ/mol
# Density = 2.268593 g / cm^3
# Si number density = 22.737680 Si / 1000 Ang^3
#
#
#
# Elastic Constant Matrix: (Units=GPa)
#
#
# Indices 1 2 3 4 5 6 
#
# 1 156.7125 33.7372 41.6909 -0.6055 8.9803 -19.9776
# 2 33.7372 66.7978 28.8527 9.2770 5.4854 -27.2929
# 3 41.6909 28.8527 155.2029 -2.2152 18.4801 -12.4003
# 4 -0.6055 9.2770 -2.2152 40.3856 -3.9782 -6.1855
# 5 8.9803 5.4854 18.4801 -3.9782 25.4606 -0.0530
# 6 -19.9776 -27.2929 -12.4003 -6.1855 -0.0530 35.0550
#
#
#
# Elastic Compliance Matrix: (Units=1/GPa)
#
#
# Indices 1 2 3 4 5 6 
#
# 1 0.007580 -0.002440 -0.001272 0.000820 -0.001092 0.002113
# 2 -0.002440 0.024643 -0.002275 -0.003648 -0.003333 0.016343
# 3 -0.001272 -0.002275 0.007795 0.000528 -0.004636 0.000347
# 4 0.000820 -0.003648 0.000528 0.026440 0.004250 0.002486
# 5 -0.001092 -0.003333 -0.004636 0.004250 0.044400 -0.004040
# 6 0.002113 0.016343 0.000347 0.002486 -0.004040 0.043010
#
#
# Mechanical properties :
#
#
# Convention : Reuss Voigt Hill
#
# Bulk Modulus (GPa) = 35.65775 65.25276 50.45526
# Shear Modulus (GPa) = 28.54028 38.47574 33.50801
#
# Velocity S-wave (km/s) = 3.54672 4.11805 3.84302
# Velocity P-wave (km/s) = 5.69988 7.16739 6.47534
#
# Compressibility (1/GPa) = 0.02804439
#
# Stress axis : x y z
#
# Youngs Moduli (GPa) = 131.92818 40.57891 128.28532
#
# Poissons Ratio (x) = 0.09900 0.16318
# Poissons Ratio (y) = 0.32186 0.29190
# Poissons Ratio (z) = 0.16781 0.09233
#
# Static dielectric constant tensor:
#      x y z
#    x 2.515380 -1.604540 0.052070 
#    y -1.604540 6.051370 -0.149920 
#    z 0.052070 -0.149920 1.870820 
# 
# From -- ./inp_files/344656.got.cif
#   From: 2010.05.17/outbox.cif.g08.bks.cpg/sg2_173_cif.got.tgz:344656.got - 2010.06.03 11:33:40.
