data_PCOD9049401
_publ_section_title
;
Structure prediction by ZEFSAII (Michael W. Deem and Ramdas Pophale) SiO2 
 PCOD9049401
Probable space group: P -1
;
_chemical_formula_sum "Si O2"
_cell_formula_units_Z 14
_cell_length_a 8.551469
_cell_length_b 16.437983
_cell_length_c 5.749873
_cell_angle_alpha 125.811687
_cell_angle_beta 118.754427
_cell_angle_gamma 54.951163
_cell_volume 523.630194
_symmetry_space_group_name_H-M "P -1"
_symmetry_group_IT_number 2
_symmetry_cell_setting 'triclinic'
loop_
_space_group_symop_operation_xyz
x,y,z
-x,-y,-z
loop_
_atom_site_type_symbol
_atom_site_label
_atom_site_fract_x
_atom_site_fract_y
_atom_site_fract_z
Si Si1 0.782389 0.530933 0.295320
Si Si2 0.225232 0.662472 0.783507
Si Si3 0.897820 0.002856 0.679045
Si Si4 0.481659 0.124480 0.699777
Si Si5 0.876752 0.661625 0.239394
Si Si6 0.027947 0.776367 0.228239
Si Si7 0.551372 0.279052 0.335036
O O1 0.720182 0.430689 0.134519
O O2 0.805438 0.569064 0.113834
O O3 0.620849 0.632871 0.490784
O O4 0.000000 0.500000 0.500000
O O5 0.403915 0.669430 0.786359
O O6 0.082530 0.637033 0.466749
O O7 0.071739 0.773616 0.982981
O O8 0.884257 0.885502 0.438291
O O9 0.687704 0.102975 0.690414
O O10 0.000000 0.000000 0.500000
O O11 0.000000 0.000000 0.000000
O O12 0.300315 0.223450 0.617291
O O13 0.500000 0.000000 0.500000
O O14 0.504214 0.176068 0.052010
O O15 0.933274 0.689598 0.071441
O O16 0.238707 0.756140 0.452966
#
# Coordination Sequence:
#
# PCOD9049401 Si02
#       7
#     2   2   2   2   2   2   2
#     4  10  24  46  73 107 145 190 241 320 383 450
#     4  10  24  49  74 101 145 197 247 308 382 457
#     4  12  27  49  76 111 153 206 260 313 386 459
#     4  12  26  46  73 108 146 198 245 317 384 447
#     4  10  25  44  68 109 147 183 251 303 380 445
#     4  11  24  46  73 103 147 199 244 310 366 469
#     4  11  25  46  71 105 147 185 258 298 381 461
#
# _framework density 26.736426000000002
#
# number of rings (size 3 to 8) (size 9 to 14) (size 15 to 20)
#    0.000    1.143    2.857    1.286   10.000    1.143 
#    5.143    2.143    0.000    0.000    0.000    0.000 
#    0.000    0.000    0.000    0.000    0.000    0.000 
#
# Total GULP energy -78161.596271 kJ/mol
# GULP energy per Si atom -5582.971162 kJ/mol
# Density = 2.667557 g / cm^3
# Si number density = 26.736426 Si / 1000 Ang^3
#
#
#
# Elastic Constant Matrix: (Units=GPa)
#
#
# Indices 1 2 3 4 5 6 
#
# 1 121.6235 50.3657 35.4362 -4.9224 -27.3136 5.7244
# 2 50.3657 92.8198 20.9576 14.8511 3.8788 -8.4124
# 3 35.4362 20.9576 113.3294 33.4432 -6.2719 4.1915
# 4 -4.9224 14.8511 33.4432 45.2427 -6.2234 -4.2115
# 5 -27.3136 3.8788 -6.2719 -6.2234 50.5178 7.7907
# 6 5.7244 -8.4124 4.1915 -4.2115 7.7907 66.8252
#
#
#
# Elastic Compliance Matrix: (Units=1/GPa)
#
#
# Indices 1 2 3 4 5 6 
#
# 1 0.017618 -0.010743 -0.006087 0.011229 0.011457 -0.003108
# 2 -0.010743 0.018331 0.002222 -0.009696 -0.008672 0.003489
# 3 -0.006087 0.002222 0.013697 -0.011993 -0.003170 -0.000444
# 4 0.011229 -0.009696 -0.011993 0.036709 0.009891 -0.000270
# 5 0.011457 -0.008672 -0.003170 0.009891 0.028180 -0.004536
# 6 -0.003108 0.003489 -0.000444 -0.000270 -0.004536 0.016210
#
#
# Mechanical properties :
#
#
# Convention : Reuss Voigt Hill
#
# Bulk Modulus (GPa) = 48.94893 60.14353 54.54623
# Shear Modulus (GPa) = 29.98144 47.25132 38.61638
#
# Velocity S-wave (km/s) = 3.35232 4.20849 3.80457
# Velocity P-wave (km/s) = 5.77337 6.79404 6.30439
#
# Compressibility (1/GPa) = 0.02042946
#
# Stress axis : x y z
#
# Youngs Moduli (GPa) = 56.75992 54.55205 73.01132
#
# Poissons Ratio (x) = 0.58603 0.44442
# Poissons Ratio (y) = 0.60975 -0.16220
# Poissons Ratio (z) = 0.34550 -0.12119
#
# Static dielectric constant tensor:
#      x y z
#    x 2.196890 0.135690 -0.003350 
#    y 0.135690 2.287590 0.047460 
#    z -0.003350 0.047460 2.163130 
# 
# From -- ./inp_files/49057.got.cif
#   From: 2010.05.17/outbox.cif.g08.bks.cpg/sg2_25_cif.got.tgz:49057.got - 2010.06.03 11:33:40.
