data_PCOD9049235
_publ_section_title
;
Structure prediction by ZEFSAII (Michael W. Deem and Ramdas Pophale) SiO2 
 PCOD9049235
Probable space group: P -1
;
_chemical_formula_sum "Si O2"
_cell_formula_units_Z 16
_cell_length_a 8.328877
_cell_length_b 11.263070
_cell_length_c 16.920520
_cell_angle_alpha 137.315211
_cell_angle_beta 43.192302
_cell_angle_gamma 133.535124
_cell_volume 695.437914
_symmetry_space_group_name_H-M "P -1"
_symmetry_group_IT_number 2
_symmetry_cell_setting 'triclinic'
loop_
_space_group_symop_operation_xyz
x,y,z
-x,-y,-z
loop_
_atom_site_type_symbol
_atom_site_label
_atom_site_fract_x
_atom_site_fract_y
_atom_site_fract_z
Si Si1 0.937843 0.615509 0.383971
Si Si2 0.282576 0.084252 0.095465
Si Si3 0.060382 0.571425 0.141780
Si Si4 0.546400 0.885217 0.120434
Si Si5 0.605009 0.217018 0.590014
Si Si6 0.498451 0.272460 0.369828
Si Si7 0.516486 0.538377 0.702567
Si Si8 0.782268 0.772947 0.133606
O O1 0.760593 0.411892 0.373962
O O2 0.737824 0.721789 0.492442
O O3 0.069159 0.587983 0.242600
O O4 0.129689 0.726005 0.434348
O O5 0.350113 0.293795 0.203957
O O6 0.274239 0.076865 0.000183
O O7 0.017839 0.953089 0.156700
O O8 0.500000 0.000000 0.000000
O O9 0.277157 0.751693 0.123185
O O10 0.775991 0.543740 0.212000
O O11 0.118903 0.397034 0.000141
O O12 0.654249 0.797826 0.109690
O O13 0.512309 0.071860 0.255390
O O14 0.617255 0.365963 0.589591
O O15 0.420085 0.254836 0.739670
O O16 0.500000 0.000000 0.500000
O O17 0.465720 0.359259 0.338377
#
# Coordination Sequence:
#
# PCOD9049235 Si02
#       8
#     2   2   2   2   2   2   2   2
#     4  10  24  48  69 100 139 181 238 280 348 420
#     4  12  24  43  70 107 144 184 232 285 352 417
#     4  11  24  46  72 104 142 184 232 284 357 414
#     4  12  25  42  75 102 141 184 234 290 342 424
#     4  12  30  47  71 105 142 184 235 292 352 412
#     4  10  24  46  71 101 137 188 232 284 348 420
#     4  11  26  45  70 104 144 185 231 291 349 419
#     4  12  27  47  70 106 143 183 236 286 352 413
#
# _framework density 23.007088
#
# number of rings (size 3 to 8) (size 9 to 14) (size 15 to 20)
#    0.000    0.750    3.750    2.250    8.750    5.000 
#    0.000    0.000    0.000    0.000    0.000    0.000 
#    0.000    0.000    0.000    0.000    0.000    0.000 
#
# Total GULP energy -89586.874557 kJ/mol
# GULP energy per Si atom -5599.179660 kJ/mol
# Density = 2.295472 g / cm^3
# Si number density = 23.007088 Si / 1000 Ang^3
#
#
#
# Elastic Constant Matrix: (Units=GPa)
#
#
# Indices 1 2 3 4 5 6 
#
# 1 58.7879 19.3476 13.3183 2.5458 8.9938 18.2312
# 2 19.3476 92.5184 11.2917 22.8676 -9.0925 36.2257
# 3 13.3183 11.2917 70.2461 20.0617 1.2388 3.2307
# 4 2.5458 22.8676 20.0617 56.8818 2.0919 8.9758
# 5 8.9938 -9.0925 1.2388 2.0919 16.2983 -5.3625
# 6 18.2312 36.2257 3.2307 8.9758 -5.3625 46.2369
#
#
#
# Elastic Compliance Matrix: (Units=1/GPa)
#
#
# Indices 1 2 3 4 5 6 
#
# 1 0.025081 -0.003890 -0.004569 0.004280 -0.019371 -0.009600
# 2 -0.003890 0.018072 -0.000223 -0.005725 0.009562 -0.010389
# 3 -0.004569 -0.000223 0.016717 -0.006061 0.002659 0.002294
# 4 0.004280 -0.005725 -0.006061 0.022487 -0.008689 -0.002152
# 5 -0.019371 0.009562 0.002659 -0.008689 0.081963 0.011153
# 6 -0.009600 -0.010389 0.002294 -0.002152 0.011153 0.035104
#
#
# Mechanical properties :
#
#
# Convention : Reuss Voigt Hill
#
# Bulk Modulus (GPa) = 23.52705 34.38530 28.95617
# Shear Modulus (GPa) = 21.64910 35.72304 28.68607
#
# Velocity S-wave (km/s) = 3.07086 3.94470 3.53489
# Velocity P-wave (km/s) = 4.77721 5.97709 5.41051
#
# Compressibility (1/GPa) = 0.04250427
#
# Stress axis : x y z
#
# Youngs Moduli (GPa) = 39.87094 55.33379 59.82113
#
# Poissons Ratio (x) = 0.21526 0.27333
# Poissons Ratio (y) = 0.15510 0.01336
# Poissons Ratio (z) = 0.18218 0.01236
#
# Static dielectric constant tensor:
#      x y z
#    x 1.881340 -0.023210 0.031000 
#    y -0.023210 1.834470 -0.027820 
#    z 0.031000 -0.027820 1.854100 
# 
# From -- ./inp_files/398685.got.cif
#   From: 2010.05.17/outbox.cif.g08.bks.cpg/sg2_200_cif.got.tgz:398685.got - 2010.06.03 11:33:40.
