data_PCOD9049971
_publ_section_title
;
Structure prediction by ZEFSAII (Michael W. Deem and Ramdas Pophale) SiO2 
 PCOD9049971
Probable space group: P -1
;
_chemical_formula_sum "Si O2"
_cell_formula_units_Z 13
_cell_length_a 9.412542
_cell_length_b 19.958654
_cell_length_c 8.301616
_cell_angle_alpha 32.219715
_cell_angle_beta 132.847704
_cell_angle_gamma 139.743482
_cell_volume 534.640120
_symmetry_space_group_name_H-M "P -1"
_symmetry_group_IT_number 2
_symmetry_cell_setting 'triclinic'
loop_
_space_group_symop_operation_xyz
x,y,z
-x,-y,-z
loop_
_atom_site_type_symbol
_atom_site_label
_atom_site_fract_x
_atom_site_fract_y
_atom_site_fract_z
Si Si1 0.944055 0.498017 0.777877
Si Si2 0.161073 0.160207 0.231218
Si Si3 0.327685 0.981945 0.262989
Si Si4 0.500000 0.500000 0.500000
Si Si5 0.631376 0.204784 0.600783
Si Si6 0.073322 0.667721 0.169840
Si Si7 0.825202 0.800322 0.230038
O O1 0.707164 0.489258 0.593417
O O2 0.928873 0.357216 0.969736
O O3 0.149000 0.649700 0.574477
O O4 0.000000 0.500000 0.000000
O O5 0.408719 0.207495 0.382499
O O6 0.162967 0.168804 0.019478
O O7 0.000000 0.000000 0.500000
O O8 0.086191 0.270941 0.019335
O O9 0.370408 0.920173 0.255554
O O10 0.074108 0.868450 0.343614
O O11 0.500000 0.000000 0.500000
O O12 0.301978 0.123397 0.943501
O O13 0.680980 0.632414 0.477506
O O14 0.691710 0.216028 0.812598
O O15 0.000000 0.500000 0.500000
#
# Coordination Sequence:
#
# PCOD9049971 Si02
#       7
#     2   2   2   1   2   2   2
#     4  11  25  42  71 105 139 182 241 307 373 432
#     4  12  26  45  72 103 146 200 247 298 368 450
#     4  11  22  43  74 103 149 194 239 313 367 440
#     4  12  24  46  76 108 142 184 246 314 372 430
#     4  11  23  47  69 100 150 192 247 298 373 444
#     4  10  24  48  70  99 145 192 242 309 371 441
#     4  11  24  44  72 108 148 190 252 303 370 444
#
# _framework density 24.315424
#
# number of rings (size 3 to 8) (size 9 to 14) (size 15 to 20)
#    0.000    0.923    4.615    1.846    0.000    6.769 
#    5.538    0.000    0.000    0.000    0.000    0.000 
#    0.000    0.000    0.000    0.000    0.000    0.000 
#
# Total GULP energy -72410.908427 kJ/mol
# GULP energy per Si atom -5570.069879 kJ/mol
# Density = 2.426008 g / cm^3
# Si number density = 24.315424 Si / 1000 Ang^3
#
#
#
# Elastic Constant Matrix: (Units=GPa)
#
#
# Indices 1 2 3 4 5 6 
#
# 1 153.1368 79.5511 55.4129 -0.1107 51.1133 -12.8622
# 2 79.5511 201.6043 45.0678 10.0926 39.4047 -17.9925
# 3 55.4129 45.0678 70.8939 -6.5185 42.6976 -7.9386
# 4 -0.1107 10.0926 -6.5185 42.5026 -5.6276 14.6170
# 5 51.1133 39.4047 42.6976 -5.6276 49.9436 0.5698
# 6 -12.8622 -17.9925 -7.9386 14.6170 0.5698 74.3847
#
#
#
# Elastic Compliance Matrix: (Units=1/GPa)
#
#
# Indices 1 2 3 4 5 6 
#
# 1 0.011361 -0.002140 -0.002870 -0.001426 -0.007662 0.001479
# 2 -0.002140 0.006860 -0.001257 -0.002744 -0.002476 0.001713
# 3 -0.002870 -0.001257 0.031133 0.001233 -0.022576 0.002453
# 4 -0.001426 -0.002744 0.001233 0.027245 0.005710 -0.006176
# 5 -0.007662 -0.002476 -0.022576 0.005710 0.049828 -0.005837
# 6 0.001479 0.001713 0.002453 -0.006176 -0.005837 0.015634
#
#
# Mechanical properties :
#
#
# Convention : Reuss Voigt Hill
#
# Bulk Modulus (GPa) = 27.16015 87.29984 57.23000
# Shear Modulus (GPa) = 29.96318 49.73972 39.85145
#
# Velocity S-wave (km/s) = 3.51418 4.52774 4.05277
# Velocity P-wave (km/s) = 5.25929 7.95707 6.74444
#
# Compressibility (1/GPa) = 0.03681864
#
# Stress axis : x y z
#
# Youngs Moduli (GPa) = 88.01777 145.77099 32.11979
#
# Poissons Ratio (x) = 0.31201 0.09220
# Poissons Ratio (y) = 0.18839 0.04039
# Poissons Ratio (z) = 0.25264 0.18329
#
# Static dielectric constant tensor:
#      x y z
#    x 1.924060 -0.013880 0.047090 
#    y -0.013880 1.867550 -0.036770 
#    z 0.047090 -0.036770 1.852890 
# 
# From -- ./inp_files/214179.got.cif
#   From: 2010.05.17/outbox.cif.g08.bks.cpg/sg2_108_cif.got.tgz:214179.got - 2010.06.03 11:33:40.
