data_PCOD9049705
_publ_section_title
;
Structure prediction by ZEFSAII (Michael W. Deem and Ramdas Pophale) SiO2 
 PCOD9049705
Probable space group: P -1
;
_chemical_formula_sum "Si O2"
_cell_formula_units_Z 14
_cell_length_a 13.493001
_cell_length_b 13.867411
_cell_length_c 5.461655
_cell_angle_alpha 122.908622
_cell_angle_beta 52.046053
_cell_angle_gamma 139.446628
_cell_volume 518.113111
_symmetry_space_group_name_H-M "P -1"
_symmetry_group_IT_number 2
_symmetry_cell_setting 'triclinic'
loop_
_space_group_symop_operation_xyz
x,y,z
-x,-y,-z
loop_
_atom_site_type_symbol
_atom_site_label
_atom_site_fract_x
_atom_site_fract_y
_atom_site_fract_z
Si Si1 0.055054 0.148748 0.242737
Si Si2 0.515054 0.890149 0.184050
Si Si3 0.600296 0.454489 0.511238
Si Si4 0.815003 0.166414 0.898998
Si Si5 0.649629 0.737161 0.770620
Si Si6 0.228248 0.620604 0.501604
Si Si7 0.895135 0.654617 0.943719
O O1 0.159220 0.175100 0.360153
O O2 0.163169 0.280984 0.063019
O O3 0.916889 0.161305 0.530280
O O4 0.000000 0.000000 0.000000
O O5 0.329413 0.734162 0.275193
O O6 0.500000 0.000000 0.500000
O O7 0.615545 0.842080 0.079209
O O8 0.635503 0.003284 0.941440
O O9 0.571597 0.573066 0.764203
O O10 0.442542 0.309272 0.413216
O O11 0.656363 0.403945 0.569793
O O12 0.756916 0.550275 0.216124
O O13 0.806032 0.298776 0.137820
O O14 0.931213 0.207560 0.014494
O O15 0.088717 0.454916 0.381462
#
# Coordination Sequence:
#
# PCOD9049705 Si02
#       7
#     2   2   2   2   2   2   2
#     4  12  28  47  75 110 149 203 243 298 380 438
#     4  10  24  47  72 102 144 193 242 298 368 434
#     4  11  25  43  77 109 146 191 246 316 356 431
#     4  11  26  49  72 110 154 190 247 310 363 443
#     4  11  23  48  71 105 147 185 248 302 361 433
#     4  11  24  49  76 111 145 194 251 302 374 436
#     4  12  23  46  73 112 145 193 249 299 374 434
#
# _framework density 27.021127
#
# number of rings (size 3 to 8) (size 9 to 14) (size 15 to 20)
#    0.000    0.857    4.286    1.286    2.000    8.000 
#    5.143    1.429    0.000    0.000    0.000    0.000 
#    0.000    0.000    0.000    0.000    0.000    0.000 
#
# Total GULP energy -78171.425251 kJ/mol
# GULP energy per Si atom -5583.673232 kJ/mol
# Density = 2.695963 g / cm^3
# Si number density = 27.021127 Si / 1000 Ang^3
#
#
#
# Elastic Constant Matrix: (Units=GPa)
#
#
# Indices 1 2 3 4 5 6 
#
# 1 85.3795 4.2970 37.5051 16.7192 -11.8031 5.6325
# 2 4.2970 133.1949 64.1048 30.8207 -2.3824 0.8099
# 3 37.5051 64.1048 138.2421 25.7574 -40.6831 -16.9282
# 4 16.7192 30.8207 25.7574 56.9766 -7.6492 -12.0172
# 5 -11.8031 -2.3824 -40.6831 -7.6492 50.6222 13.7765
# 6 5.6325 0.8099 -16.9282 -12.0172 13.7765 30.7430
#
#
#
# Elastic Compliance Matrix: (Units=1/GPa)
#
#
# Indices 1 2 3 4 5 6 
#
# 1 0.015892 0.003687 -0.005804 -0.005791 0.000734 -0.008797
# 2 0.003687 0.012353 -0.007436 -0.006138 -0.003898 -0.005748
# 3 -0.005804 -0.007436 0.015504 0.001255 0.009278 0.006129
# 4 -0.005791 -0.006138 0.001255 0.024418 -0.000068 0.011489
# 5 0.000734 -0.003898 0.009278 -0.000068 0.029399 -0.008123
# 6 -0.008797 -0.005748 0.006129 0.011489 -0.008123 0.045797
#
#
# Mechanical properties :
#
#
# Convention : Reuss Voigt Hill
#
# Bulk Modulus (GPa) = 40.57810 63.18115 51.87963
# Shear Modulus (GPa) = 29.29429 44.39564 36.84497
#
# Velocity S-wave (km/s) = 3.29618 4.05779 3.69665
# Velocity P-wave (km/s) = 5.43472 6.73699 6.12059
#
# Compressibility (1/GPa) = 0.02464384
#
# Stress axis : x y z
#
# Youngs Moduli (GPa) = 62.92478 80.94952 64.50135
#
# Poissons Ratio (x) = -0.29847 0.37433
# Poissons Ratio (y) = -0.23201 0.47964
# Poissons Ratio (z) = 0.36518 0.60195
#
# Static dielectric constant tensor:
#      x y z
#    x 2.053970 0.038460 0.002720 
#    y 0.038460 2.107250 -0.037740 
#    z 0.002720 -0.037740 2.208980 
# 
# From -- ./inp_files/98667.got.cif
#   From: 2010.05.17/outbox.cif.g08.bks.cpg/sg2_50_cif.got.tgz:98667.got - 2010.06.03 11:33:40.
