data_PCOD9049052
_publ_section_title
;
Structure prediction by ZEFSAII (Michael W. Deem and Ramdas Pophale) SiO2 
 PCOD9049052
Probable space group: P -1
;
_chemical_formula_sum "Si O2"
_cell_formula_units_Z 14
_cell_length_a 16.922259
_cell_length_b 6.762187
_cell_length_c 9.278543
_cell_angle_alpha 47.406538
_cell_angle_beta 124.479214
_cell_angle_gamma 104.646296
_cell_volume 629.304901
_symmetry_space_group_name_H-M "P -1"
_symmetry_group_IT_number 2
_symmetry_cell_setting 'triclinic'
loop_
_space_group_symop_operation_xyz
x,y,z
-x,-y,-z
loop_
_atom_site_type_symbol
_atom_site_label
_atom_site_fract_x
_atom_site_fract_y
_atom_site_fract_z
Si Si1 0.574455 0.204753 0.727184
Si Si2 0.003342 0.014462 0.743452
Si Si3 0.290248 0.675720 0.413792
Si Si4 0.115660 0.166404 0.048292
Si Si5 0.551777 0.204157 0.260814
Si Si6 0.147810 0.736621 0.782059
Si Si7 0.326344 0.030487 0.771460
O O1 0.500000 0.500000 0.500000
O O2 0.677807 0.246336 0.750249
O O3 0.528409 0.979255 0.706394
O O4 0.594167 0.087276 0.965951
O O5 0.925552 0.187129 0.467389
O O6 0.089324 0.854305 0.808180
O O7 0.047129 0.184226 0.827297
O O8 0.949276 0.822303 0.880351
O O9 0.380362 0.736921 0.569513
O O10 0.289079 0.357261 0.585051
O O11 0.189996 0.872422 0.262349
O O12 0.174364 0.408315 0.985625
O O13 0.623810 0.038711 0.296643
O O14 0.500000 0.500000 0.000000
O O15 0.238111 0.875949 0.776698
#
# Coordination Sequence:
#
# PCOD9049052 Si02
#       7
#     2   2   2   2   2   2   2
#     4  12  25  45  71  95 137 180 224 273 331 390
#     4  10  24  46  68 100 136 170 218 276 336 392
#     4  12  27  45  66 102 136 176 222 277 329 394
#     4  11  25  43  72  99 132 174 226 268 329 405
#     4  12  25  45  71  95 137 180 224 273 331 390
#     4  11  25  43  72  98 134 175 219 274 335 393
#     4  12  27  46  64 103 140 170 221 283 329 388
#
# _framework density 22.246767999999999
#
# number of rings (size 3 to 8) (size 9 to 14) (size 15 to 20)
#    0.000    0.571    2.857    4.286    4.000   11.429 
#    0.000    0.000    0.000    0.000    0.000    0.000 
#    0.000    0.000    0.000    0.000    0.000    0.000 
#
# Total GULP energy -78386.069212 kJ/mol
# GULP energy per Si atom -5599.004944 kJ/mol
# Density = 2.219613 g / cm^3
# Si number density = 22.246768 Si / 1000 Ang^3
#
#
#
# Elastic Constant Matrix: (Units=GPa)
#
#
# Indices 1 2 3 4 5 6 
#
# 1 107.1683 29.3068 28.6145 -11.4687 -11.8929 15.4508
# 2 29.3068 86.5091 45.1705 -30.3736 -13.8941 24.3462
# 3 28.6145 45.1705 73.4450 -11.3856 -6.4393 1.8855
# 4 -11.4687 -30.3736 -11.3856 30.8755 -1.9018 -14.1089
# 5 -11.8929 -13.8941 -6.4393 -1.9018 35.2799 -1.5255
# 6 15.4508 24.3462 1.8855 -14.1089 -1.5255 42.4432
#
#
#
# Elastic Compliance Matrix: (Units=1/GPa)
#
#
# Indices 1 2 3 4 5 6 
#
# 1 0.011337 0.000294 -0.003977 0.001647 0.003151 -0.003458
# 2 0.000294 0.031135 -0.014775 0.021449 0.010396 -0.009806
# 3 -0.003977 -0.014775 0.023149 -0.004284 -0.002847 0.007368
# 4 0.001647 0.021449 -0.004284 0.056138 0.011522 0.006363
# 5 0.003151 0.010396 -0.002847 0.011522 0.033518 -0.001949
# 6 -0.003458 -0.009806 0.007368 0.006363 -0.001949 0.032163
#
#
# Mechanical properties :
#
#
# Convention : Reuss Voigt Hill
#
# Bulk Modulus (GPa) = 34.83782 52.58957 43.71370
# Shear Modulus (GPa) = 21.37434 32.65508 27.01471
#
# Velocity S-wave (km/s) = 3.10301 3.83542 3.48849
# Velocity P-wave (km/s) = 5.34153 6.58061 5.99318
#
# Compressibility (1/GPa) = 0.02870443
#
# Stress axis : x y z
#
# Youngs Moduli (GPa) = 88.20463 32.11822 43.19798
#
# Poissons Ratio (x) = -0.00943 0.17181
# Poissons Ratio (y) = -0.02589 0.63824
# Poissons Ratio (z) = 0.35081 0.47454
#
# Static dielectric constant tensor:
#      x y z
#    x 1.805370 0.005250 -0.028140 
#    y 0.005250 1.840810 0.031610 
#    z -0.028140 0.031610 1.809780 
# 
# From -- ./inp_files/48107.got.cif
#   From: 2010.05.17/outbox.cif.g08.bks.cpg/sg2_25_cif.got.tgz:48107.got - 2010.06.03 11:33:40.
