data_PCOD9049183
_publ_section_title
;
Structure prediction by ZEFSAII (Michael W. Deem and Ramdas Pophale) SiO2 
 PCOD9049183
Probable space group: P -1
;
_chemical_formula_sum "Si O2"
_cell_formula_units_Z 12
_cell_length_a 23.503704
_cell_length_b 5.175276
_cell_length_c 9.473619
_cell_angle_alpha 72.742410
_cell_angle_beta 148.613699
_cell_angle_gamma 123.673946
_cell_volume 456.075897
_symmetry_space_group_name_H-M "P -1"
_symmetry_group_IT_number 2
_symmetry_cell_setting 'triclinic'
loop_
_space_group_symop_operation_xyz
x,y,z
-x,-y,-z
loop_
_atom_site_type_symbol
_atom_site_label
_atom_site_fract_x
_atom_site_fract_y
_atom_site_fract_z
Si Si1 0.511874 0.211861 0.123862
Si Si2 0.690724 0.749925 0.778614
Si Si3 0.808343 0.762882 0.754275
Si Si4 0.585821 0.898528 0.772306
Si Si5 0.913144 0.126169 0.625511
Si Si6 0.868277 0.672711 0.351827
O O1 0.662813 0.398967 0.480538
O O2 0.401852 0.024324 0.048143
O O3 0.500000 0.500000 0.000000
O O4 0.500000 0.000000 0.000000
O O5 0.786922 0.920444 0.819329
O O6 0.699036 0.967373 0.890919
O O7 0.534655 0.520385 0.425127
O O8 0.744485 0.555286 0.001052
O O9 0.844855 0.988198 0.656425
O O10 0.930295 0.737930 0.046662
O O11 0.500000 0.000000 0.500000
O O12 0.898598 0.405922 0.490873
O O13 0.847617 0.808815 0.430836
O O14 0.000000 0.000000 0.500000
#
# Coordination Sequence:
#
# PCOD9049183 Si02
#       6
#     2   2   2   2   2   2
#     4  11  28  47  74 109 146 194 249 305 369 436
#     4  10  24  46  70 106 144 192 243 308 363 439
#     4  10  25  50  74 108 153 197 248 307 376 446
#     4  10  25  45  72 103 142 195 245 301 370 430
#     4  11  27  48  74 112 148 201 241 307 375 445
#     4  12  26  46  75 109 149 190 252 302 370 442
#
# _framework density 26.311411
#
# number of rings (size 3 to 8) (size 9 to 14) (size 15 to 20)
#    0.000    1.333    1.667    0.500   11.667    6.667 
#    3.000    0.000    0.000    0.000    0.000    0.000 
#    0.000    0.000    0.000    0.000    0.000    0.000 
#
# Total GULP energy -67256.300993 kJ/mol
# GULP energy per Si atom -5604.691749 kJ/mol
# Density = 2.625152 g / cm^3
# Si number density = 26.311411 Si / 1000 Ang^3
#
#
#
# Elastic Constant Matrix: (Units=GPa)
#
#
# Indices 1 2 3 4 5 6 
#
# 1 275.7018 75.4743 44.4949 -14.2152 -44.4436 -0.0912
# 2 75.4743 106.0922 24.1928 -18.4627 -14.9002 -25.3855
# 3 44.4949 24.1928 147.7715 1.6945 -5.8283 -7.6282
# 4 -14.2152 -18.4627 1.6945 37.1390 1.5139 -0.4470
# 5 -44.4436 -14.9002 -5.8283 1.5139 49.8309 4.7640
# 6 -0.0912 -25.3855 -7.6282 -0.4470 4.7640 51.1931
#
#
#
# Elastic Compliance Matrix: (Units=1/GPa)
#
#
# Indices 1 2 3 4 5 6 
#
# 1 0.005398 -0.003592 -0.001005 0.000142 0.003836 -0.002277
# 2 -0.003592 0.015119 -0.001074 0.006267 0.000298 0.007358
# 3 -0.001005 -0.001074 0.007274 -0.001228 -0.000384 0.000575
# 4 0.000142 0.006267 -0.001228 0.030163 0.000642 0.003128
# 5 0.003836 0.000298 -0.000384 0.000642 0.023715 -0.002104
# 6 -0.002277 0.007358 0.000575 0.003128 -0.002104 0.023487
#
#
# Mechanical properties :
#
#
# Convention : Reuss Voigt Hill
#
# Bulk Modulus (GPa) = 60.79519 90.87663 75.83591
# Shear Modulus (GPa) = 40.99016 53.32616 47.15816
#
# Velocity S-wave (km/s) = 3.95129 4.50681 4.23816
# Velocity P-wave (km/s) = 6.63122 7.85465 7.26872
#
# Compressibility (1/GPa) = 0.01644867
#
# Stress axis : x y z
#
# Youngs Moduli (GPa) = 185.26911 66.14238 137.47136
#
# Poissons Ratio (x) = 0.23758 0.13817
# Poissons Ratio (y) = 0.66549 0.14764
# Poissons Ratio (z) = 0.18621 0.07103
#
# Static dielectric constant tensor:
#      x y z
#    x 2.028150 0.026170 0.023800 
#    y 0.026170 2.309050 0.159690 
#    z 0.023800 0.159690 2.144110 
# 
# From -- ./inp_files/350543.got.cif
#   From: 2010.05.17/outbox.cif.g08.bks.cpg/sg2_176_cif.got.tgz:350543.got - 2010.06.03 11:33:40.
