data_PCOD9049650
_publ_section_title
;
Structure prediction by ZEFSAII (Michael W. Deem and Ramdas Pophale) SiO2 
 PCOD9049650
Probable space group: P -1
;
_chemical_formula_sum "Si O2"
_cell_formula_units_Z 14
_cell_length_a 8.235989
_cell_length_b 16.612450
_cell_length_c 5.695302
_cell_angle_alpha 118.241547
_cell_angle_beta 84.892169
_cell_angle_gamma 64.245137
_cell_volume 574.068856
_symmetry_space_group_name_H-M "P -1"
_symmetry_group_IT_number 2
_symmetry_cell_setting 'triclinic'
loop_
_space_group_symop_operation_xyz
x,y,z
-x,-y,-z
loop_
_atom_site_type_symbol
_atom_site_label
_atom_site_fract_x
_atom_site_fract_y
_atom_site_fract_z
Si Si1 0.249117 0.605659 0.533559
Si Si2 0.878088 0.243589 0.858822
Si Si3 0.150929 0.264545 0.091058
Si Si4 0.179114 0.435602 0.069700
Si Si5 0.425334 0.715987 0.432878
Si Si6 0.829886 0.082851 0.964623
Si Si7 0.469021 0.957839 0.196790
O O1 0.412032 0.624705 0.448390
O O2 0.021668 0.706627 0.662169
O O3 0.246247 0.631610 0.846522
O O4 0.252447 0.506477 0.280034
O O5 0.751976 0.244962 0.668681
O O6 0.891860 0.151630 0.900505
O O7 0.086750 0.227854 0.813846
O O8 0.129288 0.377615 0.196814
O O9 0.361370 0.169822 0.999654
O O10 0.365470 0.337319 0.777699
O O11 0.000000 0.500000 0.000000
O O12 0.354613 0.823044 0.737630
O O13 0.742469 0.025448 0.751702
O O14 0.000000 0.000000 0.000000
O O15 0.500000 0.000000 0.500000
O O16 0.500000 0.000000 0.000000
#
# Coordination Sequence:
#
# PCOD9049650 Si02
#       7
#     2   2   2   2   2   2   2
#     4   9  23  44  66 100 137 197 241 303 375 454
#     4   9  22  43  71  97 141 190 247 309 377 466
#     4  10  24  47  70 109 152 197 253 326 380 468
#     4  12  25  42  72 105 150 200 254 320 389 456
#     4  11  24  44  71 103 144 193 257 312 380 473
#     4  11  26  46  74 107 150 199 254 317 392 471
#     4  12  30  49  80 118 158 205 259 333 404 470
#
# _framework density 24.387319000000002
#
# number of rings (size 3 to 8) (size 9 to 14) (size 15 to 20)
#    0.857    0.571    0.000    3.429    8.000    1.143 
#    5.143    0.000    0.000    0.000    0.000    0.000 
#    0.000    0.000    0.000    0.000    0.000    0.000 
#
# Total GULP energy -78111.054839 kJ/mol
# GULP energy per Si atom -5579.361060 kJ/mol
# Density = 2.433181 g / cm^3
# Si number density = 24.387319 Si / 1000 Ang^3
#
#
#
# Elastic Constant Matrix: (Units=GPa)
#
#
# Indices 1 2 3 4 5 6 
#
# 1 104.3680 27.5896 30.3459 -0.5351 19.7174 -15.8644
# 2 27.5896 95.4661 27.8989 8.5145 12.5053 -16.2026
# 3 30.3459 27.8989 91.1310 4.6565 26.9599 1.3136
# 4 -0.5351 8.5145 4.6565 24.4910 -6.1114 6.8571
# 5 19.7174 12.5053 26.9599 -6.1114 52.9917 -0.6477
# 6 -15.8644 -16.2026 1.3136 6.8571 -0.6477 33.0179
#
#
#
# Elastic Compliance Matrix: (Units=1/GPa)
#
#
# Indices 1 2 3 4 5 6 
#
# 1 0.012097 -0.001292 -0.002833 -0.000969 -0.002800 0.005438
# 2 -0.001292 0.013918 -0.002999 -0.006958 -0.001986 0.007735
# 3 -0.002833 -0.002999 0.014811 -0.002512 -0.006100 -0.003020
# 4 -0.000969 -0.006958 -0.002512 0.049823 0.008856 -0.013953
# 5 -0.002800 -0.001986 -0.006100 0.008856 0.024464 -0.003437
# 6 0.005438 0.007735 -0.003020 -0.013953 -0.003437 0.039645
#
#
# Mechanical properties :
#
#
# Convention : Reuss Voigt Hill
#
# Bulk Modulus (GPa) = 37.62519 51.40377 44.51448
# Shear Modulus (GPa) = 28.11075 35.77550 31.94313
#
# Velocity S-wave (km/s) = 3.39880 3.83426 3.62308
# Velocity P-wave (km/s) = 5.55555 6.38169 5.98289
#
# Compressibility (1/GPa) = 0.02657794
#
# Stress axis : x y z
#
# Youngs Moduli (GPa) = 82.66238 71.84839 67.51595
#
# Poissons Ratio (x) = 0.09283 0.19129
# Poissons Ratio (y) = 0.10680 0.20249
# Poissons Ratio (z) = 0.23420 0.21549
#
# Static dielectric constant tensor:
#      x y z
#    x 1.874190 -0.099470 0.019120 
#    y -0.099470 1.734740 -0.016220 
#    z 0.019120 -0.016220 2.057490 
# 
# From -- ./inp_files/48996.got.cif
#   From: 2010.05.17/outbox.cif.g08.bks.cpg/sg2_25_cif.got.tgz:48996.got - 2010.06.03 11:33:40.
