data_PCOD9049880
_publ_section_title
;
Structure prediction by ZEFSAII (Michael W. Deem and Ramdas Pophale) SiO2 
 PCOD9049880
Probable space group: P -1
;
_chemical_formula_sum "Si O2"
_cell_formula_units_Z 16
_cell_length_a 12.132176
_cell_length_b 13.122313
_cell_length_c 7.898693
_cell_angle_alpha 108.198578
_cell_angle_beta 58.386694
_cell_angle_gamma 60.512457
_cell_volume 595.461475
_symmetry_space_group_name_H-M "P -1"
_symmetry_group_IT_number 2
_symmetry_cell_setting 'triclinic'
loop_
_space_group_symop_operation_xyz
x,y,z
-x,-y,-z
loop_
_atom_site_type_symbol
_atom_site_label
_atom_site_fract_x
_atom_site_fract_y
_atom_site_fract_z
Si Si1 0.192381 0.675599 0.800394
Si Si2 0.878256 0.835915 0.548232
Si Si3 0.262351 0.692477 0.367018
Si Si4 0.420520 0.796449 0.175553
Si Si5 0.401083 0.745391 0.768875
Si Si6 0.095324 0.311554 0.835241
Si Si7 0.146218 0.384222 0.151318
Si Si8 0.391331 0.997052 0.823412
O O1 0.223172 0.676237 0.577248
O O2 0.218315 0.773715 0.919426
O O3 0.388517 0.460271 0.583361
O O4 0.976621 0.752789 0.049288
O O5 0.992922 0.662473 0.268706
O O6 0.064794 0.781801 0.457259
O O7 0.730540 0.000131 0.622671
O O8 0.698712 0.922086 0.873361
O O9 0.282717 0.805405 0.400152
O O10 0.500000 0.500000 0.000000
O O11 0.448852 0.737697 0.925530
O O12 0.649801 0.671705 0.013748
O O13 0.349755 0.893641 0.794742
O O14 0.352228 0.164398 0.513207
O O15 0.014297 0.451929 0.114843
O O16 0.000000 0.500000 0.500000
O O17 0.272500 0.182384 0.939058
#
# Coordination Sequence:
#
# PCOD9049880 Si02
#       8
#     2   2   2   2   2   2   2   2
#     4  11  25  48  75 119 160 199 277 328 395 466
#     4  11  26  48  79 113 157 206 268 324 396 479
#     4  12  26  46  76 110 156 209 259 329 399 463
#     4  11  24  48  75 111 159 206 257 327 397 466
#     4  10  24  47  78 112 157 209 260 332 392 480
#     4  12  26  49  81 115 159 211 264 326 399 476
#     4  12  28  49  78 117 164 203 267 335 395 475
#     4  11  26  51  79 115 159 212 263 322 407 471
#
# _framework density 26.869914999999999
#
# number of rings (size 3 to 8) (size 9 to 14) (size 15 to 20)
#    0.000    0.750    2.500    3.375    7.000    1.500 
#    2.250    3.750    0.000    0.000    0.000    0.000 
#    0.000    0.000    0.000    0.000    0.000    0.000 
#
# Total GULP energy -89410.890492 kJ/mol
# GULP energy per Si atom -5588.180656 kJ/mol
# Density = 2.680876 g / cm^3
# Si number density = 26.869915 Si / 1000 Ang^3
#
#
#
# Elastic Constant Matrix: (Units=GPa)
#
#
# Indices 1 2 3 4 5 6 
#
# 1 223.0829 10.8022 86.1815 -2.4709 7.2131 27.3493
# 2 10.8022 307.7134 -86.9797 -124.6388 -57.7037 -17.6961
# 3 86.1815 -86.9797 202.3535 30.5020 16.5355 8.4576
# 4 -2.4709 -124.6388 30.5020 115.4824 27.1155 13.5691
# 5 7.2131 -57.7037 16.5355 27.1155 56.5731 4.0033
# 6 27.3493 -17.6961 8.4576 13.5691 4.0033 53.3966
#
#
#
# Elastic Compliance Matrix: (Units=1/GPa)
#
#
# Indices 1 2 3 4 5 6 
#
# 1 0.006133 -0.001477 -0.003018 -0.000031 -0.001175 -0.003057
# 2 -0.001477 0.007266 0.002472 0.006141 0.003869 0.000922
# 3 -0.003018 0.002472 0.007131 0.000471 0.000520 0.001077
# 4 -0.000031 0.006141 0.000471 0.015681 -0.001250 -0.001915
# 5 -0.001175 0.003869 0.000520 -0.001250 0.022187 0.000456
# 6 -0.003057 0.000922 0.001077 -0.001915 0.000456 0.020881
#
#
# Mechanical properties :
#
#
# Convention : Reuss Voigt Hill
#
# Bulk Modulus (GPa) = 60.66552 83.68422 72.17487
# Shear Modulus (GPa) = 56.29335 93.30013 74.79674
#
# Velocity S-wave (km/s) = 4.58212 5.89901 5.28176
# Velocity P-wave (km/s) = 7.11484 8.80963 8.00720
#
# Compressibility (1/GPa) = 0.01648383
#
# Stress axis : x y z
#
# Youngs Moduli (GPa) = 163.06327 137.61956 140.22494
#
# Poissons Ratio (x) = 0.20327 0.42324
# Poissons Ratio (y) = 0.24085 -0.34664
# Poissons Ratio (z) = 0.49218 -0.34020
#
# Static dielectric constant tensor:
#      x y z
#    x 2.141230 0.105730 0.100990 
#    y 0.105730 0.596060 -0.374000 
#    z 0.100990 -0.374000 1.976030 
# 
# From -- ./inp_files/274026.got.cif
#   From: 2010.05.17/outbox.cif.g08.bks.cpg/sg2_138_cif.got.tgz:274026.got - 2010.06.03 11:33:40.
