data_PCOD9049661
_publ_section_title
;
Structure prediction by ZEFSAII (Michael W. Deem and Ramdas Pophale) SiO2 
 PCOD9049661
Probable space group: P -1
;
_chemical_formula_sum "Si O2"
_cell_formula_units_Z 16
_cell_length_a 13.726308
_cell_length_b 14.146784
_cell_length_c 5.383606
_cell_angle_alpha 82.390223
_cell_angle_beta 72.675911
_cell_angle_gamma 133.868307
_cell_volume 626.270923
_symmetry_space_group_name_H-M "P -1"
_symmetry_group_IT_number 2
_symmetry_cell_setting 'triclinic'
loop_
_space_group_symop_operation_xyz
x,y,z
-x,-y,-z
loop_
_atom_site_type_symbol
_atom_site_label
_atom_site_fract_x
_atom_site_fract_y
_atom_site_fract_z
Si Si1 0.372630 0.160650 0.825665
Si Si2 0.598604 0.230123 0.271191
Si Si3 0.658991 0.661861 0.932385
Si Si4 0.282779 0.932504 0.355964
Si Si5 0.128935 0.068129 0.667523
Si Si6 0.149456 0.652697 0.622354
Si Si7 0.839271 0.508508 0.685926
Si Si8 0.045878 0.225045 0.299722
O O1 0.537383 0.241712 0.557004
O O2 0.260239 0.098935 0.696402
O O3 0.379255 0.267193 0.922370
O O4 0.300264 0.024214 0.096514
O O5 0.746189 0.271432 0.233523
O O6 0.446072 0.062599 0.341190
O O7 0.665369 0.357378 0.984320
O O8 0.771258 0.773259 0.576437
O O9 0.780927 0.679845 0.985978
O O10 0.500000 0.500000 0.000000
O O11 0.254262 0.804260 0.326277
O O12 0.111997 0.831247 0.660903
O O13 0.043153 0.941888 0.566071
O O14 0.000000 0.000000 0.000000
O O15 0.141347 0.541627 0.552516
O O16 0.968115 0.558595 0.768824
O O17 0.889969 0.655508 0.578943
#
# Coordination Sequence:
#
# PCOD9049661 Si02
#       8
#     2   2   2   2   2   2   2   2
#     4  12  25  43  71 102 141 180 234 286 354 419
#     4  12  24  41  72 101 141 176 238 294 350 422
#     4  12  28  45  73 106 149 184 234 298 354 422
#     4  11  24  45  71 101 136 183 239 289 353 415
#     4  12  24  47  73 105 139 193 243 285 350 429
#     4  10  24  47  70  99 138 187 230 293 355 424
#     4  10  25  46  66 103 142 179 232 286 361 418
#     4  11  23  46  71  96 143 185 229 290 344 421
#
# _framework density 25.548045999999999
#
# number of rings (size 3 to 8) (size 9 to 14) (size 15 to 20)
#    0.000    0.750    3.750    2.625    5.250    4.500 
#    6.750    0.000    0.000    0.000    0.000    0.000 
#    0.000    0.000    0.000    0.000    0.000    0.000 
#
# Total GULP energy -89262.687470 kJ/mol
# GULP energy per Si atom -5578.917967 kJ/mol
# Density = 2.548990 g / cm^3
# Si number density = 25.548046 Si / 1000 Ang^3
#
#
#
# Elastic Constant Matrix: (Units=GPa)
#
#
# Indices 1 2 3 4 5 6 
#
# 1 83.5125 47.0388 0.0538 -6.1995 3.1138 18.9591
# 2 47.0388 213.6454 42.5418 -33.8081 3.3022 -15.8874
# 3 0.0538 42.5418 85.6798 -11.4091 -6.4208 -0.4313
# 4 -6.1995 -33.8081 -11.4091 30.8162 4.5931 -10.1461
# 5 3.1138 3.3022 -6.4208 4.5931 22.0354 -2.8601
# 6 18.9591 -15.8874 -0.4313 -10.1461 -2.8601 60.3943
#
#
#
# Elastic Compliance Matrix: (Units=1/GPa)
#
#
# Indices 1 2 3 4 5 6 
#
# 1 0.016179 -0.005034 0.001872 -0.003736 -0.001125 -0.007071
# 2 -0.005034 0.008238 -0.003064 0.008963 -0.002621 0.005107
# 3 0.001872 -0.003064 0.013631 0.001193 0.003799 -0.000916
# 4 -0.003736 0.008963 0.001193 0.046910 -0.008818 0.011002
# 5 -0.001125 -0.002621 0.003799 -0.008818 0.048947 0.000527
# 6 -0.007071 0.005107 -0.000916 0.011002 0.000527 0.021988
#
#
# Mechanical properties :
#
#
# Convention : Reuss Voigt Hill
#
# Bulk Modulus (GPa) = 39.07186 62.45627 50.76406
# Shear Modulus (GPa) = 28.26835 42.19605 35.23220
#
# Velocity S-wave (km/s) = 3.32999 4.06844 3.71759
# Velocity P-wave (km/s) = 5.48742 6.82417 6.19197
#
# Compressibility (1/GPa) = 0.02559387
#
# Stress axis : x y z
#
# Youngs Moduli (GPa) = 61.81031 121.39103 73.36379
#
# Poissons Ratio (x) = 0.61113 -0.13735
# Poissons Ratio (y) = 0.31118 0.22482
# Poissons Ratio (z) = -0.11572 0.37199
#
# Static dielectric constant tensor:
#      x y z
#    x 2.222130 -0.025150 -0.010120 
#    y -0.025150 1.970430 0.003610 
#    z -0.010120 0.003610 2.047790 
# 
# From -- ./inp_files/98036.got.cif
#   From: 2010.05.17/outbox.cif.g08.bks.cpg/sg2_50_cif.got.tgz:98036.got - 2010.06.03 11:33:40.
