data_PCOD9049759
_publ_section_title
;
Structure prediction by ZEFSAII (Michael W. Deem and Ramdas Pophale) SiO2 
 PCOD9049759
Probable space group: P -1
;
_chemical_formula_sum "Si O2"
_cell_formula_units_Z 14
_cell_length_a 6.446195
_cell_length_b 12.230246
_cell_length_c 15.172361
_cell_angle_alpha 132.478664
_cell_angle_beta 99.813152
_cell_angle_gamma 49.155515
_cell_volume 583.214197
_symmetry_space_group_name_H-M "P -1"
_symmetry_group_IT_number 2
_symmetry_cell_setting 'triclinic'
loop_
_space_group_symop_operation_xyz
x,y,z
-x,-y,-z
loop_
_atom_site_type_symbol
_atom_site_label
_atom_site_fract_x
_atom_site_fract_y
_atom_site_fract_z
Si Si1 0.520172 0.579029 0.258395
Si Si2 0.523596 0.076594 0.635276
Si Si3 0.667889 0.659602 0.613062
Si Si4 0.161818 0.183508 0.029710
Si Si5 0.234615 0.673797 0.470300
Si Si6 0.624232 0.316354 0.981915
Si Si7 0.622778 0.870126 0.163098
O O1 0.489428 0.744150 0.290874
O O2 0.302897 0.694967 0.389528
O O3 0.445359 0.470942 0.138823
O O4 0.900532 0.370914 0.184237
O O5 0.500000 0.000000 0.500000
O O6 0.292199 0.151141 0.739059
O O7 0.876509 0.863114 0.576822
O O8 0.437104 0.680874 0.547390
O O9 0.681493 0.544452 0.635747
O O10 0.546060 0.888765 0.743780
O O11 0.000000 0.500000 0.500000
O O12 0.165622 0.274249 0.986974
O O13 0.982821 0.135938 0.946702
O O14 0.500000 0.000000 0.000000
O O15 0.568539 0.181255 0.874066
O O16 0.500000 0.500000 0.000000
#
# Coordination Sequence:
#
# PCOD9049759 Si02
#       7
#     2   2   2   2   2   2   2
#     4  10  25  47  71 106 150 188 254 298 386 442
#     4  12  26  45  77 111 147 198 254 313 379 455
#     4  11  26  45  75 106 146 197 248 308 384 443
#     4  10  27  46  74 109 149 203 247 315 373 451
#     4  11  26  48  73 106 150 197 243 321 372 450
#     4  10  24  47  73 107 150 199 241 315 373 448
#     4  12  25  46  76 108 149 191 260 302 384 449
#
# _framework density 24.004902000000001
#
# number of rings (size 3 to 8) (size 9 to 14) (size 15 to 20)
#    0.857    0.286    2.857    1.286    4.000    6.286 
#    0.000    0.000    0.000    0.000    0.000    0.000 
#    0.000    0.000    0.000    0.000    0.000    0.000 
#
# Total GULP energy -77972.761371 kJ/mol
# GULP energy per Si atom -5569.482955 kJ/mol
# Density = 2.395027 g / cm^3
# Si number density = 24.004902 Si / 1000 Ang^3
#
#
#
# Elastic Constant Matrix: (Units=GPa)
#
#
# Indices 1 2 3 4 5 6 
#
# 1 92.4331 37.1013 27.9681 17.2661 18.1848 -6.9654
# 2 37.1013 72.2147 17.9271 3.9721 3.2518 5.4343
# 3 27.9681 17.9271 77.0455 2.8009 11.1233 3.4215
# 4 17.2661 3.9721 2.8009 48.8675 15.7125 1.9744
# 5 18.1848 3.2518 11.1233 15.7125 47.2271 3.2906
# 6 -6.9654 5.4343 3.4215 1.9744 3.2906 44.5851
#
#
#
# Elastic Compliance Matrix: (Units=1/GPa)
#
#
# Indices 1 2 3 4 5 6 
#
# 1 0.016931 -0.007674 -0.003822 -0.004010 -0.004060 0.004351
# 2 -0.007674 0.018326 -0.001650 0.000795 0.002060 -0.003493
# 3 -0.003822 -0.001650 0.015102 0.001432 -0.002347 -0.001445
# 4 -0.004010 0.000795 0.001432 0.023950 -0.006719 -0.001398
# 5 -0.004060 0.002060 -0.002347 -0.006719 0.025544 -0.002293
# 6 0.004351 -0.003493 -0.001445 -0.001398 -0.002293 0.023877
#
#
# Mechanical properties :
#
#
# Convention : Reuss Voigt Hill
#
# Bulk Modulus (GPa) = 41.54925 45.29846 43.42386
# Shear Modulus (GPa) = 31.63720 38.71572 35.17646
#
# Velocity S-wave (km/s) = 3.63429 4.02036 3.83219
# Velocity P-wave (km/s) = 5.91245 6.36101 6.14083
#
# Compressibility (1/GPa) = 0.02406782
#
# Stress axis : x y z
#
# Youngs Moduli (GPa) = 59.06443 54.56735 66.21835
#
# Poissons Ratio (x) = 0.41873 0.25307
# Poissons Ratio (y) = 0.45324 0.10924
# Poissons Ratio (z) = 0.22573 0.09002
#
# Static dielectric constant tensor:
#      x y z
#    x 2.037860 -0.100810 -0.195490 
#    y -0.100810 2.058530 0.025380 
#    z -0.195490 0.025380 2.211070 
# 
# From -- ./inp_files/549550.got.cif
#   From: 2010.05.17/outbox.cif.g08.bks.cpg/sg2_275_cif.got.tgz:549550.got - 2010.06.03 11:33:40.
