data_PCOD9049683
_publ_section_title
;
Structure prediction by ZEFSAII (Michael W. Deem and Ramdas Pophale) SiO2 
 PCOD9049683
Probable space group: P -1
;
_chemical_formula_sum "Si O2"
_cell_formula_units_Z 15
_cell_length_a 7.801710
_cell_length_b 11.756240
_cell_length_c 8.421133
_cell_angle_alpha 127.025583
_cell_angle_beta 102.510608
_cell_angle_gamma 64.134693
_cell_volume 553.722958
_symmetry_space_group_name_H-M "P -1"
_symmetry_group_IT_number 2
_symmetry_cell_setting 'triclinic'
loop_
_space_group_symop_operation_xyz
x,y,z
-x,-y,-z
loop_
_atom_site_type_symbol
_atom_site_label
_atom_site_fract_x
_atom_site_fract_y
_atom_site_fract_z
Si Si1 0.352999 0.750478 0.951864
Si Si2 0.279906 0.538320 0.519440
Si Si3 0.669146 0.765916 0.556215
Si Si4 0.675544 0.591568 0.101700
Si Si5 0.500000 0.000000 0.000000
Si Si6 0.024788 0.044927 0.865870
Si Si7 0.972986 0.218038 0.531448
Si Si8 0.053135 0.293485 0.943869
O O1 0.500833 0.607247 0.964428
O O2 0.196318 0.855332 0.134003
O O3 0.435342 0.858260 0.958580
O O4 0.238483 0.676182 0.753291
O O5 0.500000 0.500000 0.500000
O O6 0.248303 0.390483 0.451963
O O7 0.162786 0.607936 0.396291
O O8 0.595830 0.704188 0.332452
O O9 0.837066 0.809049 0.553137
O O10 0.538600 0.903011 0.757596
O O11 0.788666 0.658279 0.058167
O O12 0.856596 0.437536 0.062611
O O13 0.137316 0.159148 0.980181
O O14 0.112740 0.899804 0.649339
O O15 0.000000 0.000000 0.000000
O O16 0.009238 0.204667 0.711764
#
# Coordination Sequence:
#
# PCOD9049683 Si02
#       8
#     2   2   2   2   1   2   2   2
#     4  12  26  45  71 106 144 191 243 297 368 421
#     4  12  24  42  71 107 143 188 246 298 359 431
#     4  11  25  47  72 104 143 193 242 296 365 435
#     4  10  25  47  75 103 143 195 243 299 361 438
#     4  12  26  46  70 104 148 184 240 300 362 432
#     4  12  25  44  69 107 149 191 239 300 363 433
#     4  11  24  45  71 103 143 197 240 294 366 434
#     4  10  24  47  71 106 145 190 243 299 365 432
#
# _framework density 27.089361
#
# number of rings (size 3 to 8) (size 9 to 14) (size 15 to 20)
#    0.000    0.800    4.000    2.400    1.867    3.733 
#    0.000    0.000    0.000    0.000    0.000    0.000 
#    0.000    0.000    0.000    0.000    0.000    0.000 
#
# Total GULP energy -83712.760666 kJ/mol
# GULP energy per Si atom -5580.850711 kJ/mol
# Density = 2.702770 g / cm^3
# Si number density = 27.089361 Si / 1000 Ang^3
#
#
#
# Elastic Constant Matrix: (Units=GPa)
#
#
# Indices 1 2 3 4 5 6 
#
# 1 60.9320 -14.4355 13.4753 -6.1941 -23.4602 22.6566
# 2 -14.4355 103.6068 8.0619 9.0387 -0.8543 33.1132
# 3 13.4753 8.0619 153.7558 18.4050 -13.4937 1.8971
# 4 -6.1941 9.0387 18.4050 34.5187 4.3401 5.9475
# 5 -23.4602 -0.8543 -13.4937 4.3401 45.6623 -2.8889
# 6 22.6566 33.1132 1.8971 5.9475 -2.8889 41.6982
#
#
#
# Elastic Compliance Matrix: (Units=1/GPa)
#
#
# Indices 1 2 3 4 5 6 
#
# 1 0.043282 0.017615 -0.003774 0.009323 0.018199 -0.037403
# 2 0.017615 0.020225 -0.001963 0.002407 0.007013 -0.025400
# 3 -0.003774 -0.001963 0.007577 -0.005026 0.000997 0.004051
# 4 0.009323 0.002407 -0.005026 0.034807 -0.000703 -0.011761
# 5 0.018199 0.007013 0.000997 -0.000703 0.030904 -0.013261
# 6 -0.037403 -0.025400 0.004051 -0.011761 -0.013261 0.065050
#
#
# Mechanical properties :
#
#
# Convention : Reuss Voigt Hill
#
# Bulk Modulus (GPa) = 10.54427 36.94422 23.74425
# Shear Modulus (GPa) = 23.84331 45.12204 34.48267
#
# Velocity S-wave (km/s) = 2.96999 4.08569 3.57168
# Velocity P-wave (km/s) = 3.95752 5.99372 5.07871
#
# Compressibility (1/GPa) = 0.09483821
#
# Stress axis : x y z
#
# Youngs Moduli (GPa) = 23.10428 49.44428 131.98287
#
# Poissons Ratio (x) = -0.87096 0.49813
# Poissons Ratio (y) = -0.40698 0.25915
# Poissons Ratio (z) = 0.08720 0.09708
#
# Static dielectric constant tensor:
#      x y z
#    x 3.286660 -0.323210 -0.169880 
#    y -0.323210 2.414750 0.193050 
#    z -0.169880 0.193050 2.250110 
# 
# From -- ./inp_files/183302.got.cif
#   From: 2010.05.17/outbox.cif.g08.bks.cpg/sg2_92_cif.got.tgz:183302.got - 2010.06.03 11:33:40.
