data_PCOD9049005
_publ_section_title
;
Structure prediction by ZEFSAII (Michael W. Deem and Ramdas Pophale) SiO2 
 PCOD9049005
Probable space group: P -1
;
_chemical_formula_sum "Si O2"
_cell_formula_units_Z 14
_cell_length_a 8.399171
_cell_length_b 20.315399
_cell_length_c 11.785021
_cell_angle_alpha 34.001791
_cell_angle_beta 68.512644
_cell_angle_gamma 44.585763
_cell_volume 648.082029
_symmetry_space_group_name_H-M "P -1"
_symmetry_group_IT_number 2
_symmetry_cell_setting 'triclinic'
loop_
_space_group_symop_operation_xyz
x,y,z
-x,-y,-z
loop_
_atom_site_type_symbol
_atom_site_label
_atom_site_fract_x
_atom_site_fract_y
_atom_site_fract_z
Si Si1 0.955540 0.440237 0.488046
Si Si2 0.688745 0.620566 0.917561
Si Si3 0.695510 0.359061 0.254461
Si Si4 0.896549 0.911768 0.014607
Si Si5 0.525706 0.761773 0.501272
Si Si6 0.675519 0.009808 0.386219
Si Si7 0.643050 0.138321 0.986959
O O1 0.649909 0.640166 0.244222
O O2 0.000000 0.500000 0.500000
O O3 0.185693 0.351983 0.461924
O O4 0.992477 0.281096 0.729419
O O5 0.554132 0.724640 0.681171
O O6 0.489136 0.787544 0.820590
O O7 0.713064 0.470797 0.156917
O O8 0.000000 0.500000 0.000000
O O9 0.563008 0.319272 0.407430
O O10 0.500000 0.500000 0.000000
O O11 0.005616 0.162609 0.414044
O O12 0.718112 0.022946 0.787469
O O13 0.697270 0.054472 0.968370
O O14 0.131495 0.884851 0.003720
O O15 0.500000 0.000000 0.500000
O O16 0.670530 0.016127 0.242866
#
# Coordination Sequence:
#
# PCOD9049005 Si02
#       7
#     2   2   2   2   2   2   2
#     4  12  26  43  70 104 136 183 236 282 351 415
#     4  11  24  44  70 102 139 182 228 287 350 410
#     4  10  24  46  65  99 142 177 226 286 347 412
#     4  11  25  49  70 101 141 186 230 294 348 403
#     4  11  24  47  68 100 143 179 226 294 346 407
#     4  12  25  42  73 105 132 183 234 277 349 416
#     4  11  26  47  71 101 142 183 236 286 347 418
#
# _framework density 21.602204
#
# number of rings (size 3 to 8) (size 9 to 14) (size 15 to 20)
#    0.000    0.857    4.286    1.714    4.000    4.571 
#    0.000    0.000    0.000    0.000    0.000    0.000 
#    0.000    0.000    0.000    0.000    0.000    0.000 
#
# Total GULP energy -78249.681165 kJ/mol
# GULP energy per Si atom -5589.262940 kJ/mol
# Density = 2.155304 g / cm^3
# Si number density = 21.602204 Si / 1000 Ang^3
#
#
#
# Elastic Constant Matrix: (Units=GPa)
#
#
# Indices 1 2 3 4 5 6 
#
# 1 63.9890 15.7122 42.2547 -5.2107 4.6003 -11.9818
# 2 15.7122 45.1286 33.2202 -0.4294 7.7165 -6.7344
# 3 42.2547 33.2202 136.1321 -8.7941 10.4227 -17.8015
# 4 -5.2107 -0.4294 -8.7941 47.1940 -5.6003 2.0160
# 5 4.6003 7.7165 10.4227 -5.6003 49.1887 -3.9897
# 6 -11.9818 -6.7344 -17.8015 2.0160 -3.9897 33.1647
#
#
#
# Elastic Compliance Matrix: (Units=1/GPa)
#
#
# Indices 1 2 3 4 5 6 
#
# 1 0.020521 -0.002792 -0.005090 0.001125 0.000054 0.004053
# 2 -0.002792 0.027996 -0.005655 -0.001521 -0.002994 0.001373
# 3 -0.005090 -0.005655 0.010774 0.001214 -0.000566 0.002654
# 4 0.001125 -0.001521 0.001214 0.021816 0.002336 -0.000296
# 5 0.000054 -0.002994 -0.000566 0.002336 0.021304 0.001528
# 6 0.004053 0.001373 0.002654 -0.000296 0.001528 0.033522
#
#
# Mechanical properties :
#
#
# Convention : Reuss Voigt Hill
#
# Bulk Modulus (GPa) = 31.03778 47.51377 39.27578
# Shear Modulus (GPa) = 28.77775 36.18033 32.47904
#
# Velocity S-wave (km/s) = 3.65385 4.09693 3.88171
# Velocity P-wave (km/s) = 5.67449 6.66501 6.18960
#
# Compressibility (1/GPa) = 0.03221880
#
# Stress axis : x y z
#
# Youngs Moduli (GPa) = 48.73097 35.71955 92.81231
#
# Poissons Ratio (x) = 0.09972 0.47239
# Poissons Ratio (y) = 0.13604 0.52483
# Poissons Ratio (z) = 0.24803 0.20198
#
# Static dielectric constant tensor:
#      x y z
#    x 1.832870 0.025050 -0.028050 
#    y 0.025050 1.768380 0.052230 
#    z -0.028050 0.052230 1.716950 
# 
# From -- ./inp_files/279926.got.cif
#   From: 2010.05.17/outbox.cif.g08.bks.cpg/sg2_140_cif.got.tgz:279926.got - 2010.06.03 11:33:40.
