data_PCOD9049461
_publ_section_title
;
Structure prediction by ZEFSAII (Michael W. Deem and Ramdas Pophale) SiO2 
 PCOD9049461
Probable space group: P -1
;
_chemical_formula_sum "Si O2"
_cell_formula_units_Z 14
_cell_length_a 21.335962
_cell_length_b 9.540139
_cell_length_c 5.694347
_cell_angle_alpha 129.986491
_cell_angle_beta 62.358838
_cell_angle_gamma 139.326589
_cell_volume 578.162998
_symmetry_space_group_name_H-M "P -1"
_symmetry_group_IT_number 2
_symmetry_cell_setting 'triclinic'
loop_
_space_group_symop_operation_xyz
x,y,z
-x,-y,-z
loop_
_atom_site_type_symbol
_atom_site_label
_atom_site_fract_x
_atom_site_fract_y
_atom_site_fract_z
Si Si1 0.150042 0.254604 0.859065
Si Si2 0.121397 0.507629 0.852266
Si Si3 0.951245 0.288951 0.549217
Si Si4 0.357208 0.459003 0.597539
Si Si5 0.640735 0.748555 0.132204
Si Si6 0.465540 0.073500 0.436478
Si Si7 0.254955 0.724039 0.475754
O O1 0.095800 0.277760 0.784102
O O2 0.252274 0.362179 0.702793
O O3 0.093673 0.979123 0.747822
O O4 0.174165 0.455873 0.217591
O O5 0.228419 0.664505 0.730791
O O6 0.035253 0.389567 0.694553
O O7 0.125393 0.706932 0.197142
O O8 0.000000 0.500000 0.500000
O O9 0.375117 0.384173 0.735325
O O10 0.450744 0.752264 0.710443
O O11 0.351216 0.343340 0.228093
O O12 0.559689 0.764193 0.257131
O O13 0.736027 0.042745 0.327867
O O14 0.500000 0.000000 0.500000
O O15 0.355388 0.821870 0.310007
#
# Coordination Sequence:
#
# PCOD9049461 Si02
#       7
#     2   2   2   2   2   2   2
#     4  12  28  45  77 110 151 197 260 313 393 462
#     4  11  25  49  74 109 146 200 246 324 382 474
#     4  11  27  49  78 106 148 193 251 320 399 462
#     4  12  26  49  76 113 156 211 261 321 378 460
#     4  10  27  46  75 108 154 207 264 316 384 450
#     4  10  24  46  74 109 157 206 263 313 385 451
#     4  10  26  44  75 106 154 192 255 314 380 451
#
# _framework density 24.214625000000002
#
# number of rings (size 3 to 8) (size 9 to 14) (size 15 to 20)
#    0.857    0.286    0.000    3.857   10.000    5.143 
#    2.571    0.000    0.000    0.000    0.000    0.000 
#    0.000    0.000    0.000    0.000    0.000    0.000 
#
# Total GULP energy -78088.197101 kJ/mol
# GULP energy per Si atom -5577.728364 kJ/mol
# Density = 2.415951 g / cm^3
# Si number density = 24.214625 Si / 1000 Ang^3
#
#
#
# Elastic Constant Matrix: (Units=GPa)
#
#
# Indices 1 2 3 4 5 6 
#
# 1 116.8620 44.4134 44.7618 -2.7487 -6.2058 -38.1706
# 2 44.4134 181.6164 67.6120 21.5029 2.3963 -30.2123
# 3 44.7618 67.6120 119.4699 1.9814 0.8404 -3.0846
# 4 -2.7487 21.5029 1.9814 49.4393 10.4915 -1.1529
# 5 -6.2058 2.3963 0.8404 10.4915 30.5490 -2.4972
# 6 -38.1706 -30.2123 -3.0846 -1.1529 -2.4972 48.3630
#
#
#
# Elastic Compliance Matrix: (Units=1/GPa)
#
#
# Indices 1 2 3 4 5 6 
#
# 1 0.014429 0.000243 -0.005282 0.000353 0.003869 0.011411
# 2 0.000243 0.008464 -0.004697 -0.003609 0.001176 0.005155
# 3 -0.005282 -0.004697 0.012833 0.001533 -0.002104 -0.006357
# 4 0.000353 -0.003609 0.001533 0.023382 -0.007859 -0.001726
# 5 0.003869 0.001176 -0.002104 -0.007859 0.036623 0.005357
# 6 0.011411 0.005155 -0.006357 -0.001726 0.005357 0.032734
#
#
# Mechanical properties :
#
#
# Convention : Reuss Voigt Hill
#
# Bulk Modulus (GPa) = 61.52055 81.28032 71.40043
# Shear Modulus (GPa) = 32.60419 43.08098 37.84258
#
# Velocity S-wave (km/s) = 3.67340 4.22255 3.95751
# Velocity P-wave (km/s) = 6.59192 7.57712 7.10162
#
# Compressibility (1/GPa) = 0.01625473
#
# Stress axis : x y z
#
# Youngs Moduli (GPa) = 69.30519 118.14140 77.92551
#
# Poissons Ratio (x) = -0.02876 0.41163
# Poissons Ratio (y) = -0.01687 0.36600
# Poissons Ratio (z) = 0.36609 0.55489
#
# Static dielectric constant tensor:
#      x y z
#    x 2.053220 0.039610 0.055210 
#    y 0.039610 1.982680 -0.017530 
#    z 0.055210 -0.017530 2.031420 
# 
# From -- ./inp_files/123043.got.cif
#   From: 2010.05.17/outbox.cif.g08.bks.cpg/sg2_62_cif.got.tgz:123043.got - 2010.06.03 11:33:40.
