data_PCOD9049388
_publ_section_title
;
Structure prediction by ZEFSAII (Michael W. Deem and Ramdas Pophale) SiO2 
 PCOD9049388
Probable space group: P -1
;
_chemical_formula_sum "Si O2"
_cell_formula_units_Z 16
_cell_length_a 8.378216
_cell_length_b 23.149485
_cell_length_c 9.021579
_cell_angle_alpha 131.709372
_cell_angle_beta 34.121968
_cell_angle_gamma 133.416330
_cell_volume 692.732988
_symmetry_space_group_name_H-M "P -1"
_symmetry_group_IT_number 2
_symmetry_cell_setting 'triclinic'
loop_
_space_group_symop_operation_xyz
x,y,z
-x,-y,-z
loop_
_atom_site_type_symbol
_atom_site_label
_atom_site_fract_x
_atom_site_fract_y
_atom_site_fract_z
Si Si1 0.830824 0.199457 0.002328
Si Si2 0.345327 0.517184 0.292452
Si Si3 0.727439 0.905131 0.950296
Si Si4 0.314387 0.685967 0.203602
Si Si5 0.524531 0.695782 0.396400
Si Si6 0.715868 0.055036 0.052617
Si Si7 0.363032 0.413155 0.376665
Si Si8 0.652941 0.127118 0.525114
O O1 0.547254 0.152386 0.036230
O O2 0.718090 0.264331 0.289576
O O3 0.896181 0.136366 0.962555
O O4 0.135278 0.242681 0.752771
O O5 0.492200 0.613831 0.374867
O O6 0.352785 0.449018 0.284299
O O7 0.000000 0.500000 0.500000
O O8 0.500000 0.500000 0.000000
O O9 0.004447 0.872012 0.709035
O O10 0.562407 0.915340 0.246518
O O11 0.854365 0.991445 0.913745
O O12 0.452092 0.677456 0.245734
O O13 0.356163 0.780910 0.314072
O O14 0.963597 0.634399 0.392168
O O15 0.455420 0.649766 0.897618
O O16 0.564555 0.085860 0.360867
O O17 0.500000 0.000000 0.000000
O O18 0.500000 0.500000 0.500000
#
# Coordination Sequence:
#
# PCOD9049388 Si02
#       8
#     2   2   2   2   2   2   2   2
#     4  11  25  43  70 103 135 183 233 292 341 410
#     4  12  23  42  68  97 129 176 225 280 337 410
#     4  11  26  46  68 105 144 181 237 287 353 413
#     4  12  25  44  73 101 140 186 233 286 349 420
#     4  12  23  42  73 100 137 176 240 286 343 405
#     4  10  24  46  73 104 142 188 237 289 345 414
#     4  12  26  46  70 105 142 180 231 288 354 417
#     4  12  25  45  73 101 145 187 233 287 354 414
#
# _framework density 23.096921999999999
#
# number of rings (size 3 to 8) (size 9 to 14) (size 15 to 20)
#    0.000    0.500    3.750    4.125    1.750    4.000 
#    0.000    5.625    0.000    0.000    0.000    0.000 
#    0.000    0.000    0.000    0.000    0.000    0.000 
#
# Total GULP energy -89512.376333 kJ/mol
# GULP energy per Si atom -5594.523521 kJ/mol
# Density = 2.304435 g / cm^3
# Si number density = 23.096922 Si / 1000 Ang^3
#
#
#
# Elastic Constant Matrix: (Units=GPa)
#
#
# Indices 1 2 3 4 5 6 
#
# 1 68.1606 21.2568 49.9035 3.8124 3.9614 11.1781
# 2 21.2568 110.6851 17.6930 14.4371 -19.1783 -2.3806
# 3 49.9035 17.6930 106.6524 9.2968 -19.1815 16.1726
# 4 3.8124 14.4371 9.2968 50.2298 5.3616 -0.8685
# 5 3.9614 -19.1783 -19.1815 5.3616 27.4975 7.4850
# 6 11.1781 -2.3806 16.1726 -0.8685 7.4850 35.4414
#
#
#
# Elastic Compliance Matrix: (Units=1/GPa)
#
#
# Indices 1 2 3 4 5 6 
#
# 1 0.032160 -0.008400 -0.019595 0.006500 -0.026515 0.003993
# 2 -0.008400 0.013297 0.005553 -0.005988 0.016224 -0.002565
# 3 -0.019595 0.005553 0.025243 -0.008066 0.028947 -0.011277
# 4 0.006500 -0.005988 -0.008066 0.024537 -0.016999 0.005420
# 5 -0.026515 0.016224 0.028947 -0.016999 0.080790 -0.021236
# 6 0.003993 -0.002565 -0.011277 0.005420 -0.021236 0.036547
#
#
# Mechanical properties :
#
#
# Convention : Reuss Voigt Hill
#
# Bulk Modulus (GPa) = 38.73552 51.46721 45.10136
# Shear Modulus (GPa) = 18.79237 35.74339 27.26788
#
# Velocity S-wave (km/s) = 2.85552 3.93815 3.43969
# Velocity P-wave (km/s) = 5.26111 6.55821 5.94514
#
# Compressibility (1/GPa) = 0.02581610
#
# Stress axis : x y z
#
# Youngs Moduli (GPa) = 31.09424 75.20386 39.61466
#
# Poissons Ratio (x) = 0.63172 0.77627
# Poissons Ratio (y) = 0.26120 -0.21999
# Poissons Ratio (z) = 0.60931 -0.41763
#
# Static dielectric constant tensor:
#      x y z
#    x 1.851580 -0.019090 -0.046550 
#    y -0.019090 1.857690 -0.007870 
#    z -0.046550 -0.007870 1.702880 
# 
# From -- ./inp_files/226410.got.cif
#   From: 2010.05.17/outbox.cif.g08.bks.cpg/sg2_114_cif.got.tgz:226410.got - 2010.06.03 11:33:40.
