data_PCOD9049890
_publ_section_title
;
Structure prediction by ZEFSAII (Michael W. Deem and Ramdas Pophale) SiO2 
 PCOD9049890
Probable space group: P -1
;
_chemical_formula_sum "Si O2"
_cell_formula_units_Z 16
_cell_length_a 12.238008
_cell_length_b 14.469368
_cell_length_c 9.506493
_cell_angle_alpha 44.893939
_cell_angle_beta 114.171186
_cell_angle_gamma 78.339902
_cell_volume 698.938456
_symmetry_space_group_name_H-M "P -1"
_symmetry_group_IT_number 2
_symmetry_cell_setting 'triclinic'
loop_
_space_group_symop_operation_xyz
x,y,z
-x,-y,-z
loop_
_atom_site_type_symbol
_atom_site_label
_atom_site_fract_x
_atom_site_fract_y
_atom_site_fract_z
Si Si1 0.028598 0.623715 0.431822
Si Si2 0.945671 0.376458 0.235465
Si Si3 0.438417 0.701012 0.801182
Si Si4 0.959308 0.055215 0.581165
Si Si5 0.616097 0.652211 0.239588
Si Si6 0.358790 0.731686 0.215274
Si Si7 0.381563 0.911531 0.276276
Si Si8 0.715369 0.723210 0.503312
O O1 0.173185 0.567941 0.459570
O O2 0.000000 0.500000 0.500000
O O3 0.106450 0.543326 0.718544
O O4 0.829691 0.862221 0.074599
O O5 0.154066 0.259183 0.453678
O O6 0.934221 0.231075 0.391245
O O7 0.826057 0.532521 0.874142
O O8 0.221016 0.865490 0.544409
O O9 0.453398 0.797089 0.584259
O O10 0.500000 0.500000 0.000000
O O11 0.536739 0.683649 0.006378
O O12 0.000000 0.000000 0.500000
O O13 0.149894 0.859172 0.968700
O O14 0.419353 0.780783 0.073839
O O15 0.685181 0.689214 0.368149
O O16 0.500000 0.500000 0.500000
O O17 0.397023 0.770975 0.337671
O O18 0.518200 0.903155 0.285007
#
# Coordination Sequence:
#
# PCOD9049890 Si02
#       8
#     2   2   2   2   2   2   2   2
#     4  12  25  46  73 107 149 188 245 304 372 438
#     4  11  24  49  75 107 148 190 242 311 370 439
#     4  12  26  47  74 107 157 195 240 309 369 444
#     4  12  26  45  73 110 145 193 247 298 372 442
#     4  11  24  45  71 106 142 191 244 306 360 436
#     4  11  25  44  70 103 145 194 243 298 356 444
#     4  11  26  45  73 111 143 198 243 303 376 439
#     4  10  24  47  80 103 143 192 250 304 375 439
#
# _framework density 22.891859
#
# number of rings (size 3 to 8) (size 9 to 14) (size 15 to 20)
#    0.000    0.750    3.750    3.000    5.250    2.000 
#    0.000    1.250    0.000    0.000    0.000    0.000 
#    0.000    0.000    0.000    0.000    0.000    0.000 
#
# Total GULP energy -89068.726211 kJ/mol
# GULP energy per Si atom -5566.795388 kJ/mol
# Density = 2.283976 g / cm^3
# Si number density = 22.891859 Si / 1000 Ang^3
#
#
#
# Elastic Constant Matrix: (Units=GPa)
#
#
# Indices 1 2 3 4 5 6 
#
# 1 96.5782 29.0288 38.8222 0.4615 23.8455 -19.4603
# 2 29.0288 141.6012 52.9577 28.3685 -8.6364 -1.6082
# 3 38.8222 52.9577 112.0495 6.3892 14.4787 -1.4577
# 4 0.4615 28.3685 6.3892 45.6366 -8.2892 9.7992
# 5 23.8455 -8.6364 14.4787 -8.2892 41.6789 -14.1464
# 6 -19.4603 -1.6082 -1.4577 9.7992 -14.1464 32.6144
#
#
#
# Elastic Compliance Matrix: (Units=1/GPa)
#
#
# Indices 1 2 3 4 5 6 
#
# 1 0.015047 -0.001891 -0.003434 -0.000944 -0.005788 0.006505
# 2 -0.001891 0.010654 -0.004632 -0.005729 0.004771 0.002981
# 3 -0.003434 -0.004632 0.012775 0.001162 -0.004573 -0.004039
# 4 -0.000944 -0.005729 0.001162 0.027397 0.001565 -0.008347
# 5 -0.005788 0.004771 -0.004573 0.001565 0.033856 0.010792
# 6 0.006505 0.002981 -0.004039 -0.008347 0.010792 0.041698
#
#
# Mechanical properties :
#
#
# Convention : Reuss Voigt Hill
#
# Bulk Modulus (GPa) = 53.86326 65.76069 59.81197
# Shear Modulus (GPa) = 29.84600 39.28068 34.56334
#
# Velocity S-wave (km/s) = 3.61471 4.14686 3.88990
# Velocity P-wave (km/s) = 6.40328 7.19150 6.80881
#
# Compressibility (1/GPa) = 0.01856553
#
# Stress axis : x y z
#
# Youngs Moduli (GPa) = 66.45872 93.85825 78.27557
#
# Poissons Ratio (x) = 0.17744 0.26876
# Poissons Ratio (y) = 0.12564 0.36254
# Poissons Ratio (z) = 0.22819 0.43471
#
# Static dielectric constant tensor:
#      x y z
#    x 1.844580 -0.036300 -0.016610 
#    y -0.036300 1.754040 -0.038820 
#    z -0.016610 -0.038820 1.869420 
# 
# From -- ./inp_files/271852.got.cif
#   From: 2010.05.17/outbox.cif.g08.bks.cpg/sg2_136_cif.got.tgz:271852.got - 2010.06.03 11:33:40.
