data_PCOD9049684
_publ_section_title
;
Structure prediction by ZEFSAII (Michael W. Deem and Ramdas Pophale) SiO2 
 PCOD9049684
Probable space group: P -1
;
_chemical_formula_sum "Si O2"
_cell_formula_units_Z 16
_cell_length_a 10.691644
_cell_length_b 13.558110
_cell_length_c 8.616399
_cell_angle_alpha 95.878321
_cell_angle_beta 76.743809
_cell_angle_gamma 36.793391
_cell_volume 634.467266
_symmetry_space_group_name_H-M "P -1"
_symmetry_group_IT_number 2
_symmetry_cell_setting 'triclinic'
loop_
_space_group_symop_operation_xyz
x,y,z
-x,-y,-z
loop_
_atom_site_type_symbol
_atom_site_label
_atom_site_fract_x
_atom_site_fract_y
_atom_site_fract_z
Si Si1 0.398221 0.651583 0.940100
Si Si2 0.037907 0.014281 0.271511
Si Si3 0.332026 0.289758 0.534713
Si Si4 0.478170 0.403886 0.421518
Si Si5 0.492103 0.907098 0.881814
Si Si6 0.127907 0.469540 0.102054
Si Si7 0.025597 0.741498 0.074777
Si Si8 0.863909 0.935503 0.468766
O O1 0.586470 0.547469 0.732873
O O2 0.500000 0.500000 0.000000
O O3 0.261052 0.839503 0.068438
O O4 0.174081 0.732740 0.954279
O O5 0.033230 0.918097 0.364444
O O6 0.084854 0.085245 0.364895
O O7 0.762960 0.183084 0.312431
O O8 0.316493 0.420645 0.539199
O O9 0.388115 0.198781 0.339516
O O10 0.091013 0.396792 0.688164
O O11 0.569591 0.128456 0.556204
O O12 0.500000 0.500000 0.500000
O O13 0.636964 0.735608 0.923856
O O14 0.212465 0.100186 0.936937
O O15 0.500000 0.000000 0.000000
O O16 0.184409 0.538546 0.018928
O O17 0.000000 0.500000 0.000000
O O18 0.941836 0.811512 0.288780
#
# Coordination Sequence:
#
# PCOD9049684 Si02
#       8
#     2   2   2   2   2   2   2   2
#     4  11  26  44  72 105 145 186 235 293 359 440
#     4   9  19  41  67  97 142 182 230 278 361 424
#     4  10  25  47  69 105 144 183 246 294 358 437
#     4  11  26  43  70 105 147 185 230 292 365 434
#     4  11  24  49  73 104 146 193 243 304 362 420
#     4  12  26  46  76 101 139 192 246 300 359 421
#     4  10  24  47  71 107 144 179 249 293 359 430
#     4   8  18  38  70  98 138 181 225 296 348 425
#
# _framework density 25.218007
#
# number of rings (size 3 to 8) (size 9 to 14) (size 15 to 20)
#    0.000    1.750    1.250    1.500   10.500    2.000 
#    2.250    1.250    0.000    0.000    0.000    0.000 
#    0.000    0.000    0.000    0.000    0.000    0.000 
#
# Total GULP energy -89089.817001 kJ/mol
# GULP energy per Si atom -5568.113563 kJ/mol
# Density = 2.516061 g / cm^3
# Si number density = 25.218007 Si / 1000 Ang^3
#
#
#
# Elastic Constant Matrix: (Units=GPa)
#
#
# Indices 1 2 3 4 5 6 
#
# 1 114.2049 10.1695 29.9560 0.3368 1.8321 -6.3594
# 2 10.1695 79.8238 3.7298 -12.0258 3.4467 -22.6308
# 3 29.9560 3.7298 46.7470 -10.1430 8.9815 -0.2032
# 4 0.3368 -12.0258 -10.1430 29.0352 -5.0448 9.7505
# 5 1.8321 3.4467 8.9815 -5.0448 37.2685 -5.1553
# 6 -6.3594 -22.6308 -0.2032 9.7505 -5.1553 35.1152
#
#
#
# Elastic Compliance Matrix: (Units=1/GPa)
#
#
# Indices 1 2 3 4 5 6 
#
# 1 0.011124 -0.000943 -0.008175 -0.004043 0.001334 0.002678
# 2 -0.000943 0.015725 0.000110 0.003588 0.000298 0.009012
# 3 -0.008175 0.000110 0.030248 0.011430 -0.006084 -0.005302
# 4 -0.004043 0.003588 0.011430 0.043688 0.001608 -0.010249
# 5 0.001334 0.000298 -0.006084 0.001608 0.029006 0.004210
# 6 0.002678 0.009012 -0.005302 -0.010249 0.004210 0.038204
#
#
# Mechanical properties :
#
#
# Convention : Reuss Voigt Hill
#
# Bulk Modulus (GPa) = 25.58783 36.49849 31.04316
# Shear Modulus (GPa) = 25.12093 33.41179 29.26636
#
# Velocity S-wave (km/s) = 3.15961 3.64389 3.41036
# Velocity P-wave (km/s) = 4.84557 5.67526 5.27674
#
# Compressibility (1/GPa) = 0.03908108
#
# Stress axis : x y z
#
# Youngs Moduli (GPa) = 89.89466 63.59232 33.06037
#
# Poissons Ratio (x) = 0.05994 0.27027
# Poissons Ratio (y) = 0.08473 -0.00363
# Poissons Ratio (z) = 0.73490 -0.00698
#
# Static dielectric constant tensor:
#      x y z
#    x 1.949760 0.003480 0.070810 
#    y 0.003480 2.107840 -0.035680 
#    z 0.070810 -0.035680 2.262360 
# 
# From -- ./inp_files/273394.got.cif
#   From: 2010.05.17/outbox.cif.g08.bks.cpg/sg2_137_cif.got.tgz:273394.got - 2010.06.03 11:33:40.
