data_PCOD9049608
_publ_section_title
;
Structure prediction by ZEFSAII (Michael W. Deem and Ramdas Pophale) SiO2 
 PCOD9049608
Probable space group: P -1
;
_chemical_formula_sum "Si O2"
_cell_formula_units_Z 14
_cell_length_a 10.904393
_cell_length_b 9.501851
_cell_length_c 7.777357
_cell_angle_alpha 94.869342
_cell_angle_beta 59.123578
_cell_angle_gamma 114.145214
_cell_volume 623.018235
_symmetry_space_group_name_H-M "P -1"
_symmetry_group_IT_number 2
_symmetry_cell_setting 'triclinic'
loop_
_space_group_symop_operation_xyz
x,y,z
-x,-y,-z
loop_
_atom_site_type_symbol
_atom_site_label
_atom_site_fract_x
_atom_site_fract_y
_atom_site_fract_z
Si Si1 0.562819 0.609423 0.281624
Si Si2 0.563892 0.182096 0.487483
Si Si3 0.203211 0.382348 0.487783
Si Si4 0.197707 0.673247 0.365462
Si Si5 0.336737 0.211326 0.124028
Si Si6 0.931969 0.103008 0.664559
Si Si7 0.343914 0.657731 0.895672
O O1 0.571856 0.752732 0.409356
O O2 0.381354 0.483351 0.436991
O O3 0.662735 0.508869 0.174889
O O4 0.581364 0.685093 0.087757
O O5 0.652624 0.230969 0.610127
O O6 0.679695 0.263328 0.252220
O O7 0.500000 0.000000 0.500000
O O8 0.135965 0.505837 0.489852
O O9 0.237906 0.296511 0.290894
O O10 0.076884 0.240280 0.675619
O O11 0.115769 0.790295 0.417668
O O12 0.239562 0.646545 0.136573
O O13 0.477579 0.232814 0.155621
O O14 0.222983 0.029841 0.149217
O O15 0.000000 0.000000 0.500000
#
# Coordination Sequence:
#
# PCOD9049608 Si02
#       7
#     2   2   2   2   2   2   2
#     4  10  19  38  61  88 124 150 199 243 284 358
#     4  11  24  34  55  97 126 150 190 249 298 342
#     4   9  17  35  57  87 115 154 196 236 284 351
#     4  11  21  39  62  85 121 153 202 244 284 361
#     4  10  17  34  60  91 117 149 196 241 288 350
#     4  10  22  33  58  91 115 157 199 236 303 350
#     4  11  20  37  63  92 117 157 193 243 301 341
#
# _framework density 22.471253000000001
#
# number of rings (size 3 to 8) (size 9 to 14) (size 15 to 20)
#    0.000    1.714    4.286    2.571    2.000    1.143 
#    0.000    0.000    0.000    8.571    7.429    0.000 
#    0.000    0.000    0.000    0.000    0.000    0.000 
#
# Total GULP energy -77962.239622 kJ/mol
# GULP energy per Si atom -5568.731402 kJ/mol
# Density = 2.242011 g / cm^3
# Si number density = 22.471253 Si / 1000 Ang^3
#
#
#
# Elastic Constant Matrix: (Units=GPa)
#
#
# Indices 1 2 3 4 5 6 
#
# 1 35.2389 22.6612 12.7546 5.1819 -9.2400 -26.5254
# 2 22.6612 175.6306 30.2031 -1.1555 -7.7327 -15.5750
# 3 12.7546 30.2031 79.1142 15.3794 15.4452 2.3108
# 4 5.1819 -1.1555 15.3794 19.1039 2.7240 -4.8063
# 5 -9.2400 -7.7327 15.4452 2.7240 28.2170 0.8141
# 6 -26.5254 -15.5750 2.3108 -4.8063 0.8141 33.3756
#
#
#
# Elastic Compliance Matrix: (Units=1/GPa)
#
#
# Indices 1 2 3 4 5 6 
#
# 1 0.165439 0.003074 -0.050709 0.019734 0.076905 0.137395
# 2 0.003074 0.007071 -0.005348 0.004837 0.005212 0.006683
# 3 -0.050709 -0.005348 0.035119 -0.021990 -0.033799 -0.047570
# 4 0.019734 0.004837 -0.021990 0.070635 0.012159 0.029339
# 5 0.076905 0.005212 -0.033799 0.012159 0.077481 0.065754
# 6 0.137395 0.006683 -0.047570 0.029339 0.065754 0.148191
#
#
# Mechanical properties :
#
#
# Convention : Reuss Voigt Hill
#
# Bulk Modulus (GPa) = 9.83624 46.80239 28.31931
# Shear Modulus (GPa) = 7.76652 31.09697 19.43175
#
# Velocity S-wave (km/s) = 1.86110 3.72406 2.94383
# Velocity P-wave (km/s) = 3.00084 6.27410 4.91779
#
# Compressibility (1/GPa) = 0.10166485
#
# Stress axis : x y z
#
# Youngs Moduli (GPa) = 6.04451 141.42845 28.47435
#
# Poissons Ratio (x) = -0.43477 1.44389
# Poissons Ratio (y) = -0.01858 0.15228
# Poissons Ratio (z) = 0.30651 0.75636
#
# Static dielectric constant tensor:
#      x y z
#    x 2.009130 0.051660 -0.083730 
#    y 0.051660 1.853270 -0.036440 
#    z -0.083730 -0.036440 1.862630 
# 
# From -- ./inp_files/220111.got.cif
#   From: 2010.05.17/outbox.cif.g08.bks.cpg/sg2_111_cif.got.tgz:220111.got - 2010.06.03 11:33:40.
