data_PCOD9049513
_publ_section_title
;
Structure prediction by ZEFSAII (Michael W. Deem and Ramdas Pophale) SiO2 
 PCOD9049513
Probable space group: P -1
;
_chemical_formula_sum "Si O2"
_cell_formula_units_Z 16
_cell_length_a 18.501972
_cell_length_b 7.083191
_cell_length_c 8.310586
_cell_angle_alpha 110.272316
_cell_angle_beta 59.341338
_cell_angle_gamma 134.843915
_cell_volume 664.129842
_symmetry_space_group_name_H-M "P -1"
_symmetry_group_IT_number 2
_symmetry_cell_setting 'triclinic'
loop_
_space_group_symop_operation_xyz
x,y,z
-x,-y,-z
loop_
_atom_site_type_symbol
_atom_site_label
_atom_site_fract_x
_atom_site_fract_y
_atom_site_fract_z
Si Si1 0.731188 0.237818 0.599393
Si Si2 0.998494 0.947647 0.169050
Si Si3 0.514321 0.797637 0.851705
Si Si4 0.627418 0.523719 0.781892
Si Si5 0.018289 0.259780 0.484090
Si Si6 0.165267 0.927809 0.146096
Si Si7 0.423118 0.697691 0.565301
Si Si8 0.783131 0.347118 0.230006
O O1 0.675212 0.369817 0.683580
O O2 0.855847 0.472288 0.584018
O O3 0.738866 0.167816 0.388238
O O4 0.646881 0.986000 0.732736
O O5 0.899394 0.636231 0.226858
O O6 0.112941 0.018205 0.114782
O O7 0.976499 0.134233 0.321202
O O8 0.000000 0.000000 0.000000
O O9 0.454214 0.585408 0.002015
O O10 0.464603 0.698167 0.696984
O O11 0.500000 0.000000 0.000000
O O12 0.581029 0.461380 0.631097
O O13 0.734444 0.821715 0.794047
O O14 0.937134 0.274267 0.677605
O O15 0.000000 0.000000 0.500000
O O16 0.200923 0.788684 0.967217
O O17 0.302744 0.610844 0.702906
O O18 0.500000 0.000000 0.500000
#
# Coordination Sequence:
#
# PCOD9049513 Si02
#       8
#     2   2   2   2   2   2   2   2
#     4  10  17  34  60  88 108 164 206 235 304 367
#     4  11  23  37  62  93 117 157 210 253 301 371
#     4  10  20  34  64  92 118 152 217 262 287 354
#     4  10  20  37  60  89 120 164 206 255 306 366
#     4  10  17  35  61  83 114 159 201 235 294 385
#     4  11  22  40  62  87 124 163 197 254 322 363
#     4  11  20  37  65  90 115 165 220 244 297 383
#     4  11  22  37  62  91 120 160 203 254 314 368
#
# _framework density 24.091673
#
# number of rings (size 3 to 8) (size 9 to 14) (size 15 to 20)
#    0.000    1.500    8.750    1.125    1.750    0.000 
#    0.000    1.875    8.250    0.000    0.000    0.000 
#    0.000    0.000    0.000    0.000    0.000    0.000 
#
# Total GULP energy -89338.971924 kJ/mol
# GULP energy per Si atom -5583.685745 kJ/mol
# Density = 2.403684 g / cm^3
# Si number density = 24.091673 Si / 1000 Ang^3
#
#
#
# Elastic Constant Matrix: (Units=GPa)
#
#
# Indices 1 2 3 4 5 6 
#
# 1 110.5750 55.6960 55.1300 -8.7319 27.9084 1.3836
# 2 55.6960 96.5667 50.9538 7.6884 -17.9671 44.8076
# 3 55.1300 50.9538 216.6239 6.9598 3.3655 26.1145
# 4 -8.7319 7.6884 6.9598 41.9839 12.7051 -6.3676
# 5 27.9084 -17.9671 3.3655 12.7051 21.6654 9.8734
# 6 1.3836 44.8076 26.1145 -6.3676 9.8734 29.3705
#
#
#
# Elastic Compliance Matrix: (Units=1/GPa)
#
#
# Indices 1 2 3 4 5 6 
#
# 1 0.003933 0.006171 -0.000892 -0.004781 0.008833 -0.012813
# 2 0.006171 -0.000046 -0.002731 0.008309 -0.016844 0.009672
# 3 -0.000892 -0.002731 0.005523 -0.000025 -0.001933 -0.000058
# 4 -0.004781 0.008309 -0.000025 0.017043 0.008312 -0.011528
# 5 0.008833 -0.016844 -0.001933 0.008312 0.003673 0.027568
# 6 -0.012813 0.009672 -0.000058 -0.011528 0.027568 0.008181
#
#
# Mechanical properties :
#
#
# Convention : Reuss Voigt Hill
#
# Bulk Modulus (GPa) = 68.92726 83.03613 75.98170
# Shear Modulus (GPa) = 131.42136 36.06967 83.74551
#
# Velocity S-wave (km/s) = 7.39385 3.87354 5.90226
# Velocity P-wave (km/s) = 10.07792 7.38562 8.83493
#
# Compressibility (1/GPa) = 0.01450805
#
# Stress axis : x y z
#
# Youngs Moduli (GPa) = 254.24670 -21606.63292 181.04747
#
# Poissons Ratio (x) = 133.34250 0.16142
# Poissons Ratio (y) = -1.56905 0.49443
# Poissons Ratio (z) = 0.22668 -59.00642
#
# Static dielectric constant tensor:
#      x y z
#    x 1.996140 0.021730 0.084590 
#    y 0.021730 1.848550 -0.059290 
#    z 0.084590 -0.059290 2.031790 
# 
# From -- ./inp_files/351495.got.cif
#   From: 2010.05.17/outbox.cif.g08.bks.cpg/sg2_176_cif.got.tgz:351495.got - 2010.06.03 11:33:40.
