data_PCOD9049744
_publ_section_title
;
Structure prediction by ZEFSAII (Michael W. Deem and Ramdas Pophale) SiO2 
 PCOD9049744
Probable space group: P -1
;
_chemical_formula_sum "Si O2"
_cell_formula_units_Z 14
_cell_length_a 16.744475
_cell_length_b 5.359780
_cell_length_c 10.731140
_cell_angle_alpha 116.585627
_cell_angle_beta 139.074424
_cell_angle_gamma 55.205790
_cell_volume 517.855304
_symmetry_space_group_name_H-M "P -1"
_symmetry_group_IT_number 2
_symmetry_cell_setting 'triclinic'
loop_
_space_group_symop_operation_xyz
x,y,z
-x,-y,-z
loop_
_atom_site_type_symbol
_atom_site_label
_atom_site_fract_x
_atom_site_fract_y
_atom_site_fract_z
Si Si1 0.687374 0.399313 0.799754
Si Si2 0.392465 0.004497 0.036075
Si Si3 0.697644 0.879422 0.303905
Si Si4 0.215848 0.636662 0.369722
Si Si5 0.943125 0.938622 0.055708
Si Si6 0.925060 0.274902 0.374619
Si Si7 0.518125 0.735971 0.365183
O O1 0.705115 0.659397 0.959968
O O2 0.722323 0.445812 0.712197
O O3 0.534791 0.473626 0.663812
O O4 0.786984 0.051036 0.867196
O O5 0.544170 0.959581 0.175089
O O6 0.419712 0.804538 0.147115
O O7 0.323431 0.958178 0.820980
O O8 0.781552 0.519108 0.305998
O O9 0.775003 0.043005 0.512538
O O10 0.330870 0.394115 0.532626
O O11 0.068872 0.643832 0.188243
O O12 0.927668 0.137400 0.209144
O O13 0.000000 0.000000 0.000000
O O14 0.000000 0.500000 0.500000
O O15 0.000000 0.000000 0.500000
O O16 0.500000 0.000000 0.500000
#
# Coordination Sequence:
#
# PCOD9049744 Si02
#       7
#     2   2   2   2   2   2   2
#     4  11  22  46  67  98 141 182 239 305 363 446
#     4  11  24  42  67 102 138 184 236 302 366 436
#     4  11  24  44  70 100 145 182 242 303 374 442
#     4  11  22  43  71 101 142 185 243 296 369 446
#     4  10  24  47  73 103 149 197 254 310 382 453
#     4  12  27  49  76 109 152 204 253 312 382 459
#     4  12  24  40  73 102 137 187 244 301 366 437
#
# _framework density 27.034579999999998
#
# number of rings (size 3 to 8) (size 9 to 14) (size 15 to 20)
#    0.000    0.857    5.714    1.286    2.000    1.714 
#    0.000    1.429    0.000    0.000    0.000    0.000 
#    0.000    0.000    0.000    0.000    0.000    0.000 
#
# Total GULP energy -78062.682711 kJ/mol
# GULP energy per Si atom -5575.905908 kJ/mol
# Density = 2.697305 g / cm^3
# Si number density = 27.034580 Si / 1000 Ang^3
#
#
#
# Elastic Constant Matrix: (Units=GPa)
#
#
# Indices 1 2 3 4 5 6 
#
# 1 102.8920 37.3586 41.6747 5.5133 -18.7136 -22.4530
# 2 37.3586 126.0473 37.5620 -38.4184 -3.1322 -25.6357
# 3 41.6747 37.5620 94.5199 -21.1798 -6.2076 -7.5929
# 4 5.5133 -38.4184 -21.1798 60.9845 -16.6289 1.9956
# 5 -18.7136 -3.1322 -6.2076 -16.6289 49.8782 -7.9928
# 6 -22.4530 -25.6357 -7.5929 1.9956 -7.9928 49.1709
#
#
#
# Elastic Compliance Matrix: (Units=1/GPa)
#
#
# Indices 1 2 3 4 5 6 
#
# 1 0.015334 -0.002871 -0.005844 -0.004228 0.004314 0.005476
# 2 -0.002871 0.013041 -0.001289 0.008771 0.003384 0.005483
# 3 -0.005844 -0.001289 0.014824 0.005210 0.001135 -0.001078
# 4 -0.004228 0.008771 0.005210 0.026456 0.009049 0.003844
# 5 0.004314 0.003384 0.001135 0.009049 0.026290 0.007816
# 6 0.005476 0.005483 -0.001078 0.003844 0.007816 0.026644
#
#
# Mechanical properties :
#
#
# Convention : Reuss Voigt Hill
#
# Bulk Modulus (GPa) = 43.11880 61.84998 52.48439
# Shear Modulus (GPa) = 33.26040 45.79764 39.52902
#
# Velocity S-wave (km/s) = 3.51136 4.12034 3.82798
# Velocity P-wave (km/s) = 5.69417 6.75011 6.24450
#
# Compressibility (1/GPa) = 0.02319174
#
# Stress axis : x y z
#
# Youngs Moduli (GPa) = 65.21247 76.68116 67.45805
#
# Poissons Ratio (x) = 0.22015 0.39425
# Poissons Ratio (y) = 0.18723 0.08692
# Poissons Ratio (z) = 0.38112 0.09881
#
# Static dielectric constant tensor:
#      x y z
#    x 2.125670 0.038410 -0.018580 
#    y 0.038410 2.275940 -0.040980 
#    z -0.018580 -0.040980 2.175380 
# 
# From -- ./inp_files/101248.got.cif
#   From: 2010.05.17/outbox.cif.g08.bks.cpg/sg2_51_cif.got.tgz:101248.got - 2010.06.03 11:33:40.
