data_PCOD9049881
_publ_section_title
;
Structure prediction by ZEFSAII (Michael W. Deem and Ramdas Pophale) SiO2 
 PCOD9049881
Probable space group: P -1
;
_chemical_formula_sum "Si O2"
_cell_formula_units_Z 15
_cell_length_a 20.649539
_cell_length_b 8.568744
_cell_length_c 13.282405
_cell_angle_alpha 139.329121
_cell_angle_beta 155.614245
_cell_angle_gamma 37.140740
_cell_volume 580.891641
_symmetry_space_group_name_H-M "P -1"
_symmetry_group_IT_number 2
_symmetry_cell_setting 'triclinic'
loop_
_space_group_symop_operation_xyz
x,y,z
-x,-y,-z
loop_
_atom_site_type_symbol
_atom_site_label
_atom_site_fract_x
_atom_site_fract_y
_atom_site_fract_z
Si Si1 0.000000 0.500000 0.000000
Si Si2 0.344824 0.415249 0.768747
Si Si3 0.399978 0.841000 0.233962
Si Si4 0.974141 0.558211 0.776418
Si Si5 0.410377 0.858756 0.645000
Si Si6 0.283487 0.702728 0.585465
Si Si7 0.791523 0.044325 0.176011
Si Si8 0.739194 0.321701 0.851470
O O1 0.141207 0.596508 0.299472
O O2 0.989911 0.361221 0.023609
O O3 0.067033 0.242391 0.752963
O O4 0.207002 0.693655 0.750363
O O5 0.223870 0.358441 0.488276
O O6 0.420335 0.140503 0.795546
O O7 0.537570 0.547503 0.271627
O O8 0.275293 0.817081 0.132814
O O9 0.500000 0.000000 0.500000
O O10 0.327279 0.993690 0.100548
O O11 0.077098 0.667918 0.899993
O O12 0.310267 0.856665 0.603718
O O13 0.596608 0.621029 0.797899
O O14 0.319712 0.801809 0.389114
O O15 0.241124 0.861430 0.707986
O O16 0.500000 0.500000 0.000000
#
# Coordination Sequence:
#
# PCOD9049881 Si02
#       8
#     1   2   2   2   2   2   2   2
#     4  12  24  46  80 110 158 202 268 314 402 462
#     4  12  27  47  76 110 155 205 261 320 394 475
#     4  11  26  46  80 116 157 209 267 318 388 477
#     4  12  27  51  79 115 156 208 265 333 398 469
#     4  10  24  47  78 115 159 207 259 325 395 474
#     4  11  24  48  76 116 158 214 257 326 396 469
#     4  12  27  47  79 114 159 206 262 323 392 471
#     4  10  24  47  79 115 159 202 263 331 394 464
#
# _framework density 25.822374
#
# number of rings (size 3 to 8) (size 9 to 14) (size 15 to 20)
#    0.000    0.800    2.667    3.200    7.467    2.667 
#    4.800    4.667    2.933    0.000    0.000    0.000 
#    0.000    0.000    0.000    0.000    0.000    0.000 
#
# Total GULP energy -83512.728671 kJ/mol
# GULP energy per Si atom -5567.515245 kJ/mol
# Density = 2.576360 g / cm^3
# Si number density = 25.822374 Si / 1000 Ang^3
#
#
#
# Elastic Constant Matrix: (Units=GPa)
#
#
# Indices 1 2 3 4 5 6 
#
# 1 188.5765 37.2042 82.6115 3.4976 4.9317 17.5760
# 2 37.2042 166.5007 32.4238 15.8519 10.1338 9.6607
# 3 82.6115 32.4238 143.6654 -11.4409 1.6060 11.5307
# 4 3.4976 15.8519 -11.4409 28.6807 9.7981 11.0359
# 5 4.9317 10.1338 1.6060 9.7981 49.3234 13.5452
# 6 17.5760 9.6607 11.5307 11.0359 13.5452 15.7838
#
#
#
# Elastic Compliance Matrix: (Units=1/GPa)
#
#
# Indices 1 2 3 4 5 6 
#
# 1 0.007643 -0.000683 -0.003736 0.000006 0.001270 -0.006457
# 2 -0.000683 0.006890 -0.001689 -0.004834 -0.000850 0.001888
# 3 -0.003736 -0.001689 0.011091 0.009461 0.001433 -0.010753
# 4 0.000006 -0.004834 0.009461 0.058573 0.001810 -0.046467
# 5 0.001270 -0.000850 0.001433 0.001810 0.027209 -0.026555
# 6 -0.006457 0.001888 -0.010753 -0.046467 -0.026555 0.132525
#
#
# Mechanical properties :
#
#
# Convention : Reuss Voigt Hill
#
# Bulk Modulus (GPa) = 74.59038 89.24685 81.91862
# Shear Modulus (GPa) = 19.18527 41.85779 30.52153
#
# Velocity S-wave (km/s) = 2.72871 4.03052 3.44172
# Velocity P-wave (km/s) = 6.23510 7.50313 6.89831
#
# Compressibility (1/GPa) = 0.01340655
#
# Stress axis : x y z
#
# Youngs Moduli (GPa) = 130.83964 145.13564 90.16595
#
# Poissons Ratio (x) = 0.09919 0.33687
# Poissons Ratio (y) = 0.08942 0.15229
# Poissons Ratio (z) = 0.48883 0.24514
#
# Static dielectric constant tensor:
#      x y z
#    x 2.185500 -0.068880 0.055900 
#    y -0.068880 2.158570 -0.064710 
#    z 0.055900 -0.064710 2.143510 
# 
# From -- ./inp_files/461653.got.cif
#   From: 2010.05.17/outbox.cif.g08.bks.cpg/sg2_231_cif.got.tgz:461653.got - 2010.06.03 11:33:40.
