data_PCOD9049273
_publ_section_title
;
Structure prediction by ZEFSAII (Michael W. Deem and Ramdas Pophale) SiO2 
 PCOD9049273
Probable space group: P -1
;
_chemical_formula_sum "Si O2"
_cell_formula_units_Z 14
_cell_length_a 11.501124
_cell_length_b 5.866654
_cell_length_c 11.761369
_cell_angle_alpha 101.400198
_cell_angle_beta 69.598312
_cell_angle_gamma 129.934146
_cell_volume 569.953896
_symmetry_space_group_name_H-M "P -1"
_symmetry_group_IT_number 2
_symmetry_cell_setting 'triclinic'
loop_
_space_group_symop_operation_xyz
x,y,z
-x,-y,-z
loop_
_atom_site_type_symbol
_atom_site_label
_atom_site_fract_x
_atom_site_fract_y
_atom_site_fract_z
Si Si1 0.368663 0.647759 0.525978
Si Si2 0.199594 0.674091 0.223946
Si Si3 0.153262 0.792766 0.632749
Si Si4 0.628020 0.800712 0.610545
Si Si5 0.062177 0.795200 0.075916
Si Si6 0.419547 0.646672 0.997327
Si Si7 0.776010 0.788469 0.154647
O O1 0.204231 0.582760 0.595255
O O2 0.449368 0.620935 0.604778
O O3 0.360150 0.463213 0.404160
O O4 0.500000 0.000000 0.500000
O O5 0.152112 0.803041 0.154721
O O6 0.276500 0.543398 0.122581
O O7 0.035911 0.411357 0.315775
O O8 0.319684 0.950549 0.291662
O O9 0.239525 0.004063 0.515279
O O10 0.231543 0.006599 0.736954
O O11 0.913169 0.782033 0.154767
O O12 0.000000 0.500000 0.000000
O O13 0.165060 0.043740 0.970424
O O14 0.500000 0.500000 0.000000
O O15 0.370502 0.531837 0.872724
O O16 0.500000 0.000000 0.000000
#
# Coordination Sequence:
#
# PCOD9049273 Si02
#       7
#     2   2   2   2   2   2   2
#     4   9  22  47  68 101 144 199 244 291 367 459
#     4  12  25  47  76 111 149 192 251 325 370 459
#     4  11  24  43  75 108 142 195 245 305 376 456
#     4  10  24  46  71 109 150 189 243 301 388 447
#     4  11  21  45  70 103 143 193 248 310 382 440
#     4  12  29  49  73 113 154 204 257 321 391 454
#     4  11  24  44  72 101 146 194 251 311 379 459
#
# _framework density 24.563389999999998
#
# number of rings (size 3 to 8) (size 9 to 14) (size 15 to 20)
#    0.000    1.143    2.857    2.143    4.000    4.000 
#   12.857    0.000    0.000    0.000    0.000    0.000 
#    0.000    0.000    0.000    0.000    0.000    0.000 
#
# Total GULP energy -78261.627491 kJ/mol
# GULP energy per Si atom -5590.116249 kJ/mol
# Density = 2.450748 g / cm^3
# Si number density = 24.563390 Si / 1000 Ang^3
#
#
#
# Elastic Constant Matrix: (Units=GPa)
#
#
# Indices 1 2 3 4 5 6 
#
# 1 102.9962 9.2103 6.7154 0.2740 -25.4062 -10.7907
# 2 9.2103 109.2134 11.5570 17.9148 -3.8306 1.0753
# 3 6.7154 11.5570 62.0458 24.8665 -4.3172 -3.2120
# 4 0.2740 17.9148 24.8665 62.4589 1.7900 -5.9433
# 5 -25.4062 -3.8306 -4.3172 1.7900 40.0483 4.5201
# 6 -10.7907 1.0753 -3.2120 -5.9433 4.5201 39.6971
#
#
#
# Elastic Compliance Matrix: (Units=1/GPa)
#
#
# Indices 1 2 3 4 5 6 
#
# 1 0.011819 -0.000778 -0.000712 0.000485 0.007049 0.002446
# 2 -0.000778 0.009757 -0.000688 -0.002633 0.000595 -0.000993
# 3 -0.000712 -0.000688 0.019512 -0.007618 0.001922 0.000045
# 4 0.000485 -0.002633 -0.007618 0.020122 -0.001983 0.002825
# 5 0.007049 0.000595 0.001922 -0.001983 0.029981 -0.001655
# 6 0.002446 -0.000993 0.000045 0.002825 -0.001655 0.026498
#
#
# Mechanical properties :
#
#
# Convention : Reuss Voigt Hill
#
# Bulk Modulus (GPa) = 27.22387 36.58009 31.90198
# Shear Modulus (GPa) = 37.23330 44.89236 41.06283
#
# Velocity S-wave (km/s) = 3.89756 4.27970 4.09309
# Velocity P-wave (km/s) = 5.60016 6.27260 5.94589
#
# Compressibility (1/GPa) = 0.03673247
#
# Stress axis : x y z
#
# Youngs Moduli (GPa) = 84.61106 102.48682 51.25149
#
# Poissons Ratio (x) = 0.07972 0.03648
# Poissons Ratio (y) = 0.06582 0.03526
# Poissons Ratio (z) = 0.06022 0.07052
#
# Static dielectric constant tensor:
#      x y z
#    x 1.962370 0.018790 0.023110 
#    y 0.018790 2.072800 -0.096910 
#    z 0.023110 -0.096910 1.941430 
# 
# From -- ./inp_files/411037.got.cif
#   From: 2010.05.17/outbox.cif.g08.bks.cpg/sg2_206_cif.got.tgz:411037.got - 2010.06.03 11:33:40.
