data_PCOD9049972
_publ_section_title
;
Structure prediction by ZEFSAII (Michael W. Deem and Ramdas Pophale) SiO2 
 PCOD9049972
Probable space group: P -1
;
_chemical_formula_sum "Si O2"
_cell_formula_units_Z 16
_cell_length_a 14.146399
_cell_length_b 7.698613
_cell_length_c 8.706894
_cell_angle_alpha 129.489692
_cell_angle_beta 74.110098
_cell_angle_gamma 101.267881
_cell_volume 703.547729
_symmetry_space_group_name_H-M "P -1"
_symmetry_group_IT_number 2
_symmetry_cell_setting 'triclinic'
loop_
_space_group_symop_operation_xyz
x,y,z
-x,-y,-z
loop_
_atom_site_type_symbol
_atom_site_label
_atom_site_fract_x
_atom_site_fract_y
_atom_site_fract_z
Si Si1 0.066980 0.215965 0.143823
Si Si2 0.154696 0.010021 0.505466
Si Si3 0.311600 0.772346 0.134271
Si Si4 0.257837 0.032423 0.794559
Si Si5 0.654861 0.371138 0.294831
Si Si6 0.398838 0.392973 0.048458
Si Si7 0.571648 0.780528 0.716819
Si Si8 0.032315 0.325580 0.571923
O O1 0.008666 0.432310 0.233922
O O2 0.075326 0.282784 0.358141
O O3 0.173722 0.162957 0.999092
O O4 0.000000 0.000000 0.000000
O O5 0.214456 0.908661 0.281336
O O6 0.221550 0.013163 0.626951
O O7 0.061507 0.844763 0.481193
O O8 0.112041 0.248948 0.615414
O O9 0.500000 0.500000 0.000000
O O10 0.310580 0.638053 0.900710
O O11 0.326999 0.601328 0.171266
O O12 0.277953 0.789714 0.724042
O O13 0.356392 0.185447 0.851482
O O14 0.641859 0.624362 0.498046
O O15 0.542625 0.268251 0.296334
O O16 0.601837 0.038397 0.817797
O O17 0.409508 0.301424 0.163836
#
# Coordination Sequence:
#
# PCOD9049972 Si02
#       8
#     2   2   2   2   2   2   2   2
#     4  11  23  46  74 104 138 189 233 289 362 425
#     4  11  25  45  68 106 141 184 239 294 354 423
#     4  12  24  44  70 101 139 188 234 294 351 419
#     4  12  25  44  72 107 142 191 242 294 356 430
#     4  11  24  44  71  97 138 183 239 288 353 419
#     4  12  25  45  72 101 148 188 237 297 357 416
#     4  11  25  47  68 101 139 188 236 295 353 424
#     4  10  24  48  70  99 147 182 231 295 358 426
#
# _framework density 22.741883000000001
#
# number of rings (size 3 to 8) (size 9 to 14) (size 15 to 20)
#    0.000    0.750    3.750    3.375    1.750    1.500 
#    2.250    3.125    0.000    0.000    0.000    0.000 
#    0.000    0.000    0.000    0.000    0.000    0.000 
#
# Total GULP energy -89553.610151 kJ/mol
# GULP energy per Si atom -5597.100634 kJ/mol
# Density = 2.269012 g / cm^3
# Si number density = 22.741883 Si / 1000 Ang^3
#
#
#
# Elastic Constant Matrix: (Units=GPa)
#
#
# Indices 1 2 3 4 5 6 
#
# 1 54.1784 16.5383 28.4561 -4.4882 3.4141 -21.3407
# 2 16.5383 106.0094 31.3087 24.1483 1.3790 -31.6347
# 3 28.4561 31.3087 131.4927 10.7254 -15.8090 -17.0456
# 4 -4.4882 24.1483 10.7254 35.5999 -0.5459 -10.3796
# 5 3.4141 1.3790 -15.8090 -0.5459 36.1366 3.1326
# 6 -21.3407 -31.6347 -17.0456 -10.3796 3.1326 41.0401
#
#
#
# Elastic Compliance Matrix: (Units=1/GPa)
#
#
# Indices 1 2 3 4 5 6 
#
# 1 0.028880 -0.000440 -0.005748 0.010040 -0.006403 0.015319
# 2 -0.000440 0.014088 -0.001896 -0.006646 -0.002148 0.008326
# 3 -0.005748 -0.001896 0.009951 -0.002768 0.005049 -0.001403
# 4 0.010040 -0.006646 -0.002768 0.037145 -0.002082 0.008501
# 5 -0.006403 -0.002148 0.005049 -0.002082 0.031038 -0.005784
# 6 0.015319 0.008326 -0.001403 0.008501 -0.005784 0.040759
#
#
# Mechanical properties :
#
#
# Convention : Reuss Voigt Hill
#
# Bulk Modulus (GPa) = 27.20993 49.36518 38.28756
# Shear Modulus (GPa) = 26.27706 36.91381 31.59544
#
# Velocity S-wave (km/s) = 3.40288 4.03322 3.73138
# Velocity P-wave (km/s) = 5.23737 6.59113 5.95286
#
# Compressibility (1/GPa) = 0.03675129
#
# Stress axis : x y z
#
# Youngs Moduli (GPa) = 34.62605 70.98084 100.48983
#
# Poissons Ratio (x) = 0.03125 0.57761
# Poissons Ratio (y) = 0.01525 0.19052
# Poissons Ratio (z) = 0.19903 0.13458
#
# Static dielectric constant tensor:
#      x y z
#    x 1.862980 0.009200 -0.020930 
#    y 0.009200 1.867770 -0.009710 
#    z -0.020930 -0.009710 1.826910 
# 
# From -- ./inp_files/296753.got.cif
#   From: 2010.05.17/outbox.cif.g08.bks.cpg/sg2_149_cif.got.tgz:296753.got - 2010.06.03 11:33:40.
