data_PCOD9049469
_publ_section_title
;
Structure prediction by ZEFSAII (Michael W. Deem and Ramdas Pophale) SiO2 
 PCOD9049469
Probable space group: P -1
;
_chemical_formula_sum "Si O2"
_cell_formula_units_Z 14
_cell_length_a 7.039835
_cell_length_b 11.060211
_cell_length_c 17.524260
_cell_angle_alpha 34.673832
_cell_angle_beta 128.915695
_cell_angle_gamma 138.511179
_cell_volume 513.982616
_symmetry_space_group_name_H-M "P -1"
_symmetry_group_IT_number 2
_symmetry_cell_setting 'triclinic'
loop_
_space_group_symop_operation_xyz
x,y,z
-x,-y,-z
loop_
_atom_site_type_symbol
_atom_site_label
_atom_site_fract_x
_atom_site_fract_y
_atom_site_fract_z
Si Si1 0.270482 0.505648 0.030318
Si Si2 0.543808 0.209699 0.219369
Si Si3 0.746874 0.211322 0.763422
Si Si4 0.238047 0.260084 0.600340
Si Si5 0.684912 0.938336 0.023055
Si Si6 0.202037 0.420508 0.665159
Si Si7 0.292540 0.032433 0.486530
O O1 0.274282 0.564191 0.911205
O O2 0.516550 0.734724 0.020621
O O3 0.334107 0.283363 0.170305
O O4 0.000000 0.500000 0.000000
O O5 0.716974 0.127121 0.359552
O O6 0.359681 0.979990 0.235191
O O7 0.441541 0.169601 0.734467
O O8 0.998866 0.455340 0.656347
O O9 0.875112 0.172602 0.893621
O O10 0.500000 0.500000 0.500000
O O11 0.102082 0.325697 0.603033
O O12 0.794383 0.803123 0.174829
O O13 0.500000 0.000000 0.000000
O O14 0.993125 0.927661 0.421610
O O15 0.518508 0.668358 0.606820
O O16 0.500000 0.000000 0.500000
#
# Coordination Sequence:
#
# PCOD9049469 Si02
#       7
#     2   2   2   2   2   2   2
#     4  10  24  46  77 111 144 196 256 320 394 465
#     4  10  24  46  74 113 152 196 256 324 387 469
#     4  11  25  48  79 111 153 208 266 327 398 466
#     4  12  28  49  77 116 159 211 266 318 391 477
#     4  11  24  46  76 112 147 203 264 328 393 468
#     4  12  27  50  78 112 160 211 262 329 399 470
#     4  12  27  49  78 114 161 209 261 323 395 471
#
# _framework density 27.238277
#
# number of rings (size 3 to 8) (size 9 to 14) (size 15 to 20)
#    0.000    0.857    1.429    3.857    2.000    9.714 
#    5.143    4.286    0.000    0.857    0.000    0.000 
#    0.000    0.000    0.000    0.000    0.000    0.000 
#
# Total GULP energy -78313.756303 kJ/mol
# GULP energy per Si atom -5593.839736 kJ/mol
# Density = 2.717628 g / cm^3
# Si number density = 27.238277 Si / 1000 Ang^3
#
#
#
# Elastic Constant Matrix: (Units=GPa)
#
#
# Indices 1 2 3 4 5 6 
#
# 1 156.4579 33.6046 45.5308 15.3428 -2.2223 -9.7448
# 2 33.6046 150.5020 42.5551 19.9359 -12.6715 1.8236
# 3 45.5308 42.5551 157.4368 47.3980 -35.7725 1.3444
# 4 15.3428 19.9359 47.3980 41.0261 -10.6711 6.0206
# 5 -2.2223 -12.6715 -35.7725 -10.6711 39.7663 5.1876
# 6 -9.7448 1.8236 1.3444 6.0206 5.1876 52.6318
#
#
#
# Elastic Compliance Matrix: (Units=1/GPa)
#
#
# Indices 1 2 3 4 5 6 
#
# 1 0.007415 -0.001179 -0.002217 -0.000499 -0.002319 0.001756
# 2 -0.001179 0.007497 -0.000879 -0.001855 0.001081 -0.000350
# 3 -0.002217 -0.000879 0.012262 -0.010866 0.007739 -0.000213
# 4 -0.000499 -0.001855 -0.010866 0.038787 0.000568 -0.004244
# 5 -0.002319 0.001081 0.007739 0.000568 0.032995 -0.003982
# 6 0.001756 -0.000350 -0.000213 -0.004244 -0.003982 0.020221
#
#
# Mechanical properties :
#
#
# Convention : Reuss Voigt Hill
#
# Bulk Modulus (GPa) = 53.69340 78.64197 66.16768
# Shear Modulus (GPa) = 37.33140 49.53192 43.43166
#
# Velocity S-wave (km/s) = 3.70611 4.26898 3.99746
# Velocity P-wave (km/s) = 6.17000 7.29612 6.75657
#
# Compressibility (1/GPa) = 0.01862426
#
# Stress axis : x y z
#
# Youngs Moduli (GPa) = 134.85334 133.38632 81.55223
#
# Poissons Ratio (x) = 0.15728 0.18084
# Poissons Ratio (y) = 0.15901 0.07165
# Poissons Ratio (z) = 0.29903 0.11718
#
# Static dielectric constant tensor:
#      x y z
#    x 2.294940 0.039270 0.195880 
#    y 0.039270 2.106870 -0.148900 
#    z 0.195880 -0.148900 2.613750 
# 
# From -- ./inp_files/558305.got.cif
#   From: 2010.05.17/outbox.cif.g08.bks.cpg/sg2_280_cif.got.tgz:558305.got - 2010.06.03 11:33:40.
