data_PCOD9049618
_publ_section_title
;
Structure prediction by ZEFSAII (Michael W. Deem and Ramdas Pophale) SiO2 
 PCOD9049618
Probable space group: P -1
;
_chemical_formula_sum "Si O2"
_cell_formula_units_Z 14
_cell_length_a 21.275314
_cell_length_b 15.320601
_cell_length_c 11.370373
_cell_angle_alpha 31.478527
_cell_angle_beta 30.484742
_cell_angle_gamma 19.034138
_cell_volume 596.626967
_symmetry_space_group_name_H-M "P -1"
_symmetry_group_IT_number 2
_symmetry_cell_setting 'triclinic'
loop_
_space_group_symop_operation_xyz
x,y,z
-x,-y,-z
loop_
_atom_site_type_symbol
_atom_site_label
_atom_site_fract_x
_atom_site_fract_y
_atom_site_fract_z
Si Si1 0.284395 0.944332 0.136408
Si Si2 0.780438 0.871967 0.430480
Si Si3 0.742451 0.274499 0.380817
Si Si4 0.958563 0.219209 0.708608
Si Si5 0.255897 0.225925 0.654544
Si Si6 0.606563 0.776295 0.983457
Si Si7 0.563738 0.421593 0.122282
O O1 0.168392 0.932444 0.417873
O O2 0.414142 0.685392 0.140533
O O3 0.430173 0.887311 0.057540
O O4 0.203647 0.170070 0.916557
O O5 0.805619 0.802235 0.333940
O O6 0.733353 0.763184 0.710772
O O7 0.965921 0.771133 0.306662
O O8 0.588929 0.203010 0.368746
O O9 0.500000 0.500000 0.500000
O O10 0.743816 0.474140 0.156203
O O11 0.857714 0.073705 0.314200
O O12 0.862536 0.472126 0.495801
O O13 0.779914 0.280938 0.946569
O O14 0.500000 0.000000 0.500000
O O15 0.500000 0.000000 0.000000
O O16 0.500000 0.500000 0.000000
#
# Coordination Sequence:
#
# PCOD9049618 Si02
#       7
#     2   2   2   2   2   2   2
#     4  11  22  45  72  99 149 189 239 293 354 434
#     4  12  23  40  71 108 142 182 244 302 351 424
#     4  10  24  47  69 102 148 192 238 297 361 426
#     4  12  26  44  71 108 147 189 245 296 357 440
#     4  12  23  44  69 109 145 190 242 300 364 415
#     4  11  22  42  72 100 138 191 240 291 356 421
#     4  12  24  45  74 106 145 188 234 301 372 428
#
# _framework density 23.465247999999999
#
# number of rings (size 3 to 8) (size 9 to 14) (size 15 to 20)
#    0.000    0.571    4.286    5.143    0.000    2.857 
#    0.000    0.714    0.000    0.000    0.000    0.000 
#    0.000    0.000    0.000    0.000    0.000    0.000 
#
# Total GULP energy -78351.912341 kJ/mol
# GULP energy per Si atom -5596.565167 kJ/mol
# Density = 2.341184 g / cm^3
# Si number density = 23.465248 Si / 1000 Ang^3
#
#
#
# Elastic Constant Matrix: (Units=GPa)
#
#
# Indices 1 2 3 4 5 6 
#
# 1 155.5935 28.9052 55.8695 1.2084 8.6127 18.7155
# 2 28.9052 83.1905 24.1522 -34.4873 -1.0321 19.7942
# 3 55.8695 24.1522 174.8901 -48.6671 22.5763 -5.8175
# 4 1.2084 -34.4873 -48.6671 48.0743 -3.2484 -3.7055
# 5 8.6127 -1.0321 22.5763 -3.2484 37.7692 -5.1063
# 6 18.7155 19.7942 -5.8175 -3.7055 -5.1063 39.7711
#
#
#
# Elastic Compliance Matrix: (Units=1/GPa)
#
#
# Indices 1 2 3 4 5 6 
#
# 1 0.009674 -0.004758 -0.004997 -0.009055 -0.000647 -0.003842
# 2 -0.004758 0.022080 0.003510 0.019042 0.000361 -0.006416
# 3 -0.004997 0.003510 0.011370 0.014125 -0.003930 0.003080
# 4 -0.009055 0.019042 0.014125 0.048983 -0.001480 0.001224
# 5 -0.000647 0.000361 -0.003930 -0.001480 0.029285 0.003172
# 6 -0.003842 -0.006416 0.003080 0.001224 0.003172 0.031117
#
#
# Mechanical properties :
#
#
# Convention : Reuss Voigt Hill
#
# Bulk Modulus (GPa) = 32.64537 70.16975 51.40756
# Shear Modulus (GPa) = 28.53702 45.43939 36.98820
#
# Velocity S-wave (km/s) = 3.49110 4.40529 3.97457
# Velocity P-wave (km/s) = 5.49480 7.47289 6.55884
#
# Compressibility (1/GPa) = 0.03063221
#
# Stress axis : x y z
#
# Youngs Moduli (GPa) = 103.37406 45.28942 87.95031
#
# Poissons Ratio (x) = 0.21550 0.43951
# Poissons Ratio (y) = 0.49188 -0.30868
# Poissons Ratio (z) = 0.51659 -0.15895
#
# Static dielectric constant tensor:
#      x y z
#    x 1.893590 -0.048790 0.061290 
#    y -0.048790 1.886380 -0.033050 
#    z 0.061290 -0.033050 1.973040 
# 
# From -- ./inp_files/471840.got.cif
#   From: 2010.05.17/outbox.cif.g08.bks.cpg/sg2_236_cif.got.tgz:471840.got - 2010.06.03 11:33:40.
