data_PCOD9049107
_publ_section_title
;
Structure prediction by ZEFSAII (Michael W. Deem and Ramdas Pophale) SiO2 
 PCOD9049107
Probable space group: P -1
;
_chemical_formula_sum "Si O2"
_cell_formula_units_Z 16
_cell_length_a 16.108892
_cell_length_b 9.092485
_cell_length_c 11.250254
_cell_angle_alpha 69.358902
_cell_angle_beta 104.488313
_cell_angle_gamma 153.463742
_cell_volume 680.502549
_symmetry_space_group_name_H-M "P -1"
_symmetry_group_IT_number 2
_symmetry_cell_setting 'triclinic'
loop_
_space_group_symop_operation_xyz
x,y,z
-x,-y,-z
loop_
_atom_site_type_symbol
_atom_site_label
_atom_site_fract_x
_atom_site_fract_y
_atom_site_fract_z
Si Si1 0.832815 0.682070 0.208221
Si Si2 0.795477 0.857331 0.780050
Si Si3 0.511336 0.952247 0.886095
Si Si4 0.052495 0.554872 0.364837
Si Si5 0.719925 0.347098 0.489340
Si Si6 0.876152 0.065220 0.237346
Si Si7 0.596919 0.776594 0.048556
Si Si8 0.217988 0.402312 0.336025
O O1 0.690339 0.430906 0.122408
O O2 0.804997 0.496782 0.346826
O O3 0.766271 0.726815 0.247404
O O4 0.047266 0.005639 0.149879
O O5 0.581692 0.488443 0.851588
O O6 0.798345 0.800030 0.660942
O O7 0.869267 0.153709 0.741702
O O8 0.587184 0.205840 0.750410
O O9 0.637987 0.003466 0.927930
O O10 0.500000 0.000000 0.000000
O O11 0.223505 0.712677 0.399076
O O12 0.000000 0.500000 0.500000
O O13 0.900259 0.216526 0.321157
O O14 0.797274 0.613549 0.524134
O O15 0.500000 0.000000 0.500000
O O16 0.070971 0.283386 0.256407
O O17 0.783359 0.027517 0.114964
O O18 0.500000 0.500000 0.000000
#
# Coordination Sequence:
#
# PCOD9049107 Si02
#       8
#     2   2   2   2   2   2   2   2
#     4  11  24  46  70  99 138 182 228 277 345 416
#     4  11  26  44  67  98 142 171 230 280 340 404
#     4  12  25  44  71  99 133 179 236 277 339 407
#     4  11  25  44  67 103 137 175 224 281 344 404
#     4  11  23  41  74  98 137 180 222 281 345 410
#     4  10  26  43  68  98 137 177 227 278 340 404
#     4  12  27  46  68  99 138 181 230 290 339 397
#     4  10  24  46  69 101 134 185 224 276 348 412
#
# _framework density 23.512035000000001
#
# number of rings (size 3 to 8) (size 9 to 14) (size 15 to 20)
#    0.000    1.000    5.000    0.000    8.750    4.500 
#    0.000    1.250    0.000    0.000    0.000    0.000 
#    0.000    0.000    0.000    0.000    0.000    0.000 
#
# Total GULP energy -89092.591027 kJ/mol
# GULP energy per Si atom -5568.286939 kJ/mol
# Density = 2.345852 g / cm^3
# Si number density = 23.512035 Si / 1000 Ang^3
#
#
#
# Elastic Constant Matrix: (Units=GPa)
#
#
# Indices 1 2 3 4 5 6 
#
# 1 96.7277 27.2759 32.3570 23.2135 -4.3128 -26.8594
# 2 27.2759 90.8704 36.4787 27.7768 -7.8598 -12.1384
# 3 32.3570 36.4787 90.1385 27.7467 3.5740 -9.1368
# 4 23.2135 27.7768 27.7467 48.5090 -2.6364 -3.6065
# 5 -4.3128 -7.8598 3.5740 -2.6364 35.3347 4.8892
# 6 -26.8594 -12.1384 -9.1368 -3.6065 4.8892 44.9639
#
#
#
# Elastic Compliance Matrix: (Units=1/GPa)
#
#
# Indices 1 2 3 4 5 6 
#
# 1 0.014697 -0.000902 -0.002841 -0.004302 0.000514 0.007558
# 2 -0.000902 0.015114 -0.003975 -0.005643 0.002962 0.001959
# 3 -0.002841 -0.003975 0.015548 -0.005412 -0.003250 0.000309
# 4 -0.004302 -0.005643 -0.005412 0.028848 0.001338 -0.003024
# 5 0.000514 0.002962 -0.003250 0.001338 0.029823 -0.002689
# 6 0.007558 0.001959 0.000309 -0.003024 -0.002689 0.027396
#
#
# Mechanical properties :
#
#
# Convention : Reuss Voigt Hill
#
# Bulk Modulus (GPa) = 33.41814 52.21775 42.81795
# Shear Modulus (GPa) = 31.88061 37.86984 34.87523
#
# Velocity S-wave (km/s) = 3.68629 4.01765 3.85553
# Velocity P-wave (km/s) = 5.68879 6.61659 6.17015
#
# Compressibility (1/GPa) = 0.02992387
#
# Stress axis : x y z
#
# Youngs Moduli (GPa) = 68.04186 66.16550 64.31551
#
# Poissons Ratio (x) = 0.05969 0.18271
# Poissons Ratio (y) = 0.06138 0.25563
# Poissons Ratio (z) = 0.19329 0.26298
#
# Static dielectric constant tensor:
#      x y z
#    x 2.008780 -0.070950 -0.038650 
#    y -0.070950 1.994750 0.003370 
#    z -0.038650 0.003370 1.899520 
# 
# From -- ./inp_files/189185.got.cif
#   From: 2010.05.17/outbox.cif.g08.bks.cpg/sg2_95_cif.got.tgz:189185.got - 2010.06.03 11:33:40.
