data_PCOD9049289
_publ_section_title
;
Structure prediction by ZEFSAII (Michael W. Deem and Ramdas Pophale) SiO2 
 PCOD9049289
Probable space group: P -1
;
_chemical_formula_sum "Si O2"
_cell_formula_units_Z 16
_cell_length_a 8.447771
_cell_length_b 8.532723
_cell_length_c 11.704950
_cell_angle_alpha 121.414599
_cell_angle_beta 96.999267
_cell_angle_gamma 91.323955
_cell_volume 710.934919
_symmetry_space_group_name_H-M "P -1"
_symmetry_group_IT_number 2
_symmetry_cell_setting 'triclinic'
loop_
_space_group_symop_operation_xyz
x,y,z
-x,-y,-z
loop_
_atom_site_type_symbol
_atom_site_label
_atom_site_fract_x
_atom_site_fract_y
_atom_site_fract_z
Si Si1 0.370347 0.648832 0.555594
Si Si2 0.038392 0.849084 0.853654
Si Si3 0.944519 0.188636 0.407533
Si Si4 0.090971 0.544566 0.907152
Si Si5 0.537195 0.211312 0.621793
Si Si6 0.594669 0.042010 0.141533
Si Si7 0.580508 0.313764 0.911161
Si Si8 0.819927 0.795106 0.351734
O O1 0.500000 0.500000 0.500000
O O2 0.177708 0.653458 0.565342
O O3 0.368040 0.704868 0.444729
O O4 0.445323 0.795959 0.713608
O O5 0.965428 0.842888 0.716904
O O6 0.006851 0.655998 0.844449
O O7 0.223316 0.904832 0.857639
O O8 0.000000 0.000000 0.000000
O O9 0.070605 0.218713 0.532155
O O10 0.841837 0.997853 0.371161
O O11 0.128842 0.350035 0.788745
O O12 0.257317 0.670564 0.995789
O O13 0.000000 0.500000 0.000000
O O14 0.626892 0.269908 0.768674
O O15 0.360272 0.270258 0.649750
O O16 0.500000 0.000000 0.500000
O O17 0.552046 0.852391 0.132806
O O18 0.500000 0.000000 0.000000
O O19 0.500000 0.500000 0.000000
#
# Coordination Sequence:
#
# PCOD9049289 Si02
#       8
#     2   2   2   2   2   2   2   2
#     4  11  26  44  70 107 144 183 241 297 357 432
#     4  11  25  46  71  99 144 186 236 293 364 428
#     4  10  24  46  71  99 141 195 232 302 366 414
#     4  12  28  45  69 106 141 189 246 297 360 436
#     4  12  23  44  70 103 138 186 243 294 354 422
#     4  11  24  47  70 101 141 185 236 289 359 421
#     4  12  26  44  74 102 140 188 237 298 358 415
#     4  11  24  46  70 101 145 182 247 300 352 441
#
# _framework density 22.505576999999999
#
# number of rings (size 3 to 8) (size 9 to 14) (size 15 to 20)
#    0.000    0.750    5.000    1.500    8.750    2.500 
#    2.250    0.000    0.000    0.000    0.000    0.000 
#    0.000    0.000    0.000    0.000    0.000    0.000 
#
# Total GULP energy -89264.252276 kJ/mol
# GULP energy per Si atom -5579.015767 kJ/mol
# Density = 2.245435 g / cm^3
# Si number density = 22.505577 Si / 1000 Ang^3
#
#
#
# Elastic Constant Matrix: (Units=GPa)
#
#
# Indices 1 2 3 4 5 6 
#
# 1 44.5795 19.7287 31.9270 -0.0912 -16.9547 -3.2667
# 2 19.7287 69.5162 37.6985 -3.2621 -20.0313 -2.3305
# 3 31.9270 37.6985 185.7414 -16.6621 -25.5256 -12.5581
# 4 -0.0912 -3.2621 -16.6621 42.3150 -4.4931 -10.0101
# 5 -16.9547 -20.0313 -25.5256 -4.4931 55.1763 -2.4755
# 6 -3.2667 -2.3305 -12.5581 -10.0101 -2.4755 32.8224
#
#
#
# Elastic Compliance Matrix: (Units=1/GPa)
#
#
# Indices 1 2 3 4 5 6 
#
# 1 0.029166 -0.004871 -0.003178 -0.000575 0.005748 0.001599
# 2 -0.004871 0.018226 -0.002126 0.001170 0.004262 0.000674
# 3 -0.003178 -0.002126 0.007223 0.003742 0.002059 0.003593
# 4 -0.000575 0.001170 0.003742 0.028159 0.004739 0.010403
# 5 0.005748 0.004262 0.002059 0.004739 0.022993 0.004842
# 6 0.001599 0.000674 0.003593 0.010403 0.004842 0.035586
#
#
# Mechanical properties :
#
#
# Convention : Reuss Voigt Hill
#
# Bulk Modulus (GPa) = 29.18384 53.17173 41.17779
# Shear Modulus (GPa) = 28.88095 40.09493 34.48794
#
# Velocity S-wave (km/s) = 3.58618 4.22543 3.91886
# Velocity P-wave (km/s) = 5.49027 6.89079 6.23001
#
# Compressibility (1/GPa) = 0.03426554
#
# Stress axis : x y z
#
# Youngs Moduli (GPa) = 34.28663 54.86714 138.44339
#
# Poissons Ratio (x) = 0.26724 0.44001
# Poissons Ratio (y) = 0.16700 0.29429
# Poissons Ratio (z) = 0.10897 0.11663
#
# Static dielectric constant tensor:
#      x y z
#    x 1.864140 -0.051740 0.049900 
#    y -0.051740 1.876760 0.008620 
#    z 0.049900 0.008620 1.789230 
# 
# From -- ./inp_files/380364.got.cif
#   From: 2010.05.17/outbox.cif.g08.bks.cpg/sg2_191_cif.got.tgz:380364.got - 2010.06.03 11:33:40.
