data_PCOD9049653
_publ_section_title
;
Structure prediction by ZEFSAII (Michael W. Deem and Ramdas Pophale) SiO2 
 PCOD9049653
Probable space group: P -1
;
_chemical_formula_sum "Si O2"
_cell_formula_units_Z 16
_cell_length_a 15.134539
_cell_length_b 8.135305
_cell_length_c 12.984916
_cell_angle_alpha 101.176449
_cell_angle_beta 151.956566
_cell_angle_gamma 88.605625
_cell_volume 699.070584
_symmetry_space_group_name_H-M "P -1"
_symmetry_group_IT_number 2
_symmetry_cell_setting 'triclinic'
loop_
_space_group_symop_operation_xyz
x,y,z
-x,-y,-z
loop_
_atom_site_type_symbol
_atom_site_label
_atom_site_fract_x
_atom_site_fract_y
_atom_site_fract_z
Si Si1 0.280977 0.064871 0.863801
Si Si2 0.943328 0.897862 0.168828
Si Si3 0.866228 0.205639 0.997164
Si Si4 0.968548 0.498943 0.642075
Si Si5 0.407325 0.753057 0.448330
Si Si6 0.099789 0.281557 0.579897
Si Si7 0.671634 0.147410 0.393266
Si Si8 0.195686 0.342645 0.184865
O O1 0.260865 0.187479 0.763804
O O2 0.197420 0.150634 0.884108
O O3 0.495397 0.066289 0.121267
O O4 0.116038 0.872678 0.659292
O O5 0.169810 0.956654 0.445132
O O6 0.882069 0.045834 0.062936
O O7 0.916647 0.734845 0.045178
O O8 0.885723 0.371478 0.111181
O O9 0.056676 0.258870 0.126008
O O10 0.679678 0.160668 0.723411
O O11 0.873484 0.619624 0.489312
O O12 0.801293 0.340603 0.507011
O O13 0.084874 0.417252 0.669919
O O14 0.410127 0.837742 0.574197
O O15 0.256430 0.552543 0.276739
O O16 0.612399 0.722006 0.626705
#
# Coordination Sequence:
#
# PCOD9049653 Si02
#       8
#     2   2   2   2   2   2   2   2
#     4  11  24  46  71  95 132 172 218 279 331 387
#     4  12  24  42  64  97 135 177 214 271 328 388
#     4  12  24  41  65  95 139 175 213 269 322 388
#     4  11  23  44  71  97 130 174 220 275 329 384
#     4  11  24  39  66  99 131 176 216 260 323 402
#     4  10  24  47  70  95 130 172 222 280 332 377
#     4  12  24  42  71  98 131 176 220 262 334 397
#     4  11  23  40  64  95 135 173 217 259 325 393
#
# _framework density 22.887532
#
# number of rings (size 3 to 8) (size 9 to 14) (size 15 to 20)
#    0.000    0.750    6.250    1.500    0.000    2.500 
#    0.000    1.250    0.000    0.000    0.000    0.000 
#    0.000    0.000    0.000    0.000    0.000    0.000 
#
# Total GULP energy -89595.578193 kJ/mol
# GULP energy per Si atom -5599.723637 kJ/mol
# Density = 2.283544 g / cm^3
# Si number density = 22.887532 Si / 1000 Ang^3
#
#
#
# Elastic Constant Matrix: (Units=GPa)
#
#
# Indices 1 2 3 4 5 6 
#
# 1 67.8821 11.7423 24.1766 -8.5077 -22.9165 6.0361
# 2 11.7423 94.8796 46.1341 -29.2241 -15.6334 16.0808
# 3 24.1766 46.1341 152.1280 -26.2142 -9.4059 0.4879
# 4 -8.5077 -29.2241 -26.2142 50.3155 -7.1450 -11.4306
# 5 -22.9165 -15.6334 -9.4059 -7.1450 38.0152 -0.8045
# 6 6.0361 16.0808 0.4879 -11.4306 -0.8045 21.1814
#
#
#
# Elastic Compliance Matrix: (Units=1/GPa)
#
#
# Indices 1 2 3 4 5 6 
#
# 1 0.020978 0.003473 -0.002624 0.005016 0.014256 -0.005306
# 2 0.003473 0.017722 -0.003911 0.008031 0.009719 -0.009651
# 3 -0.002624 -0.003911 0.008630 0.002870 -0.000409 0.005052
# 4 0.005016 0.008031 0.002870 0.030913 0.013050 0.009586
# 5 0.014256 0.009719 -0.000409 0.013050 0.041188 -0.002825
# 6 -0.005306 -0.009651 0.005052 0.009586 -0.002825 0.061000
#
#
# Mechanical properties :
#
#
# Convention : Reuss Voigt Hill
#
# Bulk Modulus (GPa) = 24.26814 53.22174 38.74494
# Shear Modulus (GPa) = 24.96376 37.42487 31.19431
#
# Velocity S-wave (km/s) = 3.30618 4.04810 3.69581
# Velocity P-wave (km/s) = 5.02003 6.71964 5.93103
#
# Compressibility (1/GPa) = 0.04120629
#
# Stress axis : x y z
#
# Youngs Moduli (GPa) = 47.66790 56.42660 115.88070
#
# Poissons Ratio (x) = -0.19597 0.30412
# Poissons Ratio (y) = -0.16555 0.45316
# Poissons Ratio (z) = 0.12510 0.22066
#
# Static dielectric constant tensor:
#      x y z
#    x 1.830770 -0.003500 -0.026700 
#    y -0.003500 1.861240 -0.004220 
#    z -0.026700 -0.004220 1.883930 
# 
# From -- ./inp_files/447709.got.cif
#   From: 2010.05.17/outbox.cif.g08.bks.cpg/sg2_224_cif.got.tgz:447709.got - 2010.06.03 11:33:40.
