data_PCOD9049353
_publ_section_title
;
Structure prediction by ZEFSAII (Michael W. Deem and Ramdas Pophale) SiO2 
 PCOD9049353
Probable space group: P -1
;
_chemical_formula_sum "Si O2"
_cell_formula_units_Z 13
_cell_length_a 11.593631
_cell_length_b 6.215222
_cell_length_c 11.737959
_cell_angle_alpha 112.161635
_cell_angle_beta 50.707439
_cell_angle_gamma 122.662179
_cell_volume 550.257514
_symmetry_space_group_name_H-M "P -1"
_symmetry_group_IT_number 2
_symmetry_cell_setting 'triclinic'
loop_
_space_group_symop_operation_xyz
x,y,z
-x,-y,-z
loop_
_atom_site_type_symbol
_atom_site_label
_atom_site_fract_x
_atom_site_fract_y
_atom_site_fract_z
Si Si1 0.030295 0.463577 0.782524
Si Si2 0.687714 0.706461 0.419815
Si Si3 0.579285 0.049399 0.702101
Si Si4 0.250118 0.040560 0.811668
Si Si5 0.191363 0.051679 0.096583
Si Si6 0.127333 0.472410 0.328515
Si Si7 0.500000 0.000000 0.000000
O O1 0.184772 0.403350 0.639898
O O2 0.107147 0.759255 0.826389
O O3 0.904809 0.417718 0.748320
O O4 0.924006 0.250503 0.897007
O O5 0.500000 0.500000 0.500000
O O6 0.688537 0.937330 0.542114
O O7 0.731925 0.796171 0.279653
O O8 0.689252 0.350429 0.711674
O O9 0.417412 0.006641 0.723791
O O10 0.534793 0.929947 0.831565
O O11 0.219314 0.158034 0.971762
O O12 0.108080 0.189871 0.255573
O O13 0.363477 0.090519 0.050452
O O14 0.000000 0.500000 0.500000
#
# Coordination Sequence:
#
# PCOD9049353 Si02
#       7
#     2   2   2   2   2   2   1
#     4  12  25  48  73 109 147 194 248 300 367 437
#     4  12  27  45  77 107 148 198 243 305 364 438
#     4  11  24  47  72 107 146 187 248 302 367 432
#     4  11  26  47  74 107 145 190 251 304 362 433
#     4  11  26  48  76 108 150 194 244 304 370 432
#     4  12  28  45  74 108 151 192 245 304 366 441
#     4  10  24  46  72 110 144 192 244 298 366 434
#
# _framework density 23.625301
#
# number of rings (size 3 to 8) (size 9 to 14) (size 15 to 20)
#    0.000    0.615    3.077    3.692    4.308    8.615 
#    0.000    0.000    0.000    0.000    0.000    0.000 
#    0.000    0.000    0.000    0.000    0.000    0.000 
#
# Total GULP energy -72544.068475 kJ/mol
# GULP energy per Si atom -5580.312960 kJ/mol
# Density = 2.357153 g / cm^3
# Si number density = 23.625301 Si / 1000 Ang^3
#
#
#
# Elastic Constant Matrix: (Units=GPa)
#
#
# Indices 1 2 3 4 5 6 
#
# 1 81.5031 14.5846 23.9575 10.7788 -2.6749 -4.4591
# 2 14.5846 74.9572 11.7033 -3.9315 8.4571 6.3224
# 3 23.9575 11.7033 106.0257 10.4854 5.9725 -14.7514
# 4 10.7788 -3.9315 10.4854 29.5124 -10.3968 -0.8460
# 5 -2.6749 8.4571 5.9725 -10.3968 35.4266 3.1453
# 6 -4.4591 6.3224 -14.7514 -0.8460 3.1453 22.7829
#
#
#
# Elastic Compliance Matrix: (Units=1/GPa)
#
#
# Indices 1 2 3 4 5 6 
#
# 1 0.014151 -0.002875 -0.002211 -0.004485 0.000644 0.001880
# 2 -0.002875 0.015070 -0.001952 0.002830 -0.002157 -0.005606
# 3 -0.002211 -0.001952 0.011988 -0.004840 -0.003873 0.008226
# 4 -0.004485 0.002830 -0.004840 0.041893 0.012538 -0.004972
# 5 0.000644 -0.002157 -0.003873 0.012538 0.033653 -0.005963
# 6 0.001880 -0.005606 0.008226 -0.004972 -0.005963 0.051781
#
#
# Mechanical properties :
#
#
# Convention : Reuss Voigt Hill
#
# Bulk Modulus (GPa) = 36.85642 40.33076 38.59359
# Shear Modulus (GPa) = 26.08840 31.69376 28.89108
#
# Velocity S-wave (km/s) = 3.32664 3.66665 3.50077
# Velocity P-wave (km/s) = 5.51268 5.91894 5.71942
#
# Compressibility (1/GPa) = 0.02713232
#
# Stress axis : x y z
#
# Youngs Moduli (GPa) = 70.66622 66.35828 83.41569
#
# Poissons Ratio (x) = 0.19075 0.18447
# Poissons Ratio (y) = 0.20314 0.16284
# Poissons Ratio (z) = 0.15628 0.12954
#
# Static dielectric constant tensor:
#      x y z
#    x 1.849000 -0.004230 0.004450 
#    y -0.004230 1.934400 -0.040550 
#    z 0.004450 -0.040550 1.910560 
# 
# From -- ./inp_files/61839.got.cif
#   From: 2010.05.17/outbox.cif.g08.bks.cpg/sg2_31_cif.got.tgz:61839.got - 2010.06.03 11:33:40.
