data_PCOD9049539
_publ_section_title
;
Structure prediction by ZEFSAII (Michael W. Deem and Ramdas Pophale) SiO2 
 PCOD9049539
Probable space group: P -1
;
_chemical_formula_sum "Si O2"
_cell_formula_units_Z 16
_cell_length_a 9.222547
_cell_length_b 9.467636
_cell_length_c 11.633537
_cell_angle_alpha 39.010074
_cell_angle_beta 64.271681
_cell_angle_gamma 63.136005
_cell_volume 564.131204
_symmetry_space_group_name_H-M "P -1"
_symmetry_group_IT_number 2
_symmetry_cell_setting 'triclinic'
loop_
_space_group_symop_operation_xyz
x,y,z
-x,-y,-z
loop_
_atom_site_type_symbol
_atom_site_label
_atom_site_fract_x
_atom_site_fract_y
_atom_site_fract_z
Si Si1 0.333324 0.515389 0.477118
Si Si2 0.196618 0.848495 0.952173
Si Si3 0.668563 0.518291 0.023467
Si Si4 0.471658 0.782016 0.574524
Si Si5 0.686810 0.011573 0.947859
Si Si6 0.812175 0.888605 0.633400
Si Si7 0.987462 0.507382 0.639179
Si Si8 0.996237 0.808027 0.847989
O O1 0.500000 0.500000 0.500000
O O2 0.622666 0.694441 0.494561
O O3 0.293692 0.753260 0.270303
O O4 0.174580 0.503387 0.612677
O O5 0.919366 0.292309 0.848565
O O6 0.340052 0.657573 0.967224
O O7 0.089307 0.955613 0.811044
O O8 0.272834 0.984816 0.934153
O O9 0.555385 0.443748 0.205996
O O10 0.863019 0.420555 0.052886
O O11 0.674288 0.767017 0.819446
O O12 0.500000 0.000000 0.500000
O O13 0.296641 0.872006 0.517611
O O14 0.822772 0.817656 0.964037
O O15 0.500000 0.000000 0.000000
O O16 0.947455 0.893229 0.682778
O O17 0.878426 0.722438 0.608978
O O18 0.000000 0.500000 0.500000
#
# Coordination Sequence:
#
# PCOD9049539 Si02
#       8
#     2   2   2   2   2   2   2   2
#     4  12  30  47  73 118 165 206 257 341 407 470
#     4   9  23  46  76 111 146 208 267 328 390 468
#     4   9  25  45  79 108 153 199 271 324 391 471
#     4  12  29  49  75 117 164 210 263 328 407 481
#     4  12  27  46  73 112 163 209 257 324 414 481
#     4  11  25  48  82 115 151 208 272 330 392 478
#     4  11  23  47  83 107 155 206 270 324 398 474
#     4  10  24  46  77 115 143 207 272 327 386 471
#
# _framework density 28.362197999999999
#
# number of rings (size 3 to 8) (size 9 to 14) (size 15 to 20)
#    0.750    0.500    1.250    2.250    8.750    4.000 
#    0.000    0.000    0.000    0.000    0.000    0.000 
#    0.000    0.000    0.000    0.000    0.000    0.000 
#
# Total GULP energy -89748.366832 kJ/mol
# GULP energy per Si atom -5609.272927 kJ/mol
# Density = 2.829764 g / cm^3
# Si number density = 28.362198 Si / 1000 Ang^3
#
#
#
# Elastic Constant Matrix: (Units=GPa)
#
#
# Indices 1 2 3 4 5 6 
#
# 1 161.1061 37.9354 38.0592 15.4143 7.1650 9.6072
# 2 37.9354 152.9861 27.4111 15.0548 9.7157 3.4165
# 3 38.0592 27.4111 148.6911 16.4070 10.9872 5.1191
# 4 15.4143 15.0548 16.4070 45.2114 2.9179 4.9846
# 5 7.1650 9.7157 10.9872 2.9179 59.2563 12.9338
# 6 9.6072 3.4165 5.1191 4.9846 12.9338 55.8293
#
#
#
# Elastic Compliance Matrix: (Units=1/GPa)
#
#
# Indices 1 2 3 4 5 6 
#
# 1 0.007031 -0.001339 -0.001365 -0.001354 -0.000125 -0.000853
# 2 -0.001339 0.007214 -0.000751 -0.001641 -0.000845 0.000200
# 3 -0.001365 -0.000751 0.007502 -0.001942 -0.001007 0.000000
# 4 -0.001354 -0.001641 -0.001942 0.024012 -0.000035 -0.001624
# 5 -0.000125 -0.000845 -0.001007 -0.000035 0.018096 -0.004024
# 6 -0.000853 0.000200 0.000000 -0.001624 -0.004024 0.019123
#
#
# Mechanical properties :
#
#
# Convention : Reuss Voigt Hill
#
# Bulk Modulus (GPa) = 67.39489 74.39942 70.89715
# Shear Modulus (GPa) = 52.72475 56.01793 54.37134
#
# Velocity S-wave (km/s) = 4.31627 4.44902 4.38315
# Velocity P-wave (km/s) = 6.97524 7.25814 7.11810
#
# Compressibility (1/GPa) = 0.01483792
#
# Stress axis : x y z
#
# Youngs Moduli (GPa) = 142.23395 138.62705 133.30141
#
# Poissons Ratio (x) = 0.18557 0.18193
# Poissons Ratio (y) = 0.19040 0.10006
# Poissons Ratio (z) = 0.19413 0.10406
#
# Static dielectric constant tensor:
#      x y z
#    x 2.247380 0.064160 0.010060 
#    y 0.064160 2.264730 -0.018470 
#    z 0.010060 -0.018470 2.198960 
# 
# From -- ./inp_files/380994.got.cif
#   From: 2010.05.17/outbox.cif.g08.bks.cpg/sg2_191_cif.got.tgz:380994.got - 2010.06.03 11:33:40.
