data_PCOD9049119
_publ_section_title
;
Structure prediction by ZEFSAII (Michael W. Deem and Ramdas Pophale) SiO2 
 PCOD9049119
Probable space group: P -1
;
_chemical_formula_sum "Si O2"
_cell_formula_units_Z 15
_cell_length_a 17.101638
_cell_length_b 9.373864
_cell_length_c 9.120022
_cell_angle_alpha 99.784151
_cell_angle_beta 40.271609
_cell_angle_gamma 127.612457
_cell_volume 611.167891
_symmetry_space_group_name_H-M "P -1"
_symmetry_group_IT_number 2
_symmetry_cell_setting 'triclinic'
loop_
_space_group_symop_operation_xyz
x,y,z
-x,-y,-z
loop_
_atom_site_type_symbol
_atom_site_label
_atom_site_fract_x
_atom_site_fract_y
_atom_site_fract_z
Si Si1 0.500000 0.500000 0.000000
Si Si2 0.384896 0.201805 0.601084
Si Si3 0.320393 0.415010 0.923286
Si Si4 0.923615 0.055109 0.515915
Si Si5 0.205185 0.725292 0.806785
Si Si6 0.711110 0.430585 0.550972
Si Si7 0.833462 0.824280 0.319791
Si Si8 0.956997 0.366197 0.679519
O O1 0.609692 0.535756 0.000851
O O2 0.453325 0.615821 0.168123
O O3 0.334776 0.263117 0.815074
O O4 0.597307 0.400520 0.285809
O O5 0.326548 0.247991 0.554160
O O6 0.280716 0.956256 0.711143
O O7 0.105350 0.265041 0.204577
O O8 0.863941 0.135792 0.710614
O O9 0.000000 0.000000 0.500000
O O10 0.799049 0.864566 0.538800
O O11 0.335984 0.737539 0.527097
O O12 0.174746 0.686346 0.017329
O O13 0.000000 0.500000 0.000000
O O14 0.833610 0.656671 0.324471
O O15 0.847811 0.495675 0.494384
O O16 0.000000 0.000000 0.000000
O O17 0.000000 0.500000 0.500000
#
# Coordination Sequence:
#
# PCOD9049119 Si02
#       8
#     1   2   2   2   2   2   2   2
#     4  12  22  48  72 104 144 194 244 304 354 436
#     4  11  24  45  70 107 144 200 240 300 368 445
#     4  11  24  43  73 103 151 186 251 296 364 439
#     4  12  23  41  70 107 140 183 246 311 356 423
#     4  10  24  46  69 102 148 187 240 298 371 439
#     4  11  24  44  70 102 142 190 237 298 363 435
#     4  12  22  38  72 104 137 186 250 301 356 427
#     4  11  24  41  68 106 144 179 236 307 369 426
#
# _framework density 24.543175000000002
#
# number of rings (size 3 to 8) (size 9 to 14) (size 15 to 20)
#    0.000    0.800    5.333    2.400    5.600    0.000 
#    0.000    1.333    5.867    0.000    0.000    0.000 
#    0.000    0.000    0.000    0.000    0.000    0.000 
#
# Total GULP energy -83535.480997 kJ/mol
# GULP energy per Si atom -5569.032066 kJ/mol
# Density = 2.448731 g / cm^3
# Si number density = 24.543175 Si / 1000 Ang^3
#
#
#
# Elastic Constant Matrix: (Units=GPa)
#
#
# Indices 1 2 3 4 5 6 
#
# 1 110.1811 40.2904 8.1595 21.2642 34.5451 -8.1832
# 2 40.2904 177.8411 51.4965 34.2255 22.1126 -7.7291
# 3 8.1595 51.4965 93.8873 32.4171 13.6340 -15.4674
# 4 21.2642 34.2255 32.4171 60.3573 1.0845 13.8224
# 5 34.5451 22.1126 13.6340 1.0845 43.8139 4.9661
# 6 -8.1832 -7.7291 -15.4674 13.8224 4.9661 36.5761
#
#
#
# Elastic Compliance Matrix: (Units=1/GPa)
#
#
# Indices 1 2 3 4 5 6 
#
# 1 0.018254 -0.001184 0.008911 -0.013709 -0.017954 0.015220
# 2 -0.001184 0.007494 -0.002410 -0.002885 -0.002219 0.001691
# 3 0.008911 -0.002410 0.023103 -0.018559 -0.014838 0.020282
# 4 -0.013709 -0.002885 -0.018559 0.039310 0.020370 -0.029146
# 5 -0.017954 -0.002219 -0.014838 0.020370 0.044997 -0.024568
# 6 0.015220 0.001691 0.020282 -0.029146 -0.024568 0.054030
#
#
# Mechanical properties :
#
#
# Convention : Reuss Voigt Hill
#
# Bulk Modulus (GPa) = 16.81135 64.64470 40.72803
# Shear Modulus (GPa) = 25.46058 46.94700 36.20379
#
# Velocity S-wave (km/s) = 3.22433 4.37834 3.84488
# Velocity P-wave (km/s) = 4.55262 7.20806 6.02837
#
# Compressibility (1/GPa) = 0.05948361
#
# Stress axis : x y z
#
# Youngs Moduli (GPa) = 54.78255 133.44414 43.28497
#
# Poissons Ratio (x) = 0.15795 -0.38570
# Poissons Ratio (y) = 0.06484 0.10434
# Poissons Ratio (z) = -0.48815 0.32166
#
# Static dielectric constant tensor:
#      x y z
#    x 1.837270 0.051000 0.061540 
#    y 0.051000 2.119190 -0.263380 
#    z 0.061540 -0.263380 2.321920 
# 
# From -- ./inp_files/177746.got.cif
#   From: 2010.05.17/outbox.cif.g08.bks.cpg/sg2_89_cif.got.tgz:177746.got - 2010.06.03 11:33:40.
