data_PCOD9049545
_publ_section_title
;
Structure prediction by ZEFSAII (Michael W. Deem and Ramdas Pophale) SiO2 
 PCOD9049545
Probable space group: P -1
;
_chemical_formula_sum "Si O2"
_cell_formula_units_Z 13
_cell_length_a 6.803283
_cell_length_b 14.078215
_cell_length_c 8.703112
_cell_angle_alpha 120.654235
_cell_angle_beta 122.073072
_cell_angle_gamma 92.000335
_cell_volume 551.647181
_symmetry_space_group_name_H-M "P -1"
_symmetry_group_IT_number 2
_symmetry_cell_setting 'triclinic'
loop_
_space_group_symop_operation_xyz
x,y,z
-x,-y,-z
loop_
_atom_site_type_symbol
_atom_site_label
_atom_site_fract_x
_atom_site_fract_y
_atom_site_fract_z
Si Si1 0.950319 0.119383 0.056161
Si Si2 0.644122 0.026198 0.302918
Si Si3 0.500000 0.500000 0.500000
Si Si4 0.019077 0.492039 0.819678
Si Si5 0.156447 0.747269 0.632825
Si Si6 0.085608 0.146014 0.804766
Si Si7 0.554777 0.366114 0.115566
O O1 0.089688 0.185943 0.015070
O O2 0.644643 0.066865 0.865451
O O3 0.024426 0.209209 0.305488
O O4 0.000000 0.000000 0.000000
O O5 0.655634 0.131266 0.277827
O O6 0.801972 0.090685 0.573204
O O7 0.806763 0.957073 0.244308
O O8 0.791320 0.517013 0.670558
O O9 0.531993 0.465533 0.301233
O O10 0.969804 0.357979 0.629123
O O11 0.284582 0.581435 0.926952
O O12 0.000000 0.500000 0.000000
O O13 0.301819 0.697901 0.773203
O O14 0.277295 0.259313 0.881692
#
# Coordination Sequence:
#
# PCOD9049545 Si02
#       7
#     2   2   1   2   2   2   2
#     4  12  23  42  73 102 145 195 237 297 371 440
#     4  11  24  46  65 110 147 186 248 298 362 455
#     4  10  24  46  78 104 142 192 244 302 382 428
#     4  11  28  52  74 109 149 194 255 315 367 447
#     4  11  23  46  72 104 145 186 252 298 364 448
#     4  11  25  43  72 105 148 191 237 307 371 439
#     4  11  25  47  74 105 146 193 243 311 367 445
#
# _framework density 23.565785999999999
#
# number of rings (size 3 to 8) (size 9 to 14) (size 15 to 20)
#    0.000    0.923    3.077    3.692    6.462    0.615 
#    8.308    0.000    0.000    0.000    0.000    0.000 
#    0.000    0.000    0.000    0.000    0.000    0.000 
#
# Total GULP energy -72535.688038 kJ/mol
# GULP energy per Si atom -5579.668311 kJ/mol
# Density = 2.351215 g / cm^3
# Si number density = 23.565786 Si / 1000 Ang^3
#
#
#
# Elastic Constant Matrix: (Units=GPa)
#
#
# Indices 1 2 3 4 5 6 
#
# 1 125.2654 45.5182 42.6871 7.0864 -20.6673 18.7314
# 2 45.5182 75.3049 34.4737 7.5990 0.7998 21.7948
# 3 42.6871 34.4737 110.2431 9.0737 -22.7761 8.2741
# 4 7.0864 7.5990 9.0737 24.1230 -0.5156 6.0183
# 5 -20.6673 0.7998 -22.7761 -0.5156 47.8757 -3.9741
# 6 18.7314 21.7948 8.2741 6.0183 -3.9741 43.7208
#
#
#
# Elastic Compliance Matrix: (Units=1/GPa)
#
#
# Indices 1 2 3 4 5 6 
#
# 1 0.011594 -0.005880 -0.001642 -0.000529 0.004211 -0.001270
# 2 -0.005880 0.021526 -0.004990 -0.001404 -0.005919 -0.007612
# 3 -0.001642 -0.004990 0.012504 -0.002964 0.005435 0.001727
# 4 -0.000529 -0.001404 -0.002964 0.044320 -0.001532 -0.004753
# 5 0.004211 -0.005919 0.005435 -0.001532 0.025594 0.002655
# 6 -0.001270 -0.007612 0.001727 -0.004753 0.002655 0.027780
#
#
# Mechanical properties :
#
#
# Convention : Reuss Voigt Hill
#
# Bulk Modulus (GPa) = 48.54552 61.79683 55.17118
# Shear Modulus (GPa) = 28.53765 35.68620 32.11193
#
# Velocity S-wave (km/s) = 3.48369 3.89565 3.69541
# Velocity P-wave (km/s) = 6.06846 6.82018 6.45527
#
# Compressibility (1/GPa) = 0.02059922
#
# Stress axis : x y z
#
# Youngs Moduli (GPa) = 86.25344 46.45604 79.97328
#
# Poissons Ratio (x) = 0.27317 0.13128
# Poissons Ratio (y) = 0.50719 0.39910
# Poissons Ratio (z) = 0.14159 0.23183
#
# Static dielectric constant tensor:
#      x y z
#    x 1.871960 -0.024220 -0.023070 
#    y -0.024220 1.926120 0.013380 
#    z -0.023070 0.013380 1.925890 
# 
# From -- ./inp_files/88696.got.cif
#   From: 2010.05.17/outbox.cif.g08.bks.cpg/sg2_45_cif.got.tgz:88696.got - 2010.06.03 11:33:40.
