data_PCOD9049642
_publ_section_title
;
Structure prediction by ZEFSAII (Michael W. Deem and Ramdas Pophale) SiO2 
 PCOD9049642
Probable space group: P -1
;
_chemical_formula_sum "Si O2"
_cell_formula_units_Z 15
_cell_length_a 17.118785
_cell_length_b 8.864697
_cell_length_c 11.885039
_cell_angle_alpha 146.841417
_cell_angle_beta 38.282351
_cell_angle_gamma 124.021768
_cell_volume 585.247438
_symmetry_space_group_name_H-M "P -1"
_symmetry_group_IT_number 2
_symmetry_cell_setting 'triclinic'
loop_
_space_group_symop_operation_xyz
x,y,z
-x,-y,-z
loop_
_atom_site_type_symbol
_atom_site_label
_atom_site_fract_x
_atom_site_fract_y
_atom_site_fract_z
Si Si1 0.102484 0.541375 0.206135
Si Si2 0.000000 0.000000 0.000000
Si Si3 0.332304 0.144966 0.132228
Si Si4 0.464286 0.632579 0.334800
Si Si5 0.691431 0.776220 0.046928
Si Si6 0.347313 0.510556 0.756369
Si Si7 0.207769 0.323860 0.619639
Si Si8 0.007890 0.946688 0.214574
O O1 0.041226 0.284764 0.089717
O O2 0.993286 0.827465 0.544168
O O3 0.199328 0.447468 0.145062
O O4 0.201724 0.577013 0.018740
O O5 0.009974 0.083490 0.175363
O O6 0.432216 0.335316 0.163189
O O7 0.239568 0.217368 0.391083
O O8 0.278080 0.240057 0.128728
O O9 0.376383 0.800292 0.864060
O O10 0.552733 0.706918 0.182494
O O11 0.550781 0.619340 0.341053
O O12 0.334276 0.902247 0.669723
O O13 0.336446 0.309636 0.538790
O O14 0.123024 0.146990 0.667599
O O15 0.127141 0.658603 0.911726
#
# Coordination Sequence:
#
# PCOD9049642 Si02
#       8
#     2   1   2   2   2   2   2   2
#     4  11  25  48  70 104 138 186 235 287 352 417
#     4  12  26  44  74 100 140 184 234 290 338 426
#     4  12  24  42  73 104 136 189 231 290 350 422
#     4  10  24  47  70 105 140 182 234 292 350 417
#     4  10  25  46  72 103 144 180 232 291 350 421
#     4  11  24  46  71  99 143 181 233 293 350 419
#     4  11  26  46  70 104 143 184 231 294 352 409
#     4  11  26  47  69 103 139 187 238 284 353 415
#
# _framework density 25.630185000000001
#
# number of rings (size 3 to 8) (size 9 to 14) (size 15 to 20)
#    0.000    1.067    2.667    2.000    5.600    4.800 
#    2.400    0.000    0.000    0.000    0.000    0.000 
#    0.000    0.000    0.000    0.000    0.000    0.000 
#
# Total GULP energy -83877.421354 kJ/mol
# GULP energy per Si atom -5591.828090 kJ/mol
# Density = 2.557185 g / cm^3
# Si number density = 25.630185 Si / 1000 Ang^3
#
#
#
# Elastic Constant Matrix: (Units=GPa)
#
#
# Indices 1 2 3 4 5 6 
#
# 1 76.7606 21.1769 7.5000 -12.9055 13.7145 -26.0315
# 2 21.1769 169.4439 25.2558 -7.8130 10.9645 4.3397
# 3 7.5000 25.2558 46.1565 -11.1421 10.4131 1.8358
# 4 -12.9055 -7.8130 -11.1421 45.0382 -8.3196 19.3063
# 5 13.7145 10.9645 10.4131 -8.3196 24.6147 -6.8156
# 6 -26.0315 4.3397 1.8358 19.3063 -6.8156 52.2159
#
#
#
# Elastic Compliance Matrix: (Units=1/GPa)
#
#
# Indices 1 2 3 4 5 6 
#
# 1 0.017489 -0.001878 -0.000732 -0.000161 -0.006403 0.008125
# 2 -0.001878 0.006706 -0.002968 0.000424 -0.001006 -0.001677
# 3 -0.000732 -0.002968 0.027112 0.006297 -0.008873 -0.004558
# 4 -0.000161 0.000424 0.006297 0.029075 0.004144 -0.010546
# 5 -0.006403 -0.001006 -0.008873 0.004144 0.050420 0.002252
# 6 0.008125 -0.001677 -0.004558 -0.010546 0.002252 0.027695
#
#
# Mechanical properties :
#
#
# Convention : Reuss Voigt Hill
#
# Bulk Modulus (GPa) = 24.90552 44.46960 34.68756
# Shear Modulus (GPa) = 27.31690 40.26896 33.79293
#
# Velocity S-wave (km/s) = 3.26822 3.96808 3.63503
# Velocity P-wave (km/s) = 4.89694 6.19535 5.58401
#
# Compressibility (1/GPa) = 0.04015175
#
# Stress axis : x y z
#
# Youngs Moduli (GPa) = 57.17778 149.11066 36.88433
#
# Poissons Ratio (x) = 0.28001 0.02699
# Poissons Ratio (y) = 0.10737 0.10948
# Poissons Ratio (z) = 0.04184 0.44261
#
# Static dielectric constant tensor:
#      x y z
#    x 1.983380 0.038550 -0.006180 
#    y 0.038550 1.961340 -0.012680 
#    z -0.006180 -0.012680 1.990460 
# 
# From -- ./inp_files/60923.got.cif
#   From: 2010.05.17/outbox.cif.g08.bks.cpg/sg2_31_cif.got.tgz:60923.got - 2010.06.03 11:33:40.
