data_PCOD9049442
_publ_section_title
;
Structure prediction by ZEFSAII (Michael W. Deem and Ramdas Pophale) SiO2 
 PCOD9049442
Probable space group: P -1
;
_chemical_formula_sum "Si O2"
_cell_formula_units_Z 12
_cell_length_a 8.042365
_cell_length_b 13.626556
_cell_length_c 13.706214
_cell_angle_alpha 20.471649
_cell_angle_beta 89.348355
_cell_angle_gamma 100.533765
_cell_volume 437.598396
_symmetry_space_group_name_H-M "P -1"
_symmetry_group_IT_number 2
_symmetry_cell_setting 'triclinic'
loop_
_space_group_symop_operation_xyz
x,y,z
-x,-y,-z
loop_
_atom_site_type_symbol
_atom_site_label
_atom_site_fract_x
_atom_site_fract_y
_atom_site_fract_z
Si Si1 0.576491 0.377778 0.245184
Si Si2 0.809063 0.626956 0.825367
Si Si3 0.672677 0.506935 0.628934
Si Si4 0.768490 0.893803 0.923939
Si Si5 0.853839 0.548789 0.389726
Si Si6 0.266844 0.877366 0.852817
O O1 0.376969 0.360919 0.227135
O O2 0.733734 0.723415 0.978775
O O3 0.476606 0.077707 0.604507
O O4 0.703065 0.387712 0.143629
O O5 0.865809 0.437131 0.924426
O O6 0.000000 0.000000 0.500000
O O7 0.443429 0.357638 0.788690
O O8 0.703963 0.506109 0.515144
O O9 0.782633 0.850526 0.372018
O O10 0.717278 0.261645 0.914132
O O11 0.910522 0.863477 0.028392
O O12 0.794464 0.249813 0.592323
O O13 0.000000 0.500000 0.500000
#
# Coordination Sequence:
#
# PCOD9049442 Si02
#       6
#     2   2   2   2   2   2
#     4  10  24  46  74 105 152 193 243 302 367 442
#     4  11  24  46  75 112 145 191 247 306 368 434
#     4  11  23  43  76 101 139 197 248 287 356 447
#     4  11  22  44  71 100 142 196 239 288 367 431
#     4  12  26  44  67 109 146 186 238 306 361 427
#     4  11  21  45  73 107 144 189 246 300 358 432
#
# _framework density 27.422404
#
# number of rings (size 3 to 8) (size 9 to 14) (size 15 to 20)
#    0.000    1.000    3.333    5.000    0.000    2.000 
#    3.000    0.000    0.000    0.000    0.000    0.000 
#    0.000    0.000    0.000    0.000    0.000    0.000 
#
# Total GULP energy -67141.864685 kJ/mol
# GULP energy per Si atom -5595.155390 kJ/mol
# Density = 2.735999 g / cm^3
# Si number density = 27.422404 Si / 1000 Ang^3
#
#
#
# Elastic Constant Matrix: (Units=GPa)
#
#
# Indices 1 2 3 4 5 6 
#
# 1 61.8039 9.5442 7.0422 11.4450 -1.5416 13.7246
# 2 9.5442 58.7764 19.3245 13.7286 10.7984 2.3556
# 3 7.0422 19.3245 121.4880 -5.8839 18.9382 -5.0114
# 4 11.4450 13.7286 -5.8839 51.5884 -9.7032 -9.9001
# 5 -1.5416 10.7984 18.9382 -9.7032 47.5953 0.5384
# 6 13.7246 2.3556 -5.0114 -9.9001 0.5384 45.6716
#
#
#
# Elastic Compliance Matrix: (Units=1/GPa)
#
#
# Indices 1 2 3 4 5 6 
#
# 1 0.019098 -0.001146 -0.001549 -0.005365 0.000480 -0.007019
# 2 -0.001146 0.020823 -0.002910 -0.007045 -0.005011 -0.002517
# 3 -0.001549 -0.002910 0.009398 0.002086 -0.002728 0.002131
# 4 -0.005365 -0.007045 0.002086 0.025208 0.005648 0.007602
# 5 0.000480 -0.005011 -0.002728 0.005648 0.024392 0.000751
# 6 -0.007019 -0.002517 0.002131 0.007602 0.000751 0.026007
#
#
# Mechanical properties :
#
#
# Convention : Reuss Voigt Hill
#
# Bulk Modulus (GPa) = 26.23947 34.87670 30.55808
# Shear Modulus (GPa) = 33.59339 42.71488 38.15414
#
# Velocity S-wave (km/s) = 3.50385 3.95101 3.73413
# Velocity P-wave (km/s) = 5.09496 5.79309 5.45520
#
# Compressibility (1/GPa) = 0.03811053
#
# Stress axis : x y z
#
# Youngs Moduli (GPa) = 52.36212 48.02297 106.40413
#
# Poissons Ratio (x) = 0.05502 0.16483
# Poissons Ratio (y) = 0.05999 0.30960
# Poissons Ratio (z) = 0.08111 0.13973
#
# Static dielectric constant tensor:
#      x y z
#    x 2.236150 0.086990 0.003870 
#    y 0.086990 2.190930 -0.080260 
#    z 0.003870 -0.080260 2.151450 
# 
# From -- ./inp_files/503517.got.cif
#   From: 2010.05.17/outbox.cif.g08.bks.cpg/sg2_252_cif.got.tgz:503517.got - 2010.06.03 11:33:40.
