data_PCOD9049915
_publ_section_title
;
Structure prediction by ZEFSAII (Michael W. Deem and Ramdas Pophale) SiO2 
 PCOD9049915
Probable space group: P -1
;
_chemical_formula_sum "Si O2"
_cell_formula_units_Z 16
_cell_length_a 14.141606
_cell_length_b 6.178942
_cell_length_c 9.293941
_cell_angle_alpha 86.272695
_cell_angle_beta 76.588057
_cell_angle_gamma 111.795153
_cell_volume 723.148464
_symmetry_space_group_name_H-M "P -1"
_symmetry_group_IT_number 2
_symmetry_cell_setting 'triclinic'
loop_
_space_group_symop_operation_xyz
x,y,z
-x,-y,-z
loop_
_atom_site_type_symbol
_atom_site_label
_atom_site_fract_x
_atom_site_fract_y
_atom_site_fract_z
Si Si1 0.416676 0.230116 0.022612
Si Si2 0.880672 0.303600 0.052458
Si Si3 0.035209 0.980902 0.766383
Si Si4 0.581647 0.375873 0.455811
Si Si5 0.500462 0.012470 0.750574
Si Si6 0.806692 0.505559 0.319242
Si Si7 0.097899 0.741947 0.496321
Si Si8 0.180154 0.018161 0.165283
O O1 0.297211 0.206578 0.086903
O O2 0.437853 0.077032 0.150149
O O3 0.500000 0.500000 0.000000
O O4 0.431663 0.116656 0.870089
O O5 0.896950 0.091871 0.139634
O O6 0.806878 0.391351 0.169320
O O7 0.000000 0.500000 0.000000
O O8 0.836304 0.209333 0.917436
O O9 0.049613 0.871899 0.617178
O O10 0.911865 0.894482 0.848781
O O11 0.086330 0.261377 0.723792
O O12 0.500000 0.500000 0.500000
O O13 0.570648 0.221061 0.609877
O O14 0.703177 0.554233 0.384543
O O15 0.555690 0.203015 0.332831
O O16 0.818682 0.329384 0.441596
O O17 0.000000 0.500000 0.500000
O O18 0.153624 0.916361 0.339281
#
# Coordination Sequence:
#
# PCOD9049915 Si02
#       8
#     2   2   2   2   2   2   2   2
#     4  11  25  46  67  97 136 182 227 280 340 400
#     4  11  23  44  64  99 136 173 219 268 339 401
#     4  11  24  42  65  98 135 169 222 265 331 414
#     4  11  24  44  73  98 130 179 227 284 346 389
#     4  10  24  48  66  96 134 170 236 284 326 408
#     4  11  24  42  70  98 133 173 217 279 332 408
#     4  11  23  44  64  99 136 173 219 268 339 401
#     4  12  23  42  69  98 134 176 218 279 332 405
#
# _framework density 22.125471999999998
#
# number of rings (size 3 to 8) (size 9 to 14) (size 15 to 20)
#    0.000    1.000    2.500    3.750    0.000    8.000 
#    9.000    0.000    0.000    0.000    0.000    0.000 
#    0.000    0.000    0.000    0.000    0.000    0.000 
#
# Total GULP energy -89478.885139 kJ/mol
# GULP energy per Si atom -5592.430321 kJ/mol
# Density = 2.207511 g / cm^3
# Si number density = 22.125472 Si / 1000 Ang^3
#
#
#
# Elastic Constant Matrix: (Units=GPa)
#
#
# Indices 1 2 3 4 5 6 
#
# 1 119.8952 30.1685 33.2266 5.8661 -50.0017 -0.4111
# 2 30.1685 77.9592 36.2531 16.5811 -15.1754 -1.6599
# 3 33.2266 36.2531 125.1701 30.0689 -14.0845 -0.2271
# 4 5.8661 16.5811 30.0689 37.8752 -3.6292 -3.8012
# 5 -50.0017 -15.1754 -14.0845 -3.6292 30.6112 -3.8657
# 6 -0.4111 -1.6599 -0.2271 -3.8012 -3.8657 31.6877
#
#
#
# Elastic Compliance Matrix: (Units=1/GPa)
#
#
# Indices 1 2 3 4 5 6 
#
# 1 0.028207 -0.001395 -0.002800 0.003427 0.045286 0.006209
# 2 -0.001395 0.016436 -0.002918 -0.004184 0.004135 0.000825
# 3 -0.002800 -0.002918 0.011147 -0.007448 -0.001931 -0.001238
# 4 0.003427 -0.004184 -0.007448 0.034523 0.004758 0.004494
# 5 0.045286 0.004135 -0.001931 0.004758 0.110235 0.014809
# 6 0.006209 0.000825 -0.001238 0.004494 0.014809 0.034019
#
#
# Mechanical properties :
#
#
# Convention : Reuss Voigt Hill
#
# Bulk Modulus (GPa) = 24.05914 58.03567 41.04740
# Shear Modulus (GPa) = 19.03676 34.92657 26.98166
#
# Velocity S-wave (km/s) = 2.93644 3.97743 3.49590
# Velocity P-wave (km/s) = 4.73228 6.88335 5.90656
#
# Compressibility (1/GPa) = 0.04156424
#
# Stress axis : x y z
#
# Youngs Moduli (GPa) = 35.45163 60.84021 89.70809
#
# Poissons Ratio (x) = 0.08488 0.25118
# Poissons Ratio (y) = 0.04946 0.26180
# Poissons Ratio (z) = 0.09926 0.17756
#
# Static dielectric constant tensor:
#      x y z
#    x 1.841360 -0.012940 0.014610 
#    y -0.012940 1.821060 0.000540 
#    z 0.014610 0.000540 1.815540 
# 
# From -- ./inp_files/288637.got.cif
#   From: 2010.05.17/outbox.cif.g08.bks.cpg/sg2_145_cif.got.tgz:288637.got - 2010.06.03 11:33:40.
