data_PCOD9049857
_publ_section_title
;
Structure prediction by ZEFSAII (Michael W. Deem and Ramdas Pophale) SiO2 
 PCOD9049857
Probable space group: P -1
;
_chemical_formula_sum "Si O2"
_cell_formula_units_Z 14
_cell_length_a 11.495687
_cell_length_b 7.665222
_cell_length_c 9.559130
_cell_angle_alpha 107.771896
_cell_angle_beta 54.715427
_cell_angle_gamma 118.320923
_cell_volume 604.710390
_symmetry_space_group_name_H-M "P -1"
_symmetry_group_IT_number 2
_symmetry_cell_setting 'triclinic'
loop_
_space_group_symop_operation_xyz
x,y,z
-x,-y,-z
loop_
_atom_site_type_symbol
_atom_site_label
_atom_site_fract_x
_atom_site_fract_y
_atom_site_fract_z
Si Si1 0.894652 0.995882 0.205009
Si Si2 0.944768 0.681295 0.595447
Si Si3 0.071473 0.329807 0.701729
Si Si4 0.385596 0.610854 0.630904
Si Si5 0.262833 0.717374 0.006836
Si Si6 0.595965 0.980034 0.249395
Si Si7 0.386638 0.596015 0.163592
O O1 0.882930 0.809226 0.260435
O O2 0.734002 0.984899 0.252703
O O3 0.972489 0.181100 0.299596
O O4 0.000000 0.000000 0.000000
O O5 0.974282 0.772505 0.442498
O O6 0.762992 0.584755 0.724688
O O7 0.000000 0.500000 0.500000
O O8 0.227702 0.525077 0.630316
O O9 0.921815 0.361584 0.871630
O O10 0.500000 0.500000 0.500000
O O11 0.321674 0.587694 0.829568
O O12 0.463228 0.849187 0.619156
O O13 0.326498 0.929857 0.935087
O O14 0.331851 0.708573 0.107424
O O15 0.471354 0.761894 0.260072
O O16 0.500000 0.500000 0.000000
#
# Coordination Sequence:
#
# PCOD9049857 Si02
#       7
#     2   2   2   2   2   2   2
#     4  12  25  48  78 113 148 199 262 309 382 463
#     4  12  28  47  74 111 156 199 251 318 383 452
#     4  12  25  47  78 113 151 201 254 317 385 454
#     4  10  25  45  75 111 153 199 252 309 388 445
#     4  10  24  47  77 104 157 194 259 306 385 449
#     4  10  25  45  79 110 149 196 255 315 377 451
#     4  12  27  47  78 109 152 200 257 312 386 453
#
# _framework density 23.151579000000002
#
# number of rings (size 3 to 8) (size 9 to 14) (size 15 to 20)
#    0.857    0.000    2.857    3.000    6.000    1.143 
#    2.571    2.143    0.000    0.000    0.000    0.000 
#    0.000    0.000    0.000    0.000    0.000    0.000 
#
# Total GULP energy -78353.910549 kJ/mol
# GULP energy per Si atom -5596.707896 kJ/mol
# Density = 2.309888 g / cm^3
# Si number density = 23.151579 Si / 1000 Ang^3
#
#
#
# Elastic Constant Matrix: (Units=GPa)
#
#
# Indices 1 2 3 4 5 6 
#
# 1 120.1708 44.7505 46.4800 10.9378 -7.8494 1.9424
# 2 44.7505 104.7813 27.1537 27.2539 -6.2877 11.6392
# 3 46.4800 27.1537 120.2276 11.5413 -12.5068 2.5713
# 4 10.9378 27.2539 11.5413 40.5015 -2.1322 10.0966
# 5 -7.8494 -6.2877 -12.5068 -2.1322 62.5224 0.2608
# 6 1.9424 11.6392 2.5713 10.0966 0.2608 45.2512
#
#
#
# Elastic Compliance Matrix: (Units=1/GPa)
#
#
# Indices 1 2 3 4 5 6 
#
# 1 0.011113 -0.004059 -0.003414 0.000562 0.000321 0.000634
# 2 -0.004059 0.013600 -0.000706 -0.007423 0.000471 -0.001630
# 3 -0.003414 -0.000706 0.010084 -0.001415 0.001469 0.000062
# 4 0.000562 -0.007423 -0.001415 0.031189 0.000125 -0.004994
# 5 0.000321 0.000471 0.001469 0.000125 0.016381 -0.000341
# 6 0.000634 -0.001630 0.000062 -0.004994 -0.000341 0.023604
#
#
# Mechanical properties :
#
#
# Convention : Reuss Voigt Hill
#
# Bulk Modulus (GPa) = 54.22968 64.66091 59.44529
# Shear Modulus (GPa) = 38.91817 44.77471 41.84644
#
# Velocity S-wave (km/s) = 4.10447 4.40248 4.25608
# Velocity P-wave (km/s) = 6.77767 7.33706 7.06290
#
# Compressibility (1/GPa) = 0.01844009
#
# Stress axis : x y z
#
# Youngs Moduli (GPa) = 89.98586 73.52811 99.16641
#
# Poissons Ratio (x) = 0.29843 0.33852
# Poissons Ratio (y) = 0.36523 0.07002
# Poissons Ratio (z) = 0.30718 0.05192
#
# Static dielectric constant tensor:
#      x y z
#    x 1.880300 -0.018170 0.136210 
#    y -0.018170 1.913480 -0.077670 
#    z 0.136210 -0.077670 2.133690 
# 
# From -- ./inp_files/244846.got.cif
#   From: 2010.05.17/outbox.cif.g08.bks.cpg/sg2_123_cif.got.tgz:244846.got - 2010.06.03 11:33:40.
