data_PCOD9049947
_publ_section_title
;
Structure prediction by ZEFSAII (Michael W. Deem and Ramdas Pophale) SiO2 
 PCOD9049947
Probable space group: P -1
;
_chemical_formula_sum "Si O2"
_cell_formula_units_Z 13
_cell_length_a 10.470258
_cell_length_b 6.857511
_cell_length_c 9.460336
_cell_angle_alpha 116.172001
_cell_angle_beta 62.737539
_cell_angle_gamma 109.801262
_cell_volume 533.876442
_symmetry_space_group_name_H-M "P -1"
_symmetry_group_IT_number 2
_symmetry_cell_setting 'triclinic'
loop_
_space_group_symop_operation_xyz
x,y,z
-x,-y,-z
loop_
_atom_site_type_symbol
_atom_site_label
_atom_site_fract_x
_atom_site_fract_y
_atom_site_fract_z
Si Si1 0.383604 0.521240 0.904860
Si Si2 0.500000 0.000000 0.000000
Si Si3 0.401233 0.784765 0.412579
Si Si4 0.766899 0.002805 0.673029
Si Si5 0.843912 0.869515 0.085787
Si Si6 0.251433 0.685834 0.740723
Si Si7 0.938652 0.736759 0.300117
O O1 0.498440 0.365741 0.760785
O O2 0.244848 0.364331 0.996456
O O3 0.334320 0.607640 0.805795
O O4 0.447679 0.752386 0.015881
O O5 0.367997 0.086709 0.186396
O O6 0.289208 0.870064 0.390353
O O7 0.322030 0.655904 0.545199
O O8 0.500000 0.000000 0.500000
O O9 0.891756 0.163908 0.747163
O O10 0.853908 0.821399 0.502584
O O11 0.867884 0.826411 0.225611
O O12 0.745845 0.054945 0.162107
O O13 0.000000 0.000000 0.000000
O O14 0.094485 0.528399 0.773433
#
# Coordination Sequence:
#
# PCOD9049947 Si02
#       7
#     2   1   2   2   2   2   2
#     4  11  26  44  69 104 141 182 232 289 356 414
#     4  12  28  46  66 104 152 186 224 294 352 422
#     4  12  21  44  74 102 134 184 238 285 352 422
#     4  11  25  45  69 101 145 187 229 289 356 413
#     4  11  25  44  76 103 133 184 240 292 346 416
#     4  11  22  44  74  99 132 183 235 298 339 413
#     4  10  24  48  70 103 140 183 238 290 351 418
#
# _framework density 24.350203
#
# number of rings (size 3 to 8) (size 9 to 14) (size 15 to 20)
#    0.000    0.923    3.077    3.231    4.308    2.462 
#    2.769    0.000    0.000    0.000    0.000    0.000 
#    0.000    0.000    0.000    0.000    0.000    0.000 
#
# Total GULP energy -72507.250669 kJ/mol
# GULP energy per Si atom -5577.480821 kJ/mol
# Density = 2.429478 g / cm^3
# Si number density = 24.350203 Si / 1000 Ang^3
#
#
#
# Elastic Constant Matrix: (Units=GPa)
#
#
# Indices 1 2 3 4 5 6 
#
# 1 86.1625 38.6571 3.4809 3.7333 -0.2819 -15.1561
# 2 38.6571 176.0677 43.0754 14.1175 -2.7788 15.1418
# 3 3.4809 43.0754 57.8306 -6.5539 -13.7856 11.3014
# 4 3.7333 14.1175 -6.5539 59.0331 1.4083 -0.1395
# 5 -0.2819 -2.7788 -13.7856 1.4083 33.5966 -9.4303
# 6 -15.1561 15.1418 11.3014 -0.1395 -9.4303 31.4924
#
#
#
# Elastic Compliance Matrix: (Units=1/GPa)
#
#
# Indices 1 2 3 4 5 6 
#
# 1 0.015338 -0.004494 0.001217 0.000191 0.003062 0.010024
# 2 -0.004494 0.008802 -0.006340 -0.002459 -0.003240 -0.005101
# 3 0.001217 -0.006340 0.025025 0.004000 0.008833 -0.002683
# 4 0.000191 -0.002459 0.004000 0.017943 0.000726 0.000135
# 5 0.003062 -0.003240 0.008833 0.000726 0.036114 0.010679
# 6 0.010024 -0.005101 -0.002683 0.000135 0.010679 0.043192
#
#
# Mechanical properties :
#
#
# Convention : Reuss Voigt Hill
#
# Bulk Modulus (GPa) = 33.41109 54.49862 43.95486
# Shear Modulus (GPa) = 28.46972 40.48093 34.47532
#
# Velocity S-wave (km/s) = 3.42303 4.08174 3.76681
# Velocity P-wave (km/s) = 5.41975 6.68161 6.08349
#
# Compressibility (1/GPa) = 0.02993018
#
# Stress axis : x y z
#
# Youngs Moduli (GPa) = 65.19694 113.60677 39.96083
#
# Poissons Ratio (x) = 0.51059 -0.04864
# Poissons Ratio (y) = 0.29302 0.25336
# Poissons Ratio (z) = -0.07935 0.72028
#
# Static dielectric constant tensor:
#      x y z
#    x 2.223670 -0.066660 -0.008200 
#    y -0.066660 2.059280 0.026410 
#    z -0.008200 0.026410 1.966320 
# 
# From -- ./inp_files/408808.got.cif
#   From: 2010.05.17/outbox.cif.g08.bks.cpg/sg2_205_cif.got.tgz:408808.got - 2010.06.03 11:33:40.
