data_PCOD9049014
_publ_section_title
;
Structure prediction by ZEFSAII (Michael W. Deem and Ramdas Pophale) SiO2 
 PCOD9049014
Probable space group: P -1
;
_chemical_formula_sum "Si O2"
_cell_formula_units_Z 12
_cell_length_a 11.227220
_cell_length_b 12.880068
_cell_length_c 10.082001
_cell_angle_alpha 44.848229
_cell_angle_beta 39.316748
_cell_angle_gamma 33.861099
_cell_volume 505.474162
_symmetry_space_group_name_H-M "P -1"
_symmetry_group_IT_number 2
_symmetry_cell_setting 'triclinic'
loop_
_space_group_symop_operation_xyz
x,y,z
-x,-y,-z
loop_
_atom_site_type_symbol
_atom_site_label
_atom_site_fract_x
_atom_site_fract_y
_atom_site_fract_z
Si Si1 0.539551 0.868363 0.913017
Si Si2 0.901822 0.947444 0.515238
Si Si3 0.350853 0.449380 0.074759
Si Si4 0.181686 0.175937 0.751412
Si Si5 0.631859 0.157026 0.304568
Si Si6 0.427937 0.622338 0.321466
O O1 0.281842 0.088404 0.246381
O O2 0.498758 0.760097 0.152200
O O3 0.652888 0.719986 0.825558
O O4 0.285297 0.056832 0.907507
O O5 0.774089 0.102426 0.368514
O O6 0.000000 0.000000 0.500000
O O7 0.142372 0.752468 0.426802
O O8 0.553366 0.331786 0.121797
O O9 0.083742 0.627119 0.186242
O O10 0.440152 0.484875 0.831244
O O11 0.380585 0.199482 0.519060
O O12 0.206965 0.033312 0.751336
O O13 0.500000 0.500000 0.500000
#
# Coordination Sequence:
#
# PCOD9049014 Si02
#       6
#     2   2   2   2   2   2
#     4   8  21  43  70 101 139 179 232 293 340 420
#     4  11  24  45  67  98 146 193 231 282 350 420
#     4   9  19  40  72 107 139 178 228 295 359 411
#     4   9  16  37  73 107 137 177 229 288 370 409
#     4   9  19  37  68 107 138 179 232 289 343 431
#     4  10  24  46  66 102 143 180 244 288 348 421
#
# _framework density 23.740088
#
# number of rings (size 3 to 8) (size 9 to 14) (size 15 to 20)
#    1.000    1.667    0.000    1.500    0.000    3.333 
#    9.000    0.833    0.000    0.000    0.000    1.167 
#    0.000    0.000    0.000    0.000    0.000    0.000 
#
# Total GULP energy -67100.063616 kJ/mol
# GULP energy per Si atom -5591.671968 kJ/mol
# Density = 2.368605 g / cm^3
# Si number density = 23.740088 Si / 1000 Ang^3
#
#
#
# Elastic Constant Matrix: (Units=GPa)
#
#
# Indices 1 2 3 4 5 6 
#
# 1 134.3000 43.0552 59.0969 -9.8570 9.2891 -27.0267
# 2 43.0552 165.3053 63.7316 -7.9646 13.2328 -35.5470
# 3 59.0969 63.7316 114.0528 -29.0245 14.7615 -18.9774
# 4 -9.8570 -7.9646 -29.0245 66.8155 -2.9022 5.7959
# 5 9.2891 13.2328 14.7615 -2.9022 37.1063 -2.2714
# 6 -27.0267 -35.5470 -18.9774 5.7959 -2.2714 25.6860
#
#
#
# Elastic Compliance Matrix: (Units=1/GPa)
#
#
# Indices 1 2 3 4 5 6 
#
# 1 0.011255 0.001147 -0.005059 -0.001292 -0.000708 0.009921
# 2 0.001147 0.010128 -0.004461 -0.001683 -0.001511 0.012173
# 3 -0.005059 -0.004461 0.015369 0.005411 -0.002933 -0.001622
# 4 -0.001292 -0.001683 0.005411 0.017233 -0.000101 -0.003588
# 5 -0.000708 -0.001511 -0.002933 -0.000101 0.028675 -0.002444
# 6 0.009921 0.012173 -0.001622 -0.003588 -0.002444 0.065612
#
#
# Mechanical properties :
#
#
# Convention : Reuss Voigt Hill
#
# Bulk Modulus (GPa) = 49.98632 82.82505 66.40569
# Shear Modulus (GPa) = 29.12280 42.43986 35.78133
#
# Velocity S-wave (km/s) = 3.50628 4.23269 3.88649
# Velocity P-wave (km/s) = 6.12318 7.67148 6.94064
#
# Compressibility (1/GPa) = 0.02000547
#
# Stress axis : x y z
#
# Youngs Moduli (GPa) = 88.84794 98.73425 65.06717
#
# Poissons Ratio (x) = -0.11322 0.32918
# Poissons Ratio (y) = -0.10189 0.29026
# Poissons Ratio (z) = 0.44949 0.44045
#
# Static dielectric constant tensor:
#      x y z
#    x 1.988180 0.130370 0.008940 
#    y 0.130370 1.927000 -0.020220 
#    z 0.008940 -0.020220 1.927960 
# 
# From -- ./inp_files/267323.got.cif
#   From: 2010.05.17/outbox.cif.g08.bks.cpg/sg2_134_cif.got.tgz:267323.got - 2010.06.03 11:33:40.
