data_PCOD9049688
_publ_section_title
;
Structure prediction by ZEFSAII (Michael W. Deem and Ramdas Pophale) SiO2 
 PCOD9049688
Probable space group: P -1
;
_chemical_formula_sum "Si O2"
_cell_formula_units_Z 12
_cell_length_a 5.701228
_cell_length_b 21.392571
_cell_length_c 9.568570
_cell_angle_alpha 28.784354
_cell_angle_beta 72.791753
_cell_angle_gamma 78.609271
_cell_volume 531.916516
_symmetry_space_group_name_H-M "P -1"
_symmetry_group_IT_number 2
_symmetry_cell_setting 'triclinic'
loop_
_space_group_symop_operation_xyz
x,y,z
-x,-y,-z
loop_
_atom_site_type_symbol
_atom_site_label
_atom_site_fract_x
_atom_site_fract_y
_atom_site_fract_z
Si Si1 0.933154 0.134455 0.320000
Si Si2 0.509450 0.947217 0.757371
Si Si3 0.593588 0.457882 0.913781
Si Si4 0.064660 0.308666 0.201968
Si Si5 0.801520 0.731694 0.214992
Si Si6 0.977027 0.132130 0.826410
O O1 0.087431 0.198317 0.297223
O O2 0.671836 0.073022 0.553625
O O3 0.000000 0.000000 0.500000
O O4 0.953454 0.239228 0.983876
O O5 0.500000 0.000000 0.500000
O O6 0.623455 0.811359 0.001797
O O7 0.262348 0.907986 0.960272
O O8 0.697619 0.584447 0.555355
O O9 0.500000 0.500000 0.000000
O O10 0.340503 0.385553 0.028793
O O11 0.836660 0.383611 0.041279
O O12 0.973168 0.243799 0.492464
O O13 0.826851 0.808943 0.206661
O O14 0.000000 0.000000 0.000000
#
# Coordination Sequence:
#
# PCOD9049688 Si02
#       6
#     2   2   2   2   2   2
#     4  10  24  47  71 110 150 192 248 321 383 446
#     4  11  24  42  75 105 147 196 245 315 390 446
#     4  12  27  50  77 108 155 203 255 317 369 454
#     4  12  29  47  78 113 152 198 262 309 381 456
#     4  11  25  45  73 103 149 200 249 306 389 445
#     4  12  26  43  74 111 144 193 256 314 384 453
#
# _framework density 22.559930000000001
#
# number of rings (size 3 to 8) (size 9 to 14) (size 15 to 20)
#    0.000    0.667    3.333    3.500    7.000    2.667 
#    0.000    0.000    0.000    0.000    0.000    0.000 
#    0.000    0.000    0.000    0.000    0.000    0.000 
#
# Total GULP energy -66934.601493 kJ/mol
# GULP energy per Si atom -5577.883458 kJ/mol
# Density = 2.250858 g / cm^3
# Si number density = 22.559930 Si / 1000 Ang^3
#
#
#
# Elastic Constant Matrix: (Units=GPa)
#
#
# Indices 1 2 3 4 5 6 
#
# 1 134.6658 43.1048 82.6379 -14.3715 -3.4745 11.8881
# 2 43.1048 89.6483 33.7759 8.0875 -5.6409 22.9975
# 3 82.6379 33.7759 238.7371 14.7478 -2.4922 7.1851
# 4 -14.3715 8.0875 14.7478 34.4819 8.8465 -6.5862
# 5 -3.4745 -5.6409 -2.4922 8.8465 44.2655 -5.8504
# 6 11.8881 22.9975 7.1851 -6.5862 -5.8504 40.6256
#
#
#
# Elastic Compliance Matrix: (Units=1/GPa)
#
#
# Indices 1 2 3 4 5 6 
#
# 1 0.012661 -0.005848 -0.004186 0.009156 -0.001606 0.001599
# 2 -0.005848 0.017105 0.000460 -0.008997 0.002332 -0.009176
# 3 -0.004186 0.000460 0.005897 -0.004746 0.000916 -0.000716
# 4 0.009156 -0.008997 -0.004746 0.040588 -0.007653 0.008731
# 5 -0.001606 0.002332 0.000916 -0.007653 0.024512 0.001277
# 6 0.001599 -0.009176 -0.000716 0.008731 0.001277 0.031068
#
#
# Mechanical properties :
#
#
# Convention : Reuss Voigt Hill
#
# Bulk Modulus (GPa) = 60.54400 86.89870 73.72135
# Shear Modulus (GPa) = 31.95278 44.11011 38.03145
#
# Velocity S-wave (km/s) = 3.76753 4.42661 4.11030
# Velocity P-wave (km/s) = 6.76911 8.04544 7.43472
#
# Compressibility (1/GPa) = 0.01651691
#
# Stress axis : x y z
#
# Youngs Moduli (GPa) = 78.98553 58.46177 169.58641
#
# Poissons Ratio (x) = 0.34186 0.70981
# Poissons Ratio (y) = 0.46188 -0.07808
# Poissons Ratio (z) = 0.33060 -0.02692
#
# Static dielectric constant tensor:
#      x y z
#    x 2.162220 -0.092310 -0.099210 
#    y -0.092310 1.961540 0.040630 
#    z -0.099210 0.040630 1.889680 
# 
# From -- ./inp_files/103873.got.cif
#   From: 2010.05.17/outbox.cif.g08.bks.cpg/sg2_52_cif.got.tgz:103873.got - 2010.06.03 11:33:40.
