data_PCOD9049503
_publ_section_title
;
Structure prediction by ZEFSAII (Michael W. Deem and Ramdas Pophale) SiO2 
 PCOD9049503
Probable space group: P -1
;
_chemical_formula_sum "Si O2"
_cell_formula_units_Z 12
_cell_length_a 16.629089
_cell_length_b 8.517567
_cell_length_c 9.019654
_cell_angle_alpha 113.281117
_cell_angle_beta 151.925792
_cell_angle_gamma 64.041856
_cell_volume 540.449697
_symmetry_space_group_name_H-M "P -1"
_symmetry_group_IT_number 2
_symmetry_cell_setting 'triclinic'
loop_
_space_group_symop_operation_xyz
x,y,z
-x,-y,-z
loop_
_atom_site_type_symbol
_atom_site_label
_atom_site_fract_x
_atom_site_fract_y
_atom_site_fract_z
Si Si1 0.414135 0.676008 0.568904
Si Si2 0.021655 0.169002 0.504699
Si Si3 0.703985 0.659832 0.812966
Si Si4 0.659757 0.704058 0.414632
Si Si5 0.324015 0.585896 0.888599
Si Si6 0.168943 0.021673 0.376538
O O1 0.520692 0.735428 0.627216
O O2 0.293697 0.546999 0.264315
O O3 0.298735 0.834747 0.526774
O O4 0.556808 0.556815 0.863657
O O5 0.103703 0.103781 0.457430
O O6 0.834761 0.298805 0.240304
O O7 0.147415 0.275680 0.832201
O O8 0.000000 0.000000 0.500000
O O9 0.710928 0.711050 0.671931
O O10 0.735286 0.520667 0.384902
O O11 0.724360 0.852582 0.486081
O O12 0.452959 0.706458 0.082940
O O13 0.000000 0.000000 0.000000
#
# Coordination Sequence:
#
# PCOD9049503 Si02
#       6
#     2   2   2   2   2   2
#     4  10  25  48  75 104 143 194 235 289 361 428
#     4  12  29  46  74 109 146 182 245 299 353 415
#     4  10  24  46  76 103 143 190 238 287 359 424
#     4  10  24  46  76 103 143 190 238 287 359 424
#     4  10  25  48  75 104 143 194 235 289 361 428
#     4  12  29  46  74 109 146 182 245 299 353 415
#
# _framework density 22.20373
#
# number of rings (size 3 to 8) (size 9 to 14) (size 15 to 20)
#    0.000    1.333    0.000    2.000   18.667    5.333 
#    0.000    0.000    0.000    0.000    0.000    0.000 
#    0.000    0.000    0.000    0.000    0.000    0.000 
#
# Total GULP energy -67189.912429 kJ/mol
# GULP energy per Si atom -5599.159369 kJ/mol
# Density = 2.215319 g / cm^3
# Si number density = 22.203730 Si / 1000 Ang^3
#
#
#
# Elastic Constant Matrix: (Units=GPa)
#
#
# Indices 1 2 3 4 5 6 
#
# 1 188.7321 93.8580 78.1155 -1.0283 -7.9343 -23.8652
# 2 93.8580 138.4847 99.0128 -12.9958 15.4102 -29.4651
# 3 78.1155 99.0128 115.7322 15.2925 0.4481 -0.5587
# 4 -1.0283 -12.9958 15.2925 33.0349 0.6141 7.5919
# 5 -7.9343 15.4102 0.4481 0.6141 35.1301 4.1711
# 6 -23.8652 -29.4651 -0.5587 7.5919 4.1711 42.8472
#
#
#
# Elastic Compliance Matrix: (Units=1/GPa)
#
#
# Indices 1 2 3 4 5 6 
#
# 1 0.008904 -0.007840 0.001116 -0.003343 0.005538 -0.000364
# 2 -0.007840 0.103057 -0.091690 0.070397 -0.053936 0.058085
# 3 0.001116 -0.091690 0.094948 -0.068540 0.046825 -0.053608
# 4 -0.003343 0.070397 -0.068540 0.082311 -0.036309 0.034605
# 5 0.005538 -0.053936 0.046825 -0.036309 0.057277 -0.032538
# 6 -0.000364 0.058085 -0.053608 0.034605 -0.032538 0.059417
#
#
# Mechanical properties :
#
#
# Convention : Reuss Voigt Hill
#
# Bulk Modulus (GPa) = 99.19671 109.43572 104.31621
# Shear Modulus (GPa) = 8.24943 33.66663 20.95803
#
# Velocity S-wave (km/s) = 1.92961 3.89814 3.07562
# Velocity P-wave (km/s) = 7.05246 8.34594 7.72632
#
# Compressibility (1/GPa) = 0.01008098
#
# Stress axis : x y z
#
# Youngs Moduli (GPa) = 112.30832 9.70333 10.53210
#
# Poissons Ratio (x) = 0.07608 -0.01175
# Poissons Ratio (y) = 0.88051 0.96569
# Poissons Ratio (z) = -0.12534 0.88970
#
# Static dielectric constant tensor:
#      x y z
#    x 1.821430 0.006770 -0.017160 
#    y 0.006770 1.809890 -0.013490 
#    z -0.017160 -0.013490 1.812720 
# 
# From -- ./inp_files/297579.got.cif
#   From: 2010.05.17/outbox.cif.g08.bks.cpg/sg2_149_cif.got.tgz:297579.got - 2010.06.03 11:33:40.
