data_PCOD9049143
_publ_section_title
;
Structure prediction by ZEFSAII (Michael W. Deem and Ramdas Pophale) SiO2 
 PCOD9049143
Probable space group: P -1
;
_chemical_formula_sum "Si O2"
_cell_formula_units_Z 14
_cell_length_a 13.638044
_cell_length_b 4.941399
_cell_length_c 12.523868
_cell_angle_alpha 89.955158
_cell_angle_beta 133.865383
_cell_angle_gamma 107.848656
_cell_volume 550.984693
_symmetry_space_group_name_H-M "P -1"
_symmetry_group_IT_number 2
_symmetry_cell_setting 'triclinic'
loop_
_space_group_symop_operation_xyz
x,y,z
-x,-y,-z
loop_
_atom_site_type_symbol
_atom_site_label
_atom_site_fract_x
_atom_site_fract_y
_atom_site_fract_z
Si Si1 0.701278 0.826258 0.000414
Si Si2 0.130635 0.525836 0.953512
Si Si3 0.842854 0.592845 0.782086
Si Si4 0.343811 0.067136 0.392060
Si Si5 0.178190 0.863902 0.698787
Si Si6 0.832469 0.639841 0.453068
Si Si7 0.457645 0.519343 0.649077
O O1 0.553037 0.588590 0.830189
O O2 0.822093 0.683717 0.084689
O O3 0.749390 0.131203 0.968471
O O4 0.705888 0.938997 0.124421
O O5 0.977226 0.559541 0.822998
O O6 0.125404 0.395092 0.067793
O O7 0.803821 0.864568 0.722431
O O8 0.702083 0.277428 0.659137
O O9 0.419704 0.204744 0.561753
O O10 0.440228 0.250683 0.363703
O O11 0.203437 0.587094 0.673320
O O12 0.006414 0.733528 0.612947
O O13 0.180123 0.065547 0.599192
O O14 0.703884 0.490777 0.443377
#
# Coordination Sequence:
#
# PCOD9049143 Si02
#       7
#     2   2   2   2   2   2   2
#     4  12  24  43  67 102 136 173 220 281 332 400
#     4  11  23  38  66  96 137 177 223 276 329 383
#     4  11  22  42  63  94 134 184 230 268 317 394
#     4  11  25  43  64  99 140 180 223 269 316 420
#     4  10  24  46  70  97 130 166 236 275 327 392
#     4  10  24  46  69  98 128 175 219 282 330 399
#     4  11  26  43  69 100 142 177 220 266 349 389
#
# _framework density 25.409058000000002
#
# number of rings (size 3 to 8) (size 9 to 14) (size 15 to 20)
#    0.000    1.143    2.857    1.714    4.000   10.286 
#    0.000    0.000    0.000    0.000    0.000    0.000 
#    0.000    0.000    0.000    0.000    0.000    0.000 
#
# Total GULP energy -78411.484923 kJ/mol
# GULP energy per Si atom -5600.820352 kJ/mol
# Density = 2.535123 g / cm^3
# Si number density = 25.409058 Si / 1000 Ang^3
#
#
#
# Elastic Constant Matrix: (Units=GPa)
#
#
# Indices 1 2 3 4 5 6 
#
# 1 84.5382 14.8750 32.4705 2.8182 2.3753 0.3225
# 2 14.8750 66.8674 -5.0837 1.1255 -2.4377 -12.6395
# 3 32.4705 -5.0837 99.3529 7.0956 -13.7403 1.3651
# 4 2.8182 1.1255 7.0956 34.6585 -6.8856 -0.8889
# 5 2.3753 -2.4377 -13.7403 -6.8856 30.3064 -7.2694
# 6 0.3225 -12.6395 1.3651 -0.8889 -7.2694 40.6163
#
#
#
# Elastic Compliance Matrix: (Units=1/GPa)
#
#
# Indices 1 2 3 4 5 6 
#
# 1 0.014945 -0.004324 -0.005676 -0.000926 -0.004820 -0.002156
# 2 -0.004324 0.017467 0.002835 0.000272 0.004578 0.006200
# 3 -0.005676 0.002835 0.013045 -0.000910 0.006784 0.001683
# 4 -0.000926 0.000272 -0.000910 0.030574 0.007124 0.002067
# 5 -0.004820 0.004578 0.006784 0.007124 0.040510 0.008641
# 6 -0.002156 0.006200 0.001683 0.002067 0.008641 0.028102
#
#
# Mechanical properties :
#
#
# Convention : Reuss Voigt Hill
#
# Bulk Modulus (GPa) = 32.12622 37.25356 34.68989
# Shear Modulus (GPa) = 29.52504 35.01603 32.27054
#
# Velocity S-wave (km/s) = 3.41249 3.71629 3.56763
# Velocity P-wave (km/s) = 5.31017 5.75394 5.53650
#
# Compressibility (1/GPa) = 0.03112722
#
# Stress axis : x y z
#
# Youngs Moduli (GPa) = 66.91425 57.25210 76.65486
#
# Poissons Ratio (x) = 0.24754 0.43511
# Poissons Ratio (y) = 0.28932 -0.21734
# Poissons Ratio (z) = 0.37982 -0.16233
#
# Static dielectric constant tensor:
#      x y z
#    x 2.001200 0.044650 0.039980 
#    y 0.044650 1.952050 -0.025990 
#    z 0.039980 -0.025990 2.059880 
# 
# From -- ./inp_files/410924.got.cif
#   From: 2010.05.17/outbox.cif.g08.bks.cpg/sg2_206_cif.got.tgz:410924.got - 2010.06.03 11:33:40.
