data_PCOD9049390
_publ_section_title
;
Structure prediction by ZEFSAII (Michael W. Deem and Ramdas Pophale) SiO2 
 PCOD9049390
Probable space group: P -1
;
_chemical_formula_sum "Si O2"
_cell_formula_units_Z 12
_cell_length_a 9.337858
_cell_length_b 11.260247
_cell_length_c 13.573434
_cell_angle_alpha 22.549074
_cell_angle_beta 92.030019
_cell_angle_gamma 102.749020
_cell_volume 476.644599
_symmetry_space_group_name_H-M "P -1"
_symmetry_group_IT_number 2
_symmetry_cell_setting 'triclinic'
loop_
_space_group_symop_operation_xyz
x,y,z
-x,-y,-z
loop_
_atom_site_type_symbol
_atom_site_label
_atom_site_fract_x
_atom_site_fract_y
_atom_site_fract_z
Si Si1 0.817667 0.597351 0.192866
Si Si2 0.047594 0.185186 0.254025
Si Si3 0.324399 0.779114 0.718022
Si Si4 0.624812 0.256598 0.726479
Si Si5 0.528334 0.738969 0.465602
Si Si6 0.983128 0.679882 0.469020
O O1 0.787123 0.348009 0.286389
O O2 0.642709 0.543171 0.269141
O O3 0.903441 0.477596 0.368463
O O4 0.934213 0.992644 0.855127
O O5 0.955098 0.867637 0.419125
O O6 0.242275 0.396010 0.066455
O O7 0.000000 0.000000 0.500000
O O8 0.000000 0.500000 0.000000
O O9 0.500000 0.000000 0.500000
O O10 0.352280 0.033733 0.617602
O O11 0.620186 0.615432 0.484520
O O12 0.549617 0.098949 0.738518
O O13 0.811778 0.371627 0.661583
O O14 0.500000 0.000000 0.000000
#
# Coordination Sequence:
#
# PCOD9049390 Si02
#       6
#     2   2   2   2   2   2
#     4  10  24  46  73 105 134 179 228 292 350 406
#     4  11  22  38  66  98 133 178 221 280 344 401
#     4   9  20  44  69 101 137 178 225 287 351 417
#     4  11  27  43  68  97 137 190 232 282 339 413
#     4  10  24  47  68  98 141 182 233 281 346 414
#     4  11  25  44  69 100 142 175 237 284 342 414
#
# _framework density 25.175992000000001
#
# number of rings (size 3 to 8) (size 9 to 14) (size 15 to 20)
#    0.000    1.667    0.000    3.000    9.333    1.333 
#    3.000   11.667    0.000    0.000    0.000    0.000 
#    0.000    0.000    0.000    0.000    0.000    0.000 
#
# Total GULP energy -66913.761051 kJ/mol
# GULP energy per Si atom -5576.146754 kJ/mol
# Density = 2.511869 g / cm^3
# Si number density = 25.175992 Si / 1000 Ang^3
#
#
#
# Elastic Constant Matrix: (Units=GPa)
#
#
# Indices 1 2 3 4 5 6 
#
# 1 118.3764 32.1820 49.1522 -8.0083 -7.6026 12.4245
# 2 32.1820 168.3504 21.7189 1.0994 4.8228 8.9511
# 3 49.1522 21.7189 141.8705 35.1712 -13.3026 14.9649
# 4 -8.0083 1.0994 35.1712 46.7963 -6.1375 -9.1384
# 5 -7.6026 4.8228 -13.3026 -6.1375 42.1070 -5.0264
# 6 12.4245 8.9511 14.9649 -9.1384 -5.0264 30.7752
#
#
#
# Elastic Compliance Matrix: (Units=1/GPa)
#
#
# Indices 1 2 3 4 5 6 
#
# 1 0.011516 -0.001644 -0.005170 0.006189 0.001589 0.000440
# 2 -0.001644 0.006406 -0.000181 -0.000785 -0.001390 -0.001572
# 3 -0.005170 -0.000181 0.012601 -0.011732 0.000475 -0.007393
# 4 0.006189 -0.000785 -0.011732 0.034640 0.004271 0.014418
# 5 0.001589 -0.001390 0.000475 0.004271 0.025562 0.004975
# 6 0.000440 -0.001572 -0.007393 0.014418 0.004975 0.041462
#
#
# Mechanical properties :
#
#
# Convention : Reuss Voigt Hill
#
# Bulk Modulus (GPa) = 60.48632 70.52261 65.50447
# Shear Modulus (GPa) = 32.96253 45.63864 39.30058
#
# Velocity S-wave (km/s) = 3.62233 4.26230 3.95528
# Velocity P-wave (km/s) = 6.44768 7.23157 6.85085
#
# Compressibility (1/GPa) = 0.01653266
#
# Stress axis : x y z
#
# Youngs Moduli (GPa) = 86.83799 156.10169 79.36112
#
# Poissons Ratio (x) = 0.25659 0.41029
# Poissons Ratio (y) = 0.14274 0.01438
# Poissons Ratio (z) = 0.44895 0.02829
#
# Static dielectric constant tensor:
#      x y z
#    x 2.196500 -0.105820 0.075710 
#    y -0.105820 2.053250 -0.067380 
#    z 0.075710 -0.067380 2.010580 
# 
# From -- ./inp_files/519457.got.cif
#   From: 2010.05.17/outbox.cif.g08.bks.cpg/sg2_260_cif.got.tgz:519457.got - 2010.06.03 11:33:40.
