data_PCOD9049102
_publ_section_title
;
Structure prediction by ZEFSAII (Michael W. Deem and Ramdas Pophale) SiO2 
 PCOD9049102
Probable space group: P -1
;
_chemical_formula_sum "Si O2"
_cell_formula_units_Z 16
_cell_length_a 11.943208
_cell_length_b 15.621386
_cell_length_c 14.839317
_cell_angle_alpha 152.326800
_cell_angle_beta 57.745425
_cell_angle_gamma 140.013789
_cell_volume 722.378347
_symmetry_space_group_name_H-M "P -1"
_symmetry_group_IT_number 2
_symmetry_cell_setting 'triclinic'
loop_
_space_group_symop_operation_xyz
x,y,z
-x,-y,-z
loop_
_atom_site_type_symbol
_atom_site_label
_atom_site_fract_x
_atom_site_fract_y
_atom_site_fract_z
Si Si1 0.725137 0.785066 0.143092
Si Si2 0.908449 0.091393 0.666845
Si Si3 0.725633 0.253824 0.867078
Si Si4 0.857827 0.823108 0.601373
Si Si5 0.386454 0.935163 0.580000
Si Si6 0.260554 0.179845 0.150615
Si Si7 0.179285 0.359704 0.204838
Si Si8 0.406290 0.774047 0.907771
O O1 0.742323 0.020300 0.342415
O O2 0.500000 0.500000 0.000000
O O3 0.769795 0.731271 0.980445
O O4 0.901720 0.914314 0.255408
O O5 0.772844 0.090914 0.666808
O O6 0.789762 0.894581 0.620779
O O7 0.000000 0.000000 0.500000
O O8 0.086987 0.416110 0.918796
O O9 0.550305 0.150175 0.785281
O O10 0.670337 0.199798 0.946264
O O11 0.782969 0.806017 0.715146
O O12 0.773774 0.535548 0.344298
O O13 0.259902 0.637140 0.395730
O O14 0.500000 0.000000 0.500000
O O15 0.284224 0.389466 0.276669
O O16 0.433721 0.209702 0.109289
O O17 0.060768 0.885337 0.916820
O O18 0.500000 0.000000 0.000000
#
# Coordination Sequence:
#
# PCOD9049102 Si02
#       8
#     2   2   2   2   2   2   2   2
#     4  11  23  44  68 104 137 173 229 284 349 412
#     4  11  24  46  71  98 138 176 221 286 352 412
#     4  11  27  44  68 106 135 176 234 280 349 416
#     4  11  25  43  73  98 137 187 228 280 352 410
#     4  12  26  40  71  99 134 177 224 290 347 406
#     4  10  24  46  69  94 141 183 237 282 335 409
#     4  10  24  46  68  99 134 185 229 285 343 409
#     4  12  26  44  69 104 143 185 231 286 337 414
#
# _framework density 22.149056999999999
#
# number of rings (size 3 to 8) (size 9 to 14) (size 15 to 20)
#    0.000    1.000    2.500    2.625    8.750    1.000 
#    0.000    2.500    0.000    0.000    0.000    0.000 
#    0.000    0.000    0.000    0.000    0.000    0.000 
#
# Total GULP energy -89468.884215 kJ/mol
# GULP energy per Si atom -5591.805263 kJ/mol
# Density = 2.209865 g / cm^3
# Si number density = 22.149057 Si / 1000 Ang^3
#
#
#
# Elastic Constant Matrix: (Units=GPa)
#
#
# Indices 1 2 3 4 5 6 
#
# 1 93.9431 16.9649 17.4957 2.5643 -20.2212 -2.5487
# 2 16.9649 66.1059 27.2643 11.0203 -5.2746 -13.3105
# 3 17.4957 27.2643 68.6511 11.1053 -18.6034 -5.6228
# 4 2.5643 11.0203 11.1053 36.1161 -4.7396 -6.9969
# 5 -20.2212 -5.2746 -18.6034 -4.7396 43.9168 5.2530
# 6 -2.5487 -13.3105 -5.6228 -6.9969 5.2530 43.7195
#
#
#
# Elastic Compliance Matrix: (Units=1/GPa)
#
#
# Indices 1 2 3 4 5 6 
#
# 1 0.012361 -0.002668 -0.000869 0.000745 0.005168 -0.000705
# 2 -0.002668 0.020029 -0.007114 -0.003156 -0.002757 0.004854
# 3 -0.000869 -0.007114 0.019933 -0.003176 0.006966 -0.000998
# 4 0.000745 -0.003156 -0.003176 0.030424 0.001500 0.003363
# 5 0.005168 -0.002757 0.006966 0.001500 0.028266 -0.002799
# 6 -0.000705 0.004854 -0.000998 0.003363 -0.002799 0.025056
#
#
# Mechanical properties :
#
#
# Convention : Reuss Voigt Hill
#
# Bulk Modulus (GPa) = 32.23423 39.12777 35.68100
# Shear Modulus (GPa) = 29.81344 35.88217 32.84781
#
# Velocity S-wave (km/s) = 3.67282 4.02933 3.85520
# Velocity P-wave (km/s) = 5.70710 6.27306 5.99676
#
# Compressibility (1/GPa) = 0.03102292
#
# Stress axis : x y z
#
# Youngs Moduli (GPa) = 80.89810 49.92689 50.16925
#
# Poissons Ratio (x) = 0.13320 0.04357
# Poissons Ratio (y) = 0.21583 0.35689
# Poissons Ratio (z) = 0.07026 0.35516
#
# Static dielectric constant tensor:
#      x y z
#    x 1.789380 0.014620 0.019820 
#    y 0.014620 1.839050 0.001290 
#    z 0.019820 0.001290 1.830150 
# 
# From -- ./inp_files/398711.got.cif
#   From: 2010.05.17/outbox.cif.g08.bks.cpg/sg2_200_cif.got.tgz:398711.got - 2010.06.03 11:33:40.
