data_PCOD9049128
_publ_section_title
;
Structure prediction by ZEFSAII (Michael W. Deem and Ramdas Pophale) SiO2 
 PCOD9049128
Probable space group: P -1
;
_chemical_formula_sum "Si O2"
_cell_formula_units_Z 12
_cell_length_a 6.858010
_cell_length_b 11.097493
_cell_length_c 8.638647
_cell_angle_alpha 122.719895
_cell_angle_beta 100.342713
_cell_angle_gamma 100.138856
_cell_volume 513.675867
_symmetry_space_group_name_H-M "P -1"
_symmetry_group_IT_number 2
_symmetry_cell_setting 'triclinic'
loop_
_space_group_symop_operation_xyz
x,y,z
-x,-y,-z
loop_
_atom_site_type_symbol
_atom_site_label
_atom_site_fract_x
_atom_site_fract_y
_atom_site_fract_z
Si Si1 0.466303 0.352561 0.076013
Si Si2 0.635089 0.436773 0.592139
Si Si3 0.551485 0.872701 0.815312
Si Si4 0.279316 0.990463 0.379381
Si Si5 0.066615 0.526844 0.845718
Si Si6 0.884597 0.766843 0.311424
O O1 0.461502 0.521680 0.234188
O O2 0.387007 0.231400 0.120359
O O3 0.700742 0.357782 0.068050
O O4 0.301322 0.295669 0.879088
O O5 0.500000 0.500000 0.500000
O O6 0.604416 0.265425 0.412020
O O7 0.877216 0.539463 0.722750
O O8 0.696982 0.975415 0.775047
O O9 0.500000 0.000000 0.000000
O O10 0.181832 0.113729 0.516423
O O11 0.500000 0.000000 0.500000
O O12 0.101067 0.836648 0.296050
O O13 0.085256 0.367939 0.680469
O O14 0.000000 0.500000 0.000000
#
# Coordination Sequence:
#
# PCOD9049128 Si02
#       6
#     2   2   2   2   2   2
#     4  11  25  45  70 106 144 186 246 299 372 433
#     4  10  24  46  69 105 144 188 239 304 365 432
#     4  11  25  43  71 100 145 191 234 298 362 432
#     4  11  25  46  72 104 149 191 247 296 363 441
#     4  12  25  41  76 106 142 190 242 306 363 429
#     4  11  25  43  74 109 140 195 244 301 365 437
#
# _framework density 23.361034
#
# number of rings (size 3 to 8) (size 9 to 14) (size 15 to 20)
#    0.000    1.000    1.667    3.500    7.000    4.667 
#    0.000   10.000    0.000    0.000    0.000    0.000 
#    0.000    0.000    0.000    0.000    0.000    0.000 
#
# Total GULP energy -66887.562919 kJ/mol
# GULP energy per Si atom -5573.963577 kJ/mol
# Density = 2.330786 g / cm^3
# Si number density = 23.361034 Si / 1000 Ang^3
#
#
#
# Elastic Constant Matrix: (Units=GPa)
#
#
# Indices 1 2 3 4 5 6 
#
# 1 162.4568 46.5225 50.3715 -7.6377 21.2658 12.3160
# 2 46.5225 95.5510 22.4145 -9.2464 -0.9754 -0.4630
# 3 50.3715 22.4145 107.3194 6.6974 -15.6413 6.7071
# 4 -7.6377 -9.2464 6.6974 43.4892 -10.8841 -7.9483
# 5 21.2658 -0.9754 -15.6413 -10.8841 54.0613 -1.7254
# 6 12.3160 -0.4630 6.7071 -7.9483 -1.7254 37.7149
#
#
#
# Elastic Compliance Matrix: (Units=1/GPa)
#
#
# Indices 1 2 3 4 5 6 
#
# 1 0.009359 -0.003663 -0.004190 -0.000247 -0.005094 -0.002641
# 2 -0.003663 0.012823 -0.000995 0.003181 0.002098 0.002297
# 3 -0.004190 -0.000995 0.012371 -0.001834 0.004808 -0.001011
# 4 -0.000247 0.003181 -0.001834 0.026330 0.005124 0.006229
# 5 -0.005094 0.002098 0.004808 0.005124 0.023056 0.002969
# 6 -0.002641 0.002297 -0.001011 0.006229 0.002969 0.029034
#
#
# Mechanical properties :
#
#
# Convention : Reuss Voigt Hill
#
# Bulk Modulus (GPa) = 59.32226 67.10491 63.21359
# Shear Modulus (GPa) = 36.68736 43.45434 40.07085
#
# Velocity S-wave (km/s) = 3.96719 4.31759 4.14609
# Velocity P-wave (km/s) = 6.81422 7.32414 7.07377
#
# Compressibility (1/GPa) = 0.01685708
#
# Stress axis : x y z
#
# Youngs Moduli (GPa) = 106.85221 77.98633 80.83687
#
# Poissons Ratio (x) = 0.28563 0.33867
# Poissons Ratio (y) = 0.39136 0.08046
# Poissons Ratio (z) = 0.44766 0.07763
#
# Static dielectric constant tensor:
#      x y z
#    x 1.928690 0.030510 -0.094990 
#    y 0.030510 1.937280 0.100300 
#    z -0.094990 0.100300 1.761930 
# 
# From -- ./inp_files/32585.got.cif
#   From: 2010.05.17/outbox.cif.g08.bks.cpg/sg2_17_cif.got.tgz:32585.got - 2010.06.03 11:33:40.
