data_PCOD9049526
_publ_section_title
;
Structure prediction by ZEFSAII (Michael W. Deem and Ramdas Pophale) SiO2 
 PCOD9049526
Probable space group: P -1
;
_chemical_formula_sum "Si O2"
_cell_formula_units_Z 14
_cell_length_a 9.381431
_cell_length_b 14.723749
_cell_length_c 5.064082
_cell_angle_alpha 65.635321
_cell_angle_beta 68.173740
_cell_angle_gamma 83.542886
_cell_volume 590.831500
_symmetry_space_group_name_H-M "P -1"
_symmetry_group_IT_number 2
_symmetry_cell_setting 'triclinic'
loop_
_space_group_symop_operation_xyz
x,y,z
-x,-y,-z
loop_
_atom_site_type_symbol
_atom_site_label
_atom_site_fract_x
_atom_site_fract_y
_atom_site_fract_z
Si Si1 0.705399 0.289236 0.617294
Si Si2 0.196021 0.039475 0.650079
Si Si3 0.191464 0.348467 0.899598
Si Si4 0.874128 0.096426 0.645894
Si Si5 0.001433 0.390761 0.505899
Si Si6 0.404418 0.220003 0.198971
Si Si7 0.533759 0.596017 0.679715
O O1 0.802739 0.202759 0.530586
O O2 0.828138 0.352734 0.625745
O O3 0.617568 0.362597 0.398600
O O4 0.572883 0.231901 0.946952
O O5 0.349007 0.110428 0.454432
O O6 0.048952 0.108357 0.623179
O O7 0.159506 0.961549 0.533123
O O8 0.197164 0.976699 0.992105
O O9 0.333448 0.421481 0.607759
O O10 0.079518 0.328154 0.755874
O O11 0.280521 0.251261 0.030944
O O12 0.097810 0.387029 0.170192
O O13 0.000000 0.500000 0.500000
O O14 0.401620 0.309332 0.306168
O O15 0.500000 0.500000 0.000000
#
# Coordination Sequence:
#
# PCOD9049526 Si02
#       7
#     2   2   2   2   2   2   2
#     4  11  29  46  76 118 154 194 254 322 371 446
#     4  10  24  46  77 108 147 199 245 302 386 454
#     4  11  26  49  75 103 145 205 249 310 370 452
#     4  10  24  46  76 111 148 190 250 313 372 446
#     4  12  28  48  76 109 148 197 261 318 376 437
#     4  11  26  47  77 110 153 204 250 306 381 455
#     4  11  28  51  78 109 158 207 253 304 386 456
#
# _framework density 23.695419000000001
#
# number of rings (size 3 to 8) (size 9 to 14) (size 15 to 20)
#    0.000    1.143    1.429    1.286   12.000    4.571 
#    0.000    2.143    0.000    0.000    0.000    0.000 
#    0.000    0.000    0.000    0.000    0.000    0.000 
#
# Total GULP energy -78362.948056 kJ/mol
# GULP energy per Si atom -5597.353433 kJ/mol
# Density = 2.364149 g / cm^3
# Si number density = 23.695419 Si / 1000 Ang^3
#
#
#
# Elastic Constant Matrix: (Units=GPa)
#
#
# Indices 1 2 3 4 5 6 
#
# 1 142.0934 71.6728 78.3676 -28.1515 44.7887 17.1541
# 2 71.6728 -270.9923 -301.8467 70.1135 -234.5058 -88.9276
# 3 78.3676 -301.8467 -176.2241 76.3033 -218.6539 -79.0609
# 4 -28.1515 70.1135 76.3033 11.7407 68.1454 14.5175
# 5 44.7887 -234.5058 -218.6539 68.1454 -116.0360 -59.4213
# 6 17.1541 -88.9276 -79.0609 14.5175 -59.4213 2.5197
#
#
#
# Elastic Compliance Matrix: (Units=1/GPa)
#
#
# Indices 1 2 3 4 5 6 
#
# 1 0.006509 0.001375 -0.000370 0.002298 0.000945 0.001633
# 2 0.001375 0.011869 -0.004635 0.011083 -0.008470 0.000500
# 3 -0.000370 -0.004635 0.007458 0.000276 -0.003152 -0.002961
# 4 0.002298 0.011083 0.000276 0.039761 -0.005971 0.014239
# 5 0.000945 -0.008470 -0.003152 -0.005971 0.015348 -0.007910
# 6 0.001633 0.000500 -0.002961 0.014239 -0.007910 0.041928
#
#
# Mechanical properties :
#
#
# Convention : Reuss Voigt Hill
#
# Bulk Modulus (GPa) = 53.83479 -67.63729 -6.90125
# Shear Modulus (GPa) = 36.67697 -30.57622 3.05038
#
# Velocity S-wave (km/s) = 3.93854 -3.59609 1.13584
# Velocity P-wave (km/s) = 6.59178 6.77118 1.09483
#
# Compressibility (1/GPa) = 0.01857535
#
# Stress axis : x y z
#
# Youngs Moduli (GPa) = 153.64102 84.25253 134.07760
#
# Poissons Ratio (x) = -0.11581 0.04961
# Poissons Ratio (y) = -0.21119 0.62145
# Poissons Ratio (z) = 0.05685 0.39051
#
# Static dielectric constant tensor:
#      x y z
#    x 2.595540 0.543540 -0.245100 
#    y 0.543540 2.409240 -0.176620 
#    z -0.245100 -0.176620 2.023290 
# 
# From -- ./inp_files/37456.got.cif
#   From: 2010.05.17/outbox.cif.g08.bks.cpg/sg2_19_cif.got.tgz:37456.got - 2010.06.03 11:33:40.
