data_PCOD9049699
_publ_section_title
;
Structure prediction by ZEFSAII (Michael W. Deem and Ramdas Pophale) SiO2 
 PCOD9049699
Probable space group: P -1
;
_chemical_formula_sum "Si O2"
_cell_formula_units_Z 16
_cell_length_a 16.188847
_cell_length_b 6.637248
_cell_length_c 8.827328
_cell_angle_alpha 106.276659
_cell_angle_beta 48.501123
_cell_angle_gamma 95.502899
_cell_volume 676.575183
_symmetry_space_group_name_H-M "P -1"
_symmetry_group_IT_number 2
_symmetry_cell_setting 'triclinic'
loop_
_space_group_symop_operation_xyz
x,y,z
-x,-y,-z
loop_
_atom_site_type_symbol
_atom_site_label
_atom_site_fract_x
_atom_site_fract_y
_atom_site_fract_z
Si Si1 0.405070 0.059198 0.396414
Si Si2 0.272270 0.329153 0.350823
Si Si3 0.261001 0.748556 0.653560
Si Si4 0.611925 0.295685 0.208270
Si Si5 0.977377 0.089364 0.305567
Si Si6 0.559166 0.623155 0.080964
Si Si7 0.008373 0.730103 0.978374
Si Si8 0.173610 0.958887 0.272046
O O1 0.309926 0.965058 0.591630
O O2 0.482727 0.842492 0.225731
O O3 0.350912 0.178700 0.339635
O O4 0.499107 0.198336 0.368638
O O5 0.262741 0.560974 0.486967
O O6 0.176180 0.187314 0.397776
O O7 0.324469 0.346994 0.126277
O O8 0.329357 0.657525 0.697420
O O9 0.133293 0.783183 0.860468
O O10 0.574881 0.494900 0.188850
O O11 0.706832 0.144155 0.962398
O O12 0.012722 0.252246 0.171956
O O13 0.081385 0.996057 0.261536
O O14 0.877804 0.172916 0.558679
O O15 0.939941 0.905680 0.203046
O O16 0.500000 0.500000 0.000000
O O17 0.000000 0.500000 0.000000
#
# Coordination Sequence:
#
# PCOD9049699 Si02
#       8
#     2   2   2   2   2   2   2   2
#     4  12  24  45  71  97 143 186 231 274 344 406
#     4  12  25  43  71 100 139 182 232 277 347 404
#     4  12  27  44  69 107 138 182 230 286 341 416
#     4  12  26  44  69 102 146 181 231 281 343 408
#     4  10  24  47  72 100 139 176 237 286 344 408
#     4  12  23  42  67  98 138 180 226 283 329 407
#     4  11  24  47  73 103 140 179 222 293 351 406
#     4  11  23  47  72 102 136 187 229 289 341 407
#
# _framework density 23.648516999999998
#
# number of rings (size 3 to 8) (size 9 to 14) (size 15 to 20)
#    0.000    0.500    5.000    3.000    1.750    5.000 
#    0.000    1.875    0.000    0.000    0.000    0.000 
#    0.000    0.000    0.000    0.000    0.000    0.000 
#
# Total GULP energy -89381.620723 kJ/mol
# GULP energy per Si atom -5586.351295 kJ/mol
# Density = 2.359469 g / cm^3
# Si number density = 23.648517 Si / 1000 Ang^3
#
#
#
# Elastic Constant Matrix: (Units=GPa)
#
#
# Indices 1 2 3 4 5 6 
#
# 1 107.8535 24.4826 32.0558 -4.9673 20.2394 -10.8053
# 2 24.4826 103.8865 35.3289 -24.7926 11.6404 -17.5353
# 3 32.0558 35.3289 115.4828 -26.0160 -5.5844 6.3929
# 4 -4.9673 -24.7926 -26.0160 31.6079 -4.9058 1.0641
# 5 20.2394 11.6404 -5.5844 -4.9058 26.1538 -8.5142
# 6 -10.8053 -17.5353 6.3929 1.0641 -8.5142 26.8074
#
#
#
# Elastic Compliance Matrix: (Units=1/GPa)
#
#
# Indices 1 2 3 4 5 6 
#
# 1 0.013042 -0.000747 -0.005074 -0.004480 -0.010797 0.002727
# 2 -0.000747 0.014506 -0.002980 0.008186 -0.002077 0.008914
# 3 -0.005074 -0.002980 0.013859 0.009746 0.008407 -0.005016
# 4 -0.004480 0.008186 0.009746 0.047095 0.011743 0.003084
# 5 -0.010797 -0.002077 0.008407 0.011743 0.054483 0.009122
# 6 0.002727 0.008914 -0.005016 0.003084 0.009122 0.048204
#
#
# Mechanical properties :
#
#
# Convention : Reuss Voigt Hill
#
# Bulk Modulus (GPa) = 42.00831 56.77303 49.39067
# Shear Modulus (GPa) = 23.07040 32.60419 27.83730
#
# Velocity S-wave (km/s) = 3.12677 3.71711 3.43465
# Velocity P-wave (km/s) = 5.55318 6.51780 6.05473
#
# Compressibility (1/GPa) = 0.02380481
#
# Stress axis : x y z
#
# Youngs Moduli (GPa) = 76.67247 68.93555 72.15329
#
# Poissons Ratio (x) = 0.05152 0.36612
# Poissons Ratio (y) = 0.05730 0.21503
# Poissons Ratio (z) = 0.38905 0.20544
#
# Static dielectric constant tensor:
#      x y z
#    x 1.963390 0.111060 -0.032390 
#    y 0.111060 2.065220 -0.030930 
#    z -0.032390 -0.030930 2.006880 
# 
# From -- ./inp_files/288602.got.cif
#   From: 2010.05.17/outbox.cif.g08.bks.cpg/sg2_145_cif.got.tgz:288602.got - 2010.06.03 11:33:40.
