data_PCOD9049126
_publ_section_title
;
Structure prediction by ZEFSAII (Michael W. Deem and Ramdas Pophale) SiO2 
 PCOD9049126
Probable space group: P -1
;
_chemical_formula_sum "Si O2"
_cell_formula_units_Z 14
_cell_length_a 12.104594
_cell_length_b 9.223414
_cell_length_c 11.313659
_cell_angle_alpha 141.953983
_cell_angle_beta 50.996484
_cell_angle_gamma 120.252942
_cell_volume 604.854218
_symmetry_space_group_name_H-M "P -1"
_symmetry_group_IT_number 2
_symmetry_cell_setting 'triclinic'
loop_
_space_group_symop_operation_xyz
x,y,z
-x,-y,-z
loop_
_atom_site_type_symbol
_atom_site_label
_atom_site_fract_x
_atom_site_fract_y
_atom_site_fract_z
Si Si1 0.463060 0.880477 0.321228
Si Si2 0.278556 0.467726 0.101955
Si Si3 0.179208 0.502796 0.563413
Si Si4 0.793733 0.005410 0.832935
Si Si5 0.421425 0.746596 0.693519
Si Si6 0.032651 0.179857 0.198684
Si Si7 0.063132 0.600666 0.145263
O O1 0.320532 0.722925 0.292217
O O2 0.500000 0.000000 0.500000
O O3 0.479290 0.066922 0.322786
O O4 0.584784 0.689079 0.104020
O O5 0.175223 0.321208 0.161728
O O6 0.195768 0.474857 0.037316
O O7 0.291298 0.688860 0.656216
O O8 0.093182 0.634187 0.603520
O O9 0.062177 0.427648 0.692709
O O10 0.256587 0.260418 0.328658
O O11 0.867223 0.144767 0.765953
O O12 0.926963 0.966279 0.807449
O O13 0.662948 0.147863 0.069114
O O14 0.500000 0.500000 0.500000
O O15 0.000000 0.000000 0.000000
O O16 0.000000 0.500000 0.000000
#
# Coordination Sequence:
#
# PCOD9049126 Si02
#       7
#     2   2   2   2   2   2   2
#     4  11  26  47  72  98 143 196 246 293 349 432
#     4  10  24  46  69 105 142 183 242 293 363 425
#     4  11  25  44  72 104 138 186 238 295 371 424
#     4  12  24  44  71 102 143 182 234 303 355 430
#     4  12  28  47  68 104 145 191 243 291 363 428
#     4  11  20  46  72 104 140 181 237 305 361 432
#     4  11  23  46  73 107 144 183 232 306 377 429
#
# _framework density 23.146073000000001
#
# number of rings (size 3 to 8) (size 9 to 14) (size 15 to 20)
#    0.000    0.857    4.286    1.714    6.000    0.571 
#   10.286    0.000    0.000    0.000    0.000    0.000 
#    0.000    0.000    0.000    0.000    0.000    0.000 
#
# Total GULP energy -78229.504119 kJ/mol
# GULP energy per Si atom -5587.821723 kJ/mol
# Density = 2.309339 g / cm^3
# Si number density = 23.146073 Si / 1000 Ang^3
#
#
#
# Elastic Constant Matrix: (Units=GPa)
#
#
# Indices 1 2 3 4 5 6 
#
# 1 70.4219 21.0198 16.3672 0.6119 -8.0884 -0.9742
# 2 21.0198 124.7054 30.3760 10.5506 -6.3770 3.9912
# 3 16.3672 30.3760 118.6368 12.9644 -4.7628 3.4536
# 4 0.6119 10.5506 12.9644 26.7787 1.9015 1.3019
# 5 -8.0884 -6.3770 -4.7628 1.9015 37.9866 15.8527
# 6 -0.9742 3.9912 3.4536 1.3019 15.8527 51.9179
#
#
#
# Elastic Compliance Matrix: (Units=1/GPa)
#
#
# Indices 1 2 3 4 5 6 
#
# 1 0.015526 -0.002168 -0.001582 0.001081 0.002826 -0.000327
# 2 -0.002168 0.009127 -0.001645 -0.002802 0.001420 -0.000996
# 3 -0.001582 -0.001645 0.009572 -0.003991 0.001112 -0.000779
# 4 0.001081 -0.002802 -0.003991 0.040544 -0.002928 0.000379
# 5 0.002826 0.001420 0.001112 -0.002928 0.031487 -0.009671
# 6 -0.000327 -0.000996 -0.000779 0.000379 -0.009671 0.022327
#
#
# Mechanical properties :
#
#
# Convention : Reuss Voigt Hill
#
# Bulk Modulus (GPa) = 42.67409 49.92113 46.29761
# Shear Modulus (GPa) = 33.97096 39.73672 36.85384
#
# Velocity S-wave (km/s) = 3.83518 4.14790 3.99460
# Velocity P-wave (km/s) = 6.17158 6.67494 6.42819
#
# Compressibility (1/GPa) = 0.02343342
#
# Stress axis : x y z
#
# Youngs Moduli (GPa) = 64.40989 109.56833 104.47036
#
# Poissons Ratio (x) = 0.23755 0.16526
# Poissons Ratio (y) = 0.13964 0.17191
# Poissons Ratio (z) = 0.10189 0.18029
#
# Static dielectric constant tensor:
#      x y z
#    x 1.874570 0.015970 0.057900 
#    y 0.015970 1.836490 -0.006070 
#    z 0.057900 -0.006070 1.898060 
# 
# From -- ./inp_files/420156.got.cif
#   From: 2010.05.17/outbox.cif.g08.bks.cpg/sg2_211_cif.got.tgz:420156.got - 2010.06.03 11:33:40.
