data_PCOD9049937
_publ_section_title
;
Structure prediction by ZEFSAII (Michael W. Deem and Ramdas Pophale) SiO2 
 PCOD9049937
Probable space group: P -1
;
_chemical_formula_sum "Si O2"
_cell_formula_units_Z 16
_cell_length_a 18.752563
_cell_length_b 12.608714
_cell_length_c 9.410258
_cell_angle_alpha 99.699554
_cell_angle_beta 51.871917
_cell_angle_gamma 142.563894
_cell_volume 787.024367
_symmetry_space_group_name_H-M "P -1"
_symmetry_group_IT_number 2
_symmetry_cell_setting 'triclinic'
loop_
_space_group_symop_operation_xyz
x,y,z
-x,-y,-z
loop_
_atom_site_type_symbol
_atom_site_label
_atom_site_fract_x
_atom_site_fract_y
_atom_site_fract_z
Si Si1 0.449253 0.543577 0.178614
Si Si2 0.695101 0.683735 0.391068
Si Si3 0.808591 0.069979 0.824584
Si Si4 0.142389 0.544694 0.002669
Si Si5 0.855327 0.441919 0.330175
Si Si6 0.062592 0.214486 0.083397
Si Si7 0.913013 0.797756 0.628843
Si Si8 0.542891 0.994371 0.097873
O O1 0.355583 0.400682 0.405214
O O2 0.284715 0.437059 0.270173
O O3 0.500000 0.500000 0.000000
O O4 0.647112 0.818758 0.032826
O O5 0.500000 0.500000 0.500000
O O6 0.811319 0.709433 0.177706
O O7 0.838037 0.937944 0.274347
O O8 0.975052 0.292893 0.775430
O O9 0.925683 0.125341 0.575260
O O10 0.680180 0.034188 0.919090
O O11 0.193597 0.596471 0.784052
O O12 0.326782 0.786410 0.918118
O O13 0.087906 0.368436 0.081323
O O14 0.959928 0.435822 0.220224
O O15 0.660937 0.245980 0.622261
O O16 0.128677 0.237744 0.160923
O O17 0.000000 0.000000 0.500000
O O18 0.500000 0.000000 0.000000
#
# Coordination Sequence:
#
# PCOD9049937 Si02
#       8
#     2   2   2   2   2   2   2   2
#     4  12  24  44  71 102 135 185 232 276 337 409
#     4  11  26  43  66 102 143 176 227 279 334 407
#     4  11  26  40  74  96 135 182 229 276 351 395
#     4  10  25  44  72  99 132 181 225 282 345 416
#     4  10  24  48  69  97 136 175 228 285 348 411
#     4  11  26  43  67 100 138 183 226 277 348 397
#     4  12  24  44  67  95 141 182 231 282 331 413
#     4  11  26  46  71 104 134 170 233 289 343 413
#
# _framework density 20.329740999999999
#
# number of rings (size 3 to 8) (size 9 to 14) (size 15 to 20)
#    0.000    1.000    2.500    1.875   10.500    2.000 
#    0.000    0.000    0.000    0.000    0.000    0.000 
#    0.000    0.000    0.000    0.000    0.000    0.000 
#
# Total GULP energy -89504.800903 kJ/mol
# GULP energy per Si atom -5594.050056 kJ/mol
# Density = 2.028347 g / cm^3
# Si number density = 20.329741 Si / 1000 Ang^3
#
#
#
# Elastic Constant Matrix: (Units=GPa)
#
#
# Indices 1 2 3 4 5 6 
#
# 1 104.1746 73.2476 63.2712 -1.6124 10.4985 12.3306
# 2 73.2476 147.8139 64.8829 -14.7901 4.6178 -6.2139
# 3 63.2712 64.8829 140.8745 3.2845 4.2235 7.1393
# 4 -1.6124 -14.7901 3.2845 35.9420 9.8501 -1.3407
# 5 10.4985 4.6178 4.2235 9.8501 26.1911 2.1341
# 6 12.3306 -6.2139 7.1393 -1.3407 2.1341 43.8281
#
#
#
# Elastic Compliance Matrix: (Units=1/GPa)
#
#
# Indices 1 2 3 4 5 6 
#
# 1 0.018663 -0.007399 -0.004545 -0.000690 -0.004748 -0.005349
# 2 -0.007399 0.012402 -0.002709 0.005524 -0.001229 0.004510
# 3 -0.004545 -0.002709 0.010450 -0.002788 0.001742 -0.000978
# 4 -0.000690 0.005524 -0.002788 0.034087 -0.013322 0.003123
# 5 -0.004748 -0.001229 0.001742 -0.013322 0.045171 -0.001729
# 6 -0.005349 0.004510 -0.000978 0.003123 -0.001729 0.025300
#
#
# Mechanical properties :
#
#
# Convention : Reuss Voigt Hill
#
# Bulk Modulus (GPa) = 81.91081 88.40740 85.15910
# Shear Modulus (GPa) = 27.86330 33.95632 30.90981
#
# Velocity S-wave (km/s) = 3.70614 4.09134 3.90349
# Velocity P-wave (km/s) = 7.66110 8.11787 7.89279
#
# Compressibility (1/GPa) = 0.01220840
#
# Stress axis : x y z
#
# Youngs Moduli (GPa) = 53.58219 80.63439 95.69472
#
# Poissons Ratio (x) = 0.59660 0.43492
# Poissons Ratio (y) = 0.39645 0.25927
# Poissons Ratio (z) = 0.24352 0.21846
#
# Static dielectric constant tensor:
#      x y z
#    x 1.700980 -0.006630 -0.024720 
#    y -0.006630 1.721220 -0.002650 
#    z -0.024720 -0.002650 1.711460 
# 
# From -- ./inp_files/333360.got.cif
#   From: 2010.05.17/outbox.cif.g08.bks.cpg/sg2_167_cif.got.tgz:333360.got - 2010.06.03 11:33:40.
