data_PCOD9049709
_publ_section_title
;
Structure prediction by ZEFSAII (Michael W. Deem and Ramdas Pophale) SiO2 
 PCOD9049709
Probable space group: P -1
;
_chemical_formula_sum "Si O2"
_cell_formula_units_Z 14
_cell_length_a 19.284331
_cell_length_b 5.089080
_cell_length_c 10.020584
_cell_angle_alpha 87.628511
_cell_angle_beta 44.352176
_cell_angle_gamma 59.367176
_cell_volume 499.037333
_symmetry_space_group_name_H-M "P -1"
_symmetry_group_IT_number 2
_symmetry_cell_setting 'triclinic'
loop_
_space_group_symop_operation_xyz
x,y,z
-x,-y,-z
loop_
_atom_site_type_symbol
_atom_site_label
_atom_site_fract_x
_atom_site_fract_y
_atom_site_fract_z
Si Si1 0.301984 0.962647 0.215424
Si Si2 0.776450 0.627442 0.327506
Si Si3 0.431660 0.323135 0.255242
Si Si4 0.667083 0.345502 0.351161
Si Si5 0.251946 0.698757 0.025874
Si Si6 0.032470 0.544793 0.712899
Si Si7 0.943729 0.342765 0.655612
O O1 0.340851 0.693297 0.287744
O O2 0.346600 0.213765 0.400790
O O3 0.166705 0.362040 0.440324
O O4 0.425937 0.930653 0.010879
O O5 0.780798 0.345893 0.249169
O O6 0.910793 0.477214 0.221945
O O7 0.723763 0.951034 0.297120
O O8 0.719852 0.191749 0.880072
O O9 0.447288 0.401012 0.383877
O O10 0.635839 0.477854 0.239971
O O11 0.113717 0.068142 0.136515
O O12 0.210710 0.470192 0.112139
O O13 0.008831 0.278731 0.713984
O O14 0.000000 0.500000 0.500000
O O15 0.000000 0.000000 0.500000
#
# Coordination Sequence:
#
# PCOD9049709 Si02
#       7
#     2   2   2   2   2   2   2
#     4  11  22  49  74 112 141 195 242 315 356 434
#     4  10  24  47  72 103 145 192 248 290 355 445
#     4   9  24  47  76 104 143 196 251 295 363 429
#     4  10  25  50  70 106 146 198 240 296 366 430
#     4  12  28  43  75 112 151 187 241 303 374 434
#     4  12  24  43  73 107 147 188 241 300 367 427
#     4  12  25  43  64 106 151 186 232 286 372 429
#
# _framework density 28.054013999999999
#
# number of rings (size 3 to 8) (size 9 to 14) (size 15 to 20)
#    0.857    0.286    4.286    0.429    8.000    2.286 
#    0.000    0.714    0.000    0.000    0.000    0.000 
#    0.000    0.000    0.000    0.000    0.000    0.000 
#
# Total GULP energy -78241.885953 kJ/mol
# GULP energy per Si atom -5588.706140 kJ/mol
# Density = 2.799016 g / cm^3
# Si number density = 28.054014 Si / 1000 Ang^3
#
#
#
# Elastic Constant Matrix: (Units=GPa)
#
#
# Indices 1 2 3 4 5 6 
#
# 1 149.3966 30.6389 21.1037 -13.8240 -6.1335 36.1943
# 2 30.6389 118.4332 39.5537 -22.5691 -16.8187 13.2215
# 3 21.1037 39.5537 127.6608 -27.4887 21.5445 -2.2652
# 4 -13.8240 -22.5691 -27.4887 49.8273 0.8217 -9.4733
# 5 -6.1335 -16.8187 21.5445 0.8217 43.3125 -0.4191
# 6 36.1943 13.2215 -2.2652 -9.4733 -0.4191 41.2274
#
#
#
# Elastic Compliance Matrix: (Units=1/GPa)
#
#
# Indices 1 2 3 4 5 6 
#
# 1 0.009040 -0.000648 -0.001816 -0.000317 0.001861 -0.007882
# 2 -0.000648 0.011646 -0.004176 0.002146 0.006440 -0.002837
# 3 -0.001816 -0.004176 0.011969 0.005234 -0.007886 0.004713
# 4 -0.000317 0.002146 0.005234 0.024939 -0.002234 0.005585
# 5 0.001861 0.006440 -0.007886 -0.002234 0.029775 -0.004343
# 6 -0.007882 -0.002837 0.004713 0.005585 -0.004343 0.033583
#
#
# Mechanical properties :
#
#
# Convention : Reuss Voigt Hill
#
# Bulk Modulus (GPa) = 51.61500 64.23146 57.92323
# Shear Modulus (GPa) = 35.53887 47.15305 41.34596
#
# Velocity S-wave (km/s) = 3.56308 4.10420 3.84317
# Velocity P-wave (km/s) = 5.94691 6.73829 6.35493
#
# Compressibility (1/GPa) = 0.01937421
#
# Stress axis : x y z
#
# Youngs Moduli (GPa) = 110.62368 85.86524 83.55036
#
# Poissons Ratio (x) = 0.05567 0.15169
# Poissons Ratio (y) = 0.07172 0.34893
# Poissons Ratio (z) = 0.20085 0.35860
#
# Static dielectric constant tensor:
#      x y z
#    x 2.349790 -0.112250 0.109610 
#    y -0.112250 2.278990 -0.029660 
#    z 0.109610 -0.029660 2.326360 
# 
# From -- ./inp_files/473093.got.cif
#   From: 2010.05.17/outbox.cif.g08.bks.cpg/sg2_237_cif.got.tgz:473093.got - 2010.06.03 11:33:40.
