data_PCOD9049563
_publ_section_title
;
Structure prediction by ZEFSAII (Michael W. Deem and Ramdas Pophale) SiO2 
 PCOD9049563
Probable space group: P -1
;
_chemical_formula_sum "Si O2"
_cell_formula_units_Z 12
_cell_length_a 10.924565
_cell_length_b 9.635154
_cell_length_c 14.861824
_cell_angle_alpha 101.274126
_cell_angle_beta 147.130174
_cell_angle_gamma 104.135276
_cell_volume 533.937004
_symmetry_space_group_name_H-M "P -1"
_symmetry_group_IT_number 2
_symmetry_cell_setting 'triclinic'
loop_
_space_group_symop_operation_xyz
x,y,z
-x,-y,-z
loop_
_atom_site_type_symbol
_atom_site_label
_atom_site_fract_x
_atom_site_fract_y
_atom_site_fract_z
Si Si1 0.754873 0.590804 0.447504
Si Si2 0.462760 0.610045 0.418492
Si Si3 0.771146 0.001446 0.090615
Si Si4 0.619898 0.877029 0.788583
Si Si5 0.770097 0.221898 0.639949
Si Si6 0.489681 0.423122 0.080488
O O1 0.450947 0.539298 0.302533
O O2 0.625236 0.373430 0.366695
O O3 0.108410 0.817237 0.743381
O O4 0.774740 0.604948 0.354324
O O5 0.500000 0.500000 0.500000
O O6 0.193435 0.598279 0.280969
O O7 0.838838 0.870324 0.678803
O O8 0.551802 0.767065 0.967794
O O9 0.649487 0.981202 0.912272
O O10 0.401960 0.850991 0.574344
O O11 0.000000 0.000000 0.000000
O O12 0.132982 0.317013 0.884377
O O13 0.500000 0.000000 0.500000
O O14 0.500000 0.500000 0.000000
#
# Coordination Sequence:
#
# PCOD9049563 Si02
#       6
#     2   2   2   2   2   2
#     4   9  19  38  57  83 120 159 197 246 299 361
#     4  10  17  34  60  89 117 148 191 248 301 350
#     4   9  19  37  57  84 114 161 196 241 301 355
#     4  11  17  32  59  85 120 154 189 248 301 360
#     4  12  20  35  61  96 119 154 202 251 307 357
#     4  11  24  40  59  85 125 165 200 248 301 355
#
# _framework density 22.474561000000001
#
# number of rings (size 3 to 8) (size 9 to 14) (size 15 to 20)
#    1.000    0.667    5.000    1.000    0.000    1.333 
#    0.000    8.333    0.000    5.000    0.000    0.000 
#    0.000    0.000    0.000    0.000    0.000    0.000 
#
# Total GULP energy -66854.177873 kJ/mol
# GULP energy per Si atom -5571.181489 kJ/mol
# Density = 2.242341 g / cm^3
# Si number density = 22.474561 Si / 1000 Ang^3
#
#
#
# Elastic Constant Matrix: (Units=GPa)
#
#
# Indices 1 2 3 4 5 6 
#
# 1 87.9385 52.3768 43.9561 2.8376 -42.6879 4.7515
# 2 52.3768 96.0054 19.6141 -0.0521 -29.2031 2.1705
# 3 43.9561 19.6141 86.2501 5.7076 -34.7628 -3.5372
# 4 2.8376 -0.0521 5.7076 28.1677 1.4614 -1.5539
# 5 -42.6879 -29.2031 -34.7628 1.4614 59.1598 -14.0442
# 6 4.7515 2.1705 -3.5372 -1.5539 -14.0442 40.7944
#
#
#
# Elastic Compliance Matrix: (Units=1/GPa)
#
#
# Indices 1 2 3 4 5 6 
#
# 1 0.024934 -0.009339 -0.006585 -0.001679 0.009617 0.000269
# 2 -0.009339 0.015849 0.002295 0.000440 0.002757 0.001410
# 3 -0.006585 0.002295 0.018202 -0.003179 0.008336 0.004972
# 4 -0.001679 0.000440 -0.003179 0.036511 -0.003766 -0.000009
# 5 0.009617 0.002757 0.008336 -0.003766 0.032705 0.010572
# 6 0.000269 0.001410 0.004972 -0.000009 0.010572 0.028477
#
#
# Mechanical properties :
#
#
# Convention : Reuss Voigt Hill
#
# Bulk Modulus (GPa) = 31.51814 55.78754 43.65284
# Shear Modulus (GPa) = 25.70542 35.90753 30.80647
#
# Velocity S-wave (km/s) = 3.38562 4.00146 3.70635
# Velocity P-wave (km/s) = 5.41642 6.79892 6.14666
#
# Compressibility (1/GPa) = 0.03172776
#
# Stress axis : x y z
#
# Youngs Moduli (GPa) = 40.10647 63.09421 54.93808
#
# Poissons Ratio (x) = 0.58924 0.36177
# Poissons Ratio (y) = 0.37456 -0.12610
# Poissons Ratio (z) = 0.26410 -0.14482
#
# Static dielectric constant tensor:
#      x y z
#    x 1.948050 -0.009650 0.007830 
#    y -0.009650 1.798480 0.030090 
#    z 0.007830 0.030090 1.880380 
# 
# From -- ./inp_files/514391.got.cif
#   From: 2010.05.17/outbox.cif.g08.bks.cpg/sg2_258_cif.got.tgz:514391.got - 2010.06.03 11:33:40.
