data_PCOD9049909
_publ_section_title
;
Structure prediction by ZEFSAII (Michael W. Deem and Ramdas Pophale) SiO2 
 PCOD9049909
Probable space group: P -1
;
_chemical_formula_sum "Si O2"
_cell_formula_units_Z 15
_cell_length_a 8.716848
_cell_length_b 9.667378
_cell_length_c 13.513863
_cell_angle_alpha 146.864778
_cell_angle_beta 86.048051
_cell_angle_gamma 85.531029
_cell_volume 601.492470
_symmetry_space_group_name_H-M "P -1"
_symmetry_group_IT_number 2
_symmetry_cell_setting 'triclinic'
loop_
_space_group_symop_operation_xyz
x,y,z
-x,-y,-z
loop_
_atom_site_type_symbol
_atom_site_label
_atom_site_fract_x
_atom_site_fract_y
_atom_site_fract_z
Si Si1 0.764065 0.170332 0.149369
Si Si2 0.500000 0.500000 0.500000
Si Si3 0.335958 0.099566 0.650041
Si Si4 0.366234 0.050753 0.318862
Si Si5 0.244119 0.687490 0.977104
Si Si6 0.034515 0.450548 0.584366
Si Si7 0.127122 0.264558 0.954444
Si Si8 0.855188 0.249124 0.635420
O O1 0.618448 0.380400 0.330691
O O2 0.740673 0.141570 0.017535
O O3 0.914182 0.299688 0.226576
O O4 0.798475 0.925469 0.073148
O O5 0.435659 0.230155 0.347460
O O6 0.304382 0.380339 0.767575
O O7 0.508845 0.005041 0.631749
O O8 0.291414 0.870505 0.452959
O O9 0.216361 0.157700 0.785527
O O10 0.186963 0.207851 0.445208
O O11 0.348189 0.780530 0.111012
O O12 0.058895 0.730391 0.039949
O O13 0.000000 0.500000 0.500000
O O14 0.893916 0.388867 0.617025
O O15 0.150744 0.546245 0.153564
O O16 0.000000 0.000000 0.500000
#
# Coordination Sequence:
#
# PCOD9049909 Si02
#       8
#     2   1   2   2   2   2   2   2
#     4  11  23  46  72 107 140 187 254 303 365 432
#     4  10  24  48  66 102 152 186 236 306 372 430
#     4  12  26  51  70 110 155 195 241 308 377 438
#     4  11  26  45  74 102 151 196 240 300 385 431
#     4  12  25  45  76 105 146 194 252 306 357 451
#     4  11  24  45  75 103 144 192 243 308 364 438
#     4  12  25  47  78 110 147 195 251 303 370 440
#     4  12  26  47  75 111 146 196 250 304 367 439
#
# _framework density 24.93797
#
# number of rings (size 3 to 8) (size 9 to 14) (size 15 to 20)
#    0.000    0.533    4.000    3.600    5.600    0.533 
#    4.800    3.333    0.000    0.000    0.000    0.000 
#    0.000    0.000    0.000    0.000    0.000    0.000 
#
# Total GULP energy -83885.471482 kJ/mol
# GULP energy per Si atom -5592.364765 kJ/mol
# Density = 2.488121 g / cm^3
# Si number density = 24.937970 Si / 1000 Ang^3
#
#
#
# Elastic Constant Matrix: (Units=GPa)
#
#
# Indices 1 2 3 4 5 6 
#
# 1 123.5912 32.6736 48.0847 -15.1454 8.6649 7.7228
# 2 32.6736 107.7717 9.6429 -2.7569 2.8419 10.5560
# 3 48.0847 9.6429 93.6445 8.4846 23.2389 16.6963
# 4 -15.1454 -2.7569 8.4846 33.9404 0.5021 3.9515
# 5 8.6649 2.8419 23.2389 0.5021 47.5868 -1.3362
# 6 7.7228 10.5560 16.6963 3.9515 -1.3362 51.0651
#
#
#
# Elastic Compliance Matrix: (Units=1/GPa)
#
#
# Indices 1 2 3 4 5 6 
#
# 1 0.012385 -0.003032 -0.007115 0.006972 0.001343 0.000576
# 2 -0.003032 0.010301 0.001056 -0.000539 -0.000629 -0.001991
# 3 -0.007115 0.001056 0.017473 -0.006822 -0.007355 -0.004520
# 4 0.006972 -0.000539 -0.006822 0.034366 0.001694 -0.001327
# 5 0.001343 -0.000629 -0.007355 0.001694 0.024461 0.002841
# 6 0.000576 -0.001991 -0.004520 -0.001327 0.002841 0.021562
#
#
# Mechanical properties :
#
#
# Convention : Reuss Voigt Hill
#
# Bulk Modulus (GPa) = 45.50130 56.20110 50.85120
# Shear Modulus (GPa) = 34.23360 42.15887 38.19624
#
# Velocity S-wave (km/s) = 3.70908 4.11609 3.91788
# Velocity P-wave (km/s) = 6.05215 6.72123 6.39544
#
# Compressibility (1/GPa) = 0.02197740
#
# Stress axis : x y z
#
# Youngs Moduli (GPa) = 80.74214 97.07476 57.23259
#
# Poissons Ratio (x) = 0.29430 0.40721
# Poissons Ratio (y) = 0.24478 -0.06043
# Poissons Ratio (z) = 0.57448 -0.10249
#
# Static dielectric constant tensor:
#      x y z
#    x 1.957110 0.012300 -0.025700 
#    y 0.012300 2.018680 -0.024690 
#    z -0.025700 -0.024690 1.966060 
# 
# From -- ./inp_files/383728.got.cif
#   From: 2010.05.17/outbox.cif.g08.bks.cpg/sg2_192_cif.got.tgz:383728.got - 2010.06.03 11:33:40.
