data_PCOD9049847
_publ_section_title
;
Structure prediction by ZEFSAII (Michael W. Deem and Ramdas Pophale) SiO2 
 PCOD9049847
Probable space group: P -1
;
_chemical_formula_sum "Si O2"
_cell_formula_units_Z 14
_cell_length_a 5.229152
_cell_length_b 11.115022
_cell_length_c 11.602786
_cell_angle_alpha 113.557301
_cell_angle_beta 101.078824
_cell_angle_gamma 62.408549
_cell_volume 547.852406
_symmetry_space_group_name_H-M "P -1"
_symmetry_group_IT_number 2
_symmetry_cell_setting 'triclinic'
loop_
_space_group_symop_operation_xyz
x,y,z
-x,-y,-z
loop_
_atom_site_type_symbol
_atom_site_label
_atom_site_fract_x
_atom_site_fract_y
_atom_site_fract_z
Si Si1 0.339985 0.416536 0.513714
Si Si2 0.801763 0.715284 0.902738
Si Si3 0.353755 0.734779 0.061523
Si Si4 0.873045 0.948601 0.858891
Si Si5 0.220059 0.114699 0.588753
Si Si6 0.227918 0.869746 0.638581
Si Si7 0.257944 0.410314 0.756174
O O1 0.500000 0.500000 0.500000
O O2 0.459038 0.256082 0.409290
O O3 0.412629 0.413658 0.653076
O O4 0.000000 0.500000 0.500000
O O5 0.721701 0.852933 0.862616
O O6 0.973022 0.559657 0.798989
O O7 0.540373 0.713152 0.952748
O O8 0.049094 0.729767 0.010396
O O9 0.540095 0.618089 0.126666
O O10 0.308839 0.896513 0.157898
O O11 0.107236 0.858839 0.749003
O O12 0.000000 0.000000 0.000000
O O13 0.206820 0.267346 0.682065
O O14 0.966823 0.149060 0.487435
O O15 0.500000 0.000000 0.500000
O O16 0.200188 0.028858 0.667742
#
# Coordination Sequence:
#
# PCOD9049847 Si02
#       7
#     2   2   2   2   2   2   2
#     4  12  28  48  72 110 153 197 246 316 388 453
#     4  11  26  48  71 113 152 199 246 316 379 447
#     4  11  26  48  75 110 153 195 260 308 375 458
#     4  10  24  47  76 109 151 203 250 313 381 455
#     4  11  24  46  75 113 148 200 255 323 377 454
#     4  11  25  47  74 109 153 197 263 310 383 461
#     4  12  26  47  78 108 147 201 253 316 381 452
#
# _framework density 25.554328000000002
#
# number of rings (size 3 to 8) (size 9 to 14) (size 15 to 20)
#    0.000    0.857    1.429    3.857    6.000    5.714 
#    7.714    0.000    0.000    0.000    0.000    0.000 
#    0.000    0.000    0.000    0.000    0.000    0.000 
#
# Total GULP energy -78516.902072 kJ/mol
# GULP energy per Si atom -5608.350148 kJ/mol
# Density = 2.549617 g / cm^3
# Si number density = 25.554328 Si / 1000 Ang^3
#
#
#
# Elastic Constant Matrix: (Units=GPa)
#
#
# Indices 1 2 3 4 5 6 
#
# 1 85.3721 21.6537 31.8916 -12.5965 -2.4945 -1.8276
# 2 21.6537 127.1486 39.3686 5.6010 -6.8929 6.4441
# 3 31.8916 39.3686 100.5527 -0.1816 -18.0886 5.7179
# 4 -12.5965 5.6010 -0.1816 49.7633 9.1122 -13.3024
# 5 -2.4945 -6.8929 -18.0886 9.1122 54.0039 3.9736
# 6 -1.8276 6.4441 5.7179 -13.3024 3.9736 46.7575
#
#
#
# Elastic Compliance Matrix: (Units=1/GPa)
#
#
# Indices 1 2 3 4 5 6 
#
# 1 0.014546 -0.001555 -0.004543 0.005014 -0.002111 0.002944
# 2 -0.001555 0.009236 -0.002933 -0.001973 0.000574 -0.001585
# 3 -0.004543 -0.002933 0.013476 -0.002245 0.004488 -0.002441
# 4 0.005014 -0.001973 -0.002245 0.024809 -0.005567 0.008274
# 5 -0.002111 0.000574 0.004488 -0.005567 0.021237 -0.004099
# 6 0.002944 -0.001585 -0.002441 0.008274 -0.004099 0.024721
#
#
# Mechanical properties :
#
#
# Convention : Reuss Voigt Hill
#
# Bulk Modulus (GPa) = 52.09241 55.43345 53.76293
# Shear Modulus (GPa) = 37.73957 44.78223 41.26090
#
# Velocity S-wave (km/s) = 3.84713 4.19075 4.02261
# Velocity P-wave (km/s) = 6.33744 6.71982 6.53143
#
# Compressibility (1/GPa) = 0.01919666
#
# Stress axis : x y z
#
# Youngs Moduli (GPa) = 68.74735 108.26978 74.20431
#
# Poissons Ratio (x) = 0.16838 0.33708
# Poissons Ratio (y) = 0.10692 0.21765
# Poissons Ratio (z) = 0.31229 0.31756
#
# Static dielectric constant tensor:
#      x y z
#    x 2.016470 0.040250 0.048030 
#    y 0.040250 2.168280 0.033920 
#    z 0.048030 0.033920 2.014400 
# 
# From -- ./inp_files/127087.got.cif
#   From: 2010.05.17/outbox.cif.g08.bks.cpg/sg2_64_cif.got.tgz:127087.got - 2010.06.03 11:33:40.
