data_PCOD9049099
_publ_section_title
;
Structure prediction by ZEFSAII (Michael W. Deem and Ramdas Pophale) SiO2 
 PCOD9049099
Probable space group: P -1
;
_chemical_formula_sum "Si O2"
_cell_formula_units_Z 16
_cell_length_a 6.114192
_cell_length_b 25.133777
_cell_length_c 15.104000
_cell_angle_alpha 18.127171
_cell_angle_beta 102.892292
_cell_angle_gamma 100.136452
_cell_volume 698.953043
_symmetry_space_group_name_H-M "P -1"
_symmetry_group_IT_number 2
_symmetry_cell_setting 'triclinic'
loop_
_space_group_symop_operation_xyz
x,y,z
-x,-y,-z
loop_
_atom_site_type_symbol
_atom_site_label
_atom_site_fract_x
_atom_site_fract_y
_atom_site_fract_z
Si Si1 0.591294 0.160438 0.546452
Si Si2 0.774724 0.927238 0.639427
Si Si3 0.981559 0.227757 0.940878
Si Si4 0.550760 0.186366 0.848058
Si Si5 0.357276 0.345775 0.070578
Si Si6 0.951420 0.384786 0.262110
Si Si7 0.425190 0.332929 0.437094
Si Si8 0.276837 0.469715 0.474665
O O1 0.465889 0.204167 0.373914
O O2 0.473094 0.286200 0.412677
O O3 0.835166 0.225323 0.465309
O O4 0.572487 0.970704 0.879572
O O5 0.756161 0.747880 0.870180
O O6 0.500000 0.000000 0.500000
O O7 0.000000 0.000000 0.500000
O O8 0.850171 0.914336 0.769492
O O9 0.780709 0.179690 0.936059
O O10 0.865229 0.343920 0.827794
O O11 0.128695 0.345470 0.710783
O O12 0.583022 0.203505 0.718921
O O13 0.382349 0.362278 0.571497
O O14 0.539081 0.468147 0.860230
O O15 0.191223 0.483382 0.893015
O O16 0.165457 0.308909 0.458339
O O17 0.000000 0.500000 0.000000
O O18 0.500000 0.500000 0.500000
#
# Coordination Sequence:
#
# PCOD9049099 Si02
#       8
#     2   2   2   2   2   2   2   2
#     4  11  23  43  65 101 141 178 235 304 370 439
#     4  12  31  48  76 115 151 189 252 313 369 443
#     4  10  24  46  68  98 146 186 239 297 364 442
#     4  11  25  41  71 100 144 184 236 302 376 422
#     4  11  25  43  73  98 142 192 243 293 379 439
#     4  11  21  43  71  98 134 191 245 299 361 446
#     4  11  24  42  68 103 136 184 244 296 359 456
#     4   9  22  41  68  93 134 190 239 285 357 437
#
# _framework density 22.891380999999999
#
# number of rings (size 3 to 8) (size 9 to 14) (size 15 to 20)
#    0.000    1.250    2.500    1.875   14.000    2.500 
#    0.000    0.000    0.000    0.000    0.000    0.000 
#    0.000    0.000    0.000    0.000    0.000    0.000 
#
# Total GULP energy -89197.857897 kJ/mol
# GULP energy per Si atom -5574.866119 kJ/mol
# Density = 2.283928 g / cm^3
# Si number density = 22.891381 Si / 1000 Ang^3
#
#
#
# Elastic Constant Matrix: (Units=GPa)
#
#
# Indices 1 2 3 4 5 6 
#
# 1 96.8606 26.9987 12.9106 0.4153 0.4185 25.4669
# 2 26.9987 91.2616 18.0720 14.2205 5.3032 33.3456
# 3 12.9106 18.0720 52.3756 12.6346 -9.1820 13.8679
# 4 0.4153 14.2205 12.6346 41.3601 6.2932 7.3691
# 5 0.4185 5.3032 -9.1820 6.2932 37.5200 -2.3435
# 6 25.4669 33.3456 13.8679 7.3691 -2.3435 35.7007
#
#
#
# Elastic Compliance Matrix: (Units=1/GPa)
#
#
# Indices 1 2 3 4 5 6 
#
# 1 0.012968 -0.000681 -0.001468 0.002288 -0.001329 -0.008603
# 2 -0.000681 0.017554 -0.002028 -0.002218 -0.003528 -0.014896
# 3 -0.001468 -0.002028 0.024305 -0.006980 0.007135 -0.004590
# 4 0.002288 -0.002218 -0.006980 0.028591 -0.006414 -0.003171
# 5 -0.001329 -0.003528 0.007135 -0.006414 0.030287 0.004784
# 6 -0.008603 -0.014896 -0.004590 -0.003171 0.004784 0.050813
#
#
# Mechanical properties :
#
#
# Convention : Reuss Voigt Hill
#
# Bulk Modulus (GPa) = 21.51906 39.60668 30.56287
# Shear Modulus (GPa) = 26.54454 35.08392 30.81423
#
# Velocity S-wave (km/s) = 3.40896 3.91912 3.67291
# Velocity P-wave (km/s) = 4.99156 6.14971 5.60065
#
# Compressibility (1/GPa) = 0.04647043
#
# Stress axis : x y z
#
# Youngs Moduli (GPa) = 77.11510 56.96637 41.14432
#
# Poissons Ratio (x) = 0.03882 0.06041
# Poissons Ratio (y) = 0.05255 0.08346
# Poissons Ratio (z) = 0.11323 0.11555
#
# Static dielectric constant tensor:
#      x y z
#    x 1.983040 -0.053470 0.040600 
#    y -0.053470 1.872970 -0.021370 
#    z 0.040600 -0.021370 1.863560 
# 
# From -- ./inp_files/369552.got.cif
#   From: 2010.05.17/outbox.cif.g08.bks.cpg/sg2_185_cif.got.tgz:369552.got - 2010.06.03 11:33:40.
