data_PCOD9049490
_publ_section_title
;
Structure prediction by ZEFSAII (Michael W. Deem and Ramdas Pophale) SiO2 
 PCOD9049490
Probable space group: P -1
;
_chemical_formula_sum "Si O2"
_cell_formula_units_Z 14
_cell_length_a 11.541946
_cell_length_b 8.536656
_cell_length_c 17.162134
_cell_angle_alpha 127.804452
_cell_angle_beta 147.804481
_cell_angle_gamma 38.563884
_cell_volume 555.579604
_symmetry_space_group_name_H-M "P -1"
_symmetry_group_IT_number 2
_symmetry_cell_setting 'triclinic'
loop_
_space_group_symop_operation_xyz
x,y,z
-x,-y,-z
loop_
_atom_site_type_symbol
_atom_site_label
_atom_site_fract_x
_atom_site_fract_y
_atom_site_fract_z
Si Si1 0.250868 0.407476 0.830562
Si Si2 0.163153 0.672024 0.447452
Si Si3 0.682232 0.115101 0.862464
Si Si4 0.943108 0.905659 0.704870
Si Si5 0.446637 0.578803 0.265488
Si Si6 0.446195 0.857907 0.583597
Si Si7 0.515896 0.756762 0.925749
O O1 0.550329 0.246515 0.910244
O O2 0.140845 0.246371 0.707034
O O3 0.043653 0.673635 0.748517
O O4 0.287201 0.427968 0.948085
O O5 0.289539 0.575073 0.575328
O O6 0.230216 0.852865 0.510630
O O7 0.338425 0.423634 0.415340
O O8 0.513663 0.326263 0.763350
O O9 0.615148 0.925431 0.747492
O O10 0.000000 0.000000 0.000000
O O11 0.207634 0.848949 0.795039
O O12 0.792023 0.167223 0.746590
O O13 0.723903 0.957713 0.530691
O O14 0.379626 0.395199 0.142069
O O15 0.500000 0.000000 0.000000
#
# Coordination Sequence:
#
# PCOD9049490 Si02
#       7
#     2   2   2   2   2   2   2
#     4  12  26  45  76 107 150 190 248 307 366 443
#     4  10  24  47  74 111 142 199 245 301 371 434
#     4  12  27  45  72 108 147 199 247 305 371 437
#     4  11  24  48  74 109 143 193 251 302 370 437
#     4  11  26  46  74 103 148 194 246 300 368 436
#     4  10  24  46  75 107 151 188 249 308 362 441
#     4  12  28  46  68 109 151 193 245 308 365 443
#
# _framework density 25.198909
#
# number of rings (size 3 to 8) (size 9 to 14) (size 15 to 20)
#    0.000    0.857    1.429    3.857    8.000    4.571 
#    0.000    0.000    0.000    0.000    0.000    0.000 
#    0.000    0.000    0.000    0.000    0.000    0.000 
#
# Total GULP energy -78527.706779 kJ/mol
# GULP energy per Si atom -5609.121913 kJ/mol
# Density = 2.514156 g / cm^3
# Si number density = 25.198909 Si / 1000 Ang^3
#
#
#
# Elastic Constant Matrix: (Units=GPa)
#
#
# Indices 1 2 3 4 5 6 
#
# 1 66.6545 18.9202 39.0687 -0.3011 8.0720 -5.7915
# 2 18.9202 104.2999 49.5089 23.0584 6.0440 -11.6576
# 3 39.0687 49.5089 146.5020 18.8757 2.0974 -7.3704
# 4 -0.3011 23.0584 18.8757 44.5518 1.3661 1.3834
# 5 8.0720 6.0440 2.0974 1.3661 47.2654 4.9092
# 6 -5.7915 -11.6576 -7.3704 1.3834 4.9092 35.8973
#
#
#
# Elastic Compliance Matrix: (Units=1/GPa)
#
#
# Indices 1 2 3 4 5 6 
#
# 1 0.018741 -0.001388 -0.004762 0.002898 -0.003094 0.001907
# 2 -0.001388 0.013051 -0.003117 -0.005514 -0.001528 0.003796
# 3 -0.004762 -0.003117 0.009461 -0.002458 0.000848 0.000141
# 4 0.002898 -0.005514 -0.002458 0.026453 -0.000152 -0.002827
# 5 -0.003094 -0.001528 0.000848 -0.000152 0.022248 -0.003858
# 6 0.001907 0.003796 0.000141 -0.002827 -0.003858 0.030063
#
#
# Mechanical properties :
#
#
# Convention : Reuss Voigt Hill
#
# Bulk Modulus (GPa) = 44.01501 59.16135 51.58818
# Shear Modulus (GPa) = 34.21744 39.54013 36.87878
#
# Velocity S-wave (km/s) = 3.68896 3.96551 3.82973
# Velocity P-wave (km/s) = 5.97072 6.67051 6.33029
#
# Compressibility (1/GPa) = 0.02271952
#
# Stress axis : x y z
#
# Youngs Moduli (GPa) = 53.35814 76.62228 105.69981
#
# Poissons Ratio (x) = 0.10632 0.50336
# Poissons Ratio (y) = 0.07404 0.32948
# Poissons Ratio (z) = 0.25410 0.23884
#
# Static dielectric constant tensor:
#      x y z
#    x 1.988440 -0.000910 0.016080 
#    y -0.000910 2.052710 0.028690 
#    z 0.016080 0.028690 1.961780 
# 
# From -- ./inp_files/566974.got.cif
#   From: 2010.05.17/outbox.cif.g08.bks.cpg/sg2_284_cif.got.tgz:566974.got - 2010.06.03 11:33:40.
