data_PCOD9049550
_publ_section_title
;
Structure prediction by ZEFSAII (Michael W. Deem and Ramdas Pophale) SiO2 
 PCOD9049550
Probable space group: P -1
;
_chemical_formula_sum "Si O2"
_cell_formula_units_Z 12
_cell_length_a 8.239339
_cell_length_b 8.777495
_cell_length_c 9.370354
_cell_angle_alpha 116.249608
_cell_angle_beta 112.196495
_cell_angle_gamma 50.800880
_cell_volume 466.276862
_symmetry_space_group_name_H-M "P -1"
_symmetry_group_IT_number 2
_symmetry_cell_setting 'triclinic'
loop_
_space_group_symop_operation_xyz
x,y,z
-x,-y,-z
loop_
_atom_site_type_symbol
_atom_site_label
_atom_site_fract_x
_atom_site_fract_y
_atom_site_fract_z
Si Si1 0.979610 0.344949 0.534274
Si Si2 0.299495 0.797784 0.676755
Si Si3 0.023317 0.285531 0.838221
Si Si4 0.656620 0.847875 0.866965
Si Si5 0.655274 0.033879 0.653308
Si Si6 0.544974 0.469056 0.837567
O O1 0.775143 0.330293 0.486264
O O2 0.000000 0.500000 0.500000
O O3 0.053206 0.356773 0.722236
O O4 0.127276 0.123011 0.418712
O O5 0.524797 0.770655 0.709093
O O6 0.358295 0.680268 0.796880
O O7 0.131253 0.041440 0.739176
O O8 0.778598 0.404713 0.847731
O O9 0.141030 0.289677 0.021351
O O10 0.689427 0.965387 0.801230
O O11 0.500000 0.000000 0.000000
O O12 0.552736 0.272626 0.706642
O O13 0.500000 0.000000 0.500000
O O14 0.500000 0.500000 0.000000
#
# Coordination Sequence:
#
# PCOD9049550 Si02
#       6
#     2   2   2   2   2   2
#     4  12  28  50  80 114 157 213 271 330 404 468
#     4  11  25  47  78 113 154 204 266 321 401 465
#     4  11  26  52  78 112 167 208 266 335 393 481
#     4  10  24  46  78 111 159 209 258 325 400 469
#     4  12  26  49  79 118 165 205 271 333 390 483
#     4  12  28  46  83 120 161 211 266 326 412 478
#
# _framework density 25.735780999999999
#
# number of rings (size 3 to 8) (size 9 to 14) (size 15 to 20)
#    0.000    0.667    1.667    5.500    7.000    4.000 
#    0.000    0.000    0.000    0.000    0.000    0.000 
#    0.000    0.000    0.000    0.000    0.000    0.000 
#
# Total GULP energy -67054.241957 kJ/mol
# GULP energy per Si atom -5587.853496 kJ/mol
# Density = 2.567721 g / cm^3
# Si number density = 25.735781 Si / 1000 Ang^3
#
#
#
# Elastic Constant Matrix: (Units=GPa)
#
#
# Indices 1 2 3 4 5 6 
#
# 1 88.7541 34.0627 54.4441 -0.4333 8.3403 12.1711
# 2 34.0627 128.2288 70.5335 0.7599 -9.8447 18.6626
# 3 54.4441 70.5335 135.1908 -10.4447 -19.3155 9.3756
# 4 -0.4333 0.7599 -10.4447 64.3026 11.3557 0.9218
# 5 8.3403 -9.8447 -19.3155 11.3557 59.9718 7.0414
# 6 12.1711 18.6626 9.3756 0.9218 7.0414 44.0604
#
#
#
# Elastic Compliance Matrix: (Units=1/GPa)
#
#
# Indices 1 2 3 4 5 6 
#
# 1 0.016323 -0.000668 -0.006701 -0.000189 -0.004253 -0.002117
# 2 -0.000668 0.011608 -0.005495 -0.001136 0.000876 -0.003679
# 3 -0.006701 -0.005495 0.013617 0.001506 0.004060 0.000601
# 4 -0.000189 -0.001136 0.001506 0.016298 -0.002799 0.000319
# 5 -0.004253 0.000876 0.004060 -0.002799 0.019616 -0.003136
# 6 -0.002117 -0.003679 0.000601 0.000319 -0.003136 0.025206
#
#
# Mechanical properties :
#
#
# Convention : Reuss Voigt Hill
#
# Bulk Modulus (GPa) = 63.20561 74.47268 68.83915
# Shear Modulus (GPa) = 37.40634 46.54252 41.97443
#
# Velocity S-wave (km/s) = 3.81658 4.25723 4.04292
# Velocity P-wave (km/s) = 6.63585 7.29147 6.97137
#
# Compressibility (1/GPa) = 0.01582138
#
# Stress axis : x y z
#
# Youngs Moduli (GPa) = 61.26422 86.14876 73.43696
#
# Poissons Ratio (x) = 0.05751 0.49208
# Poissons Ratio (y) = 0.04090 0.40353
# Poissons Ratio (z) = 0.41052 0.47338
#
# Static dielectric constant tensor:
#      x y z
#    x 1.818890 0.425200 0.143990 
#    y 0.425200 1.643990 -0.013520 
#    z 0.143990 -0.013520 2.090110 
# 
# From -- ./inp_files/159874.got.cif
#   From: 2010.05.17/outbox.cif.g08.bks.cpg/sg2_80_cif.got.tgz:159874.got - 2010.06.03 11:33:40.
