data_PCOD9049460
_publ_section_title
;
Structure prediction by ZEFSAII (Michael W. Deem and Ramdas Pophale) SiO2 
 PCOD9049460
Probable space group: P -1
;
_chemical_formula_sum "Si O2"
_cell_formula_units_Z 14
_cell_length_a 5.073262
_cell_length_b 5.239642
_cell_length_c 24.161355
_cell_angle_alpha 69.308764
_cell_angle_beta 60.949889
_cell_angle_gamma 88.991695
_cell_volume 515.851465
_symmetry_space_group_name_H-M "P -1"
_symmetry_group_IT_number 2
_symmetry_cell_setting 'triclinic'
loop_
_space_group_symop_operation_xyz
x,y,z
-x,-y,-z
loop_
_atom_site_type_symbol
_atom_site_label
_atom_site_fract_x
_atom_site_fract_y
_atom_site_fract_z
Si Si1 0.094288 0.009243 0.926273
Si Si2 0.532886 0.414204 0.779601
Si Si3 0.438187 0.793549 0.315831
Si Si4 0.145478 0.627307 0.581601
Si Si5 0.399914 0.280455 0.075971
Si Si6 0.030605 0.753019 0.773479
Si Si7 0.482886 0.882746 0.422731
O O1 0.291685 0.764997 0.921644
O O2 0.800625 0.974597 0.919036
O O3 0.344676 0.269728 0.861987
O O4 0.000000 0.000000 0.000000
O O5 0.598100 0.175273 0.749455
O O6 0.305795 0.583461 0.760070
O O7 0.822782 0.630134 0.753338
O O8 0.343976 0.920131 0.373701
O O9 0.214804 0.493200 0.366547
O O10 0.802001 0.926095 0.271326
O O11 0.225152 0.771960 0.502999
O O12 0.318915 0.362833 0.586057
O O13 0.302324 0.846621 0.594525
O O14 0.163627 0.318194 0.145201
O O15 0.500000 0.500000 0.000000
#
# Coordination Sequence:
#
# PCOD9049460 Si02
#       7
#     2   2   2   2   2   2   2
#     4  12  24  45  72 104 145 192 252 318 384 458
#     4  12  28  47  72 107 149 196 252 317 385 466
#     4  12  27  42  74 102 156 190 262 300 404 444
#     4  10  24  46  74 109 150 199 256 317 386 465
#     4  12  24  45  72 104 145 192 252 318 384 458
#     4  12  28  47  72 107 149 196 252 317 385 466
#     4  10  24  46  74 109 150 199 256 317 386 465
#
# _framework density 27.139593999999999
#
# number of rings (size 3 to 8) (size 9 to 14) (size 15 to 20)
#    0.000    0.571    1.429    5.571    8.000    0.000 
#    0.000    4.286    0.000    0.000    0.000    0.000 
#    0.000    0.000    0.000    0.000    0.000    0.000 
#
# Total GULP energy -78329.190491 kJ/mol
# GULP energy per Si atom -5594.942178 kJ/mol
# Density = 2.707782 g / cm^3
# Si number density = 27.139594 Si / 1000 Ang^3
#
#
#
# Elastic Constant Matrix: (Units=GPa)
#
#
# Indices 1 2 3 4 5 6 
#
# 1 98.6747 48.4621 18.3313 -1.0754 -20.9310 14.6380
# 2 48.4621 159.2096 52.2871 0.0238 -0.3102 40.4965
# 3 18.3313 52.2871 214.1598 -12.3823 -13.0883 23.4586
# 4 -1.0754 0.0238 -12.3823 44.7205 21.5364 0.8888
# 5 -20.9310 -0.3102 -13.0883 21.5364 26.3998 -3.2069
# 6 14.6380 40.4965 23.4586 0.8888 -3.2069 60.5594
#
#
#
# Elastic Compliance Matrix: (Units=1/GPa)
#
#
# Indices 1 2 3 4 5 6 
#
# 1 0.017290 -0.005577 0.000585 -0.010180 0.022317 0.000654
# 2 -0.005577 0.009805 -0.001682 0.003736 -0.008805 -0.005078
# 3 0.000585 -0.001682 0.005314 0.000125 0.002864 -0.000925
# 4 -0.010180 0.003736 0.000125 0.043189 -0.043565 -0.003027
# 5 0.022317 -0.008805 0.002864 -0.043565 0.093030 0.004950
# 6 0.000654 -0.005078 -0.000925 -0.003027 0.004950 0.020415
#
#
# Mechanical properties :
#
#
# Convention : Reuss Voigt Hill
#
# Bulk Modulus (GPa) = 52.46241 78.91166 65.68703
# Shear Modulus (GPa) = 23.95268 49.86686 36.90977
#
# Velocity S-wave (km/s) = 2.97404 4.29117 3.69181
# Velocity P-wave (km/s) = 5.58263 7.32745 6.51372
#
# Compressibility (1/GPa) = 0.01906127
#
# Stress axis : x y z
#
# Youngs Moduli (GPa) = 57.83586 101.98877 188.19383
#
# Poissons Ratio (x) = 0.56876 -0.11013
# Poissons Ratio (y) = 0.32253 0.31662
# Poissons Ratio (z) = -0.03385 0.17159
#
# Static dielectric constant tensor:
#      x y z
#    x 2.151450 -0.145880 0.019270 
#    y -0.145880 2.232820 -0.000450 
#    z 0.019270 -0.000450 2.082500 
# 
# From -- ./inp_files/127860.got.cif
#   From: 2010.05.17/outbox.cif.g08.bks.cpg/sg2_64_cif.got.tgz:127860.got - 2010.06.03 11:33:40.
