data_PCOD9049224
_publ_section_title
;
Structure prediction by ZEFSAII (Michael W. Deem and Ramdas Pophale) SiO2 
 PCOD9049224
Probable space group: P -1
;
_chemical_formula_sum "Si O2"
_cell_formula_units_Z 14
_cell_length_a 8.325378
_cell_length_b 18.337194
_cell_length_c 6.785876
_cell_angle_alpha 104.943000
_cell_angle_beta 97.841424
_cell_angle_gamma 134.385365
_cell_volume 635.581752
_symmetry_space_group_name_H-M "P -1"
_symmetry_group_IT_number 2
_symmetry_cell_setting 'triclinic'
loop_
_space_group_symop_operation_xyz
x,y,z
-x,-y,-z
loop_
_atom_site_type_symbol
_atom_site_label
_atom_site_fract_x
_atom_site_fract_y
_atom_site_fract_z
Si Si1 0.071558 0.218017 0.346945
Si Si2 0.996595 0.408713 0.935332
Si Si3 0.386822 0.533785 0.400282
Si Si4 0.519032 0.198631 0.974423
Si Si5 0.067671 0.658137 0.566499
Si Si6 0.991119 0.924883 0.092738
Si Si7 0.297284 0.985216 0.547559
O O1 0.377558 0.325970 0.485078
O O2 0.992248 0.276397 0.345848
O O3 0.932583 0.138712 0.464731
O O4 0.986257 0.139191 0.089093
O O5 0.750706 0.298379 0.939875
O O6 0.967024 0.366529 0.684681
O O7 0.000000 0.500000 0.000000
O O8 0.251875 0.470395 0.125379
O O9 0.500000 0.500000 0.500000
O O10 0.144319 0.469022 0.448201
O O11 0.282153 0.169570 0.914348
O O12 0.417281 0.081653 0.802088
O O13 0.648820 0.251493 0.246572
O O14 0.192622 0.995851 0.352213
O O15 0.000000 0.000000 0.000000
O O16 0.500000 0.000000 0.500000
#
# Coordination Sequence:
#
# PCOD9049224 Si02
#       7
#     2   2   2   2   2   2   2
#     4  11  25  43  72  98 138 181 227 276 342 397
#     4  11  26  41  73 102 136 179 226 282 340 400
#     4   9  23  44  67 101 138 176 228 272 342 398
#     4  11  26  44  69 100 142 174 229 278 346 399
#     4  10  24  46  70  99 140 182 224 280 336 411
#     4  12  28  44  70 102 140 177 226 285 339 402
#     4  12  27  45  72 102 135 181 231 276 342 408
#
# _framework density 22.027066000000001
#
# number of rings (size 3 to 8) (size 9 to 14) (size 15 to 20)
#    0.000    1.143    1.429    2.143   10.000    6.857 
#    0.000    0.000    0.000    0.000    0.000    0.000 
#    0.000    0.000    0.000    0.000    0.000    0.000 
#
# Total GULP energy -78262.713452 kJ/mol
# GULP energy per Si atom -5590.193818 kJ/mol
# Density = 2.197693 g / cm^3
# Si number density = 22.027066 Si / 1000 Ang^3
#
#
#
# Elastic Constant Matrix: (Units=GPa)
#
#
# Indices 1 2 3 4 5 6 
#
# 1 76.0720 3.3552 29.5056 10.0991 3.5140 5.4994
# 2 3.3552 116.7574 19.0478 10.6750 10.0449 2.9315
# 3 29.5056 19.0478 135.7893 1.1048 15.2399 8.6451
# 4 10.0991 10.6750 1.1048 24.1175 2.5242 -2.1130
# 5 3.5140 10.0449 15.2399 2.5242 47.1111 4.0310
# 6 5.4994 2.9315 8.6451 -2.1130 4.0310 21.0838
#
#
#
# Elastic Compliance Matrix: (Units=1/GPa)
#
#
# Indices 1 2 3 4 5 6 
#
# 1 0.015552 0.000785 -0.003248 -0.007071 0.000412 -0.003622
# 2 0.000785 0.009280 -0.001215 -0.004347 -0.001310 -0.001182
# 3 -0.003248 -0.001215 0.008597 0.001564 -0.002198 -0.001932
# 4 -0.007071 -0.004347 0.001564 0.047113 -0.002170 0.006944
# 5 0.000412 -0.001310 -0.002198 -0.002170 0.022607 -0.003564
# 6 -0.003622 -0.001182 -0.001932 0.006944 -0.003564 0.050708
#
#
# Mechanical properties :
#
#
# Convention : Reuss Voigt Hill
#
# Bulk Modulus (GPa) = 38.35077 48.04843 43.19960
# Shear Modulus (GPa) = 29.42833 36.90982 33.16907
#
# Velocity S-wave (km/s) = 3.65911 4.09792 3.88472
# Velocity P-wave (km/s) = 5.94144 6.65217 6.30682
#
# Compressibility (1/GPa) = 0.02607509
#
# Stress axis : x y z
#
# Youngs Moduli (GPa) = 64.30056 107.75595 116.31419
#
# Poissons Ratio (x) = -0.08458 0.37773
# Poissons Ratio (y) = -0.05047 0.14128
# Poissons Ratio (z) = 0.20882 0.13089
#
# Static dielectric constant tensor:
#      x y z
#    x 1.789640 0.023890 0.023550 
#    y 0.023890 1.814610 0.020160 
#    z 0.023550 0.020160 1.799340 
# 
# From -- ./inp_files/27690.got.cif
#   From: 2010.05.17/outbox.cif.g08.bks.cpg/sg2_14_cif.got.tgz:27690.got - 2010.06.03 11:33:40.
