data_PCOD9049303
_publ_section_title
;
Structure prediction by ZEFSAII (Michael W. Deem and Ramdas Pophale) SiO2 
 PCOD9049303
Probable space group: P -1
;
_chemical_formula_sum "Si O2"
_cell_formula_units_Z 15
_cell_length_a 6.076394
_cell_length_b 12.140079
_cell_length_c 14.739090
_cell_angle_alpha 140.059050
_cell_angle_beta 113.259607
_cell_angle_gamma 66.730093
_cell_volume 633.394429
_symmetry_space_group_name_H-M "P -1"
_symmetry_group_IT_number 2
_symmetry_cell_setting 'triclinic'
loop_
_space_group_symop_operation_xyz
x,y,z
-x,-y,-z
loop_
_atom_site_type_symbol
_atom_site_label
_atom_site_fract_x
_atom_site_fract_y
_atom_site_fract_z
Si Si1 0.480898 0.820269 0.434563
Si Si2 0.952462 0.248381 0.797335
Si Si3 0.767551 0.504540 0.080133
Si Si4 0.921303 0.512730 0.304158
Si Si5 0.345112 0.698119 0.518572
Si Si6 0.500000 0.000000 0.000000
Si Si7 0.070094 0.951252 0.765867
Si Si8 0.783763 0.774143 0.737141
O O1 0.296902 0.731138 0.285787
O O2 0.732783 0.687636 0.403425
O O3 0.366222 0.832716 0.524425
O O4 0.500000 0.000000 0.500000
O O5 0.156534 0.305538 0.801583
O O6 0.936631 0.373143 0.960502
O O7 0.999364 0.064598 0.736794
O O8 0.816006 0.446791 0.153495
O O9 0.500000 0.500000 0.000000
O O10 0.193554 0.557821 0.363609
O O11 0.966080 0.353190 0.279954
O O12 0.188716 0.771608 0.626044
O O13 0.611990 0.662730 0.582908
O O14 0.732088 0.979051 0.094870
O O15 0.339956 0.134116 0.135154
O O16 0.846054 0.923395 0.774289
#
# Coordination Sequence:
#
# PCOD9049303 Si02
#       8
#     2   2   2   2   2   1   2   2
#     4  12  26  43  71 104 144 193 238 295 359 427
#     4  11  24  44  67 103 141 181 245 292 362 429
#     4  11  24  43  69 102 136 189 233 303 360 423
#     4  12  25  44  70 102 145 185 240 297 353 434
#     4  11  25  44  67 102 141 190 236 299 355 424
#     4  10  24  46  72 102 136 182 234 294 358 424
#     4  11  25  45  71 104 142 186 236 299 357 434
#     4  11  25  46  72 106 138 187 239 294 368 421
#
# _framework density 23.681923999999999
#
# number of rings (size 3 to 8) (size 9 to 14) (size 15 to 20)
#    0.000    0.800    2.667    4.000    1.867    8.533 
#    0.000    0.000    0.000    0.000    0.000    0.000 
#    0.000    0.000    0.000    0.000    0.000    0.000 
#
# Total GULP energy -83521.933172 kJ/mol
# GULP energy per Si atom -5568.128878 kJ/mol
# Density = 2.362802 g / cm^3
# Si number density = 23.681924 Si / 1000 Ang^3
#
#
#
# Elastic Constant Matrix: (Units=GPa)
#
#
# Indices 1 2 3 4 5 6 
#
# 1 68.4119 42.6728 20.8997 -5.7036 6.5972 -6.6806
# 2 42.6728 104.7518 26.7541 -14.6697 10.2408 -8.3494
# 3 20.8997 26.7541 71.4968 -29.2324 -5.4744 -5.4827
# 4 -5.7036 -14.6697 -29.2324 45.8402 -10.5660 8.1309
# 5 6.5972 10.2408 -5.4744 -10.5660 42.7014 -12.3006
# 6 -6.6806 -8.3494 -5.4827 8.1309 -12.3006 34.8564
#
#
#
# Elastic Compliance Matrix: (Units=1/GPa)
#
#
# Indices 1 2 3 4 5 6 
#
# 1 0.020805 -0.007370 -0.004966 -0.003788 -0.002617 0.001401
# 2 -0.007370 0.013606 -0.002533 0.001282 -0.002005 0.000442
# 3 -0.004966 -0.002533 0.023368 0.015167 0.008587 0.001610
# 4 -0.003788 0.001282 0.015167 0.034163 0.009959 -0.002488
# 5 -0.002617 -0.002005 0.008587 0.009959 0.030396 0.008772
# 6 0.001401 0.000442 0.001610 -0.002488 0.008772 0.032993
#
#
# Mechanical properties :
#
#
# Convention : Reuss Voigt Hill
#
# Bulk Modulus (GPa) = 35.65975 47.25708 41.45841
# Shear Modulus (GPa) = 25.71826 34.96853 30.34339
#
# Velocity S-wave (km/s) = 3.29901 3.84681 3.58339
# Velocity P-wave (km/s) = 5.44075 6.30308 5.88772
#
# Compressibility (1/GPa) = 0.02804282
#
# Stress axis : x y z
#
# Youngs Moduli (GPa) = 48.06573 73.49552 42.79325
#
# Poissons Ratio (x) = 0.54167 0.21249
# Poissons Ratio (y) = 0.35425 0.10838
# Poissons Ratio (z) = 0.23867 0.18614
#
# Static dielectric constant tensor:
#      x y z
#    x 1.939450 0.033950 0.032740 
#    y 0.033950 1.943350 0.105970 
#    z 0.032740 0.105970 1.935310 
# 
# From -- ./inp_files/481999.got.cif
#   From: 2010.05.17/outbox.cif.g08.bks.cpg/sg2_241_cif.got.tgz:481999.got - 2010.06.03 11:33:40.
