data_PCOD9049768
_publ_section_title
;
Structure prediction by ZEFSAII (Michael W. Deem and Ramdas Pophale) SiO2 
 PCOD9049768
Probable space group: P -1
;
_chemical_formula_sum "Si O2"
_cell_formula_units_Z 16
_cell_length_a 14.650488
_cell_length_b 14.556367
_cell_length_c 9.094055
_cell_angle_alpha 49.736397
_cell_angle_beta 45.694075
_cell_angle_gamma 30.780214
_cell_volume 704.555542
_symmetry_space_group_name_H-M "P -1"
_symmetry_group_IT_number 2
_symmetry_cell_setting 'triclinic'
loop_
_space_group_symop_operation_xyz
x,y,z
-x,-y,-z
loop_
_atom_site_type_symbol
_atom_site_label
_atom_site_fract_x
_atom_site_fract_y
_atom_site_fract_z
Si Si1 0.179640 0.530113 0.153681
Si Si2 0.958040 0.788129 0.390620
Si Si3 0.095352 0.361394 0.903041
Si Si4 0.279028 0.849150 0.555018
Si Si5 0.297891 0.449455 0.558996
Si Si6 0.383411 0.977874 0.068053
Si Si7 0.307066 0.584014 0.698910
Si Si8 0.380070 0.159017 0.349164
O O1 0.279848 0.353236 0.315983
O O2 0.052979 0.711175 0.203146
O O3 0.039101 0.562399 0.163569
O O4 0.324177 0.501694 0.917424
O O5 0.785811 0.812008 0.556073
O O6 0.134293 0.625421 0.463688
O O7 0.863985 0.976235 0.361445
O O8 0.272384 0.324155 0.702974
O O9 0.000000 0.500000 0.000000
O O10 0.177508 0.177841 0.054607
O O11 0.479749 0.677062 0.590474
O O12 0.351324 0.885284 0.303216
O O13 0.190954 0.787884 0.653537
O O14 0.248165 0.531025 0.695386
O O15 0.492240 0.887503 0.884517
O O16 0.500000 0.000000 0.000000
O O17 0.500000 0.500000 0.500000
O O18 0.500000 0.000000 0.500000
#
# Coordination Sequence:
#
# PCOD9049768 Si02
#       8
#     2   2   2   2   2   2   2   2
#     4  12  26  43  70 105 139 184 232 283 363 422
#     4  12  26  42  69 106 145 181 228 291 358 419
#     4  12  21  38  67 103 136 171 228 290 348 410
#     4  11  25  45  71 102 143 186 243 285 338 417
#     4  11  22  43  72  99 139 183 229 292 346 407
#     4  12  22  39  68 102 132 182 228 283 354 408
#     4  10  24  47  73  99 136 188 245 290 333 416
#     4  12  25  42  67 104 147 178 223 294 359 418
#
# _framework density 22.709353
#
# number of rings (size 3 to 8) (size 9 to 14) (size 15 to 20)
#    0.000    0.500    5.000    4.125    3.500    1.000 
#    0.000    2.500    5.500    0.000    0.000    0.000 
#    0.000    0.000    0.000    0.000    0.000    0.000 
#
# Total GULP energy -89443.136543 kJ/mol
# GULP energy per Si atom -5590.196034 kJ/mol
# Density = 2.265767 g / cm^3
# Si number density = 22.709353 Si / 1000 Ang^3
#
#
#
# Elastic Constant Matrix: (Units=GPa)
#
#
# Indices 1 2 3 4 5 6 
#
# 1 64.4017 46.7302 45.1959 -13.0377 9.1701 10.8636
# 2 46.7302 150.2584 37.6580 -5.2461 16.6404 12.7647
# 3 45.1959 37.6580 92.1889 -1.9470 9.5340 11.5586
# 4 -13.0377 -5.2461 -1.9470 42.6738 9.9759 6.5425
# 5 9.1701 16.6404 9.5340 9.9759 34.8229 -1.0188
# 6 10.8636 12.7647 11.5586 6.5425 -1.0188 46.7570
#
#
#
# Elastic Compliance Matrix: (Units=1/GPa)
#
#
# Indices 1 2 3 4 5 6 
#
# 1 0.031425 -0.005456 -0.011828 0.010367 -0.005530 -0.004459
# 2 -0.005456 0.008893 -0.000527 0.000221 -0.002765 -0.001121
# 3 -0.011828 -0.000527 0.016983 -0.002627 -0.000558 -0.000951
# 4 0.010367 0.000221 -0.002627 0.030015 -0.010898 -0.006257
# 5 -0.005530 -0.002765 -0.000558 -0.010898 0.034900 0.004463
# 6 -0.004459 -0.001121 -0.000951 -0.006257 0.004463 0.023937
#
#
# Mechanical properties :
#
#
# Convention : Reuss Voigt Hill
#
# Bulk Modulus (GPa) = 46.12498 62.89081 54.50790
# Shear Modulus (GPa) = 26.45507 36.66840 31.56174
#
# Velocity S-wave (km/s) = 3.41683 4.02267 3.73206
# Velocity P-wave (km/s) = 5.99344 7.02351 6.52883
#
# Compressibility (1/GPa) = 0.02168022
#
# Stress axis : x y z
#
# Youngs Moduli (GPa) = 31.82175 112.44707 58.88396
#
# Poissons Ratio (x) = 0.61347 0.69646
# Poissons Ratio (y) = 0.17361 0.03103
# Poissons Ratio (z) = 0.37638 0.05925
#
# Static dielectric constant tensor:
#      x y z
#    x 1.914390 0.004840 0.040920 
#    y 0.004840 1.900360 0.017220 
#    z 0.040920 0.017220 1.905050 
# 
# From -- ./inp_files/314584.got.cif
#   From: 2010.05.17/outbox.cif.g08.bks.cpg/sg2_158_cif.got.tgz:314584.got - 2010.06.03 11:33:40.
