data_PCOD9049218
_publ_section_title
;
Structure prediction by ZEFSAII (Michael W. Deem and Ramdas Pophale) SiO2 
 PCOD9049218
Probable space group: P -1
;
_chemical_formula_sum "Si O2"
_cell_formula_units_Z 14
_cell_length_a 10.027272
_cell_length_b 6.471139
_cell_length_c 11.453772
_cell_angle_alpha 105.169249
_cell_angle_beta 54.375869
_cell_angle_gamma 84.717857
_cell_volume 554.040936
_symmetry_space_group_name_H-M "P -1"
_symmetry_group_IT_number 2
_symmetry_cell_setting 'triclinic'
loop_
_space_group_symop_operation_xyz
x,y,z
-x,-y,-z
loop_
_atom_site_type_symbol
_atom_site_label
_atom_site_fract_x
_atom_site_fract_y
_atom_site_fract_z
Si Si1 0.716964 0.477430 0.021263
Si Si2 0.818212 0.694798 0.778603
Si Si3 0.004780 0.001007 0.139616
Si Si4 0.316139 0.138221 0.729615
Si Si5 0.181664 0.044192 0.406263
Si Si6 0.375515 0.274822 0.472701
Si Si7 0.647067 0.437792 0.678241
O O1 0.759850 0.649576 0.116534
O O2 0.533648 0.448993 0.146848
O O3 0.716343 0.611159 0.920786
O O4 0.854318 0.229615 0.922123
O O5 0.959252 0.778628 0.791299
O O6 0.763349 0.901375 0.743056
O O7 0.808687 0.503928 0.660546
O O8 0.822608 0.974511 0.262882
O O9 0.000000 0.000000 0.000000
O O10 0.384162 0.244854 0.600806
O O11 0.461192 0.931692 0.685383
O O12 0.314567 0.820609 0.355665
O O13 0.198902 0.236833 0.512492
O O14 0.000000 0.000000 0.500000
O O15 0.376219 0.492889 0.434397
#
# Coordination Sequence:
#
# PCOD9049218 Si02
#       7
#     2   2   2   2   2   2   2
#     4  12  25  44  70 102 137 177 224 278 341 400
#     4  11  26  43  71  97 137 176 223 283 336 396
#     4  12  25  44  66 103 139 175 221 276 338 403
#     4  11  23  46  69 100 140 178 227 273 335 401
#     4  11  24  47  69 100 136 176 231 279 332 399
#     4  10  24  46  70  98 137 182 224 280 328 399
#     4  11  25  45  69 100 133 179 229 275 340 397
#
# _framework density 25.268892999999998
#
# number of rings (size 3 to 8) (size 9 to 14) (size 15 to 20)
#    0.000    0.857    2.857    3.429    0.000    5.143 
#    2.571    0.000    0.000    0.000    0.000    0.000 
#    0.000    0.000    0.000    0.000    0.000    0.000 
#
# Total GULP energy -78137.992387 kJ/mol
# GULP energy per Si atom -5581.285170 kJ/mol
# Density = 2.521138 g / cm^3
# Si number density = 25.268893 Si / 1000 Ang^3
#
#
#
# Elastic Constant Matrix: (Units=GPa)
#
#
# Indices 1 2 3 4 5 6 
#
# 1 96.5104 29.9151 6.2747 -14.9119 -15.5446 13.5169
# 2 29.9151 134.5296 60.0041 -44.4212 5.9834 -12.1276
# 3 6.2747 60.0041 63.9725 -39.4599 7.5860 -19.6265
# 4 -14.9119 -44.4212 -39.4599 50.4217 -11.0298 10.7903
# 5 -15.5446 5.9834 7.5860 -11.0298 49.1331 -4.3795
# 6 13.5169 -12.1276 -19.6265 10.7903 -4.3795 44.6855
#
#
#
# Elastic Compliance Matrix: (Units=1/GPa)
#
#
# Indices 1 2 3 4 5 6 
#
# 1 0.013452 -0.003156 0.003275 0.005805 0.005046 -0.004395
# 2 -0.003156 0.014056 -0.011575 0.002500 -0.000448 -0.000962
# 3 0.003275 -0.011575 0.042805 0.022648 0.001756 0.009372
# 4 0.005805 0.002500 0.022648 0.043338 0.007689 -0.000842
# 5 0.005046 -0.000448 0.001756 0.007689 0.023420 -0.000438
# 6 -0.004395 -0.000962 0.009372 -0.000842 -0.000438 0.027723
#
#
# Mechanical properties :
#
#
# Convention : Reuss Voigt Hill
#
# Bulk Modulus (GPa) = 21.09664 54.15559 37.62611
# Shear Modulus (GPa) = 24.56915 42.10263 33.33589
#
# Velocity S-wave (km/s) = 3.12157 4.08632 3.63608
# Velocity P-wave (km/s) = 4.62161 6.61379 5.70533
#
# Compressibility (1/GPa) = 0.04740091
#
# Stress axis : x y z
#
# Youngs Moduli (GPa) = 74.33820 71.14178 23.36195
#
# Poissons Ratio (x) = 0.22449 -0.07650
# Poissons Ratio (y) = 0.23458 0.27042
# Poissons Ratio (z) = -0.24343 0.82348
#
# Static dielectric constant tensor:
#      x y z
#    x 2.028360 -0.002400 -0.015410 
#    y -0.002400 2.024230 0.041090 
#    z -0.015410 0.041090 2.030070 
# 
# From -- ./inp_files/410171.got.cif
#   From: 2010.05.17/outbox.cif.g08.bks.cpg/sg2_206_cif.got.tgz:410171.got - 2010.06.03 11:33:40.
