data_PCOD9049876
_publ_section_title
;
Structure prediction by ZEFSAII (Michael W. Deem and Ramdas Pophale) SiO2 
 PCOD9049876
Probable space group: P -1
;
_chemical_formula_sum "Si O2"
_cell_formula_units_Z 16
_cell_length_a 19.054414
_cell_length_b 5.924544
_cell_length_c 7.911852
_cell_angle_alpha 114.322993
_cell_angle_beta 67.969281
_cell_angle_gamma 126.320032
_cell_volume 645.213872
_symmetry_space_group_name_H-M "P -1"
_symmetry_group_IT_number 2
_symmetry_cell_setting 'triclinic'
loop_
_space_group_symop_operation_xyz
x,y,z
-x,-y,-z
loop_
_atom_site_type_symbol
_atom_site_label
_atom_site_fract_x
_atom_site_fract_y
_atom_site_fract_z
Si Si1 0.263225 0.663690 0.342951
Si Si2 0.513905 0.674464 0.215825
Si Si3 0.986705 0.720325 0.190857
Si Si4 0.902236 0.384333 0.488523
Si Si5 0.837677 0.786010 0.200488
Si Si6 0.715196 0.182453 0.237559
Si Si7 0.454521 0.062832 0.217304
Si Si8 0.184237 0.074167 0.115687
O O1 0.169910 0.598150 0.329894
O O2 0.270242 0.786388 0.563292
O O3 0.252845 0.349010 0.248288
O O4 0.349143 0.891721 0.235765
O O5 0.486946 0.407478 0.291990
O O6 0.616616 0.918993 0.218746
O O7 0.468495 0.874879 0.296793
O O8 0.500000 0.500000 0.000000
O O9 0.920991 0.570662 0.359593
O O10 0.931233 0.806227 0.149088
O O11 0.085504 0.931358 0.236564
O O12 0.000000 0.500000 0.000000
O O13 0.000000 0.500000 0.500000
O O14 0.854964 0.053726 0.379430
O O15 0.746422 0.506468 0.254587
O O16 0.826918 0.826757 0.028481
O O17 0.778394 0.126712 0.039599
O O18 0.500000 0.000000 0.000000
#
# Coordination Sequence:
#
# PCOD9049876 Si02
#       8
#     2   2   2   2   2   2   2   2
#     4  12  27  49  76 113 147 207 256 320 397 460
#     4  10  24  47  78 110 154 198 252 329 400 470
#     4  12  23  46  66 105 151 200 258 314 379 452
#     4  12  28  47  69 113 155 202 262 316 382 465
#     4  12  24  45  73 103 155 204 257 324 379 465
#     4  12  27  48  74 113 155 195 260 323 383 479
#     4  10  24  49  76 113 152 196 265 320 399 480
#     4  12  26  45  75 105 152 202 259 311 388 465
#
# _framework density 24.797979999999999
#
# number of rings (size 3 to 8) (size 9 to 14) (size 15 to 20)
#    0.000    0.500    5.000    2.625    8.750    3.000 
#    0.000    0.000    0.000    0.000    0.000    0.000 
#    0.000    0.000    0.000    0.000    0.000    0.000 
#
# Total GULP energy -89347.096497 kJ/mol
# GULP energy per Si atom -5584.193531 kJ/mol
# Density = 2.474154 g / cm^3
# Si number density = 24.797980 Si / 1000 Ang^3
#
#
#
# Elastic Constant Matrix: (Units=GPa)
#
#
# Indices 1 2 3 4 5 6 
#
# 1 70.1147 43.8680 11.9727 -3.2932 -0.5128 7.8341
# 2 43.8680 192.4532 27.5445 9.5746 -7.1994 31.1640
# 3 11.9727 27.5445 68.0874 11.6668 -1.2349 10.9854
# 4 -3.2932 9.5746 11.6668 42.4344 14.7806 -5.5933
# 5 -0.5128 -7.1994 -1.2349 14.7806 30.9321 0.9860
# 6 7.8341 31.1640 10.9854 -5.5933 0.9860 57.2673
#
#
#
# Elastic Compliance Matrix: (Units=1/GPa)
#
#
# Indices 1 2 3 4 5 6 
#
# 1 0.017236 -0.004007 -0.002224 0.003845 -0.002594 0.000670
# 2 -0.004007 0.007096 -0.000995 -0.003210 0.003191 -0.003491
# 3 -0.002224 -0.000995 0.017125 -0.006294 0.003522 -0.003115
# 4 0.003845 -0.003210 -0.006294 0.032983 -0.016885 0.005940
# 5 -0.002594 0.003191 0.003522 -0.016885 0.041378 -0.004419
# 6 0.000670 -0.003491 -0.003115 0.005940 -0.004419 0.020524
#
#
# Mechanical properties :
#
#
# Convention : Reuss Voigt Hill
#
# Bulk Modulus (GPa) = 37.02889 55.26953 46.14921
# Shear Modulus (GPa) = 31.28971 42.61143 36.95057
#
# Velocity S-wave (km/s) = 3.55601 4.14979 3.86432
# Velocity P-wave (km/s) = 5.64136 6.73033 6.20976
#
# Compressibility (1/GPa) = 0.02700594
#
# Stress axis : x y z
#
# Youngs Moduli (GPa) = 58.01781 140.91879 58.39280
#
# Poissons Ratio (x) = 0.56471 0.12985
# Poissons Ratio (y) = 0.23250 0.05810
# Poissons Ratio (z) = 0.12901 0.14020
#
# Static dielectric constant tensor:
#      x y z
#    x 2.093920 -0.060200 0.006360 
#    y -0.060200 1.965650 -0.055740 
#    z 0.006360 -0.055740 1.883510 
# 
# From -- ./inp_files/124745.got.cif
#   From: 2010.05.17/outbox.cif.g08.bks.cpg/sg2_63_cif.got.tgz:124745.got - 2010.06.03 11:33:40.
