data_PCOD9049472
_publ_section_title
;
Structure prediction by ZEFSAII (Michael W. Deem and Ramdas Pophale) SiO2 
 PCOD9049472
Probable space group: P -1
;
_chemical_formula_sum "Si O2"
_cell_formula_units_Z 16
_cell_length_a 5.585003
_cell_length_b 14.519205
_cell_length_c 14.108407
_cell_angle_alpha 39.769338
_cell_angle_beta 113.307553
_cell_angle_gamma 101.907603
_cell_volume 662.747280
_symmetry_space_group_name_H-M "P -1"
_symmetry_group_IT_number 2
_symmetry_cell_setting 'triclinic'
loop_
_space_group_symop_operation_xyz
x,y,z
-x,-y,-z
loop_
_atom_site_type_symbol
_atom_site_label
_atom_site_fract_x
_atom_site_fract_y
_atom_site_fract_z
Si Si1 0.211266 0.086522 0.913201
Si Si2 0.416691 0.201999 0.039309
Si Si3 0.212866 0.546848 0.377645
Si Si4 0.118211 0.644536 0.081537
Si Si5 0.387522 0.326146 0.346972
Si Si6 0.921299 0.302798 0.566408
Si Si7 0.220225 0.030289 0.625252
Si Si8 0.681248 0.122805 0.424276
O O1 0.284667 0.195102 0.921412
O O2 0.080524 0.145670 0.745019
O O3 0.500000 0.000000 0.000000
O O4 0.000000 0.000000 0.000000
O O5 0.678619 0.276417 0.008745
O O6 0.188969 0.279368 0.015079
O O7 0.537105 0.037172 0.218708
O O8 0.500000 0.500000 0.500000
O O9 0.216688 0.638390 0.211070
O O10 0.078922 0.631968 0.379266
O O11 0.082784 0.403505 0.450118
O O12 0.181454 0.474953 0.194259
O O13 0.628549 0.328361 0.457098
O O14 0.529922 0.279949 0.305440
O O15 0.266162 0.184207 0.468434
O O16 0.216094 0.902621 0.646355
O O17 0.917469 0.073076 0.575523
O O18 0.500000 0.000000 0.500000
#
# Coordination Sequence:
#
# PCOD9049472 Si02
#       8
#     2   2   2   2   2   2   2   2
#     4  12  27  42  63  98 142 188 236 286 337 414
#     4  12  27  46  70 101 148 191 226 288 371 413
#     4  11  22  40  63  90 136 189 227 276 333 399
#     4  12  26  44  67 106 146 184 230 293 353 415
#     4  11  24  41  74 104 136 182 245 292 341 421
#     4  11  24  39  65  97 135 184 239 275 333 403
#     4  10  24  46  75 100 135 184 233 293 356 429
#     4   9  22  45  75 102 134 171 240 294 353 416
#
# _framework density 24.141932000000001
#
# number of rings (size 3 to 8) (size 9 to 14) (size 15 to 20)
#    0.000    1.000    2.500    3.000   10.500    0.000 
#    0.000    1.250    0.000    0.000    0.000    0.000 
#    0.000    0.000    0.000    0.000    0.000    0.000 
#
# Total GULP energy -89282.845610 kJ/mol
# GULP energy per Si atom -5580.177851 kJ/mol
# Density = 2.408698 g / cm^3
# Si number density = 24.141932 Si / 1000 Ang^3
#
#
#
# Elastic Constant Matrix: (Units=GPa)
#
#
# Indices 1 2 3 4 5 6 
#
# 1 157.5854 29.0952 38.1333 -24.0039 20.4659 5.9622
# 2 29.0952 72.7715 -2.8184 -9.1306 1.6844 -9.8168
# 3 38.1333 -2.8184 41.8541 -7.4560 6.8294 7.3214
# 4 -24.0039 -9.1306 -7.4560 32.0973 -1.1957 8.7563
# 5 20.4659 1.6844 6.8294 -1.1957 35.5503 -7.0679
# 6 5.9622 -9.8168 7.3214 8.7563 -7.0679 50.3860
#
#
#
# Elastic Compliance Matrix: (Units=1/GPa)
#
#
# Indices 1 2 3 4 5 6 
#
# 1 0.010467 -0.004032 -0.007639 0.005418 -0.004685 -0.002513
# 2 -0.004032 0.016109 0.004371 0.001856 0.001346 0.002847
# 3 -0.007639 0.004371 0.033107 0.004259 -0.002860 -0.004196
# 4 0.005418 0.001856 0.004259 0.038814 -0.004361 -0.008255
# 5 -0.004685 0.001346 -0.002860 -0.004361 0.032466 0.006544
# 6 -0.002513 0.002847 -0.004196 -0.008255 0.006544 0.023661
#
#
# Mechanical properties :
#
#
# Convention : Reuss Voigt Hill
#
# Bulk Modulus (GPa) = 22.18152 44.55903 33.37028
# Shear Modulus (GPa) = 27.13686 37.46014 32.29850
#
# Velocity S-wave (km/s) = 3.35633 3.94339 3.66164
# Velocity P-wave (km/s) = 4.92218 6.26346 5.63288
#
# Compressibility (1/GPa) = 0.04508258
#
# Stress axis : x y z
#
# Youngs Moduli (GPa) = 95.53412 62.07852 30.20553
#
# Poissons Ratio (x) = 0.25028 0.23075
# Poissons Ratio (y) = 0.38517 -0.13203
# Poissons Ratio (z) = 0.72982 -0.27135
#
# Static dielectric constant tensor:
#      x y z
#    x 2.070980 -0.133130 -0.100910 
#    y -0.133130 2.051020 0.007620 
#    z -0.100910 0.007620 2.246790 
# 
# From -- ./inp_files/484299.got.cif
#   From: 2010.05.17/outbox.cif.g08.bks.cpg/sg2_243_cif.got.tgz:484299.got - 2010.06.03 11:33:40.
