data_PCOD9049132
_publ_section_title
;
Structure prediction by ZEFSAII (Michael W. Deem and Ramdas Pophale) SiO2 
 PCOD9049132
Probable space group: P -1
;
_chemical_formula_sum "Si O2"
_cell_formula_units_Z 15
_cell_length_a 20.424646
_cell_length_b 5.002023
_cell_length_c 5.651517
_cell_angle_alpha 85.744524
_cell_angle_beta 114.158320
_cell_angle_gamma 88.662452
_cell_volume 524.447733
_symmetry_space_group_name_H-M "P -1"
_symmetry_group_IT_number 2
_symmetry_cell_setting 'triclinic'
loop_
_space_group_symop_operation_xyz
x,y,z
-x,-y,-z
loop_
_atom_site_type_symbol
_atom_site_label
_atom_site_fract_x
_atom_site_fract_y
_atom_site_fract_z
Si Si1 0.392220 0.086334 0.769407
Si Si2 0.184474 0.701079 0.618644
Si Si3 0.961666 0.223534 0.368242
Si Si4 0.887581 0.558412 0.862149
Si Si5 0.678785 0.244490 0.937594
Si Si6 0.437551 0.577155 0.585797
Si Si7 0.240189 0.110282 0.295096
Si Si8 0.000000 0.000000 0.000000
O O1 0.378892 0.926716 0.999646
O O2 0.433546 0.875010 0.667634
O O3 0.311769 0.150226 0.548464
O O4 0.431813 0.360607 0.801342
O O5 0.125163 0.796492 0.715448
O O6 0.140422 0.475203 0.441331
O O7 0.265918 0.616274 0.819137
O O8 0.196969 0.915275 0.414230
O O9 0.000000 0.500000 0.500000
O O10 0.943249 0.310124 0.034740
O O11 0.983626 0.024708 0.659603
O O12 0.932922 0.809928 0.947896
O O13 0.810978 0.632220 0.867514
O O14 0.634867 0.432439 0.678707
O O15 0.731642 0.040413 0.885620
O O16 0.500000 0.500000 0.500000
#
# Coordination Sequence:
#
# PCOD9049132 Si02
#       8
#     2   2   2   2   2   2   2   1
#     4  10  25  43  77 113 159 208 265 316 387 456
#     4  11  25  46  71 105 139 192 255 314 385 456
#     4  12  27  46  73 101 138 186 243 308 388 462
#     4  12  26  45  73 101 143 187 248 318 379 464
#     4  10  24  48  76 112 153 203 257 320 383 456
#     4  11  25  48  76 119 167 208 260 321 381 463
#     4  10  24  46  69 106 146 190 255 318 376 451
#     4  12  28  48  66 100 142 184 240 308 388 466
#
# _framework density 28.601513000000001
#
# number of rings (size 3 to 8) (size 9 to 14) (size 15 to 20)
#    0.000    1.067    0.000    4.800    7.467    8.533 
#    2.400    0.000    0.000    0.000    0.000    0.000 
#    0.000    0.000    0.000    0.000    0.000    0.000 
#
# Total GULP energy -83981.731495 kJ/mol
# GULP energy per Si atom -5598.782100 kJ/mol
# Density = 2.853641 g / cm^3
# Si number density = 28.601513 Si / 1000 Ang^3
#
#
#
# Elastic Constant Matrix: (Units=GPa)
#
#
# Indices 1 2 3 4 5 6 
#
# 1 152.8736 30.9489 14.4937 -13.4321 -6.6865 -35.4512
# 2 30.9489 137.5556 25.9094 -11.6524 3.6361 -2.7506
# 3 14.4937 25.9094 112.2268 -6.3910 11.8806 -17.1102
# 4 -13.4321 -11.6524 -6.3910 47.4303 -2.6710 -2.7590
# 5 -6.6865 3.6361 11.8806 -2.6710 66.5791 -6.0885
# 6 -35.4512 -2.7506 -17.1102 -2.7590 -6.0885 45.3006
#
#
#
# Elastic Compliance Matrix: (Units=1/GPa)
#
#
# Indices 1 2 3 4 5 6 
#
# 1 0.008875 -0.001735 0.000348 0.002658 0.001704 0.007362
# 2 -0.001735 0.008069 -0.001763 0.001143 -0.000393 -0.001517
# 3 0.000348 -0.001763 0.010063 0.001175 -0.001264 0.003868
# 4 0.002658 0.001143 0.001175 0.022588 0.001280 0.004141
# 5 0.001704 -0.000393 -0.001264 0.001280 0.015766 0.003029
# 6 0.007362 -0.001517 0.003868 0.004141 0.003029 0.029864
#
#
# Mechanical properties :
#
#
# Convention : Reuss Voigt Hill
#
# Bulk Modulus (GPa) = 48.29482 60.59557 54.44519
# Shear Modulus (GPa) = 46.11293 53.94894 50.03093
#
# Velocity S-wave (km/s) = 4.01965 4.34778 4.18693
# Velocity P-wave (km/s) = 6.20205 6.81443 6.51544
#
# Compressibility (1/GPa) = 0.02070616
#
# Stress axis : x y z
#
# Youngs Moduli (GPa) = 112.67585 123.92835 99.37319
#
# Poissons Ratio (x) = 0.21501 -0.03457
# Poissons Ratio (y) = 0.19549 0.17524
# Poissons Ratio (z) = -0.03919 0.21854
#
# Static dielectric constant tensor:
#      x y z
#    x 6.281180 -3.568850 -1.408320 
#    y -3.568850 5.264310 1.090070 
#    z -1.408320 1.090070 2.743510 
# 
# From -- ./inp_files/114455.got.cif
#   From: 2010.05.17/outbox.cif.g08.bks.cpg/sg2_58_cif.got.tgz:114455.got - 2010.06.03 11:33:40.
