data_PCOD9049951
_publ_section_title
;
Structure prediction by ZEFSAII (Michael W. Deem and Ramdas Pophale) SiO2 
 PCOD9049951
Probable space group: P -1
;
_chemical_formula_sum "Si O2"
_cell_formula_units_Z 14
_cell_length_a 9.630367
_cell_length_b 5.271807
_cell_length_c 14.920024
_cell_angle_alpha 55.403137
_cell_angle_beta 86.271886
_cell_angle_gamma 105.069861
_cell_volume 580.143943
_symmetry_space_group_name_H-M "P -1"
_symmetry_group_IT_number 2
_symmetry_cell_setting 'triclinic'
loop_
_space_group_symop_operation_xyz
x,y,z
-x,-y,-z
loop_
_atom_site_type_symbol
_atom_site_label
_atom_site_fract_x
_atom_site_fract_y
_atom_site_fract_z
Si Si1 0.349631 0.638113 0.184578
Si Si2 0.929651 0.996022 0.730176
Si Si3 0.082882 0.249690 0.023505
Si Si4 0.606552 0.679691 0.040499
Si Si5 0.726334 0.805059 0.367242
Si Si6 0.293874 0.726845 0.373264
Si Si7 0.550068 0.223712 0.364665
O O1 0.195285 0.339737 0.232476
O O2 0.505412 0.619804 0.144598
O O3 0.358271 0.720572 0.272745
O O4 0.337532 0.935597 0.064315
O O5 0.916098 0.956517 0.845565
O O6 0.871776 0.275203 0.637509
O O7 0.097379 0.054804 0.684927
O O8 0.252092 0.429950 0.946303
O O9 0.000000 0.500000 0.000000
O O10 0.000000 0.000000 0.000000
O O11 0.500000 0.500000 0.000000
O O12 0.699884 0.564641 0.504251
O O13 0.639191 0.582877 0.331333
O O14 0.663139 0.090630 0.333754
O O15 0.393569 0.069649 0.348100
O O16 0.500000 0.000000 0.500000
#
# Coordination Sequence:
#
# PCOD9049951 Si02
#       7
#     2   2   2   2   2   2   2
#     4  11  24  42  80 104 148 185 263 303 370 428
#     4  12  27  48  70 112 147 197 250 303 369 451
#     4  12  28  50  72 105 150 190 241 315 377 434
#     4  11  23  49  74 105 140 196 250 313 365 450
#     4  11  27  47  75 110 155 196 241 303 376 441
#     4  11  24  45  78 107 147 199 247 306 359 450
#     4  10  24  48  70 104 150 194 246 302 362 432
#
# _framework density 24.131945999999999
#
# number of rings (size 3 to 8) (size 9 to 14) (size 15 to 20)
#    0.000    0.857    2.857    3.000   10.000    1.714 
#    5.143    0.000    0.000    0.000    0.000    0.000 
#    0.000    0.000    0.000    0.000    0.000    0.000 
#
# Total GULP energy -78389.769113 kJ/mol
# GULP energy per Si atom -5599.269222 kJ/mol
# Density = 2.407702 g / cm^3
# Si number density = 24.131946 Si / 1000 Ang^3
#
#
#
# Elastic Constant Matrix: (Units=GPa)
#
#
# Indices 1 2 3 4 5 6 
#
# 1 190.1349 48.9341 4.9667 15.9686 -27.5972 8.2262
# 2 48.9341 131.9305 26.8478 36.6631 -8.1100 13.4703
# 3 4.9667 26.8478 93.3554 16.7028 -13.2375 19.1054
# 4 15.9686 36.6631 16.7028 46.4355 -0.1058 5.8319
# 5 -27.5972 -8.1100 -13.2375 -0.1058 48.8658 6.2288
# 6 8.2262 13.4703 19.1054 5.8319 6.2288 42.0834
#
#
#
# Elastic Compliance Matrix: (Units=1/GPa)
#
#
# Indices 1 2 3 4 5 6 
#
# 1 0.006447 -0.002000 0.001275 -0.000880 0.003862 -0.001648
# 2 -0.002000 0.010761 -0.001331 -0.007137 0.000476 -0.001531
# 3 0.001275 -0.001331 0.013642 -0.003496 0.004986 -0.006270
# 4 -0.000880 -0.007137 -0.003496 0.028667 -0.002625 0.000460
# 5 0.003862 0.000476 0.004986 -0.002625 0.024897 -0.006492
# 6 -0.001648 -0.001531 -0.006270 0.000460 -0.006492 0.028318
#
#
# Mechanical properties :
#
#
# Convention : Reuss Voigt Hill
#
# Bulk Modulus (GPa) = 37.39989 64.10198 50.75093
# Shear Modulus (GPa) = 39.75903 49.78842 44.77372
#
# Velocity S-wave (km/s) = 4.06343 4.54715 4.31208
# Velocity P-wave (km/s) = 6.12756 7.36135 6.77261
#
# Compressibility (1/GPa) = 0.02673805
#
# Stress axis : x y z
#
# Youngs Moduli (GPa) = 155.11637 92.92623 73.30070
#
# Poissons Ratio (x) = 0.18587 -0.09344
# Poissons Ratio (y) = 0.31026 0.09755
# Poissons Ratio (z) = -0.19774 0.12367
#
# Static dielectric constant tensor:
#      x y z
#    x 1.983230 -0.059290 0.095330 
#    y -0.059290 1.913190 -0.079710 
#    z 0.095330 -0.079710 2.035190 
# 
# From -- ./inp_files/488093.got.cif
#   From: 2010.05.17/outbox.cif.g08.bks.cpg/sg2_245_cif.got.tgz:488093.got - 2010.06.03 11:33:40.
