data_PCOD9049647
_publ_section_title
;
Structure prediction by ZEFSAII (Michael W. Deem and Ramdas Pophale) SiO2 
 PCOD9049647
Probable space group: P -1
;
_chemical_formula_sum "Si O2"
_cell_formula_units_Z 16
_cell_length_a 9.221598
_cell_length_b 14.066778
_cell_length_c 10.777406
_cell_angle_alpha 148.439131
_cell_angle_beta 94.791500
_cell_angle_gamma 95.091569
_cell_volume 694.053424
_symmetry_space_group_name_H-M "P -1"
_symmetry_group_IT_number 2
_symmetry_cell_setting 'triclinic'
loop_
_space_group_symop_operation_xyz
x,y,z
-x,-y,-z
loop_
_atom_site_type_symbol
_atom_site_label
_atom_site_fract_x
_atom_site_fract_y
_atom_site_fract_z
Si Si1 0.916687 0.793378 0.824497
Si Si2 0.362861 0.472725 0.654175
Si Si3 0.234787 0.737932 0.809529
Si Si4 0.378553 0.920466 0.509376
Si Si5 0.282926 0.458833 0.289675
Si Si6 0.648138 0.899727 0.648320
Si Si7 0.829192 0.903529 0.426838
Si Si8 0.169930 0.508787 0.062699
O O1 0.778815 0.675310 0.595078
O O2 0.826528 0.745935 0.895838
O O3 0.054251 0.702923 0.751273
O O4 0.000000 0.000000 0.000000
O O5 0.301658 0.655659 0.843876
O O6 0.540324 0.539123 0.697686
O O7 0.373225 0.325515 0.598193
O O8 0.280224 0.627941 0.574809
O O9 0.299982 0.966662 0.079670
O O10 0.480974 0.916268 0.629086
O O11 0.278343 0.705604 0.236175
O O12 0.500000 0.000000 0.500000
O O13 0.274034 0.056136 0.646298
O O14 0.211003 0.504495 0.206966
O O15 0.772704 0.976621 0.632103
O O16 0.803747 0.682004 0.196774
O O17 0.000000 0.000000 0.500000
O O18 0.000000 0.500000 0.000000
#
# Coordination Sequence:
#
# PCOD9049647 Si02
#       8
#     2   2   2   2   2   2   2   2
#     4  11  23  45  69 104 144 192 240 291 360 432
#     4  11  23  47  69 107 142 187 241 292 363 434
#     4  11  25  46  73 105 147 188 232 301 361 436
#     4  10  24  47  70 107 143 190 248 295 370 430
#     4  11  26  47  73 109 147 190 248 294 367 438
#     4  11  25  44  73 107 143 190 241 298 370 427
#     4  11  26  46  71 105 145 192 253 302 361 437
#     4  12  26  48  74 106 147 191 244 309 362 424
#
# _framework density 23.052979000000001
#
# number of rings (size 3 to 8) (size 9 to 14) (size 15 to 20)
#    0.000    1.000    3.750    3.000    3.500    6.500 
#    4.500    0.000    0.000    0.000    0.000    0.000 
#    0.000    0.000    0.000    0.000    0.000    0.000 
#
# Total GULP energy -89127.258340 kJ/mol
# GULP energy per Si atom -5570.453646 kJ/mol
# Density = 2.300051 g / cm^3
# Si number density = 23.052979 Si / 1000 Ang^3
#
#
#
# Elastic Constant Matrix: (Units=GPa)
#
#
# Indices 1 2 3 4 5 6 
#
# 1 202.7220 63.8440 51.4938 15.2184 22.2624 -23.7436
# 2 63.8440 85.3163 24.9543 30.4158 4.1680 -4.4921
# 3 51.4938 24.9543 101.1195 24.1653 3.5785 6.2340
# 4 15.2184 30.4158 24.1653 46.0077 1.0360 4.7083
# 5 22.2624 4.1680 3.5785 1.0360 41.6522 8.1779
# 6 -23.7436 -4.4921 6.2340 4.7083 8.1779 52.0266
#
#
#
# Elastic Compliance Matrix: (Units=1/GPa)
#
#
# Indices 1 2 3 4 5 6 
#
# 1 0.008468 -0.005745 -0.003609 0.002556 -0.004546 0.004284
# 2 -0.005745 0.019879 0.000768 -0.011660 0.001335 -0.000152
# 3 -0.003609 0.000768 0.013077 -0.005925 0.001433 -0.002836
# 4 0.002556 -0.011660 -0.005925 0.031918 -0.000091 -0.002004
# 5 -0.004546 0.001335 0.001433 -0.000091 0.027447 -0.006437
# 6 0.004284 -0.000152 -0.002836 -0.002004 -0.006437 0.022696
#
#
# Mechanical properties :
#
#
# Convention : Reuss Voigt Hill
#
# Bulk Modulus (GPa) = 41.23028 74.41575 57.82302
# Shear Modulus (GPa) = 33.61578 44.52835 39.07207
#
# Velocity S-wave (km/s) = 3.82278 4.39973 4.12136
# Velocity P-wave (km/s) = 6.11626 7.62630 6.91264
#
# Compressibility (1/GPa) = 0.02425402
#
# Stress axis : x y z
#
# Youngs Moduli (GPa) = 118.09492 50.30468 76.46763
#
# Poissons Ratio (x) = 0.28899 0.27593
# Poissons Ratio (y) = 0.67843 -0.05875
# Poissons Ratio (z) = 0.42615 -0.03865
#
# Static dielectric constant tensor:
#      x y z
#    x 1.852030 -0.017610 0.016320 
#    y -0.017610 2.030900 0.009990 
#    z 0.016320 0.009990 1.959790 
# 
# From -- ./inp_files/400108.got.cif
#   From: 2010.05.17/outbox.cif.g08.bks.cpg/sg2_201_cif.got.tgz:400108.got - 2010.06.03 11:33:40.
