data_PCOD9049623
_publ_section_title
;
Structure prediction by ZEFSAII (Michael W. Deem and Ramdas Pophale) SiO2 
 PCOD9049623
Probable space group: P -1
;
_chemical_formula_sum "Si O2"
_cell_formula_units_Z 16
_cell_length_a 14.955357
_cell_length_b 8.248122
_cell_length_c 9.374895
_cell_angle_alpha 45.443671
_cell_angle_beta 118.400719
_cell_angle_gamma 126.856300
_cell_volume 656.284395
_symmetry_space_group_name_H-M "P -1"
_symmetry_group_IT_number 2
_symmetry_cell_setting 'triclinic'
loop_
_space_group_symop_operation_xyz
x,y,z
-x,-y,-z
loop_
_atom_site_type_symbol
_atom_site_label
_atom_site_fract_x
_atom_site_fract_y
_atom_site_fract_z
Si Si1 0.006405 0.773737 0.867392
Si Si2 0.928992 0.623456 0.216595
Si Si3 0.748972 0.065016 0.997463
Si Si4 0.691371 0.559047 0.170602
Si Si5 0.631296 0.132736 0.618542
Si Si6 0.365146 0.310471 0.247115
Si Si7 0.421100 0.768728 0.177550
Si Si8 0.118478 0.919007 0.409750
O O1 0.964741 0.747259 0.014631
O O2 0.138922 0.932036 0.859075
O O3 0.000000 0.500000 0.000000
O O4 0.934938 0.909014 0.659990
O O5 0.823445 0.660437 0.174565
O O6 0.887048 0.320920 0.357263
O O7 0.034190 0.763399 0.314274
O O8 0.745625 0.155318 0.775489
O O9 0.702538 0.236734 0.941150
O O10 0.665165 0.772247 0.099004
O O11 0.662435 0.333562 0.395111
O O12 0.639835 0.525109 0.994759
O O13 0.564529 0.169603 0.680891
O O14 0.579568 0.862236 0.671118
O O15 0.421203 0.508915 0.291629
O O16 0.242478 0.108470 0.333591
O O17 0.500000 0.000000 0.000000
#
# Coordination Sequence:
#
# PCOD9049623 Si02
#       8
#     2   2   2   2   2   2   2   2
#     4  12  23  35  52  88 129 165 207 251 295 364
#     4  11  22  34  62  85 128 170 207 241 296 370
#     4   9  22  39  61  83 127 163 205 258 316 361
#     4  11  19  40  64  93 124 171 206 252 307 376
#     4   9  22  41  65  93 126 159 208 261 319 367
#     4  11  21  41  67  93 127 168 209 257 312 375
#     4  10  24  47  69  90 124 163 208 271 330 373
#     4  11  22  36  57  91 123 166 213 239 295 370
#
# _framework density 24.379674000000001
#
# number of rings (size 3 to 8) (size 9 to 14) (size 15 to 20)
#    0.750    0.750    3.750    2.625    1.750    1.000 
#    4.500    1.250    0.000    0.000    0.000    0.000 
#    0.000    0.000    0.000    0.000    0.000    0.000 
#
# Total GULP energy -89313.094597 kJ/mol
# GULP energy per Si atom -5582.068412 kJ/mol
# Density = 2.432419 g / cm^3
# Si number density = 24.379674 Si / 1000 Ang^3
#
#
#
# Elastic Constant Matrix: (Units=GPa)
#
#
# Indices 1 2 3 4 5 6 
#
# 1 85.8374 32.4689 11.6571 -8.1355 -3.2703 -20.4918
# 2 32.4689 94.4897 22.2674 -17.5214 -2.0568 -31.9980
# 3 11.6571 22.2674 108.1945 -3.7518 3.8749 -20.4546
# 4 -8.1355 -17.5214 -3.7518 28.7676 -14.0097 12.1406
# 5 -3.2703 -2.0568 3.8749 -14.0097 40.8192 -8.2365
# 6 -20.4918 -31.9980 -20.4546 12.1406 -8.2365 41.4540
#
#
#
# Elastic Compliance Matrix: (Units=1/GPa)
#
#
# Indices 1 2 3 4 5 6 
#
# 1 0.014124 -0.002911 -0.000057 0.001377 0.002429 0.004786
# 2 -0.002911 0.016675 -0.001221 0.007693 0.005307 0.009631
# 3 -0.000057 -0.001221 0.010311 -0.001641 -0.000709 0.004457
# 4 0.001377 0.007693 -0.001641 0.050111 0.016734 -0.005542
# 5 0.002429 0.005307 -0.000709 0.016734 0.032066 0.006417
# 6 0.004786 0.009631 0.004457 -0.005542 0.006417 0.039020
#
#
# Mechanical properties :
#
#
# Convention : Reuss Voigt Hill
#
# Bulk Modulus (GPa) = 30.55053 46.81201 38.68127
# Shear Modulus (GPa) = 27.53371 37.01671 32.27521
#
# Velocity S-wave (km/s) = 3.36426 3.90082 3.64243
# Velocity P-wave (km/s) = 5.25826 6.28740 5.79572
#
# Compressibility (1/GPa) = 0.03273266
#
# Stress axis : x y z
#
# Youngs Moduli (GPa) = 70.79925 59.97117 96.98282
#
# Poissons Ratio (x) = 0.17458 0.00553
# Poissons Ratio (y) = 0.20610 0.11838
# Poissons Ratio (z) = 0.00404 0.07320
#
# Static dielectric constant tensor:
#      x y z
#    x 2.008100 0.010660 0.063240 
#    y 0.010660 2.038080 -0.027020 
#    z 0.063240 -0.027020 1.937240 
# 
# From -- ./inp_files/445489.got.cif
#   From: 2010.05.17/outbox.cif.g08.bks.cpg/sg2_223_cif.got.tgz:445489.got - 2010.06.03 11:33:40.
