data_PCOD9049115
_publ_section_title
;
Structure prediction by ZEFSAII (Michael W. Deem and Ramdas Pophale) SiO2 
 PCOD9049115
Probable space group: P -1
;
_chemical_formula_sum "Si O2"
_cell_formula_units_Z 12
_cell_length_a 11.803203
_cell_length_b 9.542704
_cell_length_c 10.313339
_cell_angle_alpha 56.797840
_cell_angle_beta 151.725353
_cell_angle_gamma 120.721776
_cell_volume 459.230578
_symmetry_space_group_name_H-M "P -1"
_symmetry_group_IT_number 2
_symmetry_cell_setting 'triclinic'
loop_
_space_group_symop_operation_xyz
x,y,z
-x,-y,-z
loop_
_atom_site_type_symbol
_atom_site_label
_atom_site_fract_x
_atom_site_fract_y
_atom_site_fract_z
Si Si1 0.013981 0.706460 0.138118
Si Si2 0.137568 0.734597 0.962019
Si Si3 0.362081 0.094316 0.003737
Si Si4 0.374838 0.348130 0.646842
Si Si5 0.694292 0.999153 0.582307
Si Si6 0.390910 0.402338 0.062940
O O1 0.138134 0.679096 0.140187
O O2 0.861871 0.564870 0.139856
O O3 0.817279 0.829353 0.819435
O O4 0.153257 0.828945 0.318573
O O5 0.882495 0.677079 0.669138
O O6 0.381938 0.669904 0.180805
O O7 0.167589 0.938261 0.880924
O O8 0.598595 0.008289 0.335234
O O9 0.336711 0.220045 0.035738
O O10 0.380126 0.203964 0.837335
O O11 0.415742 0.529135 0.669730
O O12 0.500000 0.000000 0.500000
O O13 0.500000 0.500000 0.000000
#
# Coordination Sequence:
#
# PCOD9049115 Si02
#       6
#     2   2   2   2   2   2
#     4  11  23  39  70 104 139 182 236 291 354 417
#     4  12  25  45  71 104 145 186 234 289 352 421
#     4  11  22  45  76 102 137 184 244 294 342 415
#     4  11  28  46  68 106 148 189 227 285 363 423
#     4  11  20  40  70 107 135 173 240 303 342 394
#     4  10  24  46  69 102 138 186 236 290 352 419
#
# _framework density 26.130665
#
# number of rings (size 3 to 8) (size 9 to 14) (size 15 to 20)
#    0.000    1.000    3.333    3.000    0.000    6.667 
#    0.000    5.833    0.000    0.000    0.000    0.000 
#    0.000    0.000    0.000    0.000    0.000    0.000 
#
# Total GULP energy -67059.568805 kJ/mol
# GULP energy per Si atom -5588.297400 kJ/mol
# Density = 2.607119 g / cm^3
# Si number density = 26.130665 Si / 1000 Ang^3
#
#
#
# Elastic Constant Matrix: (Units=GPa)
#
#
# Indices 1 2 3 4 5 6 
#
# 1 189.3808 56.4410 64.8628 6.2412 -5.6388 23.1854
# 2 56.4410 107.2163 3.6429 27.9509 9.5303 -6.9785
# 3 64.8628 3.6429 116.2337 24.1739 -0.8922 4.8715
# 4 6.2412 27.9509 24.1739 50.8263 9.5585 -3.8297
# 5 -5.6388 9.5303 -0.8922 9.5585 31.1641 2.5150
# 6 23.1854 -6.9785 4.8715 -3.8297 2.5150 52.8062
#
#
#
# Elastic Compliance Matrix: (Units=1/GPa)
#
#
# Indices 1 2 3 4 5 6 
#
# 1 0.009767 -0.006620 -0.005964 0.004454 0.002611 -0.004414
# 2 -0.006620 0.015593 0.004920 -0.009173 -0.003335 0.004007
# 3 -0.005964 0.004920 0.013448 -0.008307 0.000235 0.001415
# 4 0.004454 -0.009173 -0.008307 0.029169 -0.005572 -0.000021
# 5 0.002611 -0.003335 0.000235 -0.005572 0.035595 -0.003708
# 6 -0.004414 0.004007 0.001415 -0.000021 -0.003708 0.021450
#
#
# Mechanical properties :
#
#
# Convention : Reuss Voigt Hill
#
# Bulk Modulus (GPa) = 42.59108 73.63602 58.11355
# Shear Modulus (GPa) = 33.74314 46.15162 39.94738
#
# Velocity S-wave (km/s) = 3.59740 4.20716 3.91417
# Velocity P-wave (km/s) = 5.79566 7.20010 6.53571
#
# Compressibility (1/GPa) = 0.02347909
#
# Stress axis : x y z
#
# Youngs Moduli (GPa) = 102.38058 64.13047 74.36249
#
# Poissons Ratio (x) = 0.42453 0.44353
# Poissons Ratio (y) = 0.67774 -0.36583
# Poissons Ratio (z) = 0.61064 -0.31550
#
# Static dielectric constant tensor:
#      x y z
#    x 2.110580 -0.097200 0.147320 
#    y -0.097200 2.155350 -0.044050 
#    z 0.147320 -0.044050 2.175680 
# 
# From -- ./inp_files/449925.got.cif
#   From: 2010.05.17/outbox.cif.g08.bks.cpg/sg2_225_cif.got.tgz:449925.got - 2010.06.03 11:33:40.
