data_PCOD9049919
_publ_section_title
;
Structure prediction by ZEFSAII (Michael W. Deem and Ramdas Pophale) SiO2 
 PCOD9049919
Probable space group: P -1
;
_chemical_formula_sum "Si O2"
_cell_formula_units_Z 16
_cell_length_a 8.731219
_cell_length_b 6.351911
_cell_length_c 17.331954
_cell_angle_alpha 89.038233
_cell_angle_beta 64.950385
_cell_angle_gamma 120.034219
_cell_volume 721.124501
_symmetry_space_group_name_H-M "P -1"
_symmetry_group_IT_number 2
_symmetry_cell_setting 'triclinic'
loop_
_space_group_symop_operation_xyz
x,y,z
-x,-y,-z
loop_
_atom_site_type_symbol
_atom_site_label
_atom_site_fract_x
_atom_site_fract_y
_atom_site_fract_z
Si Si1 0.250991 0.797303 0.868181
Si Si2 0.786240 0.553789 0.989926
Si Si3 0.507804 0.275636 0.921222
Si Si4 0.244820 0.326216 0.261145
Si Si5 0.577431 0.338089 0.294474
Si Si6 0.368254 0.108860 0.503331
Si Si7 0.852818 0.750168 0.341874
Si Si8 0.995531 0.444389 0.411879
O O1 0.334475 0.807898 0.764808
O O2 0.022798 0.731542 0.914814
O O3 0.409002 0.043206 0.883756
O O4 0.224407 0.559210 0.922471
O O5 0.647924 0.310217 0.964159
O O6 0.676912 0.703095 0.012397
O O7 0.666492 0.529959 0.838256
O O8 0.422902 0.329526 0.267163
O O9 0.189025 0.490622 0.324624
O O10 0.051157 0.036804 0.292037
O O11 0.449026 0.219982 0.401082
O O12 0.767233 0.614041 0.278897
O O13 0.334390 0.264285 0.573615
O O14 0.500000 0.000000 0.500000
O O15 0.143647 0.858527 0.551722
O O16 0.907555 0.580298 0.381753
O O17 0.000000 0.500000 0.500000
#
# Coordination Sequence:
#
# PCOD9049919 Si02
#       8
#     2   2   2   2   2   2   2   2
#     4  11  25  44  71 106 134 170 231 280 338 404
#     4  10  24  48  68 102 134 179 220 277 351 404
#     4  11  24  45  73  98 138 180 222 276 343 410
#     4  11  27  43  65 105 134 178 234 271 338 406
#     4  12  25  44  71 100 138 181 227 287 337 399
#     4  11  24  42  67  98 132 183 233 265 341 400
#     4  11  26  47  66  99 144 178 229 281 331 401
#     4  11  24  42  68  94 137 183 222 286 334 391
#
# _framework density 22.187570000000001
#
# number of rings (size 3 to 8) (size 9 to 14) (size 15 to 20)
#    0.000    1.000    2.500    2.625    7.000    3.000 
#    9.000    0.000    0.000    0.000    0.000    0.000 
#    0.000    0.000    0.000    0.000    0.000    0.000 
#
# Total GULP energy -89340.320722 kJ/mol
# GULP energy per Si atom -5583.770045 kJ/mol
# Density = 2.213707 g / cm^3
# Si number density = 22.187570 Si / 1000 Ang^3
#
#
#
# Elastic Constant Matrix: (Units=GPa)
#
#
# Indices 1 2 3 4 5 6 
#
# 1 58.4542 11.9034 31.4473 -4.3253 -11.0908 18.3116
# 2 11.9034 94.1801 36.3900 11.8584 -3.6506 23.6502
# 3 31.4473 36.3900 116.0491 10.9312 -16.1128 7.2653
# 4 -4.3253 11.8584 10.9312 35.1277 -2.7496 4.7244
# 5 -11.0908 -3.6506 -16.1128 -2.7496 25.9117 5.3673
# 6 18.3116 23.6502 7.2653 4.7244 5.3673 29.4021
#
#
#
# Elastic Compliance Matrix: (Units=1/GPa)
#
#
# Indices 1 2 3 4 5 6 
#
# 1 0.032177 0.004863 -0.007165 0.009438 0.016538 -0.026717
# 2 0.004863 0.015954 -0.004641 -0.000917 0.004535 -0.015395
# 3 -0.007165 -0.004641 0.012376 -0.003681 0.002493 0.005273
# 4 0.009438 -0.000917 -0.003681 0.033130 0.007395 -0.010904
# 5 0.016538 0.004535 0.002493 0.007395 0.053948 -0.025600
# 6 -0.026717 -0.015395 0.005273 -0.010904 -0.025600 0.068156
#
#
# Mechanical properties :
#
#
# Convention : Reuss Voigt Hill
#
# Bulk Modulus (GPa) = 21.44850 47.57388 34.51119
# Shear Modulus (GPa) = 20.39429 30.68446 25.53938
#
# Velocity S-wave (km/s) = 3.03508 3.72285 3.39642
# Velocity P-wave (km/s) = 4.68724 6.32200 5.56497
#
# Compressibility (1/GPa) = 0.04662331
#
# Stress axis : x y z
#
# Youngs Moduli (GPa) = 31.07805 62.68144 80.79875
#
# Poissons Ratio (x) = -0.30483 0.57889
# Poissons Ratio (y) = -0.15114 0.37496
# Poissons Ratio (z) = 0.22266 0.29088
#
# Static dielectric constant tensor:
#      x y z
#    x 1.816920 -0.032510 -0.043220 
#    y -0.032510 1.827660 0.051890 
#    z -0.043220 0.051890 1.749310 
# 
# From -- ./inp_files/112901.got.cif
#   From: 2010.05.17/outbox.cif.g08.bks.cpg/sg2_57_cif.got.tgz:112901.got - 2010.06.03 11:33:40.
