data_PCOD9049222
_publ_section_title
;
Structure prediction by ZEFSAII (Michael W. Deem and Ramdas Pophale) SiO2 
 PCOD9049222
Probable space group: P -1
;
_chemical_formula_sum "Si O2"
_cell_formula_units_Z 12
_cell_length_a 7.335994
_cell_length_b 11.568617
_cell_length_c 7.813131
_cell_angle_alpha 58.508349
_cell_angle_beta 54.048163
_cell_angle_gamma 68.788069
_cell_volume 456.250338
_symmetry_space_group_name_H-M "P -1"
_symmetry_group_IT_number 2
_symmetry_cell_setting 'triclinic'
loop_
_space_group_symop_operation_xyz
x,y,z
-x,-y,-z
loop_
_atom_site_type_symbol
_atom_site_label
_atom_site_fract_x
_atom_site_fract_y
_atom_site_fract_z
Si Si1 0.097955 0.863939 0.652240
Si Si2 0.842164 0.934844 0.270443
Si Si3 0.823881 0.525118 0.782800
Si Si4 0.817737 0.304364 0.707518
Si Si5 0.303640 0.324609 0.922128
Si Si6 0.550629 0.699163 0.508863
O O1 0.287784 0.744901 0.585679
O O2 0.876902 0.787692 0.882906
O O3 0.233258 0.939284 0.667780
O O4 0.000000 0.000000 0.500000
O O5 0.665119 0.841319 0.359348
O O6 0.022175 0.824261 0.340862
O O7 0.000000 0.000000 0.000000
O O8 0.837768 0.367788 0.839566
O O9 0.769712 0.563268 0.979332
O O10 0.634467 0.605935 0.698492
O O11 0.059278 0.583086 0.554316
O O12 0.560057 0.271368 0.868509
O O13 0.345710 0.366779 0.671373
#
# Coordination Sequence:
#
# PCOD9049222 Si02
#       6
#     2   2   2   2   2   2
#     4  12  26  43  67 103 142 180 225 283 340 407
#     4  11  23  43  69  98 134 180 225 275 340 405
#     4  10  24  48  71  98 138 178 230 283 341 401
#     4  10  24  46  70  99 139 179 225 287 340 401
#     4  12  24  43  71 104 134 181 226 282 344 398
#     4  11  25  44  70 104 133 182 229 279 341 407
#
# _framework density 26.301352999999999
#
# number of rings (size 3 to 8) (size 9 to 14) (size 15 to 20)
#    0.000    1.000    1.667    5.000    4.667    2.000 
#    0.000   10.000    0.000    0.000    0.000    0.000 
#    0.000    0.000    0.000    0.000    0.000    0.000 
#
# Total GULP energy -67028.709753 kJ/mol
# GULP energy per Si atom -5585.725813 kJ/mol
# Density = 2.624149 g / cm^3
# Si number density = 26.301353 Si / 1000 Ang^3
#
#
#
# Elastic Constant Matrix: (Units=GPa)
#
#
# Indices 1 2 3 4 5 6 
#
# 1 128.2900 39.7909 67.4944 -5.2871 -26.3967 -3.8087
# 2 39.7909 141.8037 66.5553 20.3836 6.2625 13.5972
# 3 67.4944 66.5553 94.5321 30.3922 -11.6557 -11.8498
# 4 -5.2871 20.3836 30.3922 61.0057 12.7972 2.5074
# 5 -26.3967 6.2625 -11.6557 12.7972 58.7706 4.6505
# 6 -3.8087 13.5972 -11.8498 2.5074 4.6505 56.0424
#
#
#
# Elastic Compliance Matrix: (Units=1/GPa)
#
#
# Indices 1 2 3 4 5 6 
#
# 1 0.016133 0.001755 -0.015457 0.008124 0.002475 -0.003167
# 2 0.001755 0.012397 -0.011931 0.002820 -0.003096 -0.005281
# 3 -0.015457 -0.011931 0.037482 -0.017441 0.004756 0.010155
# 4 0.008124 0.002820 -0.017441 0.026173 -0.005451 -0.004539
# 5 0.002475 -0.003096 0.004756 -0.005451 0.020550 0.000464
# 6 -0.003167 -0.005281 0.010155 -0.004539 0.000464 0.021222
#
#
# Mechanical properties :
#
#
# Convention : Reuss Voigt Hill
#
# Bulk Modulus (GPa) = 67.82595 79.14523 73.48559
# Shear Modulus (GPa) = 26.29641 47.88275 37.08958
#
# Velocity S-wave (km/s) = 3.16541 4.27141 3.75931
# Velocity P-wave (km/s) = 6.26129 7.38130 6.84425
#
# Compressibility (1/GPa) = 0.01474362
#
# Stress axis : x y z
#
# Youngs Moduli (GPa) = 61.98458 80.66259 26.67952
#
# Poissons Ratio (x) = -0.14152 0.41240
# Poissons Ratio (y) = -0.10875 0.31832
# Poissons Ratio (z) = 0.95813 0.96241
#
# Static dielectric constant tensor:
#      x y z
#    x 2.083680 0.078800 0.012080 
#    y 0.078800 1.914810 0.227950 
#    z 0.012080 0.227950 2.142520 
# 
# From -- ./inp_files/175702.got.cif
#   From: 2010.05.17/outbox.cif.g08.bks.cpg/sg2_88_cif.got.tgz:175702.got - 2010.06.03 11:33:40.
