data_PCOD9049335
_publ_section_title
;
Structure prediction by ZEFSAII (Michael W. Deem and Ramdas Pophale) SiO2 
 PCOD9049335
Probable space group: P -1
;
_chemical_formula_sum "Si O2"
_cell_formula_units_Z 14
_cell_length_a 19.514834
_cell_length_b 9.168189
_cell_length_c 8.575180
_cell_angle_alpha 53.122056
_cell_angle_beta 31.408318
_cell_angle_gamma 42.634088
_cell_volume 539.859734
_symmetry_space_group_name_H-M "P -1"
_symmetry_group_IT_number 2
_symmetry_cell_setting 'triclinic'
loop_
_space_group_symop_operation_xyz
x,y,z
-x,-y,-z
loop_
_atom_site_type_symbol
_atom_site_label
_atom_site_fract_x
_atom_site_fract_y
_atom_site_fract_z
Si Si1 0.258823 0.199229 0.923753
Si Si2 0.441948 0.845882 0.523936
Si Si3 0.142750 0.660574 0.696594
Si Si4 0.451022 0.584155 0.218861
Si Si5 0.255761 0.450694 0.278488
Si Si6 0.996228 0.717944 0.407800
Si Si7 0.163637 0.096147 0.708597
O O1 0.396951 0.159202 0.799983
O O2 0.177958 0.442489 0.857385
O O3 0.340743 0.035240 0.726428
O O4 0.131213 0.174294 0.276533
O O5 0.491899 0.622356 0.651128
O O6 0.328965 0.891255 0.569139
O O7 0.265758 0.713100 0.493194
O O8 0.187750 0.593865 0.474011
O O9 0.963227 0.840358 0.950320
O O10 0.500000 0.500000 0.000000
O O11 0.558467 0.673013 0.998820
O O12 0.206229 0.278641 0.494468
O O13 0.170319 0.618541 0.195548
O O14 0.937321 0.862614 0.276903
O O15 0.000000 0.500000 0.500000
#
# Coordination Sequence:
#
# PCOD9049335 Si02
#       7
#     2   2   2   2   2   2   2
#     4  10  18  34  56  88 111 144 188 238 276 327
#     4  10  21  34  60  86 114 142 190 240 281 324
#     4  10  17  34  60  82 110 146 190 227 278 334
#     4   9  21  37  57  83 118 144 183 238 292 332
#     4  10  18  34  58  82 112 146 191 231 273 332
#     4  10  20  33  56  85 116 148 192 227 273 334
#     4  11  20  34  61  85 108 151 195 229 270 332
#
# _framework density 25.932663999999999
#
# number of rings (size 3 to 8) (size 9 to 14) (size 15 to 20)
#    0.000    2.000    4.286    1.286    2.000    0.571 
#    0.000    7.857    0.000    0.000    0.000    0.000 
#    0.000    0.000    0.000    0.000    0.000    0.000 
#
# Total GULP energy -78380.875942 kJ/mol
# GULP energy per Si atom -5598.633996 kJ/mol
# Density = 2.587364 g / cm^3
# Si number density = 25.932664 Si / 1000 Ang^3
#
#
#
# Elastic Constant Matrix: (Units=GPa)
#
#
# Indices 1 2 3 4 5 6 
#
# 1 85.2827 40.1993 26.0031 -14.7828 -12.5118 -44.5991
# 2 40.1993 80.9553 8.8871 12.1070 -3.9573 -17.8587
# 3 26.0031 8.8871 96.1641 14.1096 -24.8905 0.8140
# 4 -14.7828 12.1070 14.1096 22.2776 3.5799 -0.4076
# 5 -12.5118 -3.9573 -24.8905 3.5799 44.5074 4.2035
# 6 -44.5991 -17.8587 0.8140 -0.4076 4.2035 43.7948
#
#
#
# Elastic Compliance Matrix: (Units=1/GPa)
#
#
# Indices 1 2 3 4 5 6 
#
# 1 -5.612207 2.523432 2.664438 -7.060740 1.168745 -4.913692
# 2 2.523432 -1.119660 -1.197812 3.166336 -0.523939 2.215224
# 3 2.664438 -1.197812 -1.250699 3.341534 -0.545915 2.331674
# 4 -7.060740 3.166336 3.341534 -8.825204 1.459216 -6.183553
# 5 1.168745 -0.523939 -0.545915 1.459216 -0.214650 1.020889
# 6 -4.913692 2.215224 2.331674 -6.183553 1.020889 -4.276655
#
#
# Mechanical properties :
#
#
# Convention : Reuss Voigt Hill
#
# Bulk Modulus (GPa) = -408.35034 45.84235 -181.25399
# Shear Modulus (GPa) = -0.17076 34.60345 17.21634
#
# Velocity S-wave (km/s) = -0.25689 3.65685 2.57939
# Velocity P-wave (km/s) = 12.56565 5.96204 7.82143
#
# Compressibility (1/GPa) = -0.00244888
#
# Stress axis : x y z
#
# Youngs Moduli (GPa) = -0.17818 -0.89313 -0.79955
#
# Poissons Ratio (x) = 2.25375 2.13036
# Poissons Ratio (y) = 0.44963 -0.95771
# Poissons Ratio (z) = 0.47476 -1.06980
#
# Static dielectric constant tensor:
#      x y z
#    x 2.108140 0.091370 0.051690 
#    y 0.091370 2.375150 0.308180 
#    z 0.051690 0.308180 2.253060 
# 
# From -- ./inp_files/157184.got.cif
#   From: 2010.05.17/outbox.cif.g08.bks.cpg/sg2_79_cif.got.tgz:157184.got - 2010.06.03 11:33:40.
