data_PCOD9049113
_publ_section_title
;
Structure prediction by ZEFSAII (Michael W. Deem and Ramdas Pophale) SiO2 
 PCOD9049113
Probable space group: P -1
;
_chemical_formula_sum "Si O2"
_cell_formula_units_Z 16
_cell_length_a 11.484088
_cell_length_b 9.223535
_cell_length_c 7.955114
_cell_angle_alpha 81.562495
_cell_angle_beta 127.386525
_cell_angle_gamma 84.889493
_cell_volume 645.035248
_symmetry_space_group_name_H-M "P -1"
_symmetry_group_IT_number 2
_symmetry_cell_setting 'triclinic'
loop_
_space_group_symop_operation_xyz
x,y,z
-x,-y,-z
loop_
_atom_site_type_symbol
_atom_site_label
_atom_site_fract_x
_atom_site_fract_y
_atom_site_fract_z
Si Si1 0.197127 0.229527 0.876351
Si Si2 0.366512 0.424471 0.838496
Si Si3 0.500498 0.264879 0.679852
Si Si4 0.041320 0.319374 0.065677
Si Si5 0.268032 0.076742 0.467441
Si Si6 0.247723 0.919661 0.830100
Si Si7 0.761511 0.222879 0.678783
Si Si8 0.111792 0.691923 0.576322
O O1 0.349397 0.269359 0.937160
O O2 0.056456 0.305863 0.621958
O O3 0.196167 0.054869 0.890206
O O4 0.158252 0.279933 0.021408
O O5 0.383542 0.392530 0.658879
O O6 0.214935 0.536677 0.754260
O O7 0.500000 0.500000 0.000000
O O8 0.415026 0.141704 0.558144
O O9 0.604873 0.301837 0.616409
O O10 0.614812 0.193212 0.941718
O O11 0.130824 0.224016 0.312476
O O12 0.000000 0.500000 0.000000
O O13 0.896018 0.253036 0.907740
O O14 0.284017 0.998768 0.677376
O O15 0.242255 0.950475 0.334684
O O16 0.125935 0.827067 0.687137
O O17 0.800074 0.282645 0.521766
#
# Coordination Sequence:
#
# PCOD9049113 Si02
#       8
#     2   2   2   2   2   2   2   2
#     4  11  25  44  72  96 136 178 231 281 331 404
#     4  12  26  43  67 102 143 180 223 281 344 403
#     4  12  25  43  71 103 137 182 225 279 341 406
#     4  11  27  47  69 101 138 181 225 281 340 403
#     4  11  24  45  72 100 137 179 230 281 337 401
#     4  11  23  44  73 103 135 175 231 282 336 398
#     4  10  25  45  70  99 139 175 231 278 336 404
#     4  10  24  46  69 102 134 181 228 280 339 402
#
# _framework density 24.804845
#
# number of rings (size 3 to 8) (size 9 to 14) (size 15 to 20)
#    0.000    1.000    2.500    2.625    5.250    5.500 
#    0.000    0.000    0.000    0.000    0.000    0.000 
#    0.000    0.000    0.000    0.000    0.000    0.000 
#
# Total GULP energy -89556.098735 kJ/mol
# GULP energy per Si atom -5597.256171 kJ/mol
# Density = 2.474839 g / cm^3
# Si number density = 24.804845 Si / 1000 Ang^3
#
#
#
# Elastic Constant Matrix: (Units=GPa)
#
#
# Indices 1 2 3 4 5 6 
#
# 1 132.6571 35.6906 9.9591 32.3453 -2.9249 12.3818
# 2 35.6906 131.0466 26.2391 23.9685 1.1394 1.0923
# 3 9.9591 26.2391 68.2132 15.1389 1.3799 26.0013
# 4 32.3453 23.9685 15.1389 33.7342 1.2088 12.6111
# 5 -2.9249 1.1394 1.3799 1.2088 31.3073 16.7219
# 6 12.3818 1.0923 26.0013 12.6111 16.7219 39.9367
#
#
#
# Elastic Compliance Matrix: (Units=1/GPa)
#
#
# Indices 1 2 3 4 5 6 
#
# 1 0.010264 -0.001649 0.002134 -0.008606 0.002864 -0.003008
# 2 -0.001649 0.010093 -0.004865 -0.005813 -0.003710 0.006792
# 3 0.002134 -0.004865 0.023990 -0.002418 0.009827 -0.019499
# 4 -0.008606 -0.005813 -0.002418 0.047606 0.004321 -0.012441
# 5 0.002864 -0.003710 0.009827 0.004321 0.046770 -0.028132
# 6 -0.003008 0.006792 -0.019499 -0.012441 -0.028132 0.054189
#
#
# Mechanical properties :
#
#
# Convention : Reuss Voigt Hill
#
# Bulk Modulus (GPa) = 28.09960 52.85495 40.47728
# Shear Modulus (GPa) = 23.41544 38.33085 30.87314
#
# Velocity S-wave (km/s) = 3.07577 3.93529 3.53178
# Velocity P-wave (km/s) = 4.89558 6.48099 5.74325
#
# Compressibility (1/GPa) = 0.03558769
#
# Stress axis : x y z
#
# Youngs Moduli (GPa) = 97.43034 99.07965 41.68344
#
# Poissons Ratio (x) = 0.16333 -0.08896
# Poissons Ratio (y) = 0.16062 0.20281
# Poissons Ratio (z) = -0.20794 0.48206
#
# Static dielectric constant tensor:
#      x y z
#    x 1.947940 -0.048870 -0.026670 
#    y -0.048870 2.015050 -0.069710 
#    z -0.026670 -0.069710 1.983290 
# 
# From -- ./inp_files/216337.got.cif
#   From: 2010.05.17/outbox.cif.g08.bks.cpg/sg2_109_cif.got.tgz:216337.got - 2010.06.03 11:33:40.
