data_PCOD9049240
_publ_section_title
;
Structure prediction by ZEFSAII (Michael W. Deem and Ramdas Pophale) SiO2 
 PCOD9049240
Probable space group: P -1
;
_chemical_formula_sum "Si O2"
_cell_formula_units_Z 12
_cell_length_a 12.817845
_cell_length_b 7.780320
_cell_length_c 7.148522
_cell_angle_alpha 78.960256
_cell_angle_beta 75.471900
_cell_angle_gamma 36.262292
_cell_volume 408.112806
_symmetry_space_group_name_H-M "P -1"
_symmetry_group_IT_number 2
_symmetry_cell_setting 'triclinic'
loop_
_space_group_symop_operation_xyz
x,y,z
-x,-y,-z
loop_
_atom_site_type_symbol
_atom_site_label
_atom_site_fract_x
_atom_site_fract_y
_atom_site_fract_z
Si Si1 0.433495 0.498852 0.168684
Si Si2 0.380282 0.774824 0.430682
Si Si3 0.501185 0.004521 0.271232
Si Si4 0.984814 0.278202 0.599523
Si Si5 0.951022 0.914234 0.764227
Si Si6 0.138324 0.457066 0.032598
O O1 0.448495 0.867643 0.291722
O O2 0.477937 0.449399 0.400181
O O3 0.416122 0.308977 0.205138
O O4 0.615880 0.374000 0.057392
O O5 0.194644 0.047543 0.566900
O O6 0.256720 0.855481 0.255232
O O7 0.128495 0.462249 0.259952
O O8 0.500000 0.000000 0.500000
O O9 0.676008 0.796796 0.103207
O O10 0.938536 0.342119 0.386602
O O11 0.966652 0.096978 0.682552
O O12 0.036771 0.763266 0.952655
O O13 0.000000 0.500000 0.000000
#
# Coordination Sequence:
#
# PCOD9049240 Si02
#       6
#     2   2   2   2   2   2
#     4  11  26  46  72 107 149 187 245 306 365 439
#     4  11  23  44  74 101 144 194 236 301 369 429
#     4  12  26  46  75 110 146 194 246 300 374 442
#     4  10  24  46  71 102 142 193 242 294 368 434
#     4  10  24  47  74 100 144 193 245 301 367 433
#     4  12  26  45  74 106 147 192 243 302 367 446
#
# _framework density 29.403637
#
# number of rings (size 3 to 8) (size 9 to 14) (size 15 to 20)
#    0.000    1.000    1.667    3.500    9.333    1.333 
#    6.000    0.000    0.000    0.000    0.000    0.000 
#    0.000    0.000    0.000    0.000    0.000    0.000 
#
# Total GULP energy -66923.197030 kJ/mol
# GULP energy per Si atom -5576.933086 kJ/mol
# Density = 2.933671 g / cm^3
# Si number density = 29.403637 Si / 1000 Ang^3
#
#
#
# Elastic Constant Matrix: (Units=GPa)
#
#
# Indices 1 2 3 4 5 6 
#
# 1 190.3009 41.3602 62.5015 27.3670 -34.1360 25.8038
# 2 41.3602 151.1179 94.3013 22.1098 -12.4713 6.5166
# 3 62.5015 94.3013 175.2929 17.6452 -1.9532 24.0510
# 4 27.3670 22.1098 17.6452 70.4361 14.1574 -3.2105
# 5 -34.1360 -12.4713 -1.9532 14.1574 61.8509 -2.8162
# 6 25.8038 6.5166 24.0510 -3.2105 -2.8162 42.2523
#
#
#
# Elastic Compliance Matrix: (Units=1/GPa)
#
#
# Indices 1 2 3 4 5 6 
#
# 1 0.007774 0.000207 -0.001952 -0.003759 0.004966 -0.003623
# 2 0.000207 0.010660 -0.005734 -0.002468 0.002715 0.001487
# 3 -0.001952 -0.005734 0.009935 0.000336 -0.002165 -0.003697
# 4 -0.003759 -0.002468 0.000336 0.017807 -0.006483 0.003406
# 5 0.004966 0.002715 -0.002165 -0.006483 0.020811 -0.001325
# 6 -0.003623 0.001487 -0.003697 0.003406 -0.001325 0.027926
#
#
# Mechanical properties :
#
#
# Convention : Reuss Voigt Hill
#
# Bulk Modulus (GPa) = 74.57139 101.44861 88.01000
# Shear Modulus (GPa) = 43.72942 56.14444 49.93693
#
# Velocity S-wave (km/s) = 3.86062 4.37445 4.12554
# Velocity P-wave (km/s) = 6.72970 7.75187 7.25880
#
# Compressibility (1/GPa) = 0.01340997
#
# Stress axis : x y z
#
# Youngs Moduli (GPa) = 128.63819 93.81152 100.65920
#
# Poissons Ratio (x) = -0.01938 0.19649
# Poissons Ratio (y) = -0.02658 0.57713
# Poissons Ratio (z) = 0.25111 0.53787
#
# Static dielectric constant tensor:
#      x y z
#    x 2.390230 -0.227150 0.183790 
#    y -0.227150 2.159370 0.194440 
#    z 0.183790 0.194440 2.264230 
# 
# From -- ./inp_files/294777.got.cif
#   From: 2010.05.17/outbox.cif.g08.bks.cpg/sg2_148_cif.got.tgz:294777.got - 2010.06.03 11:33:40.
