data_PCOD9049536
_publ_section_title
;
Structure prediction by ZEFSAII (Michael W. Deem and Ramdas Pophale) SiO2 
 PCOD9049536
Probable space group: P -1
;
_chemical_formula_sum "Si O2"
_cell_formula_units_Z 15
_cell_length_a 9.277135
_cell_length_b 18.123377
_cell_length_c 10.977085
_cell_angle_alpha 41.394468
_cell_angle_beta 45.944018
_cell_angle_gamma 28.768879
_cell_volume 583.192743
_symmetry_space_group_name_H-M "P -1"
_symmetry_group_IT_number 2
_symmetry_cell_setting 'triclinic'
loop_
_space_group_symop_operation_xyz
x,y,z
-x,-y,-z
loop_
_atom_site_type_symbol
_atom_site_label
_atom_site_fract_x
_atom_site_fract_y
_atom_site_fract_z
Si Si1 0.500000 0.500000 0.500000
Si Si2 0.469751 0.032806 0.662902
Si Si3 0.703349 0.012601 0.937113
Si Si4 0.741320 0.628591 0.320939
Si Si5 0.410054 0.306685 0.392091
Si Si6 0.718559 0.539869 0.077673
Si Si7 0.794525 0.070441 0.154493
Si Si8 0.021227 0.772481 0.823170
O O1 0.648846 0.545089 0.432761
O O2 0.592093 0.524443 0.286527
O O3 0.287424 0.069871 0.846769
O O4 0.346130 0.993995 0.687980
O O5 0.818520 0.877608 0.690556
O O6 0.418483 0.182286 0.478433
O O7 0.965688 0.998312 0.799472
O O8 0.787278 0.901444 0.910072
O O9 0.412679 0.214502 0.867785
O O10 0.605708 0.709003 0.434298
O O11 0.097260 0.489884 0.305968
O O12 0.700166 0.262761 0.266263
O O13 0.821092 0.409461 0.077171
O O14 0.463022 0.729991 0.945404
O O15 0.000000 0.500000 0.000000
O O16 0.000000 0.000000 0.000000
#
# Coordination Sequence:
#
# PCOD9049536 Si02
#       8
#     1   2   2   2   2   2   2   2
#     4  12  26  46  78 110 152 206 248 322 394 452
#     4  11  23  46  77 105 149 201 246 321 384 464
#     4  11  26  46  77 109 150 200 260 309 397 464
#     4  11  26  45  73 109 147 202 252 314 389 465
#     4  11  26  45  72 107 151 195 253 317 388 447
#     4  12  27  49  79 117 158 201 263 329 385 463
#     4  10  24  46  77 110 151 201 251 322 392 461
#     4  12  25  49  72 110 152 200 251 328 380 465
#
# _framework density 25.720486000000001
#
# number of rings (size 3 to 8) (size 9 to 14) (size 15 to 20)
#    0.000    0.800    4.000    2.400    5.600    1.600 
#    0.000    0.667    0.000    0.000    0.000    0.000 
#    0.000    0.000    0.000    0.000    0.000    0.000 
#
# Total GULP energy -83747.590977 kJ/mol
# GULP energy per Si atom -5583.172732 kJ/mol
# Density = 2.566194 g / cm^3
# Si number density = 25.720486 Si / 1000 Ang^3
#
#
#
# Elastic Constant Matrix: (Units=GPa)
#
#
# Indices 1 2 3 4 5 6 
#
# 1 148.8416 18.0023 20.9200 -3.8460 -51.4338 6.3856
# 2 18.0023 111.8181 20.5362 -17.2185 -25.1929 0.1432
# 3 20.9200 20.5362 90.4742 19.1837 -26.1383 6.5823
# 4 -3.8460 -17.2185 19.1837 31.7265 -0.2184 2.4795
# 5 -51.4338 -25.1929 -26.1383 -0.2184 42.7879 7.2967
# 6 6.3856 0.1432 6.5823 2.4795 7.2967 46.9812
#
#
#
# Elastic Compliance Matrix: (Units=1/GPa)
#
#
# Indices 1 2 3 4 5 6 
#
# 1 0.013015 0.002163 0.001894 0.002135 0.018955 -0.005098
# 2 0.002163 0.012352 -0.002502 0.008678 0.008693 -0.001789
# 3 0.001894 -0.002502 0.017311 -0.011205 0.011995 -0.003947
# 4 0.002135 0.008678 -0.011205 0.043368 0.001263 -0.001232
# 5 0.018955 0.008693 0.011995 0.001263 0.060965 -0.013819
# 6 -0.005098 -0.001789 -0.003947 -0.001232 -0.013819 0.024748
#
#
# Mechanical properties :
#
#
# Convention : Reuss Voigt Hill
#
# Bulk Modulus (GPa) = 21.84026 52.22789 37.03407
# Shear Modulus (GPa) = 27.18705 43.74414 35.46559
#
# Velocity S-wave (km/s) = 3.25471 4.12849 3.71736
# Velocity P-wave (km/s) = 4.75752 6.56323 5.73193
#
# Compressibility (1/GPa) = 0.04578701
#
# Stress axis : x y z
#
# Youngs Moduli (GPa) = 76.83550 80.96087 57.76667
#
# Poissons Ratio (x) = -0.17510 -0.10942
# Poissons Ratio (y) = -0.16618 0.14454
# Poissons Ratio (z) = -0.14554 0.20258
#
# Static dielectric constant tensor:
#      x y z
#    x 2.080300 -0.012700 0.000860 
#    y -0.012700 2.057420 0.070950 
#    z 0.000860 0.070950 2.028200 
# 
# From -- ./inp_files/402810.got.cif
#   From: 2010.05.17/outbox.cif.g08.bks.cpg/sg2_202_cif.got.tgz:402810.got - 2010.06.03 11:33:40.
