data_PCOD9049291
_publ_section_title
;
Structure prediction by ZEFSAII (Michael W. Deem and Ramdas Pophale) SiO2 
 PCOD9049291
Probable space group: P -1
;
_chemical_formula_sum "Si O2"
_cell_formula_units_Z 13
_cell_length_a 12.689603
_cell_length_b 8.082103
_cell_length_c 7.650953
_cell_angle_alpha 125.455303
_cell_angle_beta 69.215441
_cell_angle_gamma 130.647661
_cell_volume 484.620162
_symmetry_space_group_name_H-M "P -1"
_symmetry_group_IT_number 2
_symmetry_cell_setting 'triclinic'
loop_
_space_group_symop_operation_xyz
x,y,z
-x,-y,-z
loop_
_atom_site_type_symbol
_atom_site_label
_atom_site_fract_x
_atom_site_fract_y
_atom_site_fract_z
Si Si1 0.974222 0.584068 0.811657
Si Si2 0.074977 0.269537 0.718414
Si Si3 0.663947 0.627992 0.462407
Si Si4 0.691647 0.664889 0.854450
Si Si5 0.681807 0.087734 0.613466
Si Si6 0.000000 0.000000 0.000000
Si Si7 0.451107 0.115116 0.804023
O O1 0.815685 0.357710 0.742583
O O2 0.049119 0.460416 0.758261
O O3 0.990008 0.779374 0.075614
O O4 0.020669 0.781721 0.753197
O O5 0.241965 0.422269 0.739269
O O6 0.000000 0.000000 0.500000
O O7 0.500000 0.500000 0.500000
O O8 0.715119 0.620305 0.617659
O O9 0.716755 0.900821 0.537585
O O10 0.570322 0.395835 0.836891
O O11 0.638098 0.842431 0.988067
O O12 0.831463 0.804032 0.961625
O O13 0.541632 0.019361 0.750947
O O14 0.640760 0.042920 0.405845
#
# Coordination Sequence:
#
# PCOD9049291 Si02
#       7
#     2   2   2   2   2   1   2
#     4  11  26  47  75 107 143 201 241 302 370 431
#     4  11  25  48  73 104 153 192 244 296 372 440
#     4  12  26  43  73 111 144 187 249 306 362 439
#     4  11  25  45  68 106 144 194 241 304 367 434
#     4  11  23  45  72 104 142 193 244 300 371 431
#     4  12  26  44  72 106 144 182 254 292 360 442
#     4  10  24  46  71  99 147 194 242 298 376 436
#
# _framework density 26.825133000000001
#
# number of rings (size 3 to 8) (size 9 to 14) (size 15 to 20)
#    0.000    0.923    4.615    0.923    6.462    3.077 
#    0.000    3.846    0.000    0.000    0.000    0.000 
#    0.000    0.000    0.000    0.000    0.000    0.000 
#
# Total GULP energy -72564.451777 kJ/mol
# GULP energy per Si atom -5581.880906 kJ/mol
# Density = 2.676408 g / cm^3
# Si number density = 26.825133 Si / 1000 Ang^3
#
#
#
# Elastic Constant Matrix: (Units=GPa)
#
#
# Indices 1 2 3 4 5 6 
#
# 1 159.6145 51.3752 27.5726 26.1052 -19.6059 7.8639
# 2 51.3752 81.6677 34.7745 22.2143 -0.8684 10.7009
# 3 27.5726 34.7745 90.4273 11.0923 -1.6453 15.9092
# 4 26.1052 22.2143 11.0923 49.5325 2.0908 -1.9265
# 5 -19.6059 -0.8684 -1.6453 2.0908 42.0824 4.5028
# 6 7.8639 10.7009 15.9092 -1.9265 4.5028 36.7832
#
#
#
# Elastic Compliance Matrix: (Units=1/GPa)
#
#
# Indices 1 2 3 4 5 6 
#
# 1 0.008782 -0.004423 -0.000365 -0.002785 0.004242 -0.001098
# 2 -0.004423 0.018775 -0.004832 -0.005049 -0.001341 -0.002527
# 3 -0.000365 -0.004832 0.013996 -0.000994 0.000832 -0.004724
# 4 -0.002785 -0.005049 -0.000994 0.024436 -0.003099 0.004153
# 5 0.004242 -0.001341 0.000832 -0.003099 0.026354 -0.004265
# 6 -0.001098 -0.002527 -0.004724 0.004153 -0.004265 0.030939
#
#
# Mechanical properties :
#
#
# Convention : Reuss Voigt Hill
#
# Bulk Modulus (GPa) = 44.81553 62.12823 53.47188
# Shear Modulus (GPa) = 33.34233 40.21209 36.77721
#
# Velocity S-wave (km/s) = 3.52938 3.87595 3.70672
# Velocity P-wave (km/s) = 5.77507 6.57582 6.18841
#
# Compressibility (1/GPa) = 0.02231369
#
# Stress axis : x y z
#
# Youngs Moduli (GPa) = 113.86427 53.26356 71.44821
#
# Poissons Ratio (x) = 0.23557 0.02608
# Poissons Ratio (y) = 0.50360 0.34523
# Poissons Ratio (z) = 0.04157 0.25736
#
# Static dielectric constant tensor:
#      x y z
#    x 1.130310 1.146070 -0.361070 
#    y 1.146070 0.723490 0.244440 
#    z -0.361070 0.244440 2.166380 
# 
# From -- ./inp_files/241306.got.cif
#   From: 2010.05.17/outbox.cif.g08.bks.cpg/sg2_121_cif.got.tgz:241306.got - 2010.06.03 11:33:40.
