data_PCOD9049392
_publ_section_title
;
Structure prediction by ZEFSAII (Michael W. Deem and Ramdas Pophale) SiO2 
 PCOD9049392
Probable space group: P -1
;
_chemical_formula_sum "Si O2"
_cell_formula_units_Z 12
_cell_length_a 12.555279
_cell_length_b 8.977870
_cell_length_c 8.738543
_cell_angle_alpha 63.706485
_cell_angle_beta 139.657294
_cell_angle_gamma 94.364679
_cell_volume 510.350733
_symmetry_space_group_name_H-M "P -1"
_symmetry_group_IT_number 2
_symmetry_cell_setting 'triclinic'
loop_
_space_group_symop_operation_xyz
x,y,z
-x,-y,-z
loop_
_atom_site_type_symbol
_atom_site_label
_atom_site_fract_x
_atom_site_fract_y
_atom_site_fract_z
Si Si1 0.146466 0.036686 0.908382
Si Si2 0.405213 0.659643 0.197622
Si Si3 0.177747 0.366313 0.661699
Si Si4 0.281845 0.678563 0.707017
Si Si5 0.356726 0.956135 0.469879
Si Si6 0.668091 0.833450 0.352623
O O1 0.244764 0.169555 0.912252
O O2 0.929421 0.158512 0.590742
O O3 0.196531 0.986553 0.161508
O O4 0.238228 0.846676 0.999195
O O5 0.500000 0.500000 0.500000
O O6 0.573934 0.704934 0.339303
O O7 0.343101 0.630338 0.973583
O O8 0.279676 0.497462 0.708905
O O9 0.159794 0.290598 0.509758
O O10 0.000000 0.500000 0.500000
O O11 0.392040 0.764474 0.685135
O O12 0.291993 0.096771 0.477231
O O13 0.500000 0.000000 0.500000
O O14 0.500000 0.000000 0.000000
#
# Coordination Sequence:
#
# PCOD9049392 Si02
#       6
#     2   2   2   2   2   2
#     4  11  24  49  73 108 153 197 241 310 380 439
#     4  12  27  44  76 112 146 191 259 307 370 447
#     4  10  24  46  73 105 148 198 243 303 377 438
#     4  11  26  47  75 107 151 199 248 307 374 446
#     4  12  24  44  76 109 149 196 247 304 367 444
#     4  12  23  45  71 103 150 199 244 305 379 426
#
# _framework density 23.513242000000002
#
# number of rings (size 3 to 8) (size 9 to 14) (size 15 to 20)
#    0.000    0.667    5.000    1.000    4.667    3.333 
#    0.000    3.333    0.000    0.000    0.000    0.000 
#    0.000    0.000    0.000    0.000    0.000    0.000 
#
# Total GULP energy -66872.513777 kJ/mol
# GULP energy per Si atom -5572.709481 kJ/mol
# Density = 2.345972 g / cm^3
# Si number density = 23.513242 Si / 1000 Ang^3
#
#
#
# Elastic Constant Matrix: (Units=GPa)
#
#
# Indices 1 2 3 4 5 6 
#
# 1 145.2610 75.0843 60.6170 -12.0648 -14.3581 -17.7655
# 2 75.0843 147.2026 38.4344 -7.7237 -23.5910 -26.1860
# 3 60.6170 38.4344 117.0345 -11.2338 -18.5635 -19.4758
# 4 -12.0648 -7.7237 -11.2338 43.6526 -5.2246 -14.5270
# 5 -14.3581 -23.5910 -18.5635 -5.2246 47.5311 -6.5318
# 6 -17.7655 -26.1860 -19.4758 -14.5270 -6.5318 68.2356
#
#
#
# Elastic Compliance Matrix: (Units=1/GPa)
#
#
# Indices 1 2 3 4 5 6 
#
# 1 0.011029 -0.004508 -0.004146 0.001199 -0.000368 0.000178
# 2 -0.004508 0.010623 0.000597 0.002766 0.005017 0.004143
# 3 -0.004146 0.000597 0.012315 0.004036 0.004845 0.003988
# 4 0.001199 0.002766 0.004036 0.028829 0.007773 0.009407
# 5 -0.000368 0.005017 0.004845 0.007773 0.027191 0.007470
# 6 0.000178 0.004143 0.003988 0.009407 0.007470 0.020147
#
#
# Mechanical properties :
#
#
# Convention : Reuss Voigt Hill
#
# Bulk Modulus (GPa) = 56.00917 84.19661 70.10289
# Shear Modulus (GPa) = 37.82173 47.57469 42.69821
#
# Velocity S-wave (km/s) = 4.01500 4.50301 4.26599
# Velocity P-wave (km/s) = 6.73540 7.93234 7.35825
#
# Compressibility (1/GPa) = 0.01785422
#
# Stress axis : x y z
#
# Youngs Moduli (GPa) = 90.66908 94.13612 81.19959
#
# Poissons Ratio (x) = 0.42433 0.33664
# Poissons Ratio (y) = 0.40870 -0.04846
# Poissons Ratio (z) = 0.37589 -0.05618
#
# Static dielectric constant tensor:
#      x y z
#    x 2.540010 -0.216170 0.108840 
#    y -0.216170 1.996470 -0.020840 
#    z 0.108840 -0.020840 1.885190 
# 
# From -- ./inp_files/289836.got.cif
#   From: 2010.05.17/outbox.cif.g08.bks.cpg/sg2_145_cif.got.tgz:289836.got - 2010.06.03 11:33:40.
