data_PCOD9049175
_publ_section_title
;
Structure prediction by ZEFSAII (Michael W. Deem and Ramdas Pophale) SiO2 
 PCOD9049175
Probable space group: P -1
;
_chemical_formula_sum "Si O2"
_cell_formula_units_Z 14
_cell_length_a 10.758282
_cell_length_b 8.967856
_cell_length_c 12.538633
_cell_angle_alpha 31.027980
_cell_angle_beta 110.629984
_cell_angle_gamma 110.270072
_cell_volume 581.077196
_symmetry_space_group_name_H-M "P -1"
_symmetry_group_IT_number 2
_symmetry_cell_setting 'triclinic'
loop_
_space_group_symop_operation_xyz
x,y,z
-x,-y,-z
loop_
_atom_site_type_symbol
_atom_site_label
_atom_site_fract_x
_atom_site_fract_y
_atom_site_fract_z
Si Si1 0.657598 0.500531 0.192724
Si Si2 0.073419 0.316098 0.328881
Si Si3 0.307516 0.174232 0.353992
Si Si4 0.492410 0.449022 0.704078
Si Si5 0.599458 0.111751 0.751688
Si Si6 0.115731 0.283005 0.029828
Si Si7 0.911562 0.330421 0.668730
O O1 0.651949 0.618843 0.241615
O O2 0.646294 0.147868 0.419724
O O3 0.794334 0.549155 0.136948
O O4 0.586461 0.764059 0.950041
O O5 0.222380 0.270808 0.368859
O O6 0.063999 0.471359 0.342837
O O7 0.000000 0.000000 0.500000
O O8 0.999550 0.513970 0.104026
O O9 0.429001 0.426368 0.242461
O O10 0.211037 0.199356 0.207349
O O11 0.552530 0.210100 0.795071
O O12 0.489752 0.727344 0.456240
O O13 0.749646 0.241961 0.686133
O O14 0.045307 0.992059 0.135016
O O15 0.000000 0.500000 0.500000
#
# Coordination Sequence:
#
# PCOD9049175 Si02
#       7
#     2   2   2   2   2   2   2
#     4  11  23  43  70  97 142 184 228 282 349 407
#     4  12  24  47  70 103 141 181 230 294 349 413
#     4  12  25  45  69 104 142 186 228 290 348 415
#     4  11  24  45  71 102 143 181 237 287 344 412
#     4  10  24  46  70 105 140 183 233 291 344 419
#     4  11  26  45  70 103 141 184 235 284 350 419
#     4  11  24  45  75 103 136 185 234 286 352 412
#
# _framework density 24.093184000000001
#
# number of rings (size 3 to 8) (size 9 to 14) (size 15 to 20)
#    0.000    0.857    2.857    4.286    2.000    2.286 
#    0.000    4.286    0.000    0.000    0.000    0.000 
#    0.000    0.000    0.000    0.000    0.000    0.000 
#
# Total GULP energy -77982.671804 kJ/mol
# GULP energy per Si atom -5570.190843 kJ/mol
# Density = 2.403835 g / cm^3
# Si number density = 24.093184 Si / 1000 Ang^3
#
#
#
# Elastic Constant Matrix: (Units=GPa)
#
#
# Indices 1 2 3 4 5 6 
#
# 1 72.3409 26.1642 35.6436 -2.9061 8.1235 -26.2961
# 2 26.1642 136.4492 46.6448 -6.0768 6.0072 -14.7805
# 3 35.6436 46.6448 89.4137 -14.9512 7.8648 0.2435
# 4 -2.9061 -6.0768 -14.9512 34.9224 -14.4887 -6.2799
# 5 8.1235 6.0072 7.8648 -14.4887 49.2548 -4.5949
# 6 -26.2961 -14.7805 0.2435 -6.2799 -4.5949 45.8625
#
#
#
# Elastic Compliance Matrix: (Units=1/GPa)
#
#
# Indices 1 2 3 4 5 6 
#
# 1 0.023354 0.000224 -0.009379 -0.000111 -0.001166 0.013380
# 2 0.000224 0.009325 -0.004946 0.000063 -0.000071 0.003161
# 3 -0.009379 -0.004946 0.018367 0.005136 0.000136 -0.006352
# 4 -0.000111 0.000063 0.005136 0.036215 0.010397 0.005930
# 5 -0.001166 -0.000071 0.000136 0.010397 0.023831 0.003119
# 6 0.013380 0.003161 -0.006352 0.005930 0.003119 0.031653
#
#
# Mechanical properties :
#
#
# Convention : Reuss Voigt Hill
#
# Bulk Modulus (GPa) = 43.77443 57.23433 50.50438
# Shear Modulus (GPa) = 28.00155 38.65802 33.32978
#
# Velocity S-wave (km/s) = 3.41283 4.00999 3.72340
# Velocity P-wave (km/s) = 5.80845 6.72659 6.28431
#
# Compressibility (1/GPa) = 0.02284439
#
# Stress axis : x y z
#
# Youngs Moduli (GPa) = 42.81944 107.24073 54.44557
#
# Poissons Ratio (x) = -0.02400 0.51064
# Poissons Ratio (y) = -0.00958 0.26927
# Poissons Ratio (z) = 0.40160 0.53037
#
# Static dielectric constant tensor:
#      x y z
#    x 5.522680 0.849000 -0.846780 
#    y 0.849000 2.124970 -0.142290 
#    z -0.846780 -0.142290 2.146060 
# 
# From -- ./inp_files/418734.got.cif
#   From: 2010.05.17/outbox.cif.g08.bks.cpg/sg2_210_cif.got.tgz:418734.got - 2010.06.03 11:33:40.
