data_PCOD9049199
_publ_section_title
;
Structure prediction by ZEFSAII (Michael W. Deem and Ramdas Pophale) SiO2 
 PCOD9049199
Probable space group: P -1
;
_chemical_formula_sum "Si O2"
_cell_formula_units_Z 14
_cell_length_a 13.553147
_cell_length_b 10.858619
_cell_length_c 5.317393
_cell_angle_alpha 60.185493
_cell_angle_beta 63.901420
_cell_angle_gamma 53.702157
_cell_volume 535.227884
_symmetry_space_group_name_H-M "P -1"
_symmetry_group_IT_number 2
_symmetry_cell_setting 'triclinic'
loop_
_space_group_symop_operation_xyz
x,y,z
-x,-y,-z
loop_
_atom_site_type_symbol
_atom_site_label
_atom_site_fract_x
_atom_site_fract_y
_atom_site_fract_z
Si Si1 0.714235 0.704019 0.263390
Si Si2 0.882132 0.057606 0.758450
Si Si3 0.548029 0.550694 0.144573
Si Si4 0.189466 0.600556 0.264073
Si Si5 0.744193 0.947699 0.669413
Si Si6 0.466520 0.856478 0.659376
Si Si7 0.921784 0.747353 0.309104
O O1 0.782843 0.510184 0.403748
O O2 0.578985 0.738824 0.474393
O O3 0.809363 0.734353 0.308895
O O4 0.681599 0.843616 0.952590
O O5 0.839352 0.224494 0.780821
O O6 0.771760 0.055820 0.719946
O O7 0.000000 0.000000 0.500000
O O8 0.921551 0.908448 0.050962
O O9 0.500000 0.500000 0.500000
O O10 0.500000 0.500000 0.000000
O O11 0.697041 0.471487 0.992899
O O12 0.486424 0.745500 0.991007
O O13 0.064166 0.610507 0.270939
O O14 0.877028 0.795345 0.595880
O O15 0.666292 0.061934 0.411440
O O16 0.500000 0.000000 0.500000
#
# Coordination Sequence:
#
# PCOD9049199 Si02
#       7
#     2   2   2   2   2   2   2
#     4  10  24  46  70 110 147 199 255 321 395 455
#     4  11  25  45  70 107 151 208 258 316 393 473
#     4  11  30  54  77 117 159 209 264 330 407 466
#     4  11  25  48  75 111 154 200 261 322 396 470
#     4  11  24  44  74 106 153 199 263 318 387 469
#     4  11  24  48  78 107 148 205 263 320 386 473
#     4  11  23  45  70 109 148 193 259 319 389 468
#
# _framework density 26.157084999999999
#
# number of rings (size 3 to 8) (size 9 to 14) (size 15 to 20)
#    0.000    1.143    2.857    1.286    2.000    6.286 
#    2.571    2.143    0.000    0.000    0.000    0.000 
#    0.000    0.000    0.000    0.000    0.000    0.000 
#
# Total GULP energy -78240.495519 kJ/mol
# GULP energy per Si atom -5588.606823 kJ/mol
# Density = 2.609755 g / cm^3
# Si number density = 26.157085 Si / 1000 Ang^3
#
#
#
# Elastic Constant Matrix: (Units=GPa)
#
#
# Indices 1 2 3 4 5 6 
#
# 1 126.6837 47.5870 40.3992 4.3269 1.8128 -15.3094
# 2 47.5870 97.7082 57.6495 -17.2288 -1.6715 -26.1178
# 3 40.3992 57.6495 169.6007 -9.4641 -13.7874 -4.4101
# 4 4.3269 -17.2288 -9.4641 50.5994 -5.6864 -17.3688
# 5 1.8128 -1.6715 -13.7874 -5.6864 37.9102 3.4831
# 6 -15.3094 -26.1178 -4.4101 -17.3688 3.4831 52.2730
#
#
#
# Elastic Compliance Matrix: (Units=1/GPa)
#
#
# Indices 1 2 3 4 5 6 
#
# 1 0.010194 -0.005127 -0.001001 -0.003186 -0.001499 -0.000619
# 2 -0.005127 0.020724 -0.004926 0.010675 -0.000133 0.011994
# 3 -0.001001 -0.004926 0.007941 -0.000640 0.002851 -0.002487
# 4 -0.003186 0.010675 -0.000640 0.028613 0.003430 0.013626
# 5 -0.001499 -0.000133 0.002851 0.003430 0.028087 -0.000997
# 6 -0.000619 0.011994 -0.002487 0.013626 -0.000997 0.029325
#
#
# Mechanical properties :
#
#
# Convention : Reuss Voigt Hill
#
# Bulk Modulus (GPa) = 59.70241 76.14041 67.92141
# Shear Modulus (GPa) = 32.77012 44.71364 38.74188
#
# Velocity S-wave (km/s) = 3.54336 4.13901 3.85271
# Velocity P-wave (km/s) = 6.29402 7.21207 6.76863
#
# Compressibility (1/GPa) = 0.01674974
#
# Stress axis : x y z
#
# Youngs Moduli (GPa) = 98.09385 48.25240 125.93436
#
# Poissons Ratio (x) = 0.24739 0.12609
# Poissons Ratio (y) = 0.50294 0.62041
# Poissons Ratio (z) = 0.09822 0.23771
#
# Static dielectric constant tensor:
#      x y z
#    x 2.006470 0.451890 0.400270 
#    y 0.451890 -0.337860 -2.113370 
#    z 0.400270 -2.113370 0.328210 
# 
# From -- ./inp_files/94273.got.cif
#   From: 2010.05.17/outbox.cif.g08.bks.cpg/sg2_48_cif.got.tgz:94273.got - 2010.06.03 11:33:40.
