data_PCOD9049216
_publ_section_title
;
Structure prediction by ZEFSAII (Michael W. Deem and Ramdas Pophale) SiO2 
 PCOD9049216
Probable space group: P -1
;
_chemical_formula_sum "Si O2"
_cell_formula_units_Z 16
_cell_length_a 29.399315
_cell_length_b 5.289216
_cell_length_c 9.149891
_cell_angle_alpha 104.635498
_cell_angle_beta 32.297146
_cell_angle_gamma 88.012670
_cell_volume 645.190308
_symmetry_space_group_name_H-M "P -1"
_symmetry_group_IT_number 2
_symmetry_cell_setting 'triclinic'
loop_
_space_group_symop_operation_xyz
x,y,z
-x,-y,-z
loop_
_atom_site_type_symbol
_atom_site_label
_atom_site_fract_x
_atom_site_fract_y
_atom_site_fract_z
Si Si1 0.665089 0.298745 0.279942
Si Si2 0.630382 0.088509 0.882217
Si Si3 0.720339 0.647827 0.354239
Si Si4 0.853422 0.766682 0.842418
Si Si5 0.034863 0.266471 0.739366
Si Si6 0.851989 0.174760 0.159449
Si Si7 0.514103 0.802029 0.289651
Si Si8 0.768305 0.148544 0.697003
O O1 0.640978 0.579820 0.487796
O O2 0.586860 0.185851 0.475589
O O3 0.689777 0.367057 0.059954
O O4 0.762632 0.039829 0.049000
O O5 0.713288 0.965764 0.765499
O O6 0.676642 0.981810 0.581184
O O7 0.580740 0.445338 0.080694
O O8 0.561404 0.941503 0.071824
O O9 0.772306 0.447232 0.322713
O O10 0.807815 0.563986 0.990767
O O11 0.935856 0.633892 0.476784
O O12 0.877770 0.891905 0.941920
O O13 0.133266 0.005687 0.501053
O O14 0.000000 0.500000 0.000000
O O15 0.950146 0.190327 0.921261
O O16 0.803089 0.202440 0.453891
O O17 0.500000 0.000000 0.500000
#
# Coordination Sequence:
#
# PCOD9049216 Si02
#       8
#     2   2   2   2   2   2   2   2
#     4  10  26  45  73 108 144 195 248 311 379 443
#     4  12  26  46  78 107 153 202 251 311 383 450
#     4  11  25  47  72 107 146 200 246 304 386 447
#     4  10  24  46  70  97 150 194 241 307 377 453
#     4  11  25  42  69 110 139 190 252 314 368 445
#     4  11  23  46  72  99 150 193 248 303 377 452
#     4  12  27  48  76 115 151 197 255 317 375 454
#     4  11  23  47  72 104 145 198 242 313 373 447
#
# _framework density 24.798887000000001
#
# number of rings (size 3 to 8) (size 9 to 14) (size 15 to 20)
#    0.000    1.000    2.500    2.625    5.250    1.500 
#    2.250    0.000    0.000    0.000    0.000    0.000 
#    0.000    0.000    0.000    0.000    0.000    0.000 
#
# Total GULP energy -89458.304349 kJ/mol
# GULP energy per Si atom -5591.144022 kJ/mol
# Density = 2.474244 g / cm^3
# Si number density = 24.798887 Si / 1000 Ang^3
#
#
#
# Elastic Constant Matrix: (Units=GPa)
#
#
# Indices 1 2 3 4 5 6 
#
# 1 173.4884 67.1114 80.0501 -14.9463 -1.7987 33.7909
# 2 67.1114 99.2072 55.3142 -15.3665 4.5458 19.4183
# 3 80.0501 55.3142 142.3547 -33.2513 9.1474 12.0006
# 4 -14.9463 -15.3665 -33.2513 42.7825 0.5072 5.8988
# 5 -1.7987 4.5458 9.1474 0.5072 50.0276 -13.6364
# 6 33.7909 19.4183 12.0006 5.8988 -13.6364 53.3616
#
#
#
# Elastic Compliance Matrix: (Units=1/GPa)
#
#
# Indices 1 2 3 4 5 6 
#
# 1 0.009666 -0.003781 -0.003764 -0.000391 0.000357 -0.003764
# 2 -0.003781 0.015350 -0.002863 0.002447 -0.001935 -0.003313
# 3 -0.003764 -0.002863 0.012154 0.007229 -0.002365 -0.000712
# 4 -0.000391 0.002447 0.007229 0.030688 -0.003668 -0.006598
# 5 0.000357 -0.001935 -0.002365 -0.003668 0.022608 0.007193
# 6 -0.003764 -0.003313 -0.000712 -0.006598 0.007193 0.025057
#
#
# Mechanical properties :
#
#
# Convention : Reuss Voigt Hill
#
# Bulk Modulus (GPa) = 61.14232 91.11131 76.12681
# Shear Modulus (GPa) = 35.26320 43.40598 39.33459
#
# Velocity S-wave (km/s) = 3.77499 4.18822 3.98696
# Velocity P-wave (km/s) = 6.61132 7.75939 7.20825
#
# Compressibility (1/GPa) = 0.01635528
#
# Stress axis : x y z
#
# Youngs Moduli (GPa) = 103.45107 65.14609 82.27557
#
# Poissons Ratio (x) = 0.24630 0.30965
# Poissons Ratio (y) = 0.39113 0.23558
# Poissons Ratio (z) = 0.38935 0.18654
#
# Static dielectric constant tensor:
#      x y z
#    x 1.959180 -0.019960 0.008450 
#    y -0.019960 2.025050 0.019080 
#    z 0.008450 0.019080 2.051220 
# 
# From -- ./inp_files/358237.got.cif
#   From: 2010.05.17/outbox.cif.g08.bks.cpg/sg2_180_cif.got.tgz:358237.got - 2010.06.03 11:33:40.
