data_PCOD9049172
_publ_section_title
;
Structure prediction by ZEFSAII (Michael W. Deem and Ramdas Pophale) SiO2 
 PCOD9049172
Probable space group: P -1
;
_chemical_formula_sum "Si O2"
_cell_formula_units_Z 16
_cell_length_a 11.967724
_cell_length_b 9.516133
_cell_length_c 13.856825
_cell_angle_alpha 81.121347
_cell_angle_beta 148.426782
_cell_angle_gamma 114.670029
_cell_volume 680.374986
_symmetry_space_group_name_H-M "P -1"
_symmetry_group_IT_number 2
_symmetry_cell_setting 'triclinic'
loop_
_space_group_symop_operation_xyz
x,y,z
-x,-y,-z
loop_
_atom_site_type_symbol
_atom_site_label
_atom_site_fract_x
_atom_site_fract_y
_atom_site_fract_z
Si Si1 0.739497 0.305705 0.414739
Si Si2 0.261691 0.158759 0.217466
Si Si3 0.954871 0.009208 0.728120
Si Si4 0.235925 0.823962 0.978392
Si Si5 0.034100 0.675219 0.040206
Si Si6 0.205996 0.977421 0.600802
Si Si7 0.963529 0.535752 0.193765
Si Si8 0.420419 0.406369 0.053062
O O1 0.494359 0.194150 0.318356
O O2 0.815616 0.201530 0.413722
O O3 0.953570 0.416110 0.640447
O O4 0.644089 0.400082 0.268273
O O5 0.243121 0.096768 0.319759
O O6 0.213894 0.312078 0.156320
O O7 0.000000 0.000000 0.000000
O O8 0.804940 0.976535 0.522971
O O9 0.164121 0.212104 0.878292
O O10 0.133702 0.937011 0.859123
O O11 0.223954 0.812080 0.087411
O O12 0.528324 0.906017 0.159721
O O13 0.047279 0.633268 0.821195
O O14 0.117580 0.684741 0.211650
O O15 0.000000 0.500000 0.000000
O O16 0.000000 0.000000 0.500000
O O17 0.678859 0.493208 0.972450
O O18 0.500000 0.500000 0.000000
#
# Coordination Sequence:
#
# PCOD9049172 Si02
#       8
#     2   2   2   2   2   2   2   2
#     4  12  25  46  75 112 140 191 248 300 366 429
#     4  11  20  41  78 105 149 181 236 308 361 431
#     4  11  24  48  71 111 140 194 243 293 374 427
#     4  10  24  46  70 104 152 190 231 303 356 432
#     4   9  19  41  67 104 148 184 224 285 370 428
#     4  12  28  46  72 102 144 195 251 295 361 437
#     4  11  24  43  73 109 144 191 238 294 364 429
#     4  12  26  46  73  99 148 187 240 301 354 429
#
# _framework density 23.516442999999999
#
# number of rings (size 3 to 8) (size 9 to 14) (size 15 to 20)
#    0.000    1.000    5.000    0.750    3.500    3.500 
#    0.000    1.875    0.000    0.000    0.000    0.000 
#    0.000    0.000    0.000    0.000    0.000    0.000 
#
# Total GULP energy -89330.646696 kJ/mol
# GULP energy per Si atom -5583.165419 kJ/mol
# Density = 2.346292 g / cm^3
# Si number density = 23.516443 Si / 1000 Ang^3
#
#
#
# Elastic Constant Matrix: (Units=GPa)
#
#
# Indices 1 2 3 4 5 6 
#
# 1 77.6959 30.3754 21.0282 -14.9057 7.6043 -5.3424
# 2 30.3754 117.8986 31.1940 -24.3576 -4.3840 -13.8565
# 3 21.0282 31.1940 86.6672 -20.7317 -2.6762 -1.1076
# 4 -14.9057 -24.3576 -20.7317 27.9620 6.0850 -2.3371
# 5 7.6043 -4.3840 -2.6762 6.0850 43.4240 -13.7055
# 6 -5.3424 -13.8565 -1.1076 -2.3371 -13.7055 40.6788
#
#
#
# Elastic Compliance Matrix: (Units=1/GPa)
#
#
# Indices 1 2 3 4 5 6 
#
# 1 0.015832 -0.002558 -0.001637 0.005861 -0.003893 0.000188
# 2 -0.002558 0.011791 -0.001676 0.007634 0.001959 0.004733
# 3 -0.001637 -0.001676 0.014570 0.008509 -0.000163 0.000045
# 4 0.005861 0.007634 0.008509 0.053489 -0.005729 0.004745
# 5 -0.003893 0.001959 -0.000163 -0.005729 0.027578 0.009114
# 6 0.000188 0.004733 0.000045 0.004745 0.009114 0.029564
#
#
# Mechanical properties :
#
#
# Convention : Reuss Voigt Hill
#
# Bulk Modulus (GPa) = 32.83877 49.71746 41.27811
# Shear Modulus (GPa) = 28.61802 35.72389 32.17096
#
# Velocity S-wave (km/s) = 3.49225 3.90180 3.70269
# Velocity P-wave (km/s) = 5.50050 6.44097 5.98923
#
# Compressibility (1/GPa) = 0.03045181
#
# Stress axis : x y z
#
# Youngs Moduli (GPa) = 63.16321 84.81325 68.63535
#
# Poissons Ratio (x) = 0.21692 0.11232
# Poissons Ratio (y) = 0.16155 0.11504
# Poissons Ratio (z) = 0.10337 0.14215
#
# Static dielectric constant tensor:
#      x y z
#    x 1.961360 0.023290 0.038020 
#    y 0.023290 1.912270 0.000710 
#    z 0.038020 0.000710 1.889860 
# 
# From -- ./inp_files/515575.got.cif
#   From: 2010.05.17/outbox.cif.g08.bks.cpg/sg2_258_cif.got.tgz:515575.got - 2010.06.03 11:33:40.
