data_PCOD9049782
_publ_section_title
;
Structure prediction by ZEFSAII (Michael W. Deem and Ramdas Pophale) SiO2 
 PCOD9049782
Probable space group: P -1
;
_chemical_formula_sum "Si O2"
_cell_formula_units_Z 16
_cell_length_a 11.935271
_cell_length_b 7.542527
_cell_length_c 6.662835
_cell_angle_alpha 99.338622
_cell_angle_beta 83.222098
_cell_angle_gamma 81.108348
_cell_volume 578.406362
_symmetry_space_group_name_H-M "P -1"
_symmetry_group_IT_number 2
_symmetry_cell_setting 'triclinic'
loop_
_space_group_symop_operation_xyz
x,y,z
-x,-y,-z
loop_
_atom_site_type_symbol
_atom_site_label
_atom_site_fract_x
_atom_site_fract_y
_atom_site_fract_z
Si Si1 0.261911 0.406227 0.616035
Si Si2 0.558263 0.098990 0.631231
Si Si3 0.915301 0.637421 0.684444
Si Si4 0.252860 0.030969 0.711426
Si Si5 0.537657 0.122014 0.134657
Si Si6 0.597503 0.476134 0.740520
Si Si7 0.820903 0.379449 0.954616
Si Si8 0.991582 0.013101 0.742581
O O1 0.193550 0.324184 0.435305
O O2 0.349230 0.497750 0.484502
O O3 0.288413 0.231839 0.727068
O O4 0.194990 0.565074 0.799703
O O5 0.692865 0.058154 0.525689
O O6 0.505800 0.093944 0.395307
O O7 0.525548 0.316642 0.708371
O O8 0.546698 0.047156 0.873945
O O9 0.886807 0.526282 0.861482
O O10 0.958766 0.819718 0.770681
O O11 0.000000 0.500000 0.500000
O O12 0.120130 0.038320 0.773818
O O13 0.103186 0.817027 0.139623
O O14 0.475941 0.328686 0.157238
O O15 0.673407 0.077648 0.147012
O O16 0.699077 0.413992 0.868960
O O17 0.000000 0.000000 0.500000
#
# Coordination Sequence:
#
# PCOD9049782 Si02
#       8
#     2   2   2   2   2   2   2   2
#     4  11  24  47  77 110 154 201 255 315 375 457
#     4  10  24  47  74 106 145 194 255 303 382 462
#     4  11  24  45  74 103 155 205 247 311 386 440
#     4  11  23  45  76 106 148 199 252 304 385 453
#     4  11  25  50  77 113 152 194 255 325 381 456
#     4  11  25  48  81 109 156 204 248 321 391 444
#     4  11  26  48  75 116 151 201 263 305 377 463
#     4  12  23  46  76 108 158 201 245 319 375 452
#
# _framework density 27.662213999999999
#
# number of rings (size 3 to 8) (size 9 to 14) (size 15 to 20)
#    0.000    1.000    3.750    1.500    1.750    4.500 
#    6.750    1.250    5.500    0.000    0.000    0.000 
#    0.000    0.000    0.000    0.000    0.000    0.000 
#
# Total GULP energy -89709.085356 kJ/mol
# GULP energy per Si atom -5606.817835 kJ/mol
# Density = 2.759925 g / cm^3
# Si number density = 27.662214 Si / 1000 Ang^3
#
#
#
# Elastic Constant Matrix: (Units=GPa)
#
#
# Indices 1 2 3 4 5 6 
#
# 1 169.1919 95.5352 65.4195 2.1941 11.6104 -4.9752
# 2 95.5352 203.5544 68.2599 23.2879 -1.0192 -4.8554
# 3 65.4195 68.2599 232.0017 13.9648 -3.7394 -5.9954
# 4 2.1941 23.2879 13.9648 45.8502 -4.9415 -10.1202
# 5 11.6104 -1.0192 -3.7394 -4.9415 36.4065 -0.6381
# 6 -4.9752 -4.8554 -5.9954 -10.1202 -0.6381 52.0846
#
#
#
# Elastic Compliance Matrix: (Units=1/GPa)
#
#
# Indices 1 2 3 4 5 6 
#
# 1 0.008862 -0.003864 -0.001501 0.001831 -0.002829 0.000635
# 2 -0.003864 0.007394 -0.000884 -0.003296 0.000894 -0.000411
# 3 -0.001501 -0.000884 0.005066 -0.000887 0.000857 0.000196
# 4 0.001831 -0.003296 -0.000887 0.024985 0.002706 0.004653
# 5 -0.002829 0.000894 0.000857 0.002706 0.028864 0.000791
# 6 0.000635 -0.000411 0.000196 0.004653 0.000791 0.020158
#
#
# Mechanical properties :
#
#
# Convention : Reuss Voigt Hill
#
# Bulk Modulus (GPa) = 113.33317 118.13079 115.73198
# Shear Modulus (GPa) = 45.13860 51.90383 48.52122
#
# Velocity S-wave (km/s) = 4.04391 4.33638 4.19269
# Velocity P-wave (km/s) = 7.92866 8.23831 8.08496
#
# Compressibility (1/GPa) = 0.00882354
#
# Stress axis : x y z
#
# Youngs Moduli (GPa) = 112.84143 135.23626 197.39705
#
# Poissons Ratio (x) = 0.52259 0.29636
# Poissons Ratio (y) = 0.43605 0.17446
# Poissons Ratio (z) = 0.16941 0.11952
#
# Static dielectric constant tensor:
#      x y z
#    x 2.186570 -0.010100 0.037900 
#    y -0.010100 2.124130 -0.031100 
#    z 0.037900 -0.031100 2.195770 
# 
# From -- ./inp_files/90662.got.cif
#   From: 2010.05.17/outbox.cif.g08.bks.cpg/sg2_46_cif.got.tgz:90662.got - 2010.06.03 11:33:40.
