data_PCOD9049700
_publ_section_title
;
Structure prediction by ZEFSAII (Michael W. Deem and Ramdas Pophale) SiO2 
 PCOD9049700
Probable space group: P -1
;
_chemical_formula_sum "Si O2"
_cell_formula_units_Z 16
_cell_length_a 17.357043
_cell_length_b 18.761111
_cell_length_c 6.165129
_cell_angle_alpha 79.012478
_cell_angle_beta 107.273326
_cell_angle_gamma 158.925776
_cell_volume 667.108474
_symmetry_space_group_name_H-M "P -1"
_symmetry_group_IT_number 2
_symmetry_cell_setting 'triclinic'
loop_
_space_group_symop_operation_xyz
x,y,z
-x,-y,-z
loop_
_atom_site_type_symbol
_atom_site_label
_atom_site_fract_x
_atom_site_fract_y
_atom_site_fract_z
Si Si1 0.988188 0.572663 0.377553
Si Si2 0.807148 0.581389 0.836858
Si Si3 0.229418 0.828128 0.084484
Si Si4 0.989539 0.883484 0.627451
Si Si5 0.380967 0.687761 0.480740
Si Si6 0.330606 0.757162 0.042163
Si Si7 0.555108 0.730576 0.922775
Si Si8 0.828800 0.881370 0.739275
O O1 0.866037 0.514232 0.494700
O O2 0.000000 0.500000 0.500000
O O3 0.827344 0.431610 0.112042
O O4 0.219323 0.799673 0.347752
O O5 0.868135 0.707319 0.695625
O O6 0.632713 0.386959 0.662783
O O7 0.039514 0.730270 0.954886
O O8 0.675595 0.479441 0.015206
O O9 0.463153 0.053584 0.055179
O O10 0.209175 0.731817 0.004774
O O11 0.827156 0.813611 0.607727
O O12 0.063684 0.960845 0.396801
O O13 0.227277 0.086795 0.843182
O O14 0.412827 0.788148 0.314210
O O15 0.540488 0.795498 0.746305
O O16 0.605978 0.715645 0.783003
O O17 0.000000 0.000000 0.000000
#
# Coordination Sequence:
#
# PCOD9049700 Si02
#       8
#     2   2   2   2   2   2   2   2
#     4  12  23  44  68  91 133 181 229 281 338 397
#     4  12  26  42  66 104 137 176 226 283 335 393
#     4  11  24  44  65  96 132 179 228 281 337 389
#     4  10  24  47  72 101 140 173 217 280 334 404
#     4  12  24  43  66  97 138 180 223 282 335 390
#     4  11  25  46  64  94 137 180 230 284 332 396
#     4  11  24  44  69 103 136 177 226 271 339 399
#     4   9  21  46  75 100 133 179 218 267 340 406
#
# _framework density 23.984105
#
# number of rings (size 3 to 8) (size 9 to 14) (size 15 to 20)
#    0.000    1.000    3.750    1.875    5.250    3.000 
#    2.250    8.750    0.000    0.000    0.000    0.000 
#    0.000    0.000    0.000    0.000    0.000    0.000 
#
# Total GULP energy -89434.387732 kJ/mol
# GULP energy per Si atom -5589.649233 kJ/mol
# Density = 2.392952 g / cm^3
# Si number density = 23.984105 Si / 1000 Ang^3
#
#
#
# Elastic Constant Matrix: (Units=GPa)
#
#
# Indices 1 2 3 4 5 6 
#
# 1 122.0412 49.2177 37.4693 -30.2045 -0.8588 20.8768
# 2 49.2177 94.1283 49.8770 -40.3972 -5.5272 17.7435
# 3 37.4693 49.8770 136.8374 -38.4237 26.6780 12.2114
# 4 -30.2045 -40.3972 -38.4237 49.1294 9.4026 -5.8853
# 5 -0.8588 -5.5272 26.6780 9.4026 42.4856 -13.3242
# 6 20.8768 17.7435 12.2114 -5.8853 -13.3242 45.8425
#
#
#
# Elastic Compliance Matrix: (Units=1/GPa)
#
#
# Indices 1 2 3 4 5 6 
#
# 1 0.011283 -0.003654 0.000280 0.004168 -0.002606 -0.004021
# 2 -0.003654 0.019444 -0.002833 0.010972 0.000712 -0.003492
# 3 0.000280 -0.002833 0.014569 0.011205 -0.013702 -0.005455
# 4 0.004168 0.010972 0.011205 0.043058 -0.017806 -0.008777
# 5 -0.002606 0.000712 -0.013702 -0.017806 0.040530 0.014055
# 6 -0.004021 -0.003492 -0.005455 -0.008777 0.014055 0.029408
#
#
# Mechanical properties :
#
#
# Convention : Reuss Voigt Hill
#
# Bulk Modulus (GPa) = 30.41314 69.57055 49.99184
# Shear Modulus (GPa) = 27.52293 41.92103 34.72198
#
# Velocity S-wave (km/s) = 3.39122 4.18529 3.80900
# Velocity P-wave (km/s) = 5.29546 7.24054 6.34300
#
# Compressibility (1/GPa) = 0.03288053
#
# Stress axis : x y z
#
# Youngs Moduli (GPa) = 88.63113 51.42874 68.64101
#
# Poissons Ratio (x) = 0.18792 -0.01920
# Poissons Ratio (y) = 0.32387 0.19447
# Poissons Ratio (z) = -0.02479 0.14571
#
# Static dielectric constant tensor:
#      x y z
#    x 1.953960 0.007340 0.018380 
#    y 0.007340 1.935680 -0.007010 
#    z 0.018380 -0.007010 2.014420 
# 
# From -- ./inp_files/112369.got.cif
#   From: 2010.05.17/outbox.cif.g08.bks.cpg/sg2_57_cif.got.tgz:112369.got - 2010.06.03 11:33:40.
