data_PCOD9049580
_publ_section_title
;
Structure prediction by ZEFSAII (Michael W. Deem and Ramdas Pophale) SiO2 
 PCOD9049580
Probable space group: P -1
;
_chemical_formula_sum "Si O2"
_cell_formula_units_Z 16
_cell_length_a 18.625487
_cell_length_b 22.805236
_cell_length_c 12.316739
_cell_angle_alpha 30.663710
_cell_angle_beta 160.520407
_cell_angle_gamma 152.357727
_cell_volume 798.752725
_symmetry_space_group_name_H-M "P -1"
_symmetry_group_IT_number 2
_symmetry_cell_setting 'triclinic'
loop_
_space_group_symop_operation_xyz
x,y,z
-x,-y,-z
loop_
_atom_site_type_symbol
_atom_site_label
_atom_site_fract_x
_atom_site_fract_y
_atom_site_fract_z
Si Si1 0.077838 0.292882 0.716757
Si Si2 0.906553 0.480757 0.771436
Si Si3 0.751178 0.608192 0.732677
Si Si4 0.865195 0.896603 0.379134
Si Si5 0.436156 0.950769 0.607385
Si Si6 0.692859 0.942205 0.378759
Si Si7 0.653849 0.669819 0.733175
Si Si8 0.737884 0.888877 0.775364
O O1 0.046959 0.394219 0.433515
O O2 0.823249 0.168997 0.563452
O O3 0.183213 0.327581 0.934319
O O4 0.255073 0.244927 0.984659
O O5 0.620323 0.405345 0.498246
O O6 0.000000 0.500000 0.000000
O O7 0.037749 0.414607 0.989895
O O8 0.500000 0.500000 0.500000
O O9 0.801596 0.751386 0.544493
O O10 0.723158 0.609772 0.821974
O O11 0.625665 0.908334 0.993160
O O12 0.000000 0.000000 0.500000
O O13 0.050429 0.946141 0.464547
O O14 0.500000 0.000000 0.500000
O O15 0.446915 0.075505 0.483586
O O16 0.670590 0.810706 0.499615
O O17 0.691808 0.902452 0.563543
O O18 0.500000 0.000000 0.000000
O O19 0.000000 0.000000 0.000000
#
# Coordination Sequence:
#
# PCOD9049580 Si02
#       8
#     2   2   2   2   2   2   2   2
#     4  10  24  47  66  99 141 183 240 293 352 434
#     4  12  26  45  73 100 137 193 241 293 360 424
#     4  12  26  46  70 106 144 187 240 300 356 426
#     4  12  24  41  70 102 140 175 234 290 351 419
#     4  11  23  40  66 101 141 180 227 290 354 419
#     4  11  22  41  68 101 135 182 226 290 348 420
#     4  11  24  47  70  99 147 180 243 296 357 427
#     4   9  20  38  62  90 132 175 219 272 340 410
#
# _framework density 20.031230999999998
#
# number of rings (size 3 to 8) (size 9 to 14) (size 15 to 20)
#    0.000    1.000    2.500    4.875    0.000    5.500 
#    2.250    0.000    0.000    0.000    0.000    0.000 
#    0.000    0.000    0.000    0.000    0.000    0.000 
#
# Total GULP energy -89221.079209 kJ/mol
# GULP energy per Si atom -5576.317451 kJ/mol
# Density = 1.998564 g / cm^3
# Si number density = 20.031231 Si / 1000 Ang^3
#
#
#
# Elastic Constant Matrix: (Units=GPa)
#
#
# Indices 1 2 3 4 5 6 
#
# 1 151.6503 54.7083 70.2524 -15.5010 18.9404 -12.4641
# 2 54.7083 109.5262 53.0872 -15.7671 -7.3062 4.5256
# 3 70.2524 53.0872 151.5241 -18.1244 3.1228 -12.9983
# 4 -15.5010 -15.7671 -18.1244 47.0159 1.0779 3.0703
# 5 18.9404 -7.3062 3.1228 1.0779 34.6613 1.2645
# 6 -12.4641 4.5256 -12.9983 3.0703 1.2645 34.7115
#
#
#
# Elastic Compliance Matrix: (Units=1/GPa)
#
#
# Indices 1 2 3 4 5 6 
#
# 1 0.010747 -0.004439 -0.002883 0.000867 -0.006704 0.003525
# 2 -0.004439 0.013707 -0.003025 0.002157 0.005699 -0.004912
# 3 -0.002883 -0.003025 0.009411 0.001484 -0.000057 0.002754
# 4 0.000867 0.002157 0.001484 0.022962 -0.000815 -0.001416
# 5 -0.006704 0.005699 -0.000057 -0.000815 0.033904 -0.004335
# 6 0.003525 -0.004912 0.002754 -0.001416 -0.004335 0.032030
#
#
# Mechanical properties :
#
#
# Convention : Reuss Voigt Hill
#
# Bulk Modulus (GPa) = 75.92424 85.42185 80.67305
# Shear Modulus (GPa) = 33.81911 38.92124 36.37017
#
# Velocity S-wave (km/s) = 4.11337 4.41276 4.26569
# Velocity P-wave (km/s) = 7.78107 8.28856 8.03882
#
# Compressibility (1/GPa) = 0.01317102
#
# Stress axis : x y z
#
# Youngs Moduli (GPa) = 93.05265 72.95322 106.25503
#
# Poissons Ratio (x) = 0.32380 0.30636
# Poissons Ratio (y) = 0.41302 0.32146
# Poissons Ratio (z) = 0.26829 0.22071
#
# Static dielectric constant tensor:
#      x y z
#    x 1.849750 -0.056840 0.040060 
#    y -0.056840 1.735390 -0.010850 
#    z 0.040060 -0.010850 1.724970 
# 
# From -- ./inp_files/467342.got.cif
#   From: 2010.05.17/outbox.cif.g08.bks.cpg/sg2_234_cif.got.tgz:467342.got - 2010.06.03 11:33:40.
