data_PCOD9049101
_publ_section_title
;
Structure prediction by ZEFSAII (Michael W. Deem and Ramdas Pophale) SiO2 
 PCOD9049101
Probable space group: P -1
;
_chemical_formula_sum "Si O2"
_cell_formula_units_Z 14
_cell_length_a 12.494837
_cell_length_b 7.051604
_cell_length_c 20.463740
_cell_angle_alpha 105.044213
_cell_angle_beta 154.391553
_cell_angle_gamma 92.089222
_cell_volume 573.137942
_symmetry_space_group_name_H-M "P -1"
_symmetry_group_IT_number 2
_symmetry_cell_setting 'triclinic'
loop_
_space_group_symop_operation_xyz
x,y,z
-x,-y,-z
loop_
_atom_site_type_symbol
_atom_site_label
_atom_site_fract_x
_atom_site_fract_y
_atom_site_fract_z
Si Si1 0.855755 0.613861 0.969028
Si Si2 0.619073 0.917617 0.000314
Si Si3 0.531267 0.085063 0.428475
Si Si4 0.638377 0.764750 0.534210
Si Si5 0.551742 0.389167 0.359207
Si Si6 0.285946 0.352058 0.730850
Si Si7 0.146496 0.858185 0.646196
O O1 0.721310 0.711835 0.854525
O O2 0.557233 0.411120 0.833996
O O3 0.000000 0.500000 0.000000
O O4 0.146775 0.846298 0.192880
O O5 0.449445 0.615507 0.882940
O O6 0.484490 0.934569 0.859390
O O7 0.500000 0.000000 0.000000
O O8 0.005200 0.107713 0.233421
O O9 0.580972 0.260662 0.530995
O O10 0.606705 0.213386 0.410965
O O11 0.686501 0.961272 0.524556
O O12 0.469318 0.497317 0.381843
O O13 0.882917 0.639309 0.532133
O O14 0.992888 0.263423 0.512946
O O15 0.177801 0.108623 0.690397
#
# Coordination Sequence:
#
# PCOD9049101 Si02
#       7
#     2   2   2   2   2   2   2
#     4  11  22  44  71 101 133 174 229 283 340 400
#     4  12  24  44  69 101 136 180 229 276 343 411
#     4  11  24  44  69  95 136 181 218 286 332 396
#     4  11  24  44  65  99 136 176 225 273 343 398
#     4  11  23  43  68 100 131 175 231 272 339 404
#     4  10  24  47  70  95 141 177 227 285 337 406
#     4  10  24  46  68  99 133 183 225 283 338 404
#
# _framework density 24.426929000000001
#
# number of rings (size 3 to 8) (size 9 to 14) (size 15 to 20)
#    0.000    1.143    4.286    1.286    0.000    4.000 
#    7.714    0.000    0.000    0.000    0.000    0.000 
#    0.000    0.000    0.000    0.000    0.000    0.000 
#
# Total GULP energy -78393.877316 kJ/mol
# GULP energy per Si atom -5599.562665 kJ/mol
# Density = 2.437133 g / cm^3
# Si number density = 24.426929 Si / 1000 Ang^3
#
#
#
# Elastic Constant Matrix: (Units=GPa)
#
#
# Indices 1 2 3 4 5 6 
#
# 1 86.6795 32.6862 8.2222 -4.1027 12.9189 -9.6584
# 2 32.6862 104.8857 8.8300 -17.4165 7.5855 22.8654
# 3 8.2222 8.8300 107.1204 -25.6175 -10.7958 11.0777
# 4 -4.1027 -17.4165 -25.6175 36.6035 -0.9710 -15.7129
# 5 12.9189 7.5855 -10.7958 -0.9710 19.0111 9.8655
# 6 -9.6584 22.8654 11.0777 -15.7129 9.8655 48.4333
#
#
#
# Elastic Compliance Matrix: (Units=1/GPa)
#
#
# Indices 1 2 3 4 5 6 
#
# 1 0.018284 -0.006452 -0.003641 0.000867 -0.017807 0.011434
# 2 -0.006452 0.013373 0.001409 0.003466 0.003974 -0.007607
# 3 -0.003641 0.001409 0.013019 0.007869 0.011909 -0.004242
# 4 0.000867 0.003466 0.007869 0.038566 -0.000372 0.009324
# 5 -0.017807 0.003974 0.011909 -0.000372 0.082917 -0.025161
# 6 0.011434 -0.007607 -0.004242 0.009324 -0.025161 0.035639
#
#
# Mechanical properties :
#
#
# Convention : Reuss Voigt Hill
#
# Bulk Modulus (GPa) = 36.62071 44.24026 40.43049
# Shear Modulus (GPa) = 21.90388 37.40605 29.65497
#
# Velocity S-wave (km/s) = 2.99776 3.91749 3.48807
# Velocity P-wave (km/s) = 5.19679 6.21392 5.72798
#
# Compressibility (1/GPa) = 0.02730695
#
# Stress axis : x y z
#
# Youngs Moduli (GPa) = 54.69159 74.77814 76.80861
#
# Poissons Ratio (x) = 0.48249 0.27969
# Poissons Ratio (y) = 0.35289 -0.10821
# Poissons Ratio (z) = 0.19915 -0.10535
#
# Static dielectric constant tensor:
#      x y z
#    x 1.991570 -0.018010 -0.001610 
#    y -0.018010 1.969150 -0.012810 
#    z -0.001610 -0.012810 1.902270 
# 
# From -- ./inp_files/611317.got.cif
#   From: 2010.05.17/outbox.cif.g08.bks.cpg/sg2_306_cif.got.tgz:611317.got - 2010.06.03 11:33:40.
