data_PCOD9049257
_publ_section_title
;
Structure prediction by ZEFSAII (Michael W. Deem and Ramdas Pophale) SiO2 
 PCOD9049257
Probable space group: P -1
;
_chemical_formula_sum "Si O2"
_cell_formula_units_Z 16
_cell_length_a 11.819777
_cell_length_b 14.381100
_cell_length_c 8.407392
_cell_angle_alpha 103.712744
_cell_angle_beta 147.192903
_cell_angle_gamma 87.630227
_cell_volume 717.592019
_symmetry_space_group_name_H-M "P -1"
_symmetry_group_IT_number 2
_symmetry_cell_setting 'triclinic'
loop_
_space_group_symop_operation_xyz
x,y,z
-x,-y,-z
loop_
_atom_site_type_symbol
_atom_site_label
_atom_site_fract_x
_atom_site_fract_y
_atom_site_fract_z
Si Si1 0.296320 0.529367 0.702137
Si Si2 0.605150 0.256088 0.939406
Si Si3 0.863131 0.803344 0.808859
Si Si4 0.629878 0.818407 0.854587
Si Si5 0.410219 0.081526 0.842883
Si Si6 0.071477 0.646599 0.896031
Si Si7 0.605319 0.417939 0.522531
Si Si8 0.676876 0.058673 0.601231
O O1 0.310252 0.544964 0.536360
O O2 0.084338 0.435016 0.437100
O O3 0.500000 0.500000 0.000000
O O4 0.316594 0.635671 0.845127
O O5 0.355612 0.226735 0.568522
O O6 0.603789 0.172478 0.033356
O O7 0.760537 0.268455 0.976719
O O8 0.803269 0.839274 0.924246
O O9 0.931825 0.701124 0.858309
O O10 0.078522 0.884877 0.029337
O O11 0.547932 0.697520 0.722330
O O12 0.434587 0.863698 0.584979
O O13 0.702607 0.869686 0.133430
O O14 0.292856 0.021073 0.525905
O O15 0.500000 0.000000 0.000000
O O16 0.207476 0.592346 0.141441
O O17 0.500000 0.500000 0.500000
O O18 0.500000 0.000000 0.500000
#
# Coordination Sequence:
#
# PCOD9049257 Si02
#       8
#     2   2   2   2   2   2   2   2
#     4  12  25  45  71 107 150 193 250 306 377 450
#     4  12  24  45  73 106 150 191 250 311 369 448
#     4  12  23  43  76 102 145 187 248 304 375 439
#     4  11  23  45  69 102 143 184 245 303 362 453
#     4  10  24  46  71 104 147 192 244 310 375 438
#     4  12  25  47  74 109 147 201 246 308 377 448
#     4  12  24  46  74 106 148 198 250 298 369 453
#     4  11  24  46  75 103 141 190 243 308 376 439
#
# _framework density 22.296790999999999
#
# number of rings (size 3 to 8) (size 9 to 14) (size 15 to 20)
#    0.000    0.500    5.000    3.750    0.000    2.500 
#    0.000    8.750    0.000    0.000    0.000    0.000 
#    0.000    0.000    0.000    0.000    0.000    0.000 
#
# Total GULP energy -89418.766027 kJ/mol
# GULP energy per Si atom -5588.672877 kJ/mol
# Density = 2.224604 g / cm^3
# Si number density = 22.296791 Si / 1000 Ang^3
#
#
#
# Elastic Constant Matrix: (Units=GPa)
#
#
# Indices 1 2 3 4 5 6 
#
# 1 133.9379 52.2107 59.4063 7.8313 -3.3559 -13.8651
# 2 52.2107 145.9065 41.9834 3.8935 4.9062 -15.9290
# 3 59.4063 41.9834 114.0461 24.6580 8.7081 -7.4682
# 4 7.8313 3.8935 24.6580 41.1572 -0.5970 -8.6213
# 5 -3.3559 4.9062 8.7081 -0.5970 31.9543 15.8069
# 6 -13.8651 -15.9290 -7.4682 -8.6213 15.8069 53.6372
#
#
#
# Elastic Compliance Matrix: (Units=1/GPa)
#
#
# Indices 1 2 3 4 5 6 
#
# 1 0.010762 -0.002391 -0.005187 0.001500 0.002519 0.000849
# 2 -0.002391 0.008558 -0.001831 0.001243 -0.002303 0.002547
# 3 -0.005187 -0.001831 0.014062 -0.007291 -0.004318 0.000174
# 4 0.001500 0.001243 -0.007291 0.029173 0.000359 0.004325
# 5 0.002519 -0.002303 -0.004318 0.000359 0.039078 -0.012092
# 6 0.000849 0.002547 0.000174 0.004325 -0.012092 0.023903
#
#
# Mechanical properties :
#
#
# Convention : Reuss Voigt Hill
#
# Bulk Modulus (GPa) = 68.66095 77.89903 73.27999
# Shear Modulus (GPa) = 33.51015 41.36908 37.43961
#
# Velocity S-wave (km/s) = 3.88095 4.31209 4.10219
# Velocity P-wave (km/s) = 7.13746 7.73339 7.44139
#
# Compressibility (1/GPa) = 0.01456432
#
# Stress axis : x y z
#
# Youngs Moduli (GPa) = 92.92076 116.84350 71.11452
#
# Poissons Ratio (x) = 0.27933 0.36887
# Poissons Ratio (y) = 0.22214 0.13024
# Poissons Ratio (z) = 0.48197 0.21398
#
# Static dielectric constant tensor:
#      x y z
#    x 1.851260 0.008030 -0.011420 
#    y 0.008030 1.857050 0.046900 
#    z -0.011420 0.046900 1.829260 
# 
# From -- ./inp_files/273961.got.cif
#   From: 2010.05.17/outbox.cif.g08.bks.cpg/sg2_137_cif.got.tgz:273961.got - 2010.06.03 11:33:40.
