data_PCOD9049339
_publ_section_title
;
Structure prediction by ZEFSAII (Michael W. Deem and Ramdas Pophale) SiO2 
 PCOD9049339
Probable space group: P -1
;
_chemical_formula_sum "Si O2"
_cell_formula_units_Z 14
_cell_length_a 5.896440
_cell_length_b 15.528623
_cell_length_c 15.326762
_cell_angle_alpha 27.465602
_cell_angle_beta 108.847214
_cell_angle_gamma 110.135132
_cell_volume 607.197321
_symmetry_space_group_name_H-M "P -1"
_symmetry_group_IT_number 2
_symmetry_cell_setting 'triclinic'
loop_
_space_group_symop_operation_xyz
x,y,z
-x,-y,-z
loop_
_atom_site_type_symbol
_atom_site_label
_atom_site_fract_x
_atom_site_fract_y
_atom_site_fract_z
Si Si1 0.925146 0.546848 0.668108
Si Si2 0.507381 0.681999 0.278872
Si Si3 0.700745 0.926398 0.527223
Si Si4 0.201382 0.082079 0.778803
Si Si5 0.179957 0.467583 0.129869
Si Si6 0.841289 0.778304 0.081502
Si Si7 0.401311 0.880485 0.832451
O O1 0.695214 0.391429 0.751785
O O2 0.908751 0.734321 0.438810
O O3 0.923794 0.585657 0.736959
O O4 0.134114 0.424029 0.777433
O O5 0.500000 0.500000 0.500000
O O6 0.538414 0.843231 0.212222
O O7 0.750048 0.728523 0.211551
O O8 0.683110 0.702154 0.732386
O O9 0.500000 0.000000 0.500000
O O10 0.606300 0.981021 0.372843
O O11 0.000000 0.000000 0.500000
O O12 0.218428 0.948769 0.817828
O O13 0.069734 0.936702 0.962792
O O14 0.330812 0.669791 0.980179
O O15 0.000000 0.500000 0.000000
O O16 0.651869 0.880472 0.911811
#
# Coordination Sequence:
#
# PCOD9049339 Si02
#       7
#     2   2   2   2   2   2   2
#     4  11  25  47  71 108 151 194 258 314 381 460
#     4  10  24  46  72 107 150 198 250 315 385 460
#     4  12  30  52  80 115 155 207 265 327 396 471
#     4  11  25  45  75 104 154 196 254 315 385 467
#     4  12  25  49  80 107 154 199 253 319 392 467
#     4  12  25  43  75 107 148 195 257 309 392 457
#     4  12  27  47  72 112 149 200 252 314 394 463
#
# _framework density 23.056754999999999
#
# number of rings (size 3 to 8) (size 9 to 14) (size 15 to 20)
#    0.000    0.571    5.714    0.429    4.000   10.857 
#    0.000    0.000    0.000    0.000    0.000    0.000 
#    0.000    0.000    0.000    0.000    0.000    0.000 
#
# Total GULP energy -78054.385354 kJ/mol
# GULP energy per Si atom -5575.313240 kJ/mol
# Density = 2.300428 g / cm^3
# Si number density = 23.056755 Si / 1000 Ang^3
#
#
#
# Elastic Constant Matrix: (Units=GPa)
#
#
# Indices 1 2 3 4 5 6 
#
# 1 61.5729 30.0414 42.1094 -1.5827 4.7357 -17.7111
# 2 30.0414 113.9168 42.9378 -1.3210 -1.1355 -13.0154
# 3 42.1094 42.9378 182.5374 1.6528 15.6752 -9.5519
# 4 -1.5827 -1.3210 1.6528 58.6818 -6.4607 -4.6491
# 5 4.7357 -1.1355 15.6752 -6.4607 36.5626 -7.7238
# 6 -17.7111 -13.0154 -9.5519 -4.6491 -7.7238 35.4906
#
#
#
# Elastic Compliance Matrix: (Units=1/GPa)
#
#
# Indices 1 2 3 4 5 6 
#
# 1 0.023602 -0.003492 -0.004210 0.001560 0.000982 0.009783
# 2 -0.003492 0.010649 -0.001770 0.000605 0.002119 0.002227
# 3 -0.004210 -0.001770 0.007048 -0.000812 -0.003016 -0.001616
# 4 0.001560 0.000605 -0.000812 0.017900 0.004180 0.004036
# 5 0.000982 0.002119 -0.003016 0.004180 0.030956 0.007740
# 6 0.009783 0.002227 -0.001616 0.004036 0.007740 0.035653
#
#
# Mechanical properties :
#
#
# Convention : Reuss Voigt Hill
#
# Bulk Modulus (GPa) = 44.73313 65.35606 55.04459
# Shear Modulus (GPa) = 32.85072 42.34290 37.59681
#
# Velocity S-wave (km/s) = 3.77872 4.29005 4.04247
# Velocity P-wave (km/s) = 6.20336 7.27644 6.76122
#
# Compressibility (1/GPa) = 0.02235479
#
# Stress axis : x y z
#
# Youngs Moduli (GPa) = 42.36876 93.90520 141.88945
#
# Poissons Ratio (x) = 0.32790 0.59734
# Poissons Ratio (y) = 0.14795 0.25120
# Poissons Ratio (z) = 0.17837 0.16625
#
# Static dielectric constant tensor:
#      x y z
#    x 1.992850 -0.004770 -0.002460 
#    y -0.004770 1.881820 -0.027630 
#    z -0.002460 -0.027630 1.800070 
# 
# From -- ./inp_files/46933.got.cif
#   From: 2010.05.17/outbox.cif.g08.bks.cpg/sg2_24_cif.got.tgz:46933.got - 2010.06.03 11:33:40.
