data_PCOD9049241
_publ_section_title
;
Structure prediction by ZEFSAII (Michael W. Deem and Ramdas Pophale) SiO2 
 PCOD9049241
Probable space group: P -1
;
_chemical_formula_sum "Si O2"
_cell_formula_units_Z 14
_cell_length_a 10.749563
_cell_length_b 8.221837
_cell_length_c 16.307733
_cell_angle_alpha 52.748407
_cell_angle_beta 30.319718
_cell_angle_gamma 59.201574
_cell_volume 578.962539
_symmetry_space_group_name_H-M "P -1"
_symmetry_group_IT_number 2
_symmetry_cell_setting 'triclinic'
loop_
_space_group_symop_operation_xyz
x,y,z
-x,-y,-z
loop_
_atom_site_type_symbol
_atom_site_label
_atom_site_fract_x
_atom_site_fract_y
_atom_site_fract_z
Si Si1 0.775281 0.110219 0.318730
Si Si2 0.393483 0.667957 0.073369
Si Si3 0.755526 0.387115 0.645927
Si Si4 0.845932 0.940769 0.736324
Si Si5 0.992020 0.509298 0.247203
Si Si6 0.024185 0.207923 0.972381
Si Si7 0.528147 0.509576 0.379589
O O1 0.709317 0.322900 0.333071
O O2 0.990133 0.027163 0.282953
O O3 0.500000 0.000000 0.500000
O O4 0.897209 0.166694 0.144364
O O5 0.402108 0.620502 0.178862
O O6 0.114942 0.654063 0.203231
O O7 0.500000 0.500000 0.000000
O O8 0.555001 0.875573 0.917376
O O9 0.614969 0.504823 0.621079
O O10 0.000000 0.500000 0.500000
O O11 0.840065 0.165511 0.633274
O O12 0.950962 0.730520 0.703146
O O13 0.086292 0.613021 0.076951
O O14 0.699015 0.525120 0.418140
O O15 0.310776 0.281447 0.788220
O O16 0.000000 0.000000 0.000000
#
# Coordination Sequence:
#
# PCOD9049241 Si02
#       7
#     2   2   2   2   2   2   2
#     4  12  27  49  75 107 145 192 242 302 363 434
#     4  10  24  46  71 102 144 185 241 296 360 425
#     4  12  25  46  72 107 141 191 243 293 359 431
#     4  11  26  47  74 101 148 191 240 298 362 426
#     4  11  25  49  73 108 147 191 239 306 359 431
#     4  12  28  44  76 109 144 191 245 295 368 432
#     4  12  26  48  75 106 150 188 244 298 364 430
#
# _framework density 24.181183000000001
#
# number of rings (size 3 to 8) (size 9 to 14) (size 15 to 20)
#    0.000    0.571    2.857    3.857   10.000    0.571 
#    0.000    0.000    0.000    0.000    0.000    0.000 
#    0.000    0.000    0.000    0.000    0.000    0.000 
#
# Total GULP energy -78078.834686 kJ/mol
# GULP energy per Si atom -5577.059620 kJ/mol
# Density = 2.412615 g / cm^3
# Si number density = 24.181183 Si / 1000 Ang^3
#
#
#
# Elastic Constant Matrix: (Units=GPa)
#
#
# Indices 1 2 3 4 5 6 
#
# 1 65.5267 2.5069 35.7459 2.3173 -14.4050 6.9093
# 2 2.5069 89.4434 18.5523 -3.3046 -1.0037 11.7428
# 3 35.7459 18.5523 146.6183 -7.2016 -17.7301 21.4123
# 4 2.3173 -3.3046 -7.2016 31.2356 12.3451 -10.4666
# 5 -14.4050 -1.0037 -17.7301 12.3451 69.0416 -6.1325
# 6 6.9093 11.7428 21.4123 -10.4666 -6.1325 40.2563
#
#
#
# Elastic Compliance Matrix: (Units=1/GPa)
#
#
# Indices 1 2 3 4 5 6 
#
# 1 0.018577 0.000441 -0.004130 -0.004203 0.003423 -0.001692
# 2 0.000441 0.011800 -0.001212 0.000092 -0.000321 -0.002898
# 3 -0.004130 -0.001212 0.008591 0.000733 0.000914 -0.003178
# 4 -0.004203 0.000092 0.000733 0.038248 -0.006707 0.009227
# 5 0.003423 -0.000321 0.000914 -0.006707 0.016610 -0.000193
# 6 -0.001692 -0.002898 -0.003178 0.009227 -0.000193 0.030036
#
#
# Mechanical properties :
#
#
# Convention : Reuss Voigt Hill
#
# Bulk Modulus (GPa) = 34.28669 46.13319 40.20994
# Shear Modulus (GPa) = 34.87095 44.42559 39.64827
#
# Velocity S-wave (km/s) = 3.80158 4.29090 4.05363
# Velocity P-wave (km/s) = 5.78612 6.60823 6.21079
#
# Compressibility (1/GPa) = 0.02916584
#
# Stress axis : x y z
#
# Youngs Moduli (GPa) = 53.83069 84.74931 116.39697
#
# Poissons Ratio (x) = -0.03740 0.48076
# Poissons Ratio (y) = -0.02375 0.14104
# Poissons Ratio (z) = 0.22234 0.10269
#
# Static dielectric constant tensor:
#      x y z
#    x 2.126470 0.020810 -0.012030 
#    y 0.020810 1.965800 0.126170 
#    z -0.012030 0.126170 2.151410 
# 
# From -- ./inp_files/566495.got.cif
#   From: 2010.05.17/outbox.cif.g08.bks.cpg/sg2_284_cif.got.tgz:566495.got - 2010.06.03 11:33:40.
