data_PCOD9049614
_publ_section_title
;
Structure prediction by ZEFSAII (Michael W. Deem and Ramdas Pophale) SiO2 
 PCOD9049614
Probable space group: P -1
;
_chemical_formula_sum "Si O2"
_cell_formula_units_Z 16
_cell_length_a 10.365005
_cell_length_b 23.771810
_cell_length_c 6.082851
_cell_angle_alpha 61.331546
_cell_angle_beta 67.789204
_cell_angle_gamma 32.141174
_cell_volume 698.337350
_symmetry_space_group_name_H-M "P -1"
_symmetry_group_IT_number 2
_symmetry_cell_setting 'triclinic'
loop_
_space_group_symop_operation_xyz
x,y,z
-x,-y,-z
loop_
_atom_site_type_symbol
_atom_site_label
_atom_site_fract_x
_atom_site_fract_y
_atom_site_fract_z
Si Si1 0.008080 0.127991 0.871460
Si Si2 0.580837 0.490269 0.714603
Si Si3 0.885650 0.589626 0.090293
Si Si4 0.759944 0.916243 0.600050
Si Si5 0.094800 0.231735 0.867404
Si Si6 0.620577 0.081220 0.711206
Si Si7 0.654624 0.592170 0.620251
Si Si8 0.426551 0.773546 0.777645
O O1 0.029804 0.134283 0.591088
O O2 0.057741 0.179875 0.848413
O O3 0.768387 0.185936 0.013357
O O4 0.226381 0.995031 0.029268
O O5 0.500000 0.500000 0.500000
O O6 0.519862 0.588347 0.581254
O O7 0.860862 0.363412 0.760368
O O8 0.500000 0.500000 0.000000
O O9 0.765148 0.597274 0.356275
O O10 0.127731 0.526621 0.163787
O O11 0.663869 0.707478 0.887525
O O12 0.000000 0.500000 0.000000
O O13 0.500000 0.000000 0.500000
O O14 0.702665 0.992471 0.669049
O O15 0.853431 0.815880 0.835819
O O16 0.333730 0.180824 0.742323
O O17 0.674798 0.128641 0.477982
O O18 0.510511 0.687595 0.711916
#
# Coordination Sequence:
#
# PCOD9049614 Si02
#       8
#     2   2   2   2   2   2   2   2
#     4  11  23  44  68  99 147 181 240 308 376 440
#     4  12  31  48  76 115 152 193 257 318 376 452
#     4   9  22  41  69  97 138 193 240 292 364 447
#     4  11  21  43  72 101 139 191 248 309 370 450
#     4  11  25  43  73 101 141 198 243 303 380 446
#     4  11  24  42  66 106 138 187 251 296 367 467
#     4  10  24  47  69 100 148 190 245 303 372 451
#     4  11  25  41  71 105 147 192 240 308 382 438
#
# _framework density 22.911562
#
# number of rings (size 3 to 8) (size 9 to 14) (size 15 to 20)
#    0.000    1.250    2.500    1.875   12.250    4.500 
#    0.000    0.000    0.000    0.000    0.000    0.000 
#    0.000    0.000    0.000    0.000    0.000    0.000 
#
# Total GULP energy -89302.218771 kJ/mol
# GULP energy per Si atom -5581.388673 kJ/mol
# Density = 2.285941 g / cm^3
# Si number density = 22.911562 Si / 1000 Ang^3
#
#
#
# Elastic Constant Matrix: (Units=GPa)
#
#
# Indices 1 2 3 4 5 6 
#
# 1 57.1989 16.8020 19.3682 -0.1217 3.6177 5.3491
# 2 16.8020 123.4703 43.9877 12.0794 -0.0741 -15.8244
# 3 19.3682 43.9877 91.3170 17.1345 0.8531 -2.3867
# 4 -0.1217 12.0794 17.1345 47.3620 -7.7310 -8.3113
# 5 3.6177 -0.0741 0.8531 -7.7310 35.1157 4.1298
# 6 5.3491 -15.8244 -2.3867 -8.3113 4.1298 21.5160
#
#
#
# Elastic Compliance Matrix: (Units=1/GPa)
#
#
# Indices 1 2 3 4 5 6 
#
# 1 0.020032 -0.002456 -0.003330 0.000522 -0.001080 -0.006747
# 2 -0.002456 0.011165 -0.004674 0.000238 -0.000557 0.008502
# 3 -0.003330 -0.004674 0.014735 -0.004737 -0.000755 -0.002661
# 4 0.000522 0.000238 -0.004737 0.024971 0.004585 0.008286
# 5 -0.001080 -0.000557 -0.000755 0.004585 0.030113 -0.004234
# 6 -0.006747 0.008502 -0.002661 0.008286 -0.004234 0.058126
#
#
# Mechanical properties :
#
#
# Convention : Reuss Voigt Hill
#
# Bulk Modulus (GPa) = 39.98218 48.03355 44.00787
# Shear Modulus (GPa) = 26.53927 33.58732 30.06329
#
# Velocity S-wave (km/s) = 3.40712 3.83293 3.62628
# Velocity P-wave (km/s) = 5.74165 6.37172 6.06487
#
# Compressibility (1/GPa) = 0.02501114
#
# Stress axis : x y z
#
# Youngs Moduli (GPa) = 49.91956 89.56784 67.86440
#
# Poissons Ratio (x) = 0.21999 0.22598
# Poissons Ratio (y) = 0.12261 0.31723
# Poissons Ratio (z) = 0.16623 0.41868
#
# Static dielectric constant tensor:
#      x y z
#    x 1.952060 -0.081090 0.106350 
#    y -0.081090 1.878830 -0.040770 
#    z 0.106350 -0.040770 1.902860 
# 
# From -- ./inp_files/84970.got.cif
#   From: 2010.05.17/outbox.cif.g08.bks.cpg/sg2_43_cif.got.tgz:84970.got - 2010.06.03 11:33:40.
