data_PCOD9049248
_publ_section_title
;
Structure prediction by ZEFSAII (Michael W. Deem and Ramdas Pophale) SiO2 
 PCOD9049248
Probable space group: P -1
;
_chemical_formula_sum "Si O2"
_cell_formula_units_Z 14
_cell_length_a 5.316620
_cell_length_b 14.095598
_cell_length_c 14.852761
_cell_angle_alpha 149.204731
_cell_angle_beta 86.865252
_cell_angle_gamma 101.026240
_cell_volume 545.878476
_symmetry_space_group_name_H-M "P -1"
_symmetry_group_IT_number 2
_symmetry_cell_setting 'triclinic'
loop_
_space_group_symop_operation_xyz
x,y,z
-x,-y,-z
loop_
_atom_site_type_symbol
_atom_site_label
_atom_site_fract_x
_atom_site_fract_y
_atom_site_fract_z
Si Si1 0.016341 0.561493 0.322027
Si Si2 0.306606 0.256688 0.870077
Si Si3 0.489691 0.094155 0.402932
Si Si4 0.420406 0.028280 0.144284
Si Si5 0.725760 0.426016 0.391210
Si Si6 0.714795 0.645478 0.240570
Si Si7 0.152856 0.184461 0.006535
O O1 0.791487 0.509841 0.358920
O O2 0.895204 0.544671 0.211594
O O3 0.208748 0.773385 0.497561
O O4 0.171538 0.403769 0.209079
O O5 0.172841 0.260365 0.779592
O O6 0.123840 0.170892 0.887738
O O7 0.502112 0.120756 0.746097
O O8 0.462086 0.472747 0.074948
O O9 0.406370 0.100453 0.306114
O O10 0.352238 0.199176 0.564120
O O11 0.602978 0.197201 0.218416
O O12 0.585899 0.873312 0.023772
O O13 0.118522 0.947583 0.055076
O O14 0.500000 0.500000 0.500000
O O15 0.000000 0.500000 0.500000
#
# Coordination Sequence:
#
# PCOD9049248 Si02
#       7
#     2   2   2   2   2   2   2
#     4  12  26  43  73 103 144 185 246 295 362 431
#     4  10  24  46  71 102 148 190 241 299 366 425
#     4  11  23  43  70 104 139 194 235 301 356 435
#     4  11  25  46  73 101 149 185 244 293 372 418
#     4  12  26  45  73 109 143 190 239 303 359 432
#     4  11  24  47  69 106 144 192 242 302 357 432
#     4  11  25  47  70 107 141 191 237 308 352 432
#
# _framework density 25.646732
#
# number of rings (size 3 to 8) (size 9 to 14) (size 15 to 20)
#    0.000    0.857    2.857    3.857    6.000    2.286 
#    5.143    0.000    0.000    0.000    0.000    0.000 
#    0.000    0.000    0.000    0.000    0.000    0.000 
#
# Total GULP energy -78473.891012 kJ/mol
# GULP energy per Si atom -5605.277929 kJ/mol
# Density = 2.558836 g / cm^3
# Si number density = 25.646732 Si / 1000 Ang^3
#
#
#
# Elastic Constant Matrix: (Units=GPa)
#
#
# Indices 1 2 3 4 5 6 
#
# 1 108.5882 31.6084 42.0174 -3.7047 -6.6347 10.3629
# 2 31.6084 104.9795 28.5363 -13.0888 13.4462 -6.1092
# 3 42.0174 28.5363 97.0559 -19.3249 -24.9742 0.1157
# 4 -3.7047 -13.0888 -19.3249 27.6189 -8.0008 3.6211
# 5 -6.6347 13.4462 -24.9742 -8.0008 53.6548 2.1777
# 6 10.3629 -6.1092 0.1157 3.6211 2.1777 37.2697
#
#
#
# Elastic Compliance Matrix: (Units=1/GPa)
#
#
# Indices 1 2 3 4 5 6 
#
# 1 0.012235 -0.002782 -0.005208 -0.003011 -0.000520 -0.003519
# 2 -0.002782 0.012255 -0.003438 0.001205 -0.004956 0.002966
# 3 -0.005208 -0.003438 0.019497 0.014832 0.011557 -0.001292
# 4 -0.003011 0.001205 0.014832 0.051471 0.014101 -0.004836
# 5 -0.000520 -0.004956 0.011557 0.014101 0.027447 -0.003677
# 6 -0.003519 0.002966 -0.001292 -0.004836 -0.003677 0.028985
#
#
# Mechanical properties :
#
#
# Convention : Reuss Voigt Hill
#
# Bulk Modulus (GPa) = 47.32104 57.21645 52.26875
# Shear Modulus (GPa) = 27.50420 37.60610 32.55515
#
# Velocity S-wave (km/s) = 3.27834 3.83340 3.56668
# Velocity P-wave (km/s) = 5.72898 6.47697 6.11442
#
# Compressibility (1/GPa) = 0.02113225
#
# Stress axis : x y z
#
# Youngs Moduli (GPa) = 81.72983 81.59681 51.28895
#
# Poissons Ratio (x) = 0.22698 0.26712
# Poissons Ratio (y) = 0.22735 0.17633
# Poissons Ratio (z) = 0.42566 0.28053
#
# Static dielectric constant tensor:
#      x y z
#    x 1.943730 0.007240 -0.011100 
#    y 0.007240 2.018920 -0.005400 
#    z -0.011100 -0.005400 2.048740 
# 
# From -- ./inp_files/89636.got.cif
#   From: 2010.05.17/outbox.cif.g08.bks.cpg/sg2_45_cif.got.tgz:89636.got - 2010.06.03 11:33:40.
