data_PCOD9049587
_publ_section_title
;
Structure prediction by ZEFSAII (Michael W. Deem and Ramdas Pophale) SiO2 
 PCOD9049587
Probable space group: P -1
;
_chemical_formula_sum "Si O2"
_cell_formula_units_Z 14
_cell_length_a 6.689475
_cell_length_b 14.665607
_cell_length_c 14.921444
_cell_angle_alpha 149.484772
_cell_angle_beta 105.402949
_cell_angle_gamma 86.496136
_cell_volume 673.245455
_symmetry_space_group_name_H-M "P -1"
_symmetry_group_IT_number 2
_symmetry_cell_setting 'triclinic'
loop_
_space_group_symop_operation_xyz
x,y,z
-x,-y,-z
loop_
_atom_site_type_symbol
_atom_site_label
_atom_site_fract_x
_atom_site_fract_y
_atom_site_fract_z
Si Si1 0.758413 0.121710 0.509158
Si Si2 0.103320 0.888238 0.985196
Si Si3 0.575476 0.076710 0.250410
Si Si4 0.747097 0.356943 0.344066
Si Si5 0.243455 0.256277 0.740590
Si Si6 0.345428 0.305126 0.136230
Si Si7 0.354355 0.521872 0.137093
O O1 0.678972 0.122618 0.399309
O O2 0.712370 0.291538 0.700130
O O3 0.019153 0.164641 0.582317
O O4 0.660278 0.909155 0.359071
O O5 0.309550 0.020793 0.179399
O O6 0.223385 0.787991 0.848714
O O7 0.898309 0.745645 0.893795
O O8 0.000000 0.000000 0.000000
O O9 0.669416 0.249290 0.337358
O O10 0.638132 0.897853 0.067056
O O11 0.539861 0.403651 0.315410
O O12 0.000000 0.500000 0.500000
O O13 0.410205 0.409340 0.825710
O O14 0.205417 0.360369 0.914738
O O15 0.367628 0.434073 0.160865
#
# Coordination Sequence:
#
# PCOD9049587 Si02
#       7
#     2   2   2   2   2   2   2
#     4  11  24  43  68 100 125 173 216 269 331 390
#     4  11  21  42  64  85 128 180 214 252 316 387
#     4  11  23  42  64  94 132 172 216 263 321 384
#     4  11  25  39  63  95 135 167 212 272 315 380
#     4  10  24  47  67  91 137 164 215 280 327 382
#     4  11  23  43  63  94 129 174 217 260 325 385
#     4  11  24  43  69  97 126 172 217 267 329 395
#
# _framework density 20.794794
#
# number of rings (size 3 to 8) (size 9 to 14) (size 15 to 20)
#    0.000    1.143    4.286    1.714    4.000    4.000 
#    2.571    0.000    0.000    0.000    0.000    0.000 
#    0.000    0.000    0.000    0.000    0.000    0.000 
#
# Total GULP energy -78141.090746 kJ/mol
# GULP energy per Si atom -5581.506482 kJ/mol
# Density = 2.074746 g / cm^3
# Si number density = 20.794794 Si / 1000 Ang^3
#
#
#
# Elastic Constant Matrix: (Units=GPa)
#
#
# Indices 1 2 3 4 5 6 
#
# 1 89.2390 59.7589 24.2564 -14.0300 22.6073 -0.0590
# 2 59.7589 161.1380 60.7525 -34.3291 24.4700 14.4831
# 3 24.2564 60.7525 71.4385 7.9710 11.7735 -21.3786
# 4 -14.0300 -34.3291 7.9710 0.4524 -13.2089 20.1085
# 5 22.6073 24.4700 11.7735 -13.2089 45.4143 4.3789
# 6 -0.0590 14.4831 -21.3786 20.1085 4.3789 21.3577
#
#
#
# Elastic Compliance Matrix: (Units=1/GPa)
#
#
# Indices 1 2 3 4 5 6 
#
# 1 0.015995 -0.004428 -0.000916 0.002424 -0.004713 0.000814
# 2 -0.004428 0.006199 -0.000482 -0.009479 -0.004260 0.005100
# 3 -0.000916 -0.000482 0.011144 0.016136 0.002936 -0.004314
# 4 0.002424 -0.009479 0.016136 -0.003263 -0.003780 0.026433
# 5 -0.004713 -0.004260 0.002936 -0.003780 0.024378 0.004375
# 6 0.000814 0.005100 -0.004314 0.026433 0.004375 0.013263
#
#
# Mechanical properties :
#
#
# Convention : Reuss Voigt Hill
#
# Bulk Modulus (GPa) = 46.11236 67.92790 57.02013
# Shear Modulus (GPa) = 57.73832 25.24806 41.49319
#
# Velocity S-wave (km/s) = 5.27504 3.48825 4.47180
# Velocity P-wave (km/s) = 7.70224 6.99718 7.35816
#
# Compressibility (1/GPa) = 0.02168616
#
# Stress axis : x y z
#
# Youngs Moduli (GPa) = 62.51798 161.32173 89.73537
#
# Poissons Ratio (x) = 0.71429 0.08219
# Poissons Ratio (y) = 0.27681 0.04328
# Poissons Ratio (z) = 0.05726 0.07781
#
# Static dielectric constant tensor:
#      x y z
#    x 1.765330 -0.015980 0.032210 
#    y -0.015980 1.695960 -0.002460 
#    z 0.032210 -0.002460 1.826170 
# 
# From -- ./inp_files/37083.got.cif
#   From: 2010.05.17/outbox.cif.g08.bks.cpg/sg2_19_cif.got.tgz:37083.got - 2010.06.03 11:33:40.
