data_PCOD9049000
_publ_section_title
;
Structure prediction by ZEFSAII (Michael W. Deem and Ramdas Pophale) SiO2 
 PCOD9049000
Probable space group: P -1
;
_chemical_formula_sum "Si O2"
_cell_formula_units_Z 14
_cell_length_a 23.988069
_cell_length_b 10.348337
_cell_length_c 10.678062
_cell_angle_alpha 140.033771
_cell_angle_beta 22.983782
_cell_angle_gamma 139.846424
_cell_volume 646.339123
_symmetry_space_group_name_H-M "P -1"
_symmetry_group_IT_number 2
_symmetry_cell_setting 'triclinic'
loop_
_space_group_symop_operation_xyz
x,y,z
-x,-y,-z
loop_
_atom_site_type_symbol
_atom_site_label
_atom_site_fract_x
_atom_site_fract_y
_atom_site_fract_z
Si Si1 0.385528 0.287957 0.619321
Si Si2 0.226198 0.951040 0.534787
Si Si3 0.141709 0.983119 0.270075
Si Si4 0.442506 0.199144 0.720873
Si Si5 0.823507 0.452947 0.824772
Si Si6 0.067649 0.140532 0.788938
Si Si7 0.249580 0.577230 0.751897
O O1 0.500000 0.500000 0.500000
O O2 0.420338 0.210925 0.626047
O O3 0.365520 0.100346 0.422445
O O4 0.231699 0.359813 0.986363
O O5 0.240537 0.753732 0.277272
O O6 0.151883 0.090119 0.700114
O O7 0.101227 0.873912 0.841003
O O8 0.096265 0.984522 0.509270
O O9 0.283241 0.169675 0.089606
O O10 0.000000 0.000000 0.500000
O O11 0.190768 0.774951 0.979638
O O12 0.578959 0.389479 0.611322
O O13 0.500000 0.000000 0.500000
O O14 0.000000 0.500000 0.500000
O O15 0.765734 0.430522 0.070305
O O16 0.147146 0.371087 0.757189
#
# Coordination Sequence:
#
# PCOD9049000 Si02
#       7
#     2   2   2   2   2   2   2
#     4  12  24  44  69  99 134 170 225 276 327 396
#     4  11  22  36  66 102 131 166 216 280 338 379
#     4  11  25  41  66  91 130 180 223 266 329 399
#     4  10  24  46  65  91 138 178 212 274 334 389
#     4  12  22  39  69 100 132 167 215 279 332 387
#     4  11  21  38  65  97 129 170 220 273 329 391
#     4  11  22  43  64  93 132 171 217 275 330 385
#
# _framework density 21.660456
#
# number of rings (size 3 to 8) (size 9 to 14) (size 15 to 20)
#    0.000    0.857    5.714    1.714    2.000    1.714 
#    0.000    4.286    0.000    0.000    0.000    0.000 
#    0.000    0.000    0.000    0.000    0.000    0.000 
#
# Total GULP energy -78237.005117 kJ/mol
# GULP energy per Si atom -5588.357508 kJ/mol
# Density = 2.161116 g / cm^3
# Si number density = 21.660456 Si / 1000 Ang^3
#
#
#
# Elastic Constant Matrix: (Units=GPa)
#
#
# Indices 1 2 3 4 5 6 
#
# 1 90.7961 27.3905 21.4487 -2.1497 -17.3024 -7.0951
# 2 27.3905 102.9241 26.2597 -3.8635 -6.0504 15.2505
# 3 21.4487 26.2597 80.5814 -14.6159 -12.7236 6.0228
# 4 -2.1497 -3.8635 -14.6159 43.4984 4.3886 1.9153
# 5 -17.3024 -6.0504 -12.7236 4.3886 31.0310 1.8729
# 6 -7.0951 15.2505 6.0228 1.9153 1.8729 38.5693
#
#
#
# Elastic Compliance Matrix: (Units=1/GPa)
#
#
# Indices 1 2 3 4 5 6 
#
# 1 0.014033 -0.003467 -0.002136 -0.001134 0.006189 0.004042
# 2 -0.003467 0.012037 -0.002643 0.000270 -0.000408 -0.004978
# 3 -0.002136 -0.002643 0.015479 0.004541 0.004131 -0.002191
# 4 -0.001134 0.000270 0.004541 0.024789 -0.002094 -0.002154
# 5 0.006189 -0.000408 0.004131 -0.002094 0.037652 -0.001070
# 6 0.004042 -0.004978 -0.002191 -0.002154 -0.001070 0.029140
#
#
# Mechanical properties :
#
#
# Convention : Reuss Voigt Hill
#
# Bulk Modulus (GPa) = 39.90973 47.16660 43.53816
# Shear Modulus (GPa) = 31.65093 35.89993 33.77543
#
# Velocity S-wave (km/s) = 3.82675 4.07553 3.95310
# Velocity P-wave (km/s) = 6.16365 6.63093 6.40156
#
# Compressibility (1/GPa) = 0.02505655
#
# Stress axis : x y z
#
# Youngs Moduli (GPa) = 71.26303 83.07959 64.60289
#
# Poissons Ratio (x) = 0.28804 0.13798
# Poissons Ratio (y) = 0.24707 0.17074
# Poissons Ratio (z) = 0.15221 0.21958
#
# Static dielectric constant tensor:
#      x y z
#    x 1.785110 0.005690 -0.006800 
#    y 0.005690 1.838080 -0.020970 
#    z -0.006800 -0.020970 1.810050 
# 
# From -- ./inp_files/343828.got.cif
#   From: 2010.05.17/outbox.cif.g08.bks.cpg/sg2_172_cif.got.tgz:343828.got - 2010.06.03 11:33:40.
