data_PCOD9049994
_publ_section_title
;
Structure prediction by ZEFSAII (Michael W. Deem and Ramdas Pophale) SiO2 
 PCOD9049994
Probable space group: P -1
;
_chemical_formula_sum "Si O2"
_cell_formula_units_Z 12
_cell_length_a 7.812924
_cell_length_b 12.207369
_cell_length_c 8.970319
_cell_angle_alpha 48.566090
_cell_angle_beta 129.621288
_cell_angle_gamma 110.522323
_cell_volume 490.275870
_symmetry_space_group_name_H-M "P -1"
_symmetry_group_IT_number 2
_symmetry_cell_setting 'triclinic'
loop_
_space_group_symop_operation_xyz
x,y,z
-x,-y,-z
loop_
_atom_site_type_symbol
_atom_site_label
_atom_site_fract_x
_atom_site_fract_y
_atom_site_fract_z
Si Si1 0.425341 0.671783 0.774622
Si Si2 0.021021 0.235208 0.368109
Si Si3 0.743859 0.537699 0.558555
Si Si4 0.825271 0.235446 0.741797
Si Si5 0.744334 0.078692 0.128956
Si Si6 0.695586 0.793447 0.058106
O O1 0.196062 0.715542 0.697589
O O2 0.359922 0.715100 0.530892
O O3 0.500000 0.500000 0.000000
O O4 0.605399 0.761371 0.872340
O O5 0.924112 0.175847 0.216198
O O6 0.158115 0.374186 0.330921
O O7 0.162926 0.091542 0.647218
O O8 0.500000 0.500000 0.500000
O O9 0.879549 0.385507 0.717910
O O10 0.729438 0.646148 0.311049
O O11 0.057441 0.161376 0.866128
O O12 0.727853 0.136444 0.900426
O O13 0.487235 0.887467 0.940305
#
# Coordination Sequence:
#
# PCOD9049994 Si02
#       6
#     2   2   2   2   2   2
#     4  11  22  41  72 101 146 184 231 300 353 412
#     4  10  24  48  72 102 148 190 233 301 354 422
#     4  12  23  42  71 107 140 184 240 288 356 421
#     4  12  24  44  74 108 138 187 242 293 357 424
#     4  10  25  49  73 103 144 191 240 288 361 429
#     4  11  23  45  69 104 144 183 235 298 350 419
#
# _framework density 24.476013999999999
#
# number of rings (size 3 to 8) (size 9 to 14) (size 15 to 20)
#    0.000    1.000    5.000    1.500    0.000    3.333 
#    0.000    7.500    0.000    0.000    0.000    0.000 
#    0.000    0.000    0.000    0.000    0.000    0.000 
#
# Total GULP energy -67238.442268 kJ/mol
# GULP energy per Si atom -5603.203522 kJ/mol
# Density = 2.442031 g / cm^3
# Si number density = 24.476014 Si / 1000 Ang^3
#
#
#
# Elastic Constant Matrix: (Units=GPa)
#
#
# Indices 1 2 3 4 5 6 
#
# 1 102.7736 54.4504 56.9627 -1.8228 11.0839 -12.8285
# 2 54.4504 128.0446 59.3189 6.2057 -1.1701 13.0029
# 3 56.9627 59.3189 162.6587 7.6315 2.0871 -10.6186
# 4 -1.8228 6.2057 7.6315 46.6427 -9.8407 18.5308
# 5 11.0839 -1.1701 2.0871 -9.8407 42.2297 -7.5257
# 6 -12.8285 13.0029 -10.6186 18.5308 -7.5257 38.5649
#
#
#
# Elastic Compliance Matrix: (Units=1/GPa)
#
#
# Indices 1 2 3 4 5 6 
#
# 1 0.015541 -0.005957 -0.002740 -0.001412 -0.003286 0.006461
# 2 -0.005957 0.012468 -0.003070 0.001922 0.001130 -0.007734
# 3 -0.002740 -0.003070 0.008588 -0.002538 0.000289 0.003765
# 4 -0.001412 0.001922 -0.002538 0.028270 0.004551 -0.014513
# 5 -0.003286 0.001130 0.000289 0.004551 0.025882 0.001469
# 6 0.006461 -0.007734 0.003765 -0.014513 0.001469 0.038984
#
#
# Mechanical properties :
#
#
# Convention : Reuss Voigt Hill
#
# Bulk Modulus (GPa) = 76.55396 81.66009 79.10702
# Shear Modulus (GPa) = 31.72190 40.33713 36.02952
#
# Velocity S-wave (km/s) = 3.60396 4.06399 3.84087
# Velocity P-wave (km/s) = 6.97589 7.44695 7.21527
#
# Compressibility (1/GPa) = 0.01306268
#
# Stress axis : x y z
#
# Youngs Moduli (GPa) = 64.34793 80.20640 116.44103
#
# Poissons Ratio (x) = 0.47779 0.31900
# Poissons Ratio (y) = 0.38332 0.35749
# Poissons Ratio (z) = 0.17629 0.24625
#
# Static dielectric constant tensor:
#      x y z
#    x 1.895250 -0.029590 0.021750 
#    y -0.029590 2.031010 0.062020 
#    z 0.021750 0.062020 1.915830 
# 
# From -- ./inp_files/174637.got.cif
#   From: 2010.05.17/outbox.cif.g08.bks.cpg/sg2_88_cif.got.tgz:174637.got - 2010.06.03 11:33:40.
