data_PCOD9049967
_publ_section_title
;
Structure prediction by ZEFSAII (Michael W. Deem and Ramdas Pophale) SiO2 
 PCOD9049967
Probable space group: P -1
;
_chemical_formula_sum "Si O2"
_cell_formula_units_Z 15
_cell_length_a 9.324457
_cell_length_b 10.712576
_cell_length_c 12.089939
_cell_angle_alpha 122.131764
_cell_angle_beta 102.395458
_cell_angle_gamma 42.843544
_cell_volume 662.403137
_symmetry_space_group_name_H-M "P -1"
_symmetry_group_IT_number 2
_symmetry_cell_setting 'triclinic'
loop_
_space_group_symop_operation_xyz
x,y,z
-x,-y,-z
loop_
_atom_site_type_symbol
_atom_site_label
_atom_site_fract_x
_atom_site_fract_y
_atom_site_fract_z
Si Si1 0.400762 0.640728 0.794259
Si Si2 0.907824 0.480277 0.640772
Si Si3 0.500000 0.500000 0.000000
Si Si4 0.260685 0.117756 0.699967
Si Si5 0.416375 0.864059 0.264545
Si Si6 0.433992 0.935779 0.864426
Si Si7 0.955141 0.318126 0.334722
Si Si8 0.260106 0.829696 0.450098
O O1 0.338960 0.853714 0.855235
O O2 0.204584 0.675944 0.748419
O O3 0.604705 0.423507 0.652248
O O4 0.467763 0.581382 0.904896
O O5 0.665266 0.719058 0.742400
O O6 0.901421 0.380606 0.485217
O O7 0.034888 0.316236 0.689546
O O8 0.049089 0.517847 0.643718
O O9 0.540772 0.640633 0.116680
O O10 0.437939 0.101163 0.675582
O O11 0.267026 0.130157 0.838647
O O12 0.328189 0.897413 0.585155
O O13 0.322710 0.865375 0.363054
O O14 0.203777 0.070440 0.255453
O O15 0.500000 0.000000 0.000000
O O16 0.000000 0.000000 0.500000
#
# Coordination Sequence:
#
# PCOD9049967 Si02
#       8
#     2   2   1   2   2   2   2   2
#     4  11  26  45  70 101 142 181 232 292 347 411
#     4  11  24  45  73 107 138 179 237 285 350 413
#     4  10  24  48  70  96 136 192 232 278 342 422
#     4  12  24  44  75 101 139 189 228 292 348 414
#     4  11  23  44  71 103 139 181 238 280 347 415
#     4  12  28  48  66 103 145 184 231 287 346 427
#     4  11  24  43  73 106 137 178 237 299 336 409
#     4  11  24  42  71 106 136 176 232 292 350 407
#
# _framework density 22.644819999999999
#
# number of rings (size 3 to 8) (size 9 to 14) (size 15 to 20)
#    0.000    0.800    2.667    4.400    3.733    2.133 
#    2.400    0.000    0.000    0.000    0.000    0.000 
#    0.000    0.000    0.000    0.000    0.000    0.000 
#
# Total GULP energy -83682.026323 kJ/mol
# GULP energy per Si atom -5578.801755 kJ/mol
# Density = 2.259328 g / cm^3
# Si number density = 22.644820 Si / 1000 Ang^3
#
#
#
# Elastic Constant Matrix: (Units=GPa)
#
#
# Indices 1 2 3 4 5 6 
#
# 1 86.6232 -3.9569 27.9490 -9.5803 21.1464 -2.3434
# 2 -3.9569 67.2151 4.3636 -18.0947 -5.8572 6.8268
# 3 27.9490 4.3636 93.5239 -27.4692 27.5371 4.2524
# 4 -9.5803 -18.0947 -27.4692 35.3409 5.7216 -1.7111
# 5 21.1464 -5.8572 27.5371 5.7216 27.5583 -6.5424
# 6 -2.3434 6.8268 4.2524 -1.7111 -6.5424 40.9466
#
#
#
# Elastic Compliance Matrix: (Units=1/GPa)
#
#
# Indices 1 2 3 4 5 6 
#
# 1 0.016281 0.002519 0.004519 0.012269 -0.019633 -0.002582
# 2 0.002519 0.018548 0.005141 0.015151 -0.007224 -0.004003
# 3 0.004519 0.005141 0.034609 0.037913 -0.047239 -0.010156
# 4 0.012269 0.015151 0.037913 0.078496 -0.063368 -0.012606
# 5 -0.019633 -0.007224 -0.047239 -0.063368 0.115097 0.020729
# 6 -0.002582 -0.004003 -0.010156 -0.012606 0.020729 0.028782
#
#
# Mechanical properties :
#
#
# Convention : Reuss Voigt Hill
#
# Bulk Modulus (GPa) = 10.66151 33.78596 22.22374
# Shear Modulus (GPa) = 16.73807 35.36960 26.05384
#
# Velocity S-wave (km/s) = 2.72169 3.95641 3.39565
# Velocity P-wave (km/s) = 3.82036 5.98525 5.02088
#
# Compressibility (1/GPa) = 0.09379534
#
# Stress axis : x y z
#
# Youngs Moduli (GPa) = 61.42013 53.91422 28.89452
#
# Poissons Ratio (x) = -0.13583 -0.13056
# Poissons Ratio (y) = -0.15474 -0.14854
# Poissons Ratio (z) = -0.27754 -0.27715
#
# Static dielectric constant tensor:
#      x y z
#    x 1.876660 0.023950 -0.014290 
#    y 0.023950 1.859800 0.023890 
#    z -0.014290 0.023890 1.817280 
# 
# From -- ./inp_files/393168.got.cif
#   From: 2010.05.17/outbox.cif.g08.bks.cpg/sg2_197_cif.got.tgz:393168.got - 2010.06.03 11:33:40.
