data_PCOD9049940
_publ_section_title
;
Structure prediction by ZEFSAII (Michael W. Deem and Ramdas Pophale) SiO2 
 PCOD9049940
Probable space group: P -1
;
_chemical_formula_sum "Si O2"
_cell_formula_units_Z 16
_cell_length_a 9.489897
_cell_length_b 9.703844
_cell_length_c 11.444272
_cell_angle_alpha 89.420212
_cell_angle_beta 126.349361
_cell_angle_gamma 117.367276
_cell_volume 701.283470
_symmetry_space_group_name_H-M "P -1"
_symmetry_group_IT_number 2
_symmetry_cell_setting 'triclinic'
loop_
_space_group_symop_operation_xyz
x,y,z
-x,-y,-z
loop_
_atom_site_type_symbol
_atom_site_label
_atom_site_fract_x
_atom_site_fract_y
_atom_site_fract_z
Si Si1 0.345822 0.625799 0.976906
Si Si2 0.134809 0.421147 0.533796
Si Si3 0.637031 0.281322 0.518190
Si Si4 0.751221 0.146738 0.217929
Si Si5 0.229578 0.658495 0.155416
Si Si6 0.953004 0.719177 0.270393
Si Si7 0.356934 0.025081 0.201981
Si Si8 0.237658 0.123337 0.925176
O O1 0.255007 0.724885 0.872247
O O2 0.166182 0.432288 0.877669
O O3 0.386696 0.675181 0.131196
O O4 0.555943 0.692929 0.004927
O O5 0.315978 0.565293 0.541445
O O6 0.182583 0.364609 0.677307
O O7 0.000000 0.500000 0.500000
O O8 0.979061 0.253448 0.388159
O O9 0.675370 0.339183 0.671406
O O10 0.431227 0.120061 0.361264
O O11 0.819596 0.245444 0.592375
O O12 0.569939 0.087323 0.227643
O O13 0.726191 0.998953 0.131200
O O14 0.234488 0.827246 0.155110
O O15 0.000000 0.500000 0.000000
O O16 0.952252 0.871785 0.219391
O O17 0.235055 0.078881 0.058670
#
# Coordination Sequence:
#
# PCOD9049940 Si02
#       8
#     2   2   2   2   2   2   2   2
#     4  11  19  37  60  89 116 155 206 244 289 356
#     4  10  17  34  61  85 119 152 198 247 287 352
#     4  11  22  38  63  91 119 162 203 240 296 355
#     4  11  17  35  62  86 116 155 199 245 294 344
#     4  12  22  37  64  88 115 161 216 245 276 361
#     4  11  21  37  60  94 121 153 195 249 311 355
#     4  11  21  39  61  89 123 155 205 251 292 350
#     4  11  23  35  62  94 122 151 193 257 311 348
#
# _framework density 22.81531
#
# number of rings (size 3 to 8) (size 9 to 14) (size 15 to 20)
#    0.000    1.000    8.750    2.250    0.000    0.500 
#    0.000    0.625    0.000    3.000    0.000    0.000 
#    0.000    0.000    0.000    0.000    0.000    0.000 
#
# Total GULP energy -89374.975108 kJ/mol
# GULP energy per Si atom -5585.935944 kJ/mol
# Density = 2.276338 g / cm^3
# Si number density = 22.815310 Si / 1000 Ang^3
#
#
#
# Elastic Constant Matrix: (Units=GPa)
#
#
# Indices 1 2 3 4 5 6 
#
# 1 39.5735 18.7847 32.0766 -5.6033 -7.9479 9.7177
# 2 18.7847 96.6219 50.4728 -2.2509 -2.2277 12.2259
# 3 32.0766 50.4728 144.9623 -1.6927 -35.6347 3.0041
# 4 -5.6033 -2.2509 -1.6927 45.1259 0.4933 3.5771
# 5 -7.9479 -2.2277 -35.6347 0.4933 31.5240 -5.8120
# 6 9.7177 12.2259 3.0041 3.5771 -5.8120 25.8899
#
#
#
# Elastic Compliance Matrix: (Units=1/GPa)
#
#
# Indices 1 2 3 4 5 6 
#
# 1 0.035547 -0.001160 -0.007702 0.005134 -0.002328 -0.013133
# 2 -0.001160 0.014992 -0.006870 0.001065 -0.008471 -0.007896
# 3 -0.007702 -0.006870 0.014660 -0.001568 0.015675 0.008169
# 4 0.005134 0.001065 -0.001568 0.023278 -0.001851 -0.005880
# 5 -0.002328 -0.008471 0.015675 -0.001851 0.051006 0.014761
# 6 -0.013133 -0.007896 0.008169 -0.005880 0.014761 0.050461
#
#
# Mechanical properties :
#
#
# Convention : Reuss Voigt Hill
#
# Bulk Modulus (GPa) = 29.64127 53.75844 41.69985
# Shear Modulus (GPa) = 21.49117 32.49619 26.99368
#
# Velocity S-wave (km/s) = 3.07247 3.77810 3.44341
# Velocity P-wave (km/s) = 5.06032 6.53037 5.84177
#
# Compressibility (1/GPa) = 0.03373675
#
# Stress axis : x y z
#
# Youngs Moduli (GPa) = 28.13158 66.70140 68.21225
#
# Poissons Ratio (x) = 0.07737 0.52537
# Poissons Ratio (y) = 0.03263 0.46859
# Poissons Ratio (z) = 0.21667 0.45821
#
# Static dielectric constant tensor:
#      x y z
#    x 1.954250 0.025700 0.010020 
#    y 0.025700 1.849920 0.003770 
#    z 0.010020 0.003770 1.914080 
# 
# From -- ./inp_files/354506.got.cif
#   From: 2010.05.17/outbox.cif.g08.bks.cpg/sg2_178_cif.got.tgz:354506.got - 2010.06.03 11:33:40.
