data_PCOD9049025
_publ_section_title
;
Structure prediction by ZEFSAII (Michael W. Deem and Ramdas Pophale) SiO2 
 PCOD9049025
Probable space group: P -1
;
_chemical_formula_sum "Si O2"
_cell_formula_units_Z 16
_cell_length_a 8.571290
_cell_length_b 20.131813
_cell_length_c 9.419590
_cell_angle_alpha 104.002861
_cell_angle_beta 98.358663
_cell_angle_gamma 27.964309
_cell_volume 731.145040
_symmetry_space_group_name_H-M "P -1"
_symmetry_group_IT_number 2
_symmetry_cell_setting 'triclinic'
loop_
_space_group_symop_operation_xyz
x,y,z
-x,-y,-z
loop_
_atom_site_type_symbol
_atom_site_label
_atom_site_fract_x
_atom_site_fract_y
_atom_site_fract_z
Si Si1 0.383930 0.368055 0.441304
Si Si2 0.526938 0.794943 0.815169
Si Si3 0.190241 0.597870 0.856259
Si Si4 0.479038 0.704873 0.994482
Si Si5 0.685477 0.285432 0.738625
Si Si6 0.188053 0.207423 0.808188
Si Si7 0.734180 0.973409 0.964897
Si Si8 0.752888 0.481798 0.755891
O O1 0.541563 0.241344 0.317643
O O2 0.592640 0.302401 0.576036
O O3 0.337529 0.449616 0.370587
O O4 0.000000 0.500000 0.500000
O O5 0.553096 0.747034 0.946818
O O6 0.299849 0.947845 0.894317
O O7 0.885302 0.689635 0.766504
O O8 0.418991 0.444938 0.836435
O O9 0.439506 0.555110 0.796468
O O10 0.017966 0.692457 0.024157
O O11 0.764025 0.542073 0.896674
O O12 0.391122 0.742498 0.168205
O O13 0.129833 0.808303 0.933807
O O14 0.041767 0.188289 0.741412
O O15 0.072832 0.308617 0.730677
O O16 0.571268 0.055910 0.834137
O O17 0.500000 0.000000 0.000000
#
# Coordination Sequence:
#
# PCOD9049025 Si02
#       8
#     2   2   2   2   2   2   2   2
#     4  11  24  39  55  93 134 162 191 242 316 369
#     4  10  23  38  59  90 126 156 200 251 303 362
#     4  10  17  34  59  89 117 148 207 245 295 339
#     4  11  20  37  64  94 121 159 198 255 310 351
#     4  11  19  35  60  88 125 158 199 243 298 368
#     4  10  19  35  63  98 115 151 213 261 293 344
#     4  11  21  39  65  92 116 157 209 259 300 349
#     4  10  20  37  64  90 121 159 197 257 301 353
#
# _framework density 21.883482000000001
#
# number of rings (size 3 to 8) (size 9 to 14) (size 15 to 20)
#    0.000    1.500    5.000    1.875    0.000    4.500 
#    0.000    0.625    0.000    4.500    0.000    0.000 
#    0.000    0.000    0.000    0.000    0.000    0.000 
#
# Total GULP energy -89289.371100 kJ/mol
# GULP energy per Si atom -5580.585694 kJ/mol
# Density = 2.183367 g / cm^3
# Si number density = 21.883482 Si / 1000 Ang^3
#
#
#
# Elastic Constant Matrix: (Units=GPa)
#
#
# Indices 1 2 3 4 5 6 
#
# 1 81.7277 5.3402 35.1982 -3.1539 -1.3413 18.9876
# 2 5.3402 53.4766 6.7943 -11.7074 -0.1566 7.3877
# 3 35.1982 6.7943 114.9688 -31.6738 5.1043 9.0075
# 4 -3.1539 -11.7074 -31.6738 22.9492 -2.2879 4.0297
# 5 -1.3413 -0.1566 5.1043 -2.2879 27.2451 -6.6575
# 6 18.9876 7.3877 9.0075 4.0297 -6.6575 32.7121
#
#
#
# Elastic Compliance Matrix: (Units=1/GPa)
#
#
# Indices 1 2 3 4 5 6 
#
# 1 0.016198 -0.000999 -0.005692 -0.004928 -0.000281 -0.007059
# 2 -0.000999 0.024022 0.005524 0.021227 -0.001429 -0.009272
# 3 -0.005692 0.005524 0.018808 0.028969 -0.003130 -0.007328
# 4 -0.004928 0.021227 0.028969 0.097371 -0.002866 -0.022489
# 5 -0.000281 -0.001429 -0.003130 -0.002866 0.039403 0.009720
# 6 -0.007059 -0.009272 -0.007328 -0.022489 0.009720 0.043527
#
#
# Mechanical properties :
#
#
# Convention : Reuss Voigt Hill
#
# Bulk Modulus (GPa) = 17.63859 38.31536 27.97697
# Shear Modulus (GPa) = 19.18939 30.10399 24.64669
#
# Velocity S-wave (km/s) = 2.96444 3.71300 3.35963
# Velocity P-wave (km/s) = 4.44915 5.99405 5.27843
#
# Compressibility (1/GPa) = 0.05669387
#
# Stress axis : x y z
#
# Youngs Moduli (GPa) = 61.73723 41.62933 53.16783
#
# Poissons Ratio (x) = 0.04158 0.30264
# Poissons Ratio (y) = 0.06167 -0.29371
# Poissons Ratio (z) = 0.35142 -0.22997
#
# Static dielectric constant tensor:
#      x y z
#    x 1.860170 -0.002320 0.016320 
#    y -0.002320 1.870210 -0.044550 
#    z 0.016320 -0.044550 1.822710 
# 
# From -- ./inp_files/179068.got.cif
#   From: 2010.05.17/outbox.cif.g08.bks.cpg/sg2_90_cif.got.tgz:179068.got - 2010.06.03 11:33:40.
