data_PCOD9049569
_publ_section_title
;
Structure prediction by ZEFSAII (Michael W. Deem and Ramdas Pophale) SiO2 
 PCOD9049569
Probable space group: P -1
;
_chemical_formula_sum "Si O2"
_cell_formula_units_Z 11
_cell_length_a 16.112862
_cell_length_b 15.912000
_cell_length_c 5.024363
_cell_angle_alpha 90.618034
_cell_angle_beta 90.349153
_cell_angle_gamma 18.023055
_cell_volume 398.504936
_symmetry_space_group_name_H-M "P -1"
_symmetry_group_IT_number 2
_symmetry_cell_setting 'triclinic'
loop_
_space_group_symop_operation_xyz
x,y,z
-x,-y,-z
loop_
_atom_site_type_symbol
_atom_site_label
_atom_site_fract_x
_atom_site_fract_y
_atom_site_fract_z
Si Si1 0.902753 0.501816 0.404802
Si Si2 0.341131 0.782664 0.361512
Si Si3 0.194584 0.077544 0.718939
Si Si4 0.404354 0.000661 0.087033
Si Si5 0.000000 0.000000 0.500000
Si Si6 0.146330 0.735086 0.001834
O O1 0.591742 0.802199 0.336383
O O2 0.000000 0.500000 0.500000
O O3 0.005048 0.328502 0.584417
O O4 0.087830 0.310796 0.142813
O O5 0.297609 0.755629 0.584531
O O6 0.320274 0.893362 0.498405
O O7 0.572068 0.555003 0.143963
O O8 0.040681 0.048522 0.238426
O O9 0.014084 0.194290 0.913920
O O10 0.423281 0.906740 0.878658
O O11 0.500000 0.000000 0.000000
O O12 0.147790 0.790999 0.261163
#
# Coordination Sequence:
#
# PCOD9049569 Si02
#       6
#     2   2   2   2   1   2
#     4  12  27  48  74 107 144 199 264 324 384 449
#     4  11  26  48  74 114 154 199 250 308 382 458
#     4  11  28  47  74 108 158 204 256 325 386 447
#     4  12  27  48  74 107 144 199 264 324 384 449
#     4  10  24  46  84 112 152 198 246 310 372 458
#     4  11  26  48  74 114 154 199 250 308 382 458
#
# _framework density 27.603169999999999
#
# number of rings (size 3 to 8) (size 9 to 14) (size 15 to 20)
#    0.000    0.727    1.818    3.273    0.000   16.000 
#    0.000    0.000    0.000    2.182    0.000    0.000 
#    0.000    0.000    0.000    0.000    0.000    0.000 
#
# Total GULP energy -61544.821897 kJ/mol
# GULP energy per Si atom -5594.983809 kJ/mol
# Density = 2.754034 g / cm^3
# Si number density = 27.603170 Si / 1000 Ang^3
#
#
#
# Elastic Constant Matrix: (Units=GPa)
#
#
# Indices 1 2 3 4 5 6 
#
# 1 244.9225 56.0568 84.4006 13.5654 20.2732 5.6291
# 2 56.0568 148.0521 68.4853 38.0031 10.9366 -12.7132
# 3 84.4006 68.4853 141.1498 39.7548 20.5074 -22.5816
# 4 13.5654 38.0031 39.7548 60.6009 -3.5088 -0.4702
# 5 20.2732 10.9366 20.5074 -3.5088 68.6154 4.6916
# 6 5.6291 -12.7132 -22.5816 -0.4702 4.6916 14.4896
#
#
#
# Elastic Compliance Matrix: (Units=1/GPa)
#
#
# Indices 1 2 3 4 5 6 
#
# 1 0.007082 -0.001935 -0.007474 0.004508 0.001811 -0.016538
# 2 -0.001935 0.010052 -0.000329 -0.005689 -0.001871 0.009479
# 3 -0.007474 -0.000329 0.023318 -0.013574 -0.008218 0.041176
# 4 0.004508 -0.005689 -0.013574 0.028147 0.007073 -0.029274
# 5 0.001811 -0.001871 -0.008218 0.007073 0.018587 -0.020941
# 6 -0.016538 0.009479 0.041176 -0.029274 -0.020941 0.153759
#
#
# Mechanical properties :
#
#
# Convention : Reuss Voigt Hill
#
# Bulk Modulus (GPa) = 47.67710 105.77887 76.72799
# Shear Modulus (GPa) = 18.69765 50.41996 34.55881
#
# Velocity S-wave (km/s) = 2.60546 4.27851 3.54218
# Velocity P-wave (km/s) = 5.13430 7.92540 6.67732
#
# Compressibility (1/GPa) = 0.02097443
#
# Stress axis : x y z
#
# Youngs Moduli (GPa) = 141.20331 99.48330 42.88497
#
# Poissons Ratio (x) = 0.19250 0.32054
# Poissons Ratio (y) = 0.27323 0.01413
# Poissons Ratio (z) = 1.05541 0.03277
#
# Static dielectric constant tensor:
#      x y z
#    x 2.202910 0.090190 -0.131900 
#    y 0.090190 2.197720 -0.019570 
#    z -0.131900 -0.019570 2.283600 
# 
# From -- ./inp_files/96996.got.cif
#   From: 2010.05.17/outbox.cif.g08.bks.cpg/sg2_49_cif.got.tgz:96996.got - 2010.06.03 11:33:40.
