data_PCOD9049308
_publ_section_title
;
Structure prediction by ZEFSAII (Michael W. Deem and Ramdas Pophale) SiO2 
 PCOD9049308
Probable space group: P -1
;
_chemical_formula_sum "Si O2"
_cell_formula_units_Z 15
_cell_length_a 12.403799
_cell_length_b 5.069865
_cell_length_c 21.398968
_cell_angle_alpha 60.676951
_cell_angle_beta 148.413113
_cell_angle_gamma 107.148457
_cell_volume 592.088598
_symmetry_space_group_name_H-M "P -1"
_symmetry_group_IT_number 2
_symmetry_cell_setting 'triclinic'
loop_
_space_group_symop_operation_xyz
x,y,z
-x,-y,-z
loop_
_atom_site_type_symbol
_atom_site_label
_atom_site_fract_x
_atom_site_fract_y
_atom_site_fract_z
Si Si1 0.515739 0.467867 0.585761
Si Si2 0.540775 0.826187 0.740127
Si Si3 0.970554 0.581610 0.828637
Si Si4 0.000000 0.500000 0.000000
Si Si5 0.608891 0.703338 0.131239
Si Si6 0.924630 0.189232 0.503532
Si Si7 0.413858 0.121461 0.098008
Si Si8 0.036003 0.860948 0.332818
O O1 0.500000 0.500000 0.500000
O O2 0.729264 0.562350 0.700154
O O3 0.283732 0.665178 0.472788
O O4 0.549764 0.115018 0.667086
O O5 0.327615 0.737826 0.630784
O O6 0.552413 0.937439 0.804529
O O7 0.746182 0.542323 0.863845
O O8 0.002562 0.860239 0.768579
O O9 0.003743 0.615597 0.914596
O O10 0.160698 0.268171 0.942669
O O11 0.527974 0.402014 0.108928
O O12 0.862068 0.666652 0.257860
O O13 0.520718 0.827515 0.141838
O O14 0.500000 0.000000 0.000000
O O15 0.998821 0.030363 0.625074
O O16 0.000000 0.500000 0.500000
O O17 0.000000 0.000000 0.500000
#
# Coordination Sequence:
#
# PCOD9049308 Si02
#       8
#     2   2   2   1   2   2   2   2
#     4  12  27  46  75 110 155 206 265 323 386 466
#     4  11  25  47  74 110 153 199 258 313 390 447
#     4  11  25  45  74 111 151 202 263 317 396 450
#     4  10  24  46  72 102 152 198 256 322 376 462
#     4  12  26  48  76 112 155 193 255 308 389 456
#     4  12  26  48  76 111 156 200 253 312 384 464
#     4  11  27  48  78 113 152 200 251 323 378 467
#     4  12  26  46  76 111 155 204 258 321 391 467
#
# _framework density 25.334043999999999
#
# number of rings (size 3 to 8) (size 9 to 14) (size 15 to 20)
#    0.000    0.533    1.333    5.600    1.867    8.533 
#    0.000    0.000    0.000    0.000    0.000    0.000 
#    0.000    0.000    0.000    0.000    0.000    0.000 
#
# Total GULP energy -83926.347733 kJ/mol
# GULP energy per Si atom -5595.089849 kJ/mol
# Density = 2.527638 g / cm^3
# Si number density = 25.334044 Si / 1000 Ang^3
#
#
#
# Elastic Constant Matrix: (Units=GPa)
#
#
# Indices 1 2 3 4 5 6 
#
# 1 141.5146 42.6002 61.0469 8.5360 -17.9349 22.4599
# 2 42.6002 93.9402 31.4469 8.2323 0.1364 11.2319
# 3 61.0469 31.4469 162.8249 9.2871 -1.4270 20.2761
# 4 8.5360 8.2323 9.2871 23.7091 10.4415 -2.3066
# 5 -17.9349 0.1364 -1.4270 10.4415 68.2485 1.9589
# 6 22.4599 11.2319 20.2761 -2.3066 1.9589 32.4434
#
#
#
# Elastic Compliance Matrix: (Units=1/GPa)
#
#
# Indices 1 2 3 4 5 6 
#
# 1 0.010525 -0.002997 -0.002475 -0.003803 0.003451 -0.005181
# 2 -0.002997 0.012823 -0.000934 -0.003065 -0.000307 -0.001980
# 3 -0.002475 -0.000934 0.007732 -0.002061 -0.000087 -0.002937
# 4 -0.003803 -0.003065 -0.002061 0.050261 -0.008987 0.009098
# 5 0.003451 -0.000307 -0.000087 -0.008987 0.017045 -0.003896
# 6 -0.005181 -0.001980 -0.002937 0.009098 -0.003896 0.037812
#
#
# Mechanical properties :
#
#
# Convention : Reuss Voigt Hill
#
# Bulk Modulus (GPa) = 54.74011 74.27419 64.50715
# Shear Modulus (GPa) = 32.23723 42.42592 37.33158
#
# Velocity S-wave (km/s) = 3.57106 4.09670 3.84288
# Velocity P-wave (km/s) = 6.21752 7.19436 6.72371
#
# Compressibility (1/GPa) = 0.01826814
#
# Stress axis : x y z
#
# Youngs Moduli (GPa) = 95.01028 77.98763 129.32510
#
# Poissons Ratio (x) = 0.23371 0.32009
# Poissons Ratio (y) = 0.28472 0.12082
# Poissons Ratio (z) = 0.23516 0.07286
#
# Static dielectric constant tensor:
#      x y z
#    x 0.865150 0.018480 -0.262120 
#    y 0.018480 1.974250 -0.016070 
#    z -0.262120 -0.016070 1.900020 
# 
# From -- ./inp_files/592707.got.cif
#   From: 2010.05.17/outbox.cif.g08.bks.cpg/sg2_297_cif.got.tgz:592707.got - 2010.06.03 11:33:40.
