data_PCOD9049441
_publ_section_title
;
Structure prediction by ZEFSAII (Michael W. Deem and Ramdas Pophale) SiO2 
 PCOD9049441
Probable space group: P -1
;
_chemical_formula_sum "Si O2"
_cell_formula_units_Z 12
_cell_length_a 5.894777
_cell_length_b 18.456047
_cell_length_c 15.507108
_cell_angle_alpha 160.448583
_cell_angle_beta 65.670709
_cell_angle_gamma 113.381101
_cell_volume 514.242374
_symmetry_space_group_name_H-M "P -1"
_symmetry_group_IT_number 2
_symmetry_cell_setting 'triclinic'
loop_
_space_group_symop_operation_xyz
x,y,z
-x,-y,-z
loop_
_atom_site_type_symbol
_atom_site_label
_atom_site_fract_x
_atom_site_fract_y
_atom_site_fract_z
Si Si1 0.592118 0.653075 0.032793
Si Si2 0.137855 0.651134 0.217741
Si Si3 0.601423 0.435811 0.214565
Si Si4 0.737315 0.885552 0.792683
Si Si5 0.979739 0.071964 0.798303
Si Si6 0.748899 0.613165 0.638053
O O1 0.387059 0.735172 0.223346
O O2 0.744478 0.839475 0.167413
O O3 0.767541 0.494171 0.880683
O O4 0.460162 0.529019 0.835486
O O5 0.971377 0.844319 0.493986
O O6 0.000000 0.500000 0.000000
O O7 0.663757 0.671257 0.508763
O O8 0.376570 0.332317 0.190734
O O9 0.810867 0.259368 0.996702
O O10 0.856538 0.790229 0.752947
O O11 0.896050 0.033279 0.867182
O O12 0.500000 0.000000 0.000000
O O13 0.500000 0.500000 0.500000
O O14 0.000000 0.500000 0.500000
#
# Coordination Sequence:
#
# PCOD9049441 Si02
#       6
#     2   2   2   2   2   2
#     4  11  26  45  73 112 143 191 247 316 381 459
#     4  11  26  50  76 103 148 189 248 310 389 467
#     4  11  26  45  72 106 152 194 251 315 374 455
#     4  11  24  48  73 110 150 206 253 308 380 452
#     4  12  25  45  75 106 150 191 253 307 387 447
#     4  10  24  46  74 104 156 205 257 317 378 454
#
# _framework density 23.3353
#
# number of rings (size 3 to 8) (size 9 to 14) (size 15 to 20)
#    0.000    1.000    1.667    3.500    7.000    6.667 
#    3.000    4.167    0.000    0.000    0.000    0.000 
#    0.000    0.000    0.000    0.000    0.000    0.000 
#
# Total GULP energy -66996.512283 kJ/mol
# GULP energy per Si atom -5583.042690 kJ/mol
# Density = 2.328219 g / cm^3
# Si number density = 23.335300 Si / 1000 Ang^3
#
#
#
# Elastic Constant Matrix: (Units=GPa)
#
#
# Indices 1 2 3 4 5 6 
#
# 1 100.8817 68.0602 55.6973 7.5854 -21.7986 -6.1392
# 2 68.0602 229.9495 52.4431 -4.4670 -0.6477 1.9588
# 3 55.6973 52.4431 144.1330 -11.7127 -14.7383 3.8451
# 4 7.5854 -4.4670 -11.7127 29.8848 14.7913 -6.9729
# 5 -21.7986 -0.6477 -14.7383 14.7913 30.6981 4.8216
# 6 -6.1392 1.9588 3.8451 -6.9729 4.8216 52.7134
#
#
#
# Elastic Compliance Matrix: (Units=1/GPa)
#
#
# Indices 1 2 3 4 5 6 
#
# 1 0.024944 -0.006249 -0.006550 -0.023026 0.025813 -0.001792
# 2 -0.006249 0.006331 -0.000159 0.006324 -0.007517 0.000573
# 3 -0.006550 -0.000159 0.009766 0.007061 -0.003332 -0.000230
# 4 -0.023026 0.006324 0.007061 0.068930 -0.047617 0.010042
# 5 0.025813 -0.007517 -0.003332 -0.047617 0.073582 -0.009501
# 6 -0.001792 0.000573 -0.000230 0.010042 -0.009501 0.020955
#
#
# Mechanical properties :
#
#
# Convention : Reuss Voigt Hill
#
# Bulk Modulus (GPa) = 66.10535 91.92948 79.01741
# Shear Modulus (GPa) = 21.23452 42.57683 31.90568
#
# Velocity S-wave (km/s) = 3.01985 4.27613 3.70167
# Velocity P-wave (km/s) = 6.36783 7.99130 7.22531
#
# Compressibility (1/GPa) = 0.01512737
#
# Stress axis : x y z
#
# Youngs Moduli (GPa) = 40.08943 157.94543 102.39453
#
# Poissons Ratio (x) = 0.98694 0.67064
# Poissons Ratio (y) = 0.25050 0.01628
# Poissons Ratio (z) = 0.26257 0.02512
#
# Static dielectric constant tensor:
#      x y z
#    x 1.936030 0.053740 0.014700 
#    y 0.053740 1.905010 0.017790 
#    z 0.014700 0.017790 1.877490 
# 
# From -- ./inp_files/4044.got.cif
#   From: 2010.05.17/outbox.cif.g08.bks.cpg/sg2_3_cif.got.tgz:4044.got - 2010.06.03 11:33:40.
