data_PCOD9049601
_publ_section_title
;
Structure prediction by ZEFSAII (Michael W. Deem and Ramdas Pophale) SiO2 
 PCOD9049601
Probable space group: P -1
;
_chemical_formula_sum "Si O2"
_cell_formula_units_Z 16
_cell_length_a 17.903508
_cell_length_b 5.375845
_cell_length_c 9.432630
_cell_angle_alpha 133.082103
_cell_angle_beta 86.796148
_cell_angle_gamma 84.761023
_cell_volume 651.520503
_symmetry_space_group_name_H-M "P -1"
_symmetry_group_IT_number 2
_symmetry_cell_setting 'triclinic'
loop_
_space_group_symop_operation_xyz
x,y,z
-x,-y,-z
loop_
_atom_site_type_symbol
_atom_site_label
_atom_site_fract_x
_atom_site_fract_y
_atom_site_fract_z
Si Si1 0.455840 0.752067 0.819334
Si Si2 0.094196 0.111637 0.425870
Si Si3 0.422827 0.789617 0.515190
Si Si4 0.309491 0.464381 0.777599
Si Si5 0.816139 0.276727 0.340994
Si Si6 0.750066 0.326525 0.843319
Si Si7 0.301495 0.383547 0.326768
Si Si8 0.041039 0.165513 0.782291
O O1 0.444808 0.877202 0.706149
O O2 0.507143 0.367232 0.652798
O O3 0.374324 0.705226 0.870921
O O4 0.500000 0.000000 0.000000
O O5 0.132335 0.438905 0.516813
O O6 0.067747 0.169633 0.615739
O O7 0.162459 0.787940 0.260428
O O8 0.023430 0.073880 0.318932
O O9 0.380530 0.457004 0.405938
O O10 0.359491 0.098434 0.585624
O O11 0.242107 0.611190 0.735381
O O12 0.267665 0.451428 0.926249
O O13 0.761206 0.291780 0.485713
O O14 0.880820 0.950630 0.185755
O O15 0.703064 0.554744 0.815670
O O16 0.720971 0.966806 0.746378
O O17 0.000000 0.500000 0.000000
#
# Coordination Sequence:
#
# PCOD9049601 Si02
#       8
#     2   2   2   2   2   2   2   2
#     4  11  26  49  73 108 153 199 255 315 391 455
#     4  10  24  47  68 108 146 202 241 320 380 456
#     4  11  25  46  76 105 152 197 258 311 390 456
#     4  12  27  45  76 113 147 203 258 319 380 465
#     4  11  24  47  73 103 153 194 258 312 382 451
#     4  11  26  44  78 111 155 199 259 316 390 456
#     4  11  23  47  74 108 151 205 250 323 380 461
#     4  11  25  45  76 104 150 195 259 306 390 450
#
# _framework density 24.557935000000001
#
# number of rings (size 3 to 8) (size 9 to 14) (size 15 to 20)
#    0.000    1.000    2.500    3.000    5.250    2.000 
#    2.250    0.000    0.000    0.000    0.000    0.000 
#    0.000    0.000    0.000    0.000    0.000    0.000 
#
# Total GULP energy -89483.985427 kJ/mol
# GULP energy per Si atom -5592.749089 kJ/mol
# Density = 2.450204 g / cm^3
# Si number density = 24.557935 Si / 1000 Ang^3
#
#
#
# Elastic Constant Matrix: (Units=GPa)
#
#
# Indices 1 2 3 4 5 6 
#
# 1 166.1693 45.1696 64.2080 -2.7602 -1.7325 -14.4632
# 2 45.1696 90.3019 43.7718 -3.8741 -1.9781 -24.6181
# 3 64.2080 43.7718 141.5548 -7.4643 -21.1984 -21.1495
# 4 -2.7602 -3.8741 -7.4643 44.1237 -8.1003 -1.4105
# 5 -1.7325 -1.9781 -21.1984 -8.1003 49.3860 6.3320
# 6 -14.4632 -24.6181 -21.1495 -1.4105 6.3320 47.6737
#
#
#
# Elastic Compliance Matrix: (Units=1/GPa)
#
#
# Indices 1 2 3 4 5 6 
#
# 1 0.007833 -0.002552 -0.002981 -0.000456 -0.001166 -0.000122
# 2 -0.002552 0.015403 -0.002865 0.000650 -0.001379 0.006111
# 3 -0.002981 -0.002865 0.010318 0.002160 0.004349 0.001680
# 4 -0.000456 0.000650 0.002160 0.023961 0.004708 0.001239
# 5 -0.001166 -0.001379 0.004349 0.004708 0.023055 -0.002060
# 6 -0.000122 0.006111 0.001680 0.001239 -0.002060 0.025150
#
#
# Mechanical properties :
#
#
# Convention : Reuss Voigt Hill
#
# Bulk Modulus (GPa) = 59.66670 78.25831 68.96250
# Shear Modulus (GPa) = 39.03139 44.56178 41.79659
#
# Velocity S-wave (km/s) = 3.99100 4.26438 4.12996
# Velocity P-wave (km/s) = 6.75178 7.49551 7.13334
#
# Compressibility (1/GPa) = 0.01675977
#
# Stress axis : x y z
#
# Youngs Moduli (GPa) = 127.66459 64.92420 96.91380
#
# Poissons Ratio (x) = 0.16566 0.28889
# Poissons Ratio (y) = 0.32576 0.27761
# Poissons Ratio (z) = 0.38056 0.18598
#
# Static dielectric constant tensor:
#      x y z
#    x 2.019960 0.031600 -0.011740 
#    y 0.031600 2.020980 0.050370 
#    z -0.011740 0.050370 1.987530 
# 
# From -- ./inp_files/324243.got.cif
#   From: 2010.05.17/outbox.cif.g08.bks.cpg/sg2_163_cif.got.tgz:324243.got - 2010.06.03 11:33:40.
