data_PCOD9049765
_publ_section_title
;
Structure prediction by ZEFSAII (Michael W. Deem and Ramdas Pophale) SiO2 
 PCOD9049765
Probable space group: P -1
;
_chemical_formula_sum "Si O2"
_cell_formula_units_Z 13
_cell_length_a 10.726676
_cell_length_b 9.282538
_cell_length_c 10.389719
_cell_angle_alpha 48.248854
_cell_angle_beta 45.669447
_cell_angle_gamma 47.179901
_cell_volume 505.577075
_symmetry_space_group_name_H-M "P -1"
_symmetry_group_IT_number 2
_symmetry_cell_setting 'triclinic'
loop_
_space_group_symop_operation_xyz
x,y,z
-x,-y,-z
loop_
_atom_site_type_symbol
_atom_site_label
_atom_site_fract_x
_atom_site_fract_y
_atom_site_fract_z
Si Si1 0.500000 0.000000 0.500000
Si Si2 0.587807 0.400721 0.132219
Si Si3 0.209258 0.163993 0.051982
Si Si4 0.886770 0.359533 0.375279
Si Si5 0.974041 0.750765 0.118216
Si Si6 0.919167 0.753806 0.434563
Si Si7 0.554757 0.279953 0.728781
O O1 0.418320 0.822390 0.700505
O O2 0.691233 0.867937 0.533355
O O3 0.467860 0.562117 0.231704
O O4 0.500000 0.500000 0.000000
O O5 0.805504 0.375503 0.997550
O O6 0.028914 0.297588 0.189601
O O7 0.326740 0.957973 0.170352
O O8 0.348375 0.281777 0.850573
O O9 0.139772 0.107090 0.001729
O O10 0.692877 0.331797 0.500678
O O11 0.866541 0.590449 0.296360
O O12 0.988571 0.220958 0.511957
O O13 0.967627 0.835998 0.215266
O O14 0.000000 0.500000 0.500000
#
# Coordination Sequence:
#
# PCOD9049765 Si02
#       7
#     1   2   2   2   2   2   2
#     4  12  28  44  80 118 150 214 268 322 422 468
#     4  12  26  49  76 115 156 200 265 337 392 479
#     4  11  26  46  74 113 149 209 252 308 405 473
#     4  11  22  47  74 104 156 205 250 327 392 460
#     4  11  24  46  75 107 157 194 260 324 387 468
#     4  10  24  47  73 112 153 200 263 329 382 472
#     4  11  26  47  74 106 159 200 255 321 390 476
#
# _framework density 25.713193
#
# number of rings (size 3 to 8) (size 9 to 14) (size 15 to 20)
#    0.000    0.923    1.538    5.538    4.308    2.462 
#    2.769    0.000    0.000    0.000    0.000    0.000 
#    0.000    0.000    0.000    0.000    0.000    0.000 
#
# Total GULP energy -72514.067567 kJ/mol
# GULP energy per Si atom -5578.005197 kJ/mol
# Density = 2.565467 g / cm^3
# Si number density = 25.713193 Si / 1000 Ang^3
#
#
#
# Elastic Constant Matrix: (Units=GPa)
#
#
# Indices 1 2 3 4 5 6 
#
# 1 128.2942 28.9732 75.9209 3.0749 -15.7925 -11.8670
# 2 28.9732 55.5318 29.6701 1.6340 -11.4450 -12.5985
# 3 75.9209 29.6701 142.9093 3.8580 -38.0483 12.3447
# 4 3.0749 1.6340 3.8580 39.8864 -3.1545 -13.5668
# 5 -15.7925 -11.4450 -38.0483 -3.1545 44.9527 6.0926
# 6 -11.8670 -12.5985 12.3447 -13.5668 6.0926 27.5104
#
#
#
# Elastic Compliance Matrix: (Units=1/GPa)
#
#
# Indices 1 2 3 4 5 6 
#
# 1 0.014613 0.000065 -0.010603 0.004384 -0.005477 0.014466
# 2 0.000065 0.025695 -0.007673 0.005839 -0.002037 0.018569
# 3 -0.010603 -0.007673 0.020337 -0.007974 0.014270 -0.024306
# 4 0.004384 0.005839 -0.007974 0.033664 -0.004860 0.025821
# 5 -0.005477 -0.002037 0.014270 -0.004860 0.034206 -0.019671
# 6 0.014466 0.018569 -0.024306 0.025821 -0.019671 0.079091
#
#
# Mechanical properties :
#
#
# Convention : Reuss Voigt Hill
#
# Bulk Modulus (GPa) = 41.28263 66.20707 53.74485
# Shear Modulus (GPa) = 19.83321 35.28130 27.55726
#
# Velocity S-wave (km/s) = 2.78029 3.70822 3.27726
# Velocity P-wave (km/s) = 5.13776 6.64370 5.93865
#
# Compressibility (1/GPa) = 0.02422326
#
# Stress axis : x y z
#
# Youngs Moduli (GPa) = 68.43086 38.91881 49.17034
#
# Poissons Ratio (x) = -0.00252 0.52135
# Poissons Ratio (y) = -0.00443 0.37728
# Poissons Ratio (z) = 0.72557 0.29862
#
# Static dielectric constant tensor:
#      x y z
#    x 1.982320 -0.000190 -0.010550 
#    y -0.000190 2.027810 -0.011930 
#    z -0.010550 -0.011930 2.077780 
# 
# From -- ./inp_files/210996.got.cif
#   From: 2010.05.17/outbox.cif.g08.bks.cpg/sg2_106_cif.got.tgz:210996.got - 2010.06.03 11:33:40.
