data_PCOD9049773
_publ_section_title
;
Structure prediction by ZEFSAII (Michael W. Deem and Ramdas Pophale) SiO2 
 PCOD9049773
Probable space group: P -1
;
_chemical_formula_sum "Si O2"
_cell_formula_units_Z 13
_cell_length_a 10.229338
_cell_length_b 8.814420
_cell_length_c 12.599666
_cell_angle_alpha 65.144956
_cell_angle_beta 147.917867
_cell_angle_gamma 101.829857
_cell_volume 519.892227
_symmetry_space_group_name_H-M "P -1"
_symmetry_group_IT_number 2
_symmetry_cell_setting 'triclinic'
loop_
_space_group_symop_operation_xyz
x,y,z
-x,-y,-z
loop_
_atom_site_type_symbol
_atom_site_label
_atom_site_fract_x
_atom_site_fract_y
_atom_site_fract_z
Si Si1 0.185793 0.484895 0.862679
Si Si2 0.777672 0.353400 0.750384
Si Si3 0.090727 0.758669 0.885602
Si Si4 0.404431 0.875820 0.769788
Si Si5 0.000000 0.500000 0.500000
Si Si6 0.505301 0.089838 0.589174
Si Si7 0.852081 0.913953 0.272586
O O1 0.245969 0.629650 0.937787
O O2 0.032575 0.557512 0.628537
O O3 0.002031 0.403728 0.830236
O O4 0.447614 0.330422 0.063483
O O5 0.500000 0.500000 0.500000
O O6 0.723881 0.182899 0.714957
O O7 0.839631 0.322494 0.926717
O O8 0.791070 0.781797 0.644576
O O9 0.141499 0.945383 0.855964
O O10 0.123721 0.898337 0.522346
O O11 0.542993 0.959650 0.752072
O O12 0.363445 0.984979 0.818607
O O13 0.121598 0.285751 0.680760
O O14 0.500000 0.000000 0.500000
#
# Coordination Sequence:
#
# PCOD9049773 Si02
#       7
#     2   2   2   2   1   2   2
#     4  12  27  46  76 112 151 201 254 312 374 451
#     4  12  28  46  78 114 154 203 251 309 373 454
#     4  11  26  52  76 109 155 204 250 311 379 448
#     4  10  24  47  74 103 149 197 247 306 379 447
#     4  12  28  46  76 114 146 192 264 312 378 454
#     4  11  25  45  75 110 153 199 253 312 371 446
#     4  10  25  49  74 105 146 196 250 312 379 445
#
# _framework density 25.005182999999999
#
# number of rings (size 3 to 8) (size 9 to 14) (size 15 to 20)
#    0.000    0.923    1.538    4.154    8.615    5.538 
#    0.000    0.000    0.000    0.000    0.000    0.000 
#    0.000    0.000    0.000    0.000    0.000    0.000 
#
# Total GULP energy -72628.208929 kJ/mol
# GULP energy per Si atom -5586.785302 kJ/mol
# Density = 2.494827 g / cm^3
# Si number density = 25.005183 Si / 1000 Ang^3
#
#
#
# Elastic Constant Matrix: (Units=GPa)
#
#
# Indices 1 2 3 4 5 6 
#
# 1 127.8863 46.3596 39.0168 -5.1174 -29.6581 0.5021
# 2 46.3596 147.4045 16.6557 -10.5842 -9.9658 -0.8534
# 3 39.0168 16.6557 100.3634 -13.4771 -26.1515 0.4044
# 4 -5.1174 -10.5842 -13.4771 38.5858 -7.4427 -9.2784
# 5 -29.6581 -9.9658 -26.1515 -7.4427 57.8875 5.3970
# 6 0.5021 -0.8534 0.4044 -9.2784 5.3970 43.7981
#
#
#
# Elastic Compliance Matrix: (Units=1/GPa)
#
#
# Indices 1 2 3 4 5 6 
#
# 1 0.010503 -0.002730 -0.002579 0.000352 0.003843 -0.000549
# 2 -0.002730 0.007791 0.000078 0.001976 0.000178 0.000579
# 3 -0.002579 0.000078 0.013030 0.005334 0.005227 0.000397
# 4 0.000352 0.001976 0.005334 0.030984 0.006377 0.005763
# 5 0.003843 0.000178 0.005227 0.006377 0.022597 -0.001523
# 6 -0.000549 0.000579 0.000397 0.005763 -0.001523 0.024254
#
#
# Mechanical properties :
#
#
# Convention : Reuss Voigt Hill
#
# Bulk Modulus (GPa) = 47.93561 64.41317 56.17439
# Shear Modulus (GPa) = 39.50127 46.29575 42.89851
#
# Velocity S-wave (km/s) = 3.97889 4.30751 4.14646
# Velocity P-wave (km/s) = 6.34985 7.11023 6.74077
#
# Compressibility (1/GPa) = 0.02086132
#
# Stress axis : x y z
#
# Youngs Moduli (GPa) = 95.20702 128.35129 76.74341
#
# Poissons Ratio (x) = 0.35040 0.19795
# Poissons Ratio (y) = 0.25992 -0.00596
# Poissons Ratio (z) = 0.24558 -0.00996
#
# Static dielectric constant tensor:
#      x y z
#    x 2.019890 0.008920 0.070250 
#    y 0.008920 2.030070 -0.064240 
#    z 0.070250 -0.064240 2.047350 
# 
# From -- ./inp_files/381552.got.cif
#   From: 2010.05.17/outbox.cif.g08.bks.cpg/sg2_191_cif.got.tgz:381552.got - 2010.06.03 11:33:40.
