data_PCOD9049161
_publ_section_title
;
Structure prediction by ZEFSAII (Michael W. Deem and Ramdas Pophale) SiO2 
 PCOD9049161
Probable space group: P -1
;
_chemical_formula_sum "Si O2"
_cell_formula_units_Z 16
_cell_length_a 13.556964
_cell_length_b 14.388184
_cell_length_c 15.168702
_cell_angle_alpha 148.424234
_cell_angle_beta 146.054505
_cell_angle_gamma 56.805336
_cell_volume 725.537686
_symmetry_space_group_name_H-M "P -1"
_symmetry_group_IT_number 2
_symmetry_cell_setting 'triclinic'
loop_
_space_group_symop_operation_xyz
x,y,z
-x,-y,-z
loop_
_atom_site_type_symbol
_atom_site_label
_atom_site_fract_x
_atom_site_fract_y
_atom_site_fract_z
Si Si1 0.424238 0.146039 0.957302
Si Si2 0.838455 0.273361 0.480352
Si Si3 0.346434 0.362385 0.693272
Si Si4 0.680957 0.252746 0.070330
Si Si5 0.056629 0.643188 0.069823
Si Si6 0.697531 0.708344 0.859963
Si Si7 0.505540 0.894456 0.510206
Si Si8 0.935116 0.136151 0.288504
O O1 0.637142 0.210324 0.220343
O O2 0.361555 0.287006 0.078183
O O3 0.472768 0.161745 0.903728
O O4 0.244498 0.907706 0.654799
O O5 0.006769 0.271766 0.541054
O O6 0.929900 0.490201 0.770545
O O7 0.434361 0.273473 0.612911
O O8 0.134687 0.154791 0.407034
O O9 0.500000 0.500000 0.000000
O O10 0.275108 0.517712 0.731780
O O11 0.654227 0.103174 0.848568
O O12 0.845979 0.239839 0.243135
O O13 0.931703 0.757188 0.079217
O O14 0.295033 0.773534 0.317201
O O15 0.000000 0.500000 0.000000
O O16 0.500000 0.500000 0.500000
O O17 0.742770 0.906452 0.992956
O O18 0.500000 0.000000 0.500000
#
# Coordination Sequence:
#
# PCOD9049161 Si02
#       8
#     2   2   2   2   2   2   2   2
#     4   9  19  39  65  96 131 175 222 285 348 408
#     4   9  18  39  64  91 136 172 212 288 348 402
#     4  12  25  47  73  99 142 190 233 286 367 417
#     4  11  25  44  74  99 142 180 246 288 351 423
#     4  12  26  41  68 103 141 180 241 287 355 430
#     4  11  23  41  71 103 140 182 232 295 364 415
#     4  12  27  48  69 101 149 190 233 300 358 426
#     4  10  24  46  70 102 135 181 240 294 351 428
#
# _framework density 22.052610999999999
#
# number of rings (size 3 to 8) (size 9 to 14) (size 15 to 20)
#    0.000    1.250    2.500    3.375    3.500    0.500 
#    0.000    1.875    0.000    0.000    0.000    0.000 
#    0.000    0.000    0.000    0.000    0.000    0.000 
#
# Total GULP energy -89131.361012 kJ/mol
# GULP energy per Si atom -5570.710063 kJ/mol
# Density = 2.200242 g / cm^3
# Si number density = 22.052611 Si / 1000 Ang^3
#
#
#
# Elastic Constant Matrix: (Units=GPa)
#
#
# Indices 1 2 3 4 5 6 
#
# 1 161.5019 27.2460 40.3465 3.2124 5.4371 -16.1008
# 2 27.2460 79.4420 18.9911 17.4197 7.3676 -1.5983
# 3 40.3465 18.9911 49.5803 10.4284 -6.2069 -6.5124
# 4 3.2124 17.4197 10.4284 10.9924 -9.5374 0.7915
# 5 5.4371 7.3676 -6.2069 -9.5374 34.1098 5.5472
# 6 -16.1008 -1.5983 -6.5124 0.7915 5.5472 39.0189
#
#
#
# Elastic Compliance Matrix: (Units=1/GPa)
#
#
# Indices 1 2 3 4 5 6 
#
# 1 0.008634 -0.003547 -0.007613 0.010826 0.000735 0.001823
# 2 -0.003547 0.034393 0.004669 -0.085258 -0.030968 0.006856
# 3 -0.007613 0.004669 0.033319 -0.042617 -0.006360 0.004380
# 4 0.010826 -0.085258 -0.042617 0.366402 0.116279 -0.030101
# 5 0.000735 -0.030968 -0.006360 0.116279 0.069565 -0.014275
# 6 0.001823 0.006856 0.004380 -0.030101 -0.014275 0.030032
#
#
# Mechanical properties :
#
#
# Convention : Reuss Voigt Hill
#
# Bulk Modulus (GPa) = 15.78186 51.52127 33.65156
# Shear Modulus (GPa) = 8.67380 30.42026 19.54703
#
# Velocity S-wave (km/s) = 1.98539 3.71811 2.98045
# Velocity P-wave (km/s) = 3.52529 6.46885 5.20931
#
# Compressibility (1/GPa) = 0.06336388
#
# Stress axis : x y z
#
# Youngs Moduli (GPa) = 115.82526 29.07570 30.01288
#
# Poissons Ratio (x) = 0.10312 0.22849
# Poissons Ratio (y) = 0.41079 -0.14012
# Poissons Ratio (z) = 0.88178 -0.13575
#
# Static dielectric constant tensor:
#      x y z
#    x 2.059980 -0.059320 -0.003500 
#    y -0.059320 1.885280 0.011150 
#    z -0.003500 0.011150 1.842680 
# 
# From -- ./inp_files/522702.got.cif
#   From: 2010.05.17/outbox.cif.g08.bks.cpg/sg2_262_cif.got.tgz:522702.got - 2010.06.03 11:33:40.
