data_PCOD9049702
_publ_section_title
;
Structure prediction by ZEFSAII (Michael W. Deem and Ramdas Pophale) SiO2 
 PCOD9049702
Probable space group: P -1
;
_chemical_formula_sum "Si O2"
_cell_formula_units_Z 16
_cell_length_a 9.185262
_cell_length_b 9.936635
_cell_length_c 10.625642
_cell_angle_alpha 120.089645
_cell_angle_beta 56.197895
_cell_angle_gamma 90.558042
_cell_volume 646.567293
_symmetry_space_group_name_H-M "P -1"
_symmetry_group_IT_number 2
_symmetry_cell_setting 'triclinic'
loop_
_space_group_symop_operation_xyz
x,y,z
-x,-y,-z
loop_
_atom_site_type_symbol
_atom_site_label
_atom_site_fract_x
_atom_site_fract_y
_atom_site_fract_z
Si Si1 0.760496 0.614442 0.819715
Si Si2 0.109928 0.629017 0.985340
Si Si3 0.553561 0.659644 0.411687
Si Si4 0.805919 0.903799 0.794688
Si Si5 0.271073 0.195587 0.825020
Si Si6 0.525409 0.101921 0.226103
Si Si7 0.626233 0.318008 0.912968
Si Si8 0.800361 0.251697 0.552644
O O1 0.858416 0.723238 0.753327
O O2 0.834721 0.419771 0.659633
O O3 0.757659 0.658621 0.988800
O O4 0.536854 0.704770 0.935373
O O5 0.288687 0.526579 0.764911
O O6 0.203638 0.676157 0.083674
O O7 0.000000 0.500000 0.000000
O O8 0.941546 0.790954 0.090817
O O9 0.637406 0.766696 0.327938
O O10 0.532199 0.721535 0.593552
O O11 0.352591 0.689293 0.457691
O O12 0.656056 0.912137 0.761799
O O13 0.004552 0.894737 0.642659
O O14 0.697371 0.041902 0.015552
O O15 0.397688 0.028645 0.756766
O O16 0.702716 0.206493 0.700941
O O17 0.500000 0.500000 0.000000
#
# Coordination Sequence:
#
# PCOD9049702 Si02
#       8
#     2   2   2   2   2   2   2   2
#     4  10  19  39  63  91 126 155 197 256 306 362
#     4  10  19  32  60 100 120 153 192 255 314 353
#     4  11  20  37  63  95 124 150 200 262 306 351
#     4  10  24  42  62  81 120 176 208 236 302 370
#     4  10  21  38  63  94 124 159 200 248 313 359
#     4  10  24  44  59  79 126 173 204 244 294 373
#     4  10  17  34  60  94 128 146 189 264 304 353
#     4  11  20  36  63  98 119 153 203 258 308 350
#
# _framework density 24.74607
#
# number of rings (size 3 to 8) (size 9 to 14) (size 15 to 20)
#    0.000    1.750    3.750    3.000    5.250    0.500 
#    0.000    7.500    0.000    0.000    0.000    0.000 
#    0.000    0.000    0.000    0.000    0.000    0.000 
#
# Total GULP energy -89439.229487 kJ/mol
# GULP energy per Si atom -5589.951843 kJ/mol
# Density = 2.468975 g / cm^3
# Si number density = 24.746070 Si / 1000 Ang^3
#
#
#
# Elastic Constant Matrix: (Units=GPa)
#
#
# Indices 1 2 3 4 5 6 
#
# 1 138.6526 -9.9366 64.3438 4.2457 -5.6650 -9.4755
# 2 -9.9366 44.9015 10.5418 1.5021 -2.4148 -9.6781
# 3 64.3438 10.5418 187.0681 -7.4190 -3.8828 0.7786
# 4 4.2457 1.5021 -7.4190 20.5635 4.8604 -3.6422
# 5 -5.6650 -2.4148 -3.8828 4.8604 44.3853 3.2002
# 6 -9.4755 -9.6781 0.7786 -3.6422 3.2002 20.3013
#
#
#
# Elastic Compliance Matrix: (Units=1/GPa)
#
#
# Indices 1 2 3 4 5 6 
#
# 1 0.009839 0.004554 -0.003759 -0.002862 0.001039 0.006230
# 2 0.004554 0.027337 -0.003217 -0.001683 0.000902 0.014837
# 3 -0.003759 -0.003217 0.006949 0.003028 -0.000163 -0.002985
# 4 -0.002862 -0.001683 0.003028 0.053496 -0.006655 0.008392
# 5 0.001039 0.000902 -0.000163 -0.006655 0.023715 -0.004011
# 6 0.006230 0.014837 -0.002985 0.008392 -0.004011 0.061492
#
#
# Mechanical properties :
#
#
# Convention : Reuss Voigt Hill
#
# Bulk Modulus (GPa) = 25.45687 55.61334 40.53511
# Shear Modulus (GPa) = 24.90493 37.42824 31.16659
#
# Velocity S-wave (km/s) = 3.17585 3.89330 3.55273
# Velocity P-wave (km/s) = 4.87418 6.53703 5.76586
#
# Compressibility (1/GPa) = 0.03928212
#
# Stress axis : x y z
#
# Youngs Moduli (GPa) = 101.63867 36.58068 143.90839
#
# Poissons Ratio (x) = -0.16660 0.54090
# Poissons Ratio (y) = -0.46289 0.46292
# Poissons Ratio (z) = 0.38203 0.11767
#
# Static dielectric constant tensor:
#      x y z
#    x 1.987910 0.044920 -0.044260 
#    y 0.044920 2.094280 -0.011230 
#    z -0.044260 -0.011230 1.987760 
# 
# From -- ./inp_files/397724.got.cif
#   From: 2010.05.17/outbox.cif.g08.bks.cpg/sg2_199_cif.got.tgz:397724.got - 2010.06.03 11:33:40.
