data_PCOD9049058
_publ_section_title
;
Structure prediction by ZEFSAII (Michael W. Deem and Ramdas Pophale) SiO2 
 PCOD9049058
Probable space group: P -1
;
_chemical_formula_sum "Si O2"
_cell_formula_units_Z 16
_cell_length_a 7.749828
_cell_length_b 6.682023
_cell_length_c 17.216748
_cell_angle_alpha 105.181514
_cell_angle_beta 91.664419
_cell_angle_gamma 121.248157
_cell_volume 720.780577
_symmetry_space_group_name_H-M "P -1"
_symmetry_group_IT_number 2
_symmetry_cell_setting 'triclinic'
loop_
_space_group_symop_operation_xyz
x,y,z
-x,-y,-z
loop_
_atom_site_type_symbol
_atom_site_label
_atom_site_fract_x
_atom_site_fract_y
_atom_site_fract_z
Si Si1 0.667874 0.536197 0.308019
Si Si2 0.949317 0.450108 0.404514
Si Si3 0.727555 0.472203 0.700392
Si Si4 0.105361 0.986167 0.730040
Si Si5 0.881255 0.421300 0.859883
Si Si6 0.380944 0.097594 0.147924
Si Si7 0.295377 0.326200 0.029707
Si Si8 0.738040 0.066967 0.114108
O O1 0.788940 0.515218 0.378651
O O2 0.500009 0.603816 0.330820
O O3 0.835679 0.753232 0.275751
O O4 0.534088 0.273125 0.235661
O O5 0.000000 0.500000 0.500000
O O6 0.155926 0.593455 0.368063
O O7 0.860448 0.165390 0.351527
O O8 0.748014 0.385251 0.776823
O O9 0.872941 0.775191 0.731991
O O10 0.242649 0.018796 0.809127
O O11 0.821343 0.537972 0.940842
O O12 0.110248 0.638394 0.862301
O O13 0.827575 0.153373 0.855189
O O14 0.348378 0.268362 0.108648
O O15 0.510235 0.005159 0.094623
O O16 0.500000 0.500000 0.000000
O O17 0.191676 0.067576 0.956645
#
# Coordination Sequence:
#
# PCOD9049058 Si02
#       8
#     2   2   2   2   2   2   2   2
#     4  12  21  41  74  91 133 186 205 271 347 379
#     4  10  24  46  68 102 136 164 219 276 327 407
#     4   9  22  43  66  98 130 167 225 265 323 405
#     4   9  22  44  63  98 134 163 224 268 322 410
#     4  11  23  43  62  92 130 166 227 270 311 397
#     4  12  24  40  65  94 124 178 222 261 331 385
#     4  12  24  41  62  92 135 170 220 280 318 372
#     4  11  22  43  62  91 131 173 213 278 326 371
#
# _framework density 22.198156000000001
#
# number of rings (size 3 to 8) (size 9 to 14) (size 15 to 20)
#    0.750    0.500    3.750    2.250    0.000    3.500 
#    2.250    0.625    0.000    0.000    0.000    0.000 
#    0.000    0.000    0.000    0.000    0.000    0.000 
#
# Total GULP energy -89408.626125 kJ/mol
# GULP energy per Si atom -5588.039133 kJ/mol
# Density = 2.214763 g / cm^3
# Si number density = 22.198156 Si / 1000 Ang^3
#
#
#
# Elastic Constant Matrix: (Units=GPa)
#
#
# Indices 1 2 3 4 5 6 
#
# 1 59.2750 -0.1461 5.3400 -1.2776 -0.7484 3.2950
# 2 -0.1461 99.7615 -1.8955 -25.2785 8.4772 14.8381
# 3 5.3400 -1.8955 82.1794 0.7760 -0.0040 2.7456
# 4 -1.2776 -25.2785 0.7760 15.7241 -4.6607 -7.4170
# 5 -0.7484 8.4772 -0.0040 -4.6607 26.3984 2.1963
# 6 3.2950 14.8381 2.7456 -7.4170 2.1963 18.9102
#
#
#
# Elastic Compliance Matrix: (Units=1/GPa)
#
#
# Indices 1 2 3 4 5 6 
#
# 1 0.017169 0.000760 -0.001014 0.001504 0.000753 -0.002938
# 2 0.000760 0.017123 0.000216 0.025778 -0.000642 -0.003414
# 3 -0.001014 0.000216 0.012332 -0.001503 -0.000166 -0.002354
# 4 0.001504 0.025778 -0.001503 0.120629 0.010917 0.025774
# 5 0.000753 -0.000642 -0.000166 0.010917 0.040034 0.000029
# 6 -0.002938 -0.003414 -0.002354 0.025774 0.000029 0.066520
#
#
# Mechanical properties :
#
#
# Convention : Reuss Voigt Hill
#
# Bulk Modulus (GPa) = 21.48275 27.53474 24.50874
# Shear Modulus (GPa) = 17.27716 28.06770 22.67243
#
# Velocity S-wave (km/s) = 2.79286 3.55972 3.19935
# Velocity P-wave (km/s) = 4.48317 5.41539 4.97118
#
# Compressibility (1/GPa) = 0.04654898
#
# Stress axis : x y z
#
# Youngs Moduli (GPa) = 58.24448 58.39935 81.08858
#
# Poissons Ratio (x) = -0.04439 0.08223
# Poissons Ratio (y) = -0.04427 -0.01753
# Poissons Ratio (z) = 0.05907 -0.01263
#
# Static dielectric constant tensor:
#      x y z
#    x 1.854030 -0.006920 -0.043250 
#    y -0.006920 1.854390 0.032160 
#    z -0.043250 0.032160 1.785430 
# 
# From -- ./inp_files/552694.got.cif
#   From: 2010.05.17/outbox.cif.g08.bks.cpg/sg2_277_cif.got.tgz:552694.got - 2010.06.03 11:33:40.
