data_PCOD9049035
_publ_section_title
;
Structure prediction by ZEFSAII (Michael W. Deem and Ramdas Pophale) SiO2 
 PCOD9049035
Probable space group: P -1
;
_chemical_formula_sum "Si O2"
_cell_formula_units_Z 15
_cell_length_a 8.090869
_cell_length_b 15.129104
_cell_length_c 6.324333
_cell_angle_alpha 65.903613
_cell_angle_beta 74.536861
_cell_angle_gamma 72.461492
_cell_volume 664.605064
_symmetry_space_group_name_H-M "P -1"
_symmetry_group_IT_number 2
_symmetry_cell_setting 'triclinic'
loop_
_space_group_symop_operation_xyz
x,y,z
-x,-y,-z
loop_
_atom_site_type_symbol
_atom_site_label
_atom_site_fract_x
_atom_site_fract_y
_atom_site_fract_z
Si Si1 0.856361 0.954100 0.708289
Si Si2 0.500000 0.000000 0.500000
Si Si3 0.040684 0.743393 0.031947
Si Si4 0.191749 0.611288 0.721336
Si Si5 0.383037 0.927146 0.017121
Si Si6 0.894433 0.608376 0.508144
Si Si7 0.376708 0.717226 0.224350
Si Si8 0.619610 0.575465 0.956171
O O1 0.687334 0.960143 0.608184
O O2 0.937227 0.842928 0.863365
O O3 0.801159 0.021710 0.868886
O O4 0.000000 0.000000 0.500000
O O5 0.400775 0.934245 0.754687
O O6 0.156180 0.672587 0.888212
O O7 0.185969 0.757935 0.140176
O O8 0.904854 0.685268 0.243480
O O9 0.339533 0.643733 0.493019
O O10 0.236663 0.495300 0.876065
O O11 0.013393 0.636784 0.626395
O O12 0.437761 0.814607 0.188088
O O13 0.500000 0.000000 0.000000
O O14 0.000000 0.500000 0.500000
O O15 0.711392 0.606417 0.685083
O O16 0.508702 0.660765 0.057119
O O17 0.500000 0.500000 0.000000
#
# Coordination Sequence:
#
# PCOD9049035 Si02
#       8
#     2   1   2   2   2   2   2   2
#     4  11  24  45  74  99 139 187 236 300 359 419
#     4  10  24  46  68  98 142 172 242 292 356 424
#     4  11  24  43  71 104 134 192 240 282 366 425
#     4  11  23  45  68 100 143 183 236 287 350 430
#     4  10  24  46  67 101 144 182 234 299 353 427
#     4  11  24  44  68  98 149 182 237 292 345 432
#     4  11  24  42  70 102 139 185 239 292 354 427
#     4  12  23  45  69 103 141 189 230 293 355 417
#
# _framework density 22.569793000000001
#
# number of rings (size 3 to 8) (size 9 to 14) (size 15 to 20)
#    0.000    1.067    2.667    3.200    0.000    8.533 
#    4.800    0.000    0.000    0.000    0.000    0.000 
#    0.000    0.000    0.000    0.000    0.000    0.000 
#
# Total GULP energy -83582.811455 kJ/mol
# GULP energy per Si atom -5572.187430 kJ/mol
# Density = 2.251842 g / cm^3
# Si number density = 22.569793 Si / 1000 Ang^3
#
#
#
# Elastic Constant Matrix: (Units=GPa)
#
#
# Indices 1 2 3 4 5 6 
#
# 1 88.6192 34.2631 48.4077 -4.5673 -9.5790 -12.9821
# 2 34.2631 107.1840 42.2827 -20.9053 -24.6879 -11.7118
# 3 48.4077 42.2827 164.1560 -21.6970 -43.7296 -22.3534
# 4 -4.5673 -20.9053 -21.6970 34.0295 -13.0271 0.3943
# 5 -9.5790 -24.6879 -43.7296 -13.0271 55.7099 0.7681
# 6 -12.9821 -11.7118 -22.3534 0.3943 0.7681 34.2921
#
#
#
# Elastic Compliance Matrix: (Units=1/GPa)
#
#
# Indices 1 2 3 4 5 6 
#
# 1 0.015501 -0.005362 -0.005531 -0.006921 -0.005679 0.000639
# 2 -0.005362 0.016496 0.003885 0.016925 0.013318 0.005644
# 3 -0.005531 0.003885 0.014162 0.016574 0.015653 0.007923
# 4 -0.006921 0.016925 0.016574 0.062173 0.033687 0.012495
# 5 -0.005679 0.013318 0.015653 0.033687 0.042885 0.011254
# 6 0.000639 0.005644 0.007923 0.012495 0.011254 0.036099
#
#
# Mechanical properties :
#
#
# Convention : Reuss Voigt Hill
#
# Bulk Modulus (GPa) = 31.10928 67.76292 49.43610
# Shear Modulus (GPa) = 23.57976 40.47335 32.02655
#
# Velocity S-wave (km/s) = 3.23576 4.23928 3.77105
# Velocity P-wave (km/s) = 5.27008 7.35193 6.39627
#
# Compressibility (1/GPa) = 0.03214475
#
# Stress axis : x y z
#
# Youngs Moduli (GPa) = 64.51013 60.61974 70.61393
#
# Poissons Ratio (x) = 0.32503 0.39056
# Poissons Ratio (y) = 0.34589 -0.27437
# Poissons Ratio (z) = 0.35680 -0.23553
#
# Static dielectric constant tensor:
#      x y z
#    x 1.917210 0.020240 0.019620 
#    y 0.020240 1.839790 0.033670 
#    z 0.019620 0.033670 1.859330 
# 
# From -- ./inp_files/36833.got.cif
#   From: 2010.05.17/outbox.cif.g08.bks.cpg/sg2_19_cif.got.tgz:36833.got - 2010.06.03 11:33:40.
