data_PCOD9049039
_publ_section_title
;
Structure prediction by ZEFSAII (Michael W. Deem and Ramdas Pophale) SiO2 
 PCOD9049039
Probable space group: P -1
;
_chemical_formula_sum "Si O2"
_cell_formula_units_Z 15
_cell_length_a 10.852705
_cell_length_b 20.448833
_cell_length_c 5.188173
_cell_angle_alpha 52.384915
_cell_angle_beta 111.288913
_cell_angle_gamma 141.009259
_cell_volume 559.356473
_symmetry_space_group_name_H-M "P -1"
_symmetry_group_IT_number 2
_symmetry_cell_setting 'triclinic'
loop_
_space_group_symop_operation_xyz
x,y,z
-x,-y,-z
loop_
_atom_site_type_symbol
_atom_site_label
_atom_site_fract_x
_atom_site_fract_y
_atom_site_fract_z
Si Si1 0.631465 0.509889 0.807341
Si Si2 0.843935 0.469185 0.755141
Si Si3 0.758379 0.288975 0.777775
Si Si4 0.439943 0.067638 0.730622
Si Si5 0.000000 0.000000 0.500000
Si Si6 0.229766 0.281149 0.937882
Si Si7 0.007916 0.735504 0.837574
Si Si8 0.183305 0.978574 0.245677
O O1 0.702721 0.469975 0.770095
O O2 0.411720 0.379513 0.049016
O O3 0.656397 0.612406 0.451698
O O4 0.812823 0.595797 0.938012
O O5 0.710650 0.342676 0.793930
O O6 0.010991 0.589478 0.414976
O O7 0.000000 0.500000 0.000000
O O8 0.629582 0.211913 0.612992
O O9 0.785337 0.217528 0.128755
O O10 0.356423 0.038684 0.448057
O O11 0.500000 0.000000 0.000000
O O12 0.276289 0.031171 0.901194
O O13 0.942316 0.015481 0.697752
O O14 0.156048 0.153301 0.181255
O O15 0.040471 0.247978 0.961815
O O16 0.044119 0.833215 0.459085
#
# Coordination Sequence:
#
# PCOD9049039 Si02
#       8
#     2   2   2   2   1   2   2   2
#     4  11  23  41  77  99 142 185 252 305 375 445
#     4  11  24  41  67 101 140 186 238 308 372 447
#     4  11  25  41  66 102 144 189 241 304 380 448
#     4  12  27  46  75 111 149 194 252 309 378 461
#     4  10  26  52  74 106 152 202 252 314 382 448
#     4  10  24  46  67 106 138 191 248 312 372 445
#     4  11  22  43  70  99 142 186 248 305 378 445
#     4  11  28  47  75 110 149 201 250 311 377 456
#
# _framework density 26.816528999999999
#
# number of rings (size 3 to 8) (size 9 to 14) (size 15 to 20)
#    0.000    1.067    4.000    0.800    9.333    0.533 
#    2.400    0.000    0.000    0.000    0.000    0.000 
#    0.000    0.000    0.000    0.000    0.000    0.000 
#
# Total GULP energy -83580.564740 kJ/mol
# GULP energy per Si atom -5572.037649 kJ/mol
# Density = 2.675549 g / cm^3
# Si number density = 26.816529 Si / 1000 Ang^3
#
#
#
# Elastic Constant Matrix: (Units=GPa)
#
#
# Indices 1 2 3 4 5 6 
#
# 1 128.1142 25.6793 19.6925 -9.1358 -16.2537 -19.7665
# 2 25.6793 177.4019 40.4984 -24.6453 10.0958 -24.0472
# 3 19.6925 40.4984 80.1527 -16.7228 -2.2095 -7.2105
# 4 -9.1358 -24.6453 -16.7228 43.3336 -3.8808 -3.2937
# 5 -16.2537 10.0958 -2.2095 -3.8808 28.0869 2.2259
# 6 -19.7665 -24.0472 -7.2105 -3.2937 2.2259 39.9922
#
#
#
# Elastic Compliance Matrix: (Units=1/GPa)
#
#
# Indices 1 2 3 4 5 6 
#
# 1 0.009582 -0.000630 -0.001091 0.002052 0.005651 0.004015
# 2 -0.000630 0.007527 -0.002707 0.003134 -0.003180 0.004161
# 3 -0.001091 -0.002707 0.015143 0.004320 0.002066 0.000804
# 4 0.002052 0.003134 0.004320 0.027735 0.003777 0.005752
# 5 0.005651 -0.003180 0.002066 0.003777 0.040757 -0.000704
# 6 0.004015 0.004161 0.000804 0.005752 -0.000704 0.030149
#
#
# Mechanical properties :
#
#
# Convention : Reuss Voigt Hill
#
# Bulk Modulus (GPa) = 42.74453 61.93436 52.33944
# Shear Modulus (GPa) = 33.88721 42.26912 38.07816
#
# Velocity S-wave (km/s) = 3.55867 3.97449 3.77231
# Velocity P-wave (km/s) = 5.73234 6.64889 6.20756
#
# Compressibility (1/GPa) = 0.02339481
#
# Stress axis : x y z
#
# Youngs Moduli (GPa) = 104.35912 132.85990 66.03813
#
# Poissons Ratio (x) = 0.08375 0.07202
# Poissons Ratio (y) = 0.06579 0.17880
# Poissons Ratio (z) = 0.11382 0.35971
#
# Static dielectric constant tensor:
#      x y z
#    x 2.277520 0.076540 0.209700 
#    y 0.076540 2.189480 0.111100 
#    z 0.209700 0.111100 2.330770 
# 
# From -- ./inp_files/77950.got.cif
#   From: 2010.05.17/outbox.cif.g08.bks.cpg/sg2_39_cif.got.tgz:77950.got - 2010.06.03 11:33:40.
