data_PCOD9049772
_publ_section_title
;
Structure prediction by ZEFSAII (Michael W. Deem and Ramdas Pophale) SiO2 
 PCOD9049772
Probable space group: P -1
;
_chemical_formula_sum "Si O2"
_cell_formula_units_Z 13
_cell_length_a 8.996857
_cell_length_b 11.929512
_cell_length_c 8.943478
_cell_angle_alpha 128.984043
_cell_angle_beta 101.146729
_cell_angle_gamma 113.501924
_cell_volume 535.157544
_symmetry_space_group_name_H-M "P -1"
_symmetry_group_IT_number 2
_symmetry_cell_setting 'triclinic'
loop_
_space_group_symop_operation_xyz
x,y,z
-x,-y,-z
loop_
_atom_site_type_symbol
_atom_site_label
_atom_site_fract_x
_atom_site_fract_y
_atom_site_fract_z
Si Si1 0.193608 0.522648 0.041758
Si Si2 0.155020 0.286620 0.363053
Si Si3 0.728380 0.703148 0.267100
Si Si4 0.000000 0.500000 0.500000
Si Si5 0.663476 0.239636 0.455648
Si Si6 0.312504 0.133123 0.090280
Si Si7 0.579976 0.870388 0.227763
O O1 0.307972 0.611600 0.297419
O O2 0.347351 0.687485 0.084821
O O3 0.134158 0.322308 0.818227
O O4 0.000000 0.500000 0.000000
O O5 0.228799 0.290463 0.545751
O O6 0.288096 0.280387 0.266226
O O7 0.152206 0.455598 0.482969
O O8 0.916630 0.082853 0.124907
O O9 0.729288 0.869389 0.358297
O O10 0.500000 0.500000 0.000000
O O11 0.868550 0.346143 0.486570
O O12 0.466042 0.141374 0.231252
O O13 0.622678 0.067411 0.397274
O O14 0.389586 0.168690 0.966344
#
# Coordination Sequence:
#
# PCOD9049772 Si02
#       7
#     2   2   2   1   2   2   2
#     4  11  26  47  74 108 146 193 248 303 372 437
#     4  11  26  49  73 112 144 200 243 305 370 442
#     4  10  24  47  74 103 148 190 243 304 370 435
#     4  12  28  46  78 106 154 186 254 306 368 436
#     4  12  27  48  75 110 146 200 243 312 366 438
#     4  11  26  47  75 106 147 194 248 301 372 439
#     4  11  25  49  74 109 148 196 243 306 370 438
#
# _framework density 24.291913000000001
#
# number of rings (size 3 to 8) (size 9 to 14) (size 15 to 20)
#    0.000    0.923    1.538    3.692    8.615    1.231 
#    2.769    0.000    0.000    0.000    0.000    0.000 
#    0.000    0.000    0.000    0.000    0.000    0.000 
#
# Total GULP energy -72612.989478 kJ/mol
# GULP energy per Si atom -5585.614575 kJ/mol
# Density = 2.423662 g / cm^3
# Si number density = 24.291913 Si / 1000 Ang^3
#
#
#
# Elastic Constant Matrix: (Units=GPa)
#
#
# Indices 1 2 3 4 5 6 
#
# 1 103.0174 10.8401 -5.6139 5.9667 -18.4143 -3.3579
# 2 10.8401 76.8859 -3.4749 15.3286 2.5770 -10.2566
# 3 -5.6139 -3.4749 61.5101 -8.2596 6.3985 7.8337
# 4 5.9667 15.3286 -8.2596 37.5073 3.5650 0.6536
# 5 -18.4143 2.5770 6.3985 3.5650 41.8024 0.0256
# 6 -3.3579 -10.2566 7.8337 0.6536 0.0256 59.7161
#
#
#
# Elastic Compliance Matrix: (Units=1/GPa)
#
#
# Indices 1 2 3 4 5 6 
#
# 1 0.010850 -0.001312 0.000129 -0.001641 0.004980 0.000384
# 2 -0.001312 0.014712 -0.000298 -0.005824 -0.000944 0.002556
# 3 0.000129 -0.000298 0.017435 0.004263 -0.002956 -0.002377
# 4 -0.001641 -0.005824 0.004263 0.030621 -0.003627 -0.001985
# 5 0.004980 -0.000944 -0.002956 -0.003627 0.026936 0.000534
# 6 0.000384 0.002556 -0.002377 -0.001985 0.000534 0.017540
#
#
# Mechanical properties :
#
#
# Convention : Reuss Voigt Hill
#
# Bulk Modulus (GPa) = 24.97923 27.21287 26.09605
# Shear Modulus (GPa) = 37.20218 43.78265 40.49242
#
# Velocity S-wave (km/s) = 3.91764 4.25002 4.08721
# Velocity P-wave (km/s) = 5.54699 5.94225 5.74802
#
# Compressibility (1/GPa) = 0.04003326
#
# Stress axis : x y z
#
# Youngs Moduli (GPa) = 92.16551 67.97338 57.35594
#
# Poissons Ratio (x) = 0.08921 -0.00739
# Poissons Ratio (y) = 0.12096 0.01709
# Poissons Ratio (z) = -0.01187 0.02026
#
# Static dielectric constant tensor:
#      x y z
#    x 1.962830 -0.007230 0.011040 
#    y -0.007230 1.922580 0.033390 
#    z 0.011040 0.033390 1.984280 
# 
# From -- ./inp_files/183350.got.cif
#   From: 2010.05.17/outbox.cif.g08.bks.cpg/sg2_92_cif.got.tgz:183350.got - 2010.06.03 11:33:40.
