data_PCOD9049177
_publ_section_title
;
Structure prediction by ZEFSAII (Michael W. Deem and Ramdas Pophale) SiO2 
 PCOD9049177
Probable space group: P -1
;
_chemical_formula_sum "Si O2"
_cell_formula_units_Z 14
_cell_length_a 8.979983
_cell_length_b 5.190655
_cell_length_c 18.339963
_cell_angle_alpha 49.765181
_cell_angle_beta 60.356115
_cell_angle_gamma 74.295079
_cell_volume 565.653705
_symmetry_space_group_name_H-M "P -1"
_symmetry_group_IT_number 2
_symmetry_cell_setting 'triclinic'
loop_
_space_group_symop_operation_xyz
x,y,z
-x,-y,-z
loop_
_atom_site_type_symbol
_atom_site_label
_atom_site_fract_x
_atom_site_fract_y
_atom_site_fract_z
Si Si1 0.375624 0.428448 0.799834
Si Si2 0.343417 0.716090 0.021807
Si Si3 0.991934 0.592761 0.068176
Si Si4 0.271829 0.619296 0.219570
Si Si5 0.220400 0.539519 0.519559
Si Si6 0.914318 0.052947 0.656337
Si Si7 0.580949 0.383183 0.409057
O O1 0.193454 0.574240 0.833678
O O2 0.558160 0.568285 0.763107
O O3 0.386789 0.458042 0.706073
O O4 0.360962 0.051594 0.906481
O O5 0.500000 0.500000 0.000000
O O6 0.327941 0.805068 0.095455
O O7 0.164846 0.505096 0.082176
O O8 0.000000 0.500000 0.000000
O O9 0.000000 0.000000 0.000000
O O10 0.202968 0.809157 0.273371
O O11 0.129240 0.337731 0.278093
O O12 0.128323 0.777721 0.442520
O O13 0.419243 0.573865 0.442140
O O14 0.248147 0.601164 0.586849
O O15 0.108774 0.184144 0.603854
O O16 0.500000 0.000000 0.500000
#
# Coordination Sequence:
#
# PCOD9049177 Si02
#       7
#     2   2   2   2   2   2   2
#     4  11  24  47  73 107 154 194 249 312 370 447
#     4  11  25  46  75 110 149 197 248 307 374 448
#     4  10  24  46  70 105 144 192 243 301 369 438
#     4  12  25  44  73 109 145 192 247 293 379 431
#     4  10  25  45  71 105 145 187 250 299 369 434
#     4  11  26  45  75 107 146 191 240 311 359 439
#     4  11  24  46  73 106 144 196 245 300 377 438
#
# _framework density 24.750126999999999
#
# number of rings (size 3 to 8) (size 9 to 14) (size 15 to 20)
#    0.000    1.143    1.429    3.000    4.000    5.714 
#   12.857    0.000    0.000    0.000    0.000    0.000 
#    0.000    0.000    0.000    0.000    0.000    0.000 
#
# Total GULP energy -78226.976996 kJ/mol
# GULP energy per Si atom -5587.641214 kJ/mol
# Density = 2.469380 g / cm^3
# Si number density = 24.750127 Si / 1000 Ang^3
#
#
#
# Elastic Constant Matrix: (Units=GPa)
#
#
# Indices 1 2 3 4 5 6 
#
# 1 181.4790 41.6642 62.6025 30.1229 -0.9080 23.6140
# 2 41.6642 68.8014 30.1300 9.5191 5.9278 14.4738
# 3 62.6025 30.1300 143.9456 20.5933 20.8360 9.3668
# 4 30.1229 9.5191 20.5933 44.8853 -3.3123 -4.8933
# 5 -0.9080 5.9278 20.8360 -3.3123 58.5319 12.7358
# 6 23.6140 14.4738 9.3668 -4.8933 12.7358 39.9831
#
#
#
# Elastic Compliance Matrix: (Units=1/GPa)
#
#
# Indices 1 2 3 4 5 6 
#
# 1 0.008236 -0.002558 -0.002440 -0.004211 0.002000 -0.004519
# 2 -0.002558 0.018270 -0.002129 -0.001713 -0.000195 -0.004751
# 3 -0.002440 -0.002129 0.009222 -0.002301 -0.003422 0.000859
# 4 -0.004211 -0.001713 -0.002301 0.027326 0.001024 0.006664
# 5 0.002000 -0.000195 -0.003422 0.001024 0.019826 -0.006499
# 6 -0.004519 -0.004751 0.000859 0.006664 -0.006499 0.032084
#
#
# Mechanical properties :
#
#
# Convention : Reuss Voigt Hill
#
# Bulk Modulus (GPa) = 46.56693 73.66882 60.11788
# Shear Modulus (GPa) = 36.66352 46.00201 41.33277
#
# Velocity S-wave (km/s) = 3.85300 4.31589 4.09100
# Velocity P-wave (km/s) = 6.21690 7.39362 6.83064
#
# Compressibility (1/GPa) = 0.02147447
#
# Stress axis : x y z
#
# Youngs Moduli (GPa) = 121.41718 54.73585 108.43224
#
# Poissons Ratio (x) = 0.14003 0.26452
# Poissons Ratio (y) = 0.31062 0.23085
# Poissons Ratio (z) = 0.29620 0.11653
#
# Static dielectric constant tensor:
#      x y z
#    x 1.806860 -0.265530 -0.299330 
#    y -0.265530 1.787650 -0.265360 
#    z -0.299330 -0.265360 1.654000 
# 
# From -- ./inp_files/553142.got.cif
#   From: 2010.05.17/outbox.cif.g08.bks.cpg/sg2_277_cif.got.tgz:553142.got - 2010.06.03 11:33:40.
