data_PCOD9049786
_publ_section_title
;
Structure prediction by ZEFSAII (Michael W. Deem and Ramdas Pophale) SiO2 
 PCOD9049786
Probable space group: P -1
;
_chemical_formula_sum "Si O2"
_cell_formula_units_Z 8
_cell_length_a 9.622115
_cell_length_b 5.041835
_cell_length_c 7.446925
_cell_angle_alpha 115.796634
_cell_angle_beta 73.495666
_cell_angle_gamma 109.992458
_cell_volume 301.735295
_symmetry_space_group_name_H-M "P -1"
_symmetry_group_IT_number 2
_symmetry_cell_setting 'triclinic'
loop_
_space_group_symop_operation_xyz
x,y,z
-x,-y,-z
loop_
_atom_site_type_symbol
_atom_site_label
_atom_site_fract_x
_atom_site_fract_y
_atom_site_fract_z
Si Si1 0.087200 0.328876 0.140903
Si Si2 0.340452 0.043251 0.513166
Si Si3 0.389528 0.709771 0.051397
Si Si4 0.167667 0.466556 0.565984
O O1 0.230751 0.465627 0.000656
O O2 0.135175 0.317496 0.333872
O O3 0.979609 0.562086 0.269263
O O4 0.000000 0.000000 0.000000
O O5 0.325124 0.876605 0.281529
O O6 0.222857 0.827966 0.621944
O O7 0.500000 0.000000 0.500000
O O8 0.302655 0.358868 0.578081
O O9 0.500000 0.500000 0.000000
O O10 0.500000 0.000000 0.000000
#
# Coordination Sequence:
#
# PCOD9049786 Si02
#       4
#     2   2   2   2
#     4  10  24  48  79 113 148 201 247 312 378 443
#     4  11  24  47  73 103 148 201 242 306 379 435
#     4  11  25  46  73 107 151 189 247 309 365 447
#     4  10  24  47  74 107 149 191 257 308 360 453
#
# _framework density 26.513303000000001
#
# number of rings (size 3 to 8) (size 9 to 14) (size 15 to 20)
#    0.000    1.500    0.000    3.750    3.500   11.000 
#    4.500   12.500    0.000    0.000    0.000    0.000 
#    0.000    0.000    0.000    0.000    0.000    0.000 
#
# Total GULP energy -44637.496460 kJ/mol
# GULP energy per Si atom -5579.687058 kJ/mol
# Density = 2.645296 g / cm^3
# Si number density = 26.513303 Si / 1000 Ang^3
#
#
#
# Elastic Constant Matrix: (Units=GPa)
#
#
# Indices 1 2 3 4 5 6 
#
# 1 168.3812 70.1494 35.9068 -16.1551 -25.3244 1.3762
# 2 70.1494 209.4981 50.9289 -8.6030 -16.3707 14.4761
# 3 35.9068 50.9289 124.1438 -0.0901 -14.1972 7.8269
# 4 -16.1551 -8.6030 -0.0901 25.0013 14.6103 -13.9756
# 5 -25.3244 -16.3707 -14.1972 14.6103 45.3651 9.8464
# 6 1.3762 14.4761 7.8269 -13.9756 9.8464 65.1806
#
#
#
# Elastic Compliance Matrix: (Units=1/GPa)
#
#
# Indices 1 2 3 4 5 6 
#
# 1 0.007671 -0.002045 -0.001244 0.003807 0.001712 0.000999
# 2 -0.002045 0.006013 -0.001675 -0.000609 0.000998 -0.001372
# 3 -0.001244 -0.001675 0.009690 -0.004937 0.003845 -0.002405
# 4 0.003807 -0.000609 -0.004937 0.067877 -0.025640 0.019075
# 5 0.001712 0.000998 0.003845 -0.025640 0.035328 -0.011554
# 6 0.000999 -0.001372 -0.002405 0.019075 -0.011554 0.021750
#
#
# Mechanical properties :
#
#
# Convention : Reuss Voigt Hill
#
# Bulk Modulus (GPa) = 74.37544 90.66591 82.52068
# Shear Modulus (GPa) = 30.72413 50.11193 40.41803
#
# Velocity S-wave (km/s) = 3.40784 4.35221 3.90865
# Velocity P-wave (km/s) = 6.60284 7.71532 7.18066
#
# Compressibility (1/GPa) = 0.01344530
#
# Stress axis : x y z
#
# Youngs Moduli (GPa) = 130.36611 166.30306 103.19894
#
# Poissons Ratio (x) = 0.34009 0.12840
# Poissons Ratio (y) = 0.26660 0.17287
# Poissons Ratio (z) = 0.16220 0.27858
#
# Static dielectric constant tensor:
#      x y z
#    x 0.575730 -0.245930 -0.463570 
#    y -0.245930 2.206900 -0.191570 
#    z -0.463570 -0.191570 1.832860 
# 
# From -- ./inp_files/20677.got.cif
#   From: 2010.05.17/outbox.cif.g08.bks.cpg/sg2_11_cif.got.tgz:20677.got - 2010.06.03 11:33:40.
