data_PCOD9049325
_publ_section_title
;
Structure prediction by ZEFSAII (Michael W. Deem and Ramdas Pophale) SiO2 
 PCOD9049325
Probable space group: P -1
;
_chemical_formula_sum "Si O2"
_cell_formula_units_Z 12
_cell_length_a 10.196319
_cell_length_b 9.812282
_cell_length_c 4.833021
_cell_angle_alpha 75.946999
_cell_angle_beta 106.709504
_cell_angle_gamma 74.269669
_cell_volume 417.923617
_symmetry_space_group_name_H-M "P -1"
_symmetry_group_IT_number 2
_symmetry_cell_setting 'triclinic'
loop_
_space_group_symop_operation_xyz
x,y,z
-x,-y,-z
loop_
_atom_site_type_symbol
_atom_site_label
_atom_site_fract_x
_atom_site_fract_y
_atom_site_fract_z
Si Si1 0.867053 0.596632 0.071219
Si Si2 0.911336 0.131626 0.668424
Si Si3 0.712681 0.451547 0.427113
Si Si4 0.162220 0.203964 0.528647
Si Si5 0.629422 0.106058 0.190949
Si Si6 0.507311 0.703828 0.519770
O O1 0.816461 0.751213 0.789659
O O2 0.767315 0.501274 0.151922
O O3 0.887546 0.656976 0.356718
O O4 0.000000 0.500000 0.000000
O O5 0.840207 0.298584 0.684047
O O6 0.028296 0.145367 0.511929
O O7 0.770428 0.117026 0.436992
O O8 0.000000 0.000000 0.000000
O O9 0.658071 0.596283 0.523233
O O10 0.570474 0.404881 0.345141
O O11 0.589568 0.203194 0.841161
O O12 0.315425 0.069831 0.764748
O O13 0.499546 0.180435 0.296111
#
# Coordination Sequence:
#
# PCOD9049325 Si02
#       6
#     2   2   2   2   2   2
#     4  12  26  45  67 104 146 190 225 286 356 435
#     4  11  23  43  73 106 141 183 231 301 356 407
#     4  10  24  46  72 105 141 185 244 284 358 415
#     4  12  25  44  68 103 145 184 233 284 360 423
#     4  11  24  47  71 105 142 183 243 292 353 411
#     4  10  24  46  75 102 136 190 240 302 336 411
#
# _framework density 28.713379
#
# number of rings (size 3 to 8) (size 9 to 14) (size 15 to 20)
#    0.000    1.000    1.667    5.000    0.000   12.667 
#    0.000    5.000    0.000    0.000    0.000    0.000 
#    0.000    0.000    0.000    0.000    0.000    0.000 
#
# Total GULP energy -67272.351261 kJ/mol
# GULP energy per Si atom -5606.029272 kJ/mol
# Density = 2.864803 g / cm^3
# Si number density = 28.713379 Si / 1000 Ang^3
#
#
#
# Elastic Constant Matrix: (Units=GPa)
#
#
# Indices 1 2 3 4 5 6 
#
# 1 197.8192 46.8396 63.0781 -8.8315 -50.2893 -16.3641
# 2 46.8396 168.1462 68.8893 -3.3417 -17.2056 -54.4175
# 3 63.0781 68.8893 229.7437 -28.2948 -34.7887 -5.1125
# 4 -8.8315 -3.3417 -28.2948 64.8051 -0.6346 -7.1633
# 5 -50.2893 -17.2056 -34.7887 -0.6346 48.6184 12.0200
# 6 -16.3641 -54.4175 -5.1125 -7.1633 12.0200 56.5212
#
#
#
# Elastic Compliance Matrix: (Units=1/GPa)
#
#
# Indices 1 2 3 4 5 6 
#
# 1 0.007236 -0.001274 -0.000496 0.000711 0.006821 -0.000537
# 2 -0.001274 0.010480 -0.002868 0.000192 -0.002116 0.009936
# 3 -0.000496 -0.002868 0.006092 0.002165 0.003560 -0.002837
# 4 0.000711 0.000192 0.002165 0.016755 0.002007 0.002283
# 5 0.006821 -0.002116 0.003560 0.002007 0.030949 -0.006067
# 6 -0.000537 0.009936 -0.002837 0.002283 -0.006067 0.028426
#
#
# Mechanical properties :
#
#
# Convention : Reuss Voigt Hill
#
# Bulk Modulus (GPa) = 68.81863 105.92480 87.37172
# Shear Modulus (GPa) = 43.83663 61.78241 52.80952
#
# Velocity S-wave (km/s) = 3.91154 4.64367 4.29324
# Velocity P-wave (km/s) = 6.66481 8.10691 7.42097
#
# Compressibility (1/GPa) = 0.01453095
#
# Stress axis : x y z
#
# Youngs Moduli (GPa) = 138.18916 95.41755 164.15952
#
# Poissons Ratio (x) = 0.12158 0.08146
# Poissons Ratio (y) = 0.17608 0.47085
# Poissons Ratio (z) = 0.06857 0.27368
#
# Static dielectric constant tensor:
#      x y z
#    x 2.337430 0.044430 0.149530 
#    y 0.044430 2.398020 0.017490 
#    z 0.149530 0.017490 2.145940 
# 
# From -- ./inp_files/59443.got.cif
#   From: 2010.05.17/outbox.cif.g08.bks.cpg/sg2_30_cif.got.tgz:59443.got - 2010.06.03 11:33:40.
