data_PCOD9049826
_publ_section_title
;
Structure prediction by ZEFSAII (Michael W. Deem and Ramdas Pophale) SiO2 
 PCOD9049826
Probable space group: P -1
;
_chemical_formula_sum "Si O2"
_cell_formula_units_Z 12
_cell_length_a 5.917243
_cell_length_b 12.394044
_cell_length_c 10.839025
_cell_angle_alpha 120.419849
_cell_angle_beta 122.351327
_cell_angle_gamma 48.399634
_cell_volume 487.600930
_symmetry_space_group_name_H-M "P -1"
_symmetry_group_IT_number 2
_symmetry_cell_setting 'triclinic'
loop_
_space_group_symop_operation_xyz
x,y,z
-x,-y,-z
loop_
_atom_site_type_symbol
_atom_site_label
_atom_site_fract_x
_atom_site_fract_y
_atom_site_fract_z
Si Si1 0.546856 0.867370 0.851774
Si Si2 0.393485 0.244821 0.778262
Si Si3 0.327365 0.375687 0.082911
Si Si4 0.862585 0.900189 0.710784
Si Si5 0.652803 0.408789 0.617755
Si Si6 0.753688 0.660033 0.461003
O O1 0.753244 0.709479 0.888938
O O2 0.732440 0.873738 0.788769
O O3 0.198809 0.884936 0.773519
O O4 0.500000 0.000000 0.000000
O O5 0.381907 0.340774 0.713847
O O6 0.018218 0.310985 0.708269
O O7 0.602350 0.071992 0.706899
O O8 0.509084 0.269975 0.957636
O O9 0.479909 0.454706 0.243268
O O10 0.000000 0.500000 0.000000
O O11 0.861558 0.774197 0.557072
O O12 0.500000 0.500000 0.500000
O O13 0.548957 0.290501 0.515524
O O14 0.000000 0.500000 0.500000
#
# Coordination Sequence:
#
# PCOD9049826 Si02
#       6
#     2   2   2   2   2   2
#     4  12  26  51  77 111 154 199 251 314 387 451
#     4  11  26  46  70 112 150 198 258 315 379 450
#     4  10  24  47  75 111 148 198 256 317 373 454
#     4  12  29  48  78 113 154 200 255 314 382 458
#     4  11  23  46  74 107 152 199 258 311 383 450
#     4  12  26  45  74 106 149 204 251 320 379 455
#
# _framework density 24.610291
#
# number of rings (size 3 to 8) (size 9 to 14) (size 15 to 20)
#    0.000    0.667    3.333    3.000    7.000    1.333 
#    0.000    0.000    0.000    0.000    0.000    0.000 
#    0.000    0.000    0.000    0.000    0.000    0.000 
#
# Total GULP energy -66802.354233 kJ/mol
# GULP energy per Si atom -5566.862853 kJ/mol
# Density = 2.455428 g / cm^3
# Si number density = 24.610291 Si / 1000 Ang^3
#
#
#
# Elastic Constant Matrix: (Units=GPa)
#
#
# Indices 1 2 3 4 5 6 
#
# 1 128.4454 26.9517 54.6553 -2.5330 14.7780 16.0342
# 2 26.9517 133.6717 41.2093 -14.6412 6.2266 10.3076
# 3 54.6553 41.2093 145.5109 7.6862 2.8456 7.6281
# 4 -2.5330 -14.6412 7.6862 44.7379 8.5673 -1.0251
# 5 14.7780 6.2266 2.8456 8.5673 43.6499 4.2512
# 6 16.0342 10.3076 7.6281 -1.0251 4.2512 43.5431
#
#
#
# Elastic Compliance Matrix: (Units=1/GPa)
#
#
# Indices 1 2 3 4 5 6 
#
# 1 0.010120 -0.000412 -0.003568 0.001601 -0.003191 -0.002655
# 2 -0.000412 0.008882 -0.002452 0.003571 -0.001543 -0.001287
# 3 -0.003568 -0.002452 0.009022 -0.002843 0.001518 0.000098
# 4 0.001601 0.003571 -0.002843 0.025223 -0.005839 0.000227
# 5 -0.003191 -0.001543 0.001518 -0.005839 0.025388 -0.001342
# 6 -0.002655 -0.001287 0.000098 0.000227 -0.001342 0.024367
#
#
# Mechanical properties :
#
#
# Convention : Reuss Voigt Hill
#
# Bulk Modulus (GPa) = 65.95528 72.58448 69.26988
# Shear Modulus (GPa) = 41.35020 45.37363 43.36192
#
# Velocity S-wave (km/s) = 4.10347 4.29847 4.20210
# Velocity P-wave (km/s) = 7.02206 7.36162 7.19384
#
# Compressibility (1/GPa) = 0.01516179
#
# Stress axis : x y z
#
# Youngs Moduli (GPa) = 98.81481 112.58585 110.84040
#
# Poissons Ratio (x) = 0.04637 0.39542
# Poissons Ratio (y) = 0.04070 0.27175
# Poissons Ratio (z) = 0.35252 0.27603
#
# Static dielectric constant tensor:
#      x y z
#    x 2.104640 -0.099640 -0.012130 
#    y -0.099640 1.893320 0.052380 
#    z -0.012130 0.052380 2.042310 
# 
# From -- ./inp_files/365344.got.cif
#   From: 2010.05.17/outbox.cif.g08.bks.cpg/sg2_183_cif.got.tgz:365344.got - 2010.06.03 11:33:40.
