data_PCOD9049100
_publ_section_title
;
Structure prediction by ZEFSAII (Michael W. Deem and Ramdas Pophale) SiO2 
 PCOD9049100
Probable space group: P -1
;
_chemical_formula_sum "Si O2"
_cell_formula_units_Z 16
_cell_length_a 24.945072
_cell_length_b 9.597993
_cell_length_c 9.575965
_cell_angle_alpha 136.989668
_cell_angle_beta 150.759450
_cell_angle_gamma 43.290048
_cell_volume 735.650288
_symmetry_space_group_name_H-M "P -1"
_symmetry_group_IT_number 2
_symmetry_cell_setting 'triclinic'
loop_
_space_group_symop_operation_xyz
x,y,z
-x,-y,-z
loop_
_atom_site_type_symbol
_atom_site_label
_atom_site_fract_x
_atom_site_fract_y
_atom_site_fract_z
Si Si1 0.682000 0.147759 0.279024
Si Si2 0.225848 0.484049 0.327968
Si Si3 0.427513 0.632163 0.306162
Si Si4 0.212187 0.471858 0.604116
Si Si5 0.103018 0.693512 0.777946
Si Si6 0.850543 0.724519 0.244978
Si Si7 0.480822 0.242624 0.676431
Si Si8 0.718908 0.033313 0.588398
O O1 0.764128 0.302964 0.569380
O O2 0.657861 0.105351 0.353586
O O3 0.748171 0.924245 0.197726
O O4 0.573116 0.248891 0.009417
O O5 0.184623 0.532788 0.426337
O O6 0.355213 0.337627 0.518283
O O7 0.157413 0.354474 0.987912
O O8 0.500000 0.500000 0.500000
O O9 0.500078 0.645970 0.343685
O O10 0.365231 0.862501 0.400069
O O11 0.327580 0.529653 0.956086
O O12 0.116363 0.611113 0.589091
O O13 0.235167 0.219297 0.486794
O O14 0.155663 0.476588 0.823698
O O15 0.971413 0.772388 0.579410
O O16 0.175752 0.860587 0.087232
O O17 0.500000 0.000000 0.500000
#
# Coordination Sequence:
#
# PCOD9049100 Si02
#       8
#     2   2   2   2   2   2   2   2
#     4  12  24  42  68  98 130 177 223 262 328 396
#     4  12  25  44  67  98 137 175 217 270 329 395
#     4  11  26  42  62  96 139 175 219 269 324 389
#     4  11  25  44  65  97 136 171 216 274 332 390
#     4  10  24  46  68  99 133 166 225 284 325 388
#     4  11  24  44  71  98 130 174 221 278 331 390
#     4  12  25  43  68  97 139 177 218 271 322 393
#     4  11  24  42  69  96 130 176 220 270 329 394
#
# _framework density 21.749464
#
# number of rings (size 3 to 8) (size 9 to 14) (size 15 to 20)
#    0.000    0.750    5.000    1.875    5.250    2.500 
#    0.000    1.250    0.000    0.000    0.000    0.000 
#    0.000    0.000    0.000    0.000    0.000    0.000 
#
# Total GULP energy -89558.673058 kJ/mol
# GULP energy per Si atom -5597.417066 kJ/mol
# Density = 2.169996 g / cm^3
# Si number density = 21.749464 Si / 1000 Ang^3
#
#
#
# Elastic Constant Matrix: (Units=GPa)
#
#
# Indices 1 2 3 4 5 6 
#
# 1 86.2396 0.7817 2.9654 1.1332 -25.4669 9.3967
# 2 0.7817 36.3864 -1.4031 4.3489 1.4768 -0.2492
# 3 2.9654 -1.4031 52.9095 5.4132 -17.2647 -3.4129
# 4 1.1332 4.3489 5.4132 25.1897 -2.8728 -8.3809
# 5 -25.4669 1.4768 -17.2647 -2.8728 30.9889 3.3239
# 6 9.3967 -0.2492 -3.4129 -8.3809 3.3239 18.1180
#
#
#
# Elastic Compliance Matrix: (Units=1/GPa)
#
#
# Indices 1 2 3 4 5 6 
#
# 1 0.018723 -0.000578 0.004711 -0.004345 0.019177 -0.014359
# 2 -0.000578 0.028266 0.000678 -0.005702 -0.001813 -0.001489
# 3 0.004711 0.000678 0.024628 -0.004683 0.017466 -0.003165
# 4 -0.004345 -0.005702 -0.004683 0.049763 -0.003981 0.025042
# 5 0.019177 -0.001813 0.017466 -0.003981 0.059563 -0.019449
# 6 -0.014359 -0.001489 -0.003165 0.025042 -0.019449 0.077176
#
#
# Mechanical properties :
#
#
# Convention : Reuss Voigt Hill
#
# Bulk Modulus (GPa) = 12.30928 20.02484 16.16706
# Shear Modulus (GPa) = 18.14363 26.40543 22.27453
#
# Velocity S-wave (km/s) = 2.89140 3.48813 3.20369
# Velocity P-wave (km/s) = 4.10108 5.04478 4.59721
#
# Compressibility (1/GPa) = 0.08123954
#
# Stress axis : x y z
#
# Youngs Moduli (GPa) = 53.40886 35.37789 40.60381
#
# Poissons Ratio (x) = 0.02045 -0.19129
# Poissons Ratio (y) = 0.03087 -0.02751
# Poissons Ratio (z) = -0.25161 -0.02397
#
# Static dielectric constant tensor:
#      x y z
#    x 1.777760 0.010050 -0.017900 
#    y 0.010050 1.771680 0.008320 
#    z -0.017900 0.008320 1.796980 
# 
# From -- ./inp_files/216858.got.cif
#   From: 2010.05.17/outbox.cif.g08.bks.cpg/sg2_109_cif.got.tgz:216858.got - 2010.06.03 11:33:40.
