data_PCOD9049517
_publ_section_title
;
Structure prediction by ZEFSAII (Michael W. Deem and Ramdas Pophale) SiO2 
 PCOD9049517
Probable space group: P -1
;
_chemical_formula_sum "Si O2"
_cell_formula_units_Z 16
_cell_length_a 6.354700
_cell_length_b 9.778545
_cell_length_c 21.485775
_cell_angle_alpha 140.136905
_cell_angle_beta 67.988163
_cell_angle_gamma 130.577807
_cell_volume 628.350877
_symmetry_space_group_name_H-M "P -1"
_symmetry_group_IT_number 2
_symmetry_cell_setting 'triclinic'
loop_
_space_group_symop_operation_xyz
x,y,z
-x,-y,-z
loop_
_atom_site_type_symbol
_atom_site_label
_atom_site_fract_x
_atom_site_fract_y
_atom_site_fract_z
Si Si1 0.621333 0.009539 0.634701
Si Si2 0.108501 0.803391 0.089600
Si Si3 0.523374 0.703177 0.708547
Si Si4 0.247127 0.468482 0.777995
Si Si5 0.816822 0.599092 0.535565
Si Si6 0.056579 0.795947 0.448351
Si Si7 0.598176 0.708504 0.178848
Si Si8 0.971941 0.213497 0.046233
O O1 0.669925 0.102360 0.589051
O O2 0.428923 0.073601 0.712690
O O3 0.934325 0.204141 0.699645
O O4 0.486102 0.697823 0.549330
O O5 0.855137 0.818564 0.141848
O O6 0.173581 0.885162 0.039311
O O7 0.353441 0.997952 0.180623
O O8 0.000000 0.500000 0.000000
O O9 0.474634 0.554942 0.728107
O O10 0.738588 0.707168 0.639584
O O11 0.344738 0.422486 0.815857
O O12 0.191855 0.691725 0.866455
O O13 0.205109 0.512304 0.648631
O O14 0.000000 0.500000 0.500000
O O15 0.018202 0.792935 0.524797
O O16 0.000000 0.000000 0.500000
O O17 0.299168 0.483119 0.100045
O O18 0.000000 0.000000 0.000000
#
# Coordination Sequence:
#
# PCOD9049517 Si02
#       8
#     2   2   2   2   2   2   2   2
#     4  10  25  47  72 113 149 196 249 312 369 450
#     4  12  26  46  72 109 149 196 248 309 373 441
#     4  11  26  44  73 106 145 196 249 298 373 443
#     4  10  24  46  76 109 149 198 246 311 375 442
#     4  12  27  46  74 111 149 193 250 307 374 448
#     4  11  25  49  77 106 148 198 249 310 376 447
#     4  11  24  46  75 106 150 192 247 309 376 441
#     4  11  25  47  73 106 146 194 251 306 372 444
#
# _framework density 25.463481000000002
#
# number of rings (size 3 to 8) (size 9 to 14) (size 15 to 20)
#    0.000    1.000    2.500    2.250    5.250    4.500 
#    9.000    0.000    0.000    0.000    0.000    0.000 
#    0.000    0.000    0.000    0.000    0.000    0.000 
#
# Total GULP energy -89580.278604 kJ/mol
# GULP energy per Si atom -5598.767413 kJ/mol
# Density = 2.540552 g / cm^3
# Si number density = 25.463481 Si / 1000 Ang^3
#
#
#
# Elastic Constant Matrix: (Units=GPa)
#
#
# Indices 1 2 3 4 5 6 
#
# 1 65.8654 32.9170 38.0252 2.2729 3.4955 11.6220
# 2 32.9170 140.5867 70.5800 -11.0000 -7.6955 -1.4535
# 3 38.0252 70.5800 188.6782 8.5302 -14.0698 5.3980
# 4 2.2729 -11.0000 8.5302 56.5727 0.5852 -2.0017
# 5 3.4955 -7.6955 -14.0698 0.5852 31.0420 5.4645
# 6 11.6220 -1.4535 5.3980 -2.0017 5.4645 52.7715
#
#
#
# Elastic Compliance Matrix: (Units=1/GPa)
#
#
# Indices 1 2 3 4 5 6 
#
# 1 0.019391 -0.003508 -0.002704 -0.001149 -0.003595 -0.003762
# 2 -0.003508 0.009710 -0.002989 0.002514 0.001167 0.001320
# 3 -0.002704 -0.002989 0.007278 -0.001622 0.002999 -0.000603
# 4 -0.001149 0.002514 -0.001622 0.018506 -0.000551 0.001247
# 5 -0.003595 0.001167 0.002999 -0.000551 0.034826 -0.003110
# 6 -0.003762 0.001320 -0.000603 0.001247 -0.003110 0.020246
#
#
# Mechanical properties :
#
#
# Convention : Reuss Voigt Hill
#
# Bulk Modulus (GPa) = 55.63440 75.35276 65.49358
# Shear Modulus (GPa) = 37.21607 44.98445 41.10026
#
# Velocity S-wave (km/s) = 3.82717 4.20769 4.02193
# Velocity P-wave (km/s) = 6.43628 7.29814 6.88072
#
# Compressibility (1/GPa) = 0.01797449
#
# Stress axis : x y z
#
# Youngs Moduli (GPa) = 51.56987 102.99088 137.40956
#
# Poissons Ratio (x) = 0.36132 0.37157
# Poissons Ratio (y) = 0.18092 0.41078
# Poissons Ratio (z) = 0.13945 0.30789
#
# Static dielectric constant tensor:
#      x y z
#    x 2.153290 0.035250 0.073730 
#    y 0.035250 2.034010 0.014980 
#    z 0.073730 0.014980 2.056740 
# 
# From -- ./inp_files/582577.got.cif
#   From: 2010.05.17/outbox.cif.g08.bks.cpg/sg2_292_cif.got.tgz:582577.got - 2010.06.03 11:33:40.
