data_PCOD9049405
_publ_section_title
;
Structure prediction by ZEFSAII (Michael W. Deem and Ramdas Pophale) SiO2 
 PCOD9049405
Probable space group: P -1
;
_chemical_formula_sum "Si O2"
_cell_formula_units_Z 16
_cell_length_a 11.835574
_cell_length_b 6.963782
_cell_length_c 9.072121
_cell_angle_alpha 118.939688
_cell_angle_beta 76.749407
_cell_angle_gamma 84.469498
_cell_volume 617.791017
_symmetry_space_group_name_H-M "P -1"
_symmetry_group_IT_number 2
_symmetry_cell_setting 'triclinic'
loop_
_space_group_symop_operation_xyz
x,y,z
-x,-y,-z
loop_
_atom_site_type_symbol
_atom_site_label
_atom_site_fract_x
_atom_site_fract_y
_atom_site_fract_z
Si Si1 0.295962 0.162649 0.083917
Si Si2 0.118187 0.416284 0.719777
Si Si3 0.108219 0.878178 0.069117
Si Si4 0.506093 0.543325 0.262034
Si Si5 0.859438 0.335569 0.707041
Si Si6 0.679810 0.482558 0.446627
Si Si7 0.156107 0.956655 0.685696
Si Si8 0.458307 0.853855 0.132598
O O1 0.189726 0.037916 0.045482
O O2 0.358090 0.063928 0.182844
O O3 0.266882 0.788083 0.666912
O O4 0.409401 0.106858 0.918350
O O5 0.202715 0.420224 0.555794
O O6 0.169120 0.204449 0.732983
O O7 0.988203 0.393940 0.702059
O O8 0.112292 0.646610 0.895260
O O9 0.155113 0.794401 0.187340
O O10 0.969899 0.010340 0.179732
O O11 0.613900 0.563541 0.342980
O O12 0.413953 0.477541 0.378924
O O13 0.448944 0.766198 0.267255
O O14 0.547831 0.347205 0.055745
O O15 0.857347 0.171866 0.510476
O O16 0.760748 0.570301 0.810093
#
# Coordination Sequence:
#
# PCOD9049405 Si02
#       8
#     2   2   2   2   2   2   2   2
#     4  11  25  42  74 112 143 195 238 306 364 433
#     4  11  25  46  73 110 149 193 243 300 367 441
#     4  11  25  44  74 111 149 191 245 299 366 441
#     4  10  24  48  72 105 145 189 251 303 365 436
#     4  11  25  44  74 111 149 191 245 299 366 441
#     4  11  25  46  74 106 147 193 240 304 372 435
#     4  11  25  46  73 110 149 193 243 300 367 441
#     4  10  24  46  73 108 140 192 251 304 362 434
#
# _framework density 25.898724999999999
#
# number of rings (size 3 to 8) (size 9 to 14) (size 15 to 20)
#    0.000    1.250    0.000    5.250    7.000   10.000 
#    4.500    1.250    0.000    0.000    0.000    0.000 
#    0.000    0.000    0.000    0.000    0.000    0.000 
#
# Total GULP energy -89795.248959 kJ/mol
# GULP energy per Si atom -5612.203060 kJ/mol
# Density = 2.583978 g / cm^3
# Si number density = 25.898725 Si / 1000 Ang^3
#
#
#
# Elastic Constant Matrix: (Units=GPa)
#
#
# Indices 1 2 3 4 5 6 
#
# 1 85.7504 7.1520 6.0688 -3.8567 -11.0748 9.0013
# 2 7.1520 89.4538 8.0929 -4.4764 -0.6032 -2.1844
# 3 6.0688 8.0929 105.4407 -6.2683 -3.7312 6.2112
# 4 -3.8567 -4.4764 -6.2683 46.5189 -7.9829 2.1250
# 5 -11.0748 -0.6032 -3.7312 -7.9829 37.9038 -5.0239
# 6 9.0013 -2.1844 6.2112 2.1250 -5.0239 57.2719
#
#
#
# Elastic Compliance Matrix: (Units=1/GPa)
#
#
# Indices 1 2 3 4 5 6 
#
# 1 0.012491 -0.000905 -0.000322 0.001621 0.003720 -0.001697
# 2 -0.000905 0.011385 -0.000802 0.000903 0.000113 0.000640
# 3 -0.000322 -0.000802 0.009744 0.001430 0.001021 -0.001000
# 4 0.001621 0.000903 0.001430 0.022862 0.005344 -0.000755
# 5 0.003720 0.000113 0.001021 0.005344 0.028916 0.001647
# 6 -0.001697 0.000640 -0.001000 -0.000755 0.001647 0.018033
#
#
# Mechanical properties :
#
#
# Convention : Reuss Voigt Hill
#
# Bulk Modulus (GPa) = 33.82425 35.91912 34.87168
# Shear Modulus (GPa) = 42.61026 45.62768 44.11897
#
# Velocity S-wave (km/s) = 4.06059 4.20190 4.13185
# Velocity P-wave (km/s) = 5.92225 6.11886 6.02136
#
# Compressibility (1/GPa) = 0.02956459
#
# Stress axis : x y z
#
# Youngs Moduli (GPa) = 80.05461 87.83184 102.62587
#
# Poissons Ratio (x) = 0.07947 0.03300
# Poissons Ratio (y) = 0.07244 0.08229
# Poissons Ratio (z) = 0.02574 0.07042
#
# Static dielectric constant tensor:
#      x y z
#    x 2.029230 -0.008220 0.031760 
#    y -0.008220 2.001660 0.001690 
#    z 0.031760 0.001690 2.097310 
# 
# From -- ./inp_files/205491.got.cif
#   From: 2010.05.17/outbox.cif.g08.bks.cpg/sg2_103_cif.got.tgz:205491.got - 2010.06.03 11:33:40.
