data_PCOD9049411
_publ_section_title
;
Structure prediction by ZEFSAII (Michael W. Deem and Ramdas Pophale) SiO2 
 PCOD9049411
Probable space group: P -1
;
_chemical_formula_sum "Si O2"
_cell_formula_units_Z 14
_cell_length_a 18.091416
_cell_length_b 8.660286
_cell_length_c 9.589364
_cell_angle_alpha 126.390430
_cell_angle_beta 151.287879
_cell_angle_gamma 53.968293
_cell_volume 572.004270
_symmetry_space_group_name_H-M "P -1"
_symmetry_group_IT_number 2
_symmetry_cell_setting 'triclinic'
loop_
_space_group_symop_operation_xyz
x,y,z
-x,-y,-z
loop_
_atom_site_type_symbol
_atom_site_label
_atom_site_fract_x
_atom_site_fract_y
_atom_site_fract_z
Si Si1 0.887649 0.894273 0.352466
Si Si2 0.349625 0.731366 0.831931
Si Si3 0.311757 0.401280 0.168828
Si Si4 0.604535 0.227222 0.395139
Si Si5 0.881206 0.884143 0.665554
Si Si6 0.419295 0.213867 0.525637
Si Si7 0.127348 0.419710 0.286274
O O1 0.922460 0.881045 0.567836
O O2 0.726760 0.044666 0.148545
O O3 0.847327 0.684886 0.132081
O O4 0.000000 0.000000 0.500000
O O5 0.391337 0.724821 0.735365
O O6 0.221191 0.594548 0.565208
O O7 0.486386 0.695235 0.150545
O O8 0.424611 0.289210 0.177162
O O9 0.303057 0.632706 0.284042
O O10 0.407819 0.338126 0.433942
O O11 0.703593 0.008677 0.456041
O O12 0.904304 0.678367 0.672506
O O13 0.000000 0.000000 0.000000
O O14 0.243563 0.241452 0.307026
O O15 0.500000 0.000000 0.500000
O O16 0.000000 0.500000 0.000000
#
# Coordination Sequence:
#
# PCOD9049411 Si02
#       7
#     2   2   2   2   2   2   2
#     4  11  27  46  72 111 153 199 251 318 381 455
#     4  11  25  44  77 110 148 198 252 310 384 455
#     4  11  24  43  75 104 155 188 248 319 384 435
#     4  10  24  46  73 109 145 190 252 313 380 450
#     4  11  27  46  75 105 146 204 252 302 382 460
#     4  12  25  44  75 110 146 195 255 312 375 442
#     4  12  27  47  77 109 155 200 251 312 385 460
#
# _framework density 24.475339000000002
#
# number of rings (size 3 to 8) (size 9 to 14) (size 15 to 20)
#    0.000    0.857    2.857    3.000    6.000    3.429 
#    0.000    2.143    0.000    0.000    0.000    0.000 
#    0.000    0.000    0.000    0.000    0.000    0.000 
#
# Total GULP energy -78310.578602 kJ/mol
# GULP energy per Si atom -5593.612757 kJ/mol
# Density = 2.441963 g / cm^3
# Si number density = 24.475339 Si / 1000 Ang^3
#
#
#
# Elastic Constant Matrix: (Units=GPa)
#
#
# Indices 1 2 3 4 5 6 
#
# 1 133.4912 48.5463 46.2360 -4.1100 -5.7885 23.7578
# 2 48.5463 136.8206 45.9905 -4.0032 -2.7823 5.0842
# 3 46.2360 45.9905 146.3991 1.8810 -15.7444 15.6115
# 4 -4.1100 -4.0032 1.8810 41.0442 8.3423 -3.2587
# 5 -5.7885 -2.7823 -15.7444 8.3423 32.6798 -2.7173
# 6 23.7578 5.0842 15.6115 -3.2587 -2.7173 50.3831
#
#
#
# Elastic Compliance Matrix: (Units=1/GPa)
#
#
# Indices 1 2 3 4 5 6 
#
# 1 0.009797 -0.002704 -0.001831 0.000465 0.000193 -0.003739
# 2 -0.002704 0.008975 -0.002192 0.000979 -0.000932 0.001062
# 3 -0.001831 -0.002192 0.008711 -0.001730 0.004002 -0.001511
# 4 0.000465 0.000979 -0.001730 0.026174 -0.007223 0.001521
# 5 0.000193 -0.000932 0.004002 -0.007223 0.034339 0.000148
# 6 -0.003739 0.001062 -0.001511 0.001521 0.000148 0.022078
#
#
# Mechanical properties :
#
#
# Convention : Reuss Voigt Hill
#
# Bulk Modulus (GPa) = 71.27726 77.58405 74.43065
# Shear Modulus (GPa) = 39.00021 43.21729 41.10875
#
# Velocity S-wave (km/s) = 3.99613 4.20664 4.10274
# Velocity P-wave (km/s) = 7.10475 7.44057 7.27460
#
# Compressibility (1/GPa) = 0.01402972
#
# Stress axis : x y z
#
# Youngs Moduli (GPa) = 102.07352 111.41808 114.79647
#
# Poissons Ratio (x) = 0.30129 0.21020
# Poissons Ratio (y) = 0.27602 0.25158
# Poissons Ratio (z) = 0.18690 0.24418
#
# Static dielectric constant tensor:
#      x y z
#    x 1.958710 0.000900 0.062490 
#    y 0.000900 1.934440 0.016100 
#    z 0.062490 0.016100 1.954830 
# 
# From -- ./inp_files/329502.got.cif
#   From: 2010.05.17/outbox.cif.g08.bks.cpg/sg2_165_cif.got.tgz:329502.got - 2010.06.03 11:33:40.
