data_PCOD9049685
_publ_section_title
;
Structure prediction by ZEFSAII (Michael W. Deem and Ramdas Pophale) SiO2 
 PCOD9049685
Probable space group: P -1
;
_chemical_formula_sum "Si O2"
_cell_formula_units_Z 14
_cell_length_a 10.457550
_cell_length_b 13.070980
_cell_length_c 8.128425
_cell_angle_alpha 61.381156
_cell_angle_beta 46.031585
_cell_angle_gamma 94.340705
_cell_volume 535.756210
_symmetry_space_group_name_H-M "P -1"
_symmetry_group_IT_number 2
_symmetry_cell_setting 'triclinic'
loop_
_space_group_symop_operation_xyz
x,y,z
-x,-y,-z
loop_
_atom_site_type_symbol
_atom_site_label
_atom_site_fract_x
_atom_site_fract_y
_atom_site_fract_z
Si Si1 0.465276 0.100190 0.847034
Si Si2 0.956132 0.620285 0.447373
Si Si3 0.711909 0.286577 0.179001
Si Si4 0.674929 0.692830 0.524544
Si Si5 0.082838 0.094899 0.550191
Si Si6 0.890750 0.787322 0.902497
Si Si7 0.058403 0.629432 0.710243
O O1 0.552409 0.141184 0.549812
O O2 0.663092 0.270934 0.613270
O O3 0.500000 0.000000 0.000000
O O4 0.193976 0.010410 0.149673
O O5 0.005260 0.672131 0.550350
O O6 0.000000 0.500000 0.500000
O O7 0.718568 0.576494 0.626021
O O8 0.159105 0.739866 0.046692
O O9 0.553601 0.327041 0.223626
O O10 0.025391 0.307151 0.136410
O O11 0.906917 0.447683 0.976142
O O12 0.852443 0.829027 0.388884
O O13 0.726451 0.721069 0.261226
O O14 0.200081 0.204561 0.201198
O O15 0.105683 0.964498 0.620111
#
# Coordination Sequence:
#
# PCOD9049685 Si02
#       7
#     2   2   2   2   2   2   2
#     4  12  23  46  71 106 151 195 251 313 373 450
#     4  10  24  47  71 108 153 200 248 309 382 450
#     4  11  27  47  78 112 149 207 249 314 390 447
#     4  12  24  49  77 111 153 195 261 312 379 463
#     4  11  25  46  70 113 153 195 254 311 387 446
#     4  11  23  44  75 108 148 198 248 315 376 449
#     4  11  24  49  71 111 154 194 257 312 381 462
#
# _framework density 26.13129
#
# number of rings (size 3 to 8) (size 9 to 14) (size 15 to 20)
#    0.000    0.857    4.286    1.714    0.000    6.286 
#    7.714    2.143    0.000    0.000    0.000    0.000 
#    0.000    0.000    0.000    0.000    0.000    0.000 
#
# Total GULP energy -78179.872369 kJ/mol
# GULP energy per Si atom -5584.276598 kJ/mol
# Density = 2.607181 g / cm^3
# Si number density = 26.131290 Si / 1000 Ang^3
#
#
#
# Elastic Constant Matrix: (Units=GPa)
#
#
# Indices 1 2 3 4 5 6 
#
# 1 123.5001 26.6317 39.3977 -3.8034 -8.4491 -22.8663
# 2 26.6317 142.8655 35.3420 13.3457 2.8265 -5.1343
# 3 39.3977 35.3420 103.5905 6.3430 8.0827 -5.0013
# 4 -3.8034 13.3457 6.3430 41.6277 -2.4930 4.0656
# 5 -8.4491 2.8265 8.0827 -2.4930 53.2798 -5.2623
# 6 -22.8663 -5.1343 -5.0013 4.0656 -5.2623 41.3060
#
#
#
# Elastic Compliance Matrix: (Units=1/GPa)
#
#
# Indices 1 2 3 4 5 6 
#
# 1 0.010840 -0.001079 -0.003810 0.001545 0.002983 0.005633
# 2 -0.001079 0.007966 -0.002118 -0.002383 -0.000352 0.000326
# 3 -0.003810 -0.002118 0.012063 -0.001552 -0.002501 -0.001078
# 4 0.001545 -0.002383 -0.001552 0.025449 0.001607 -0.001929
# 5 0.002983 -0.000352 -0.002501 0.001607 0.020081 0.003705
# 6 0.005633 0.000326 -0.001078 -0.001929 0.003705 0.027900
#
#
# Mechanical properties :
#
#
# Convention : Reuss Voigt Hill
#
# Bulk Modulus (GPa) = 59.33121 63.63320 61.48221
# Shear Modulus (GPa) = 40.34490 45.14834 42.74662
#
# Velocity S-wave (km/s) = 3.93355 4.16113 4.04894
# Velocity P-wave (km/s) = 6.58671 6.89136 6.74076
#
# Compressibility (1/GPa) = 0.01685454
#
# Stress axis : x y z
#
# Youngs Moduli (GPa) = 92.25143 125.53323 82.89681
#
# Poissons Ratio (x) = 0.13547 0.31583
# Poissons Ratio (y) = 0.09955 0.17560
# Poissons Ratio (z) = 0.35147 0.26592
#
# Static dielectric constant tensor:
#      x y z
#    x 2.213480 0.002100 0.126340 
#    y 0.002100 2.150200 0.047140 
#    z 0.126340 0.047140 2.148200 
# 
# From -- ./inp_files/205511.got.cif
#   From: 2010.05.17/outbox.cif.g08.bks.cpg/sg2_103_cif.got.tgz:205511.got - 2010.06.03 11:33:40.
