data_PCOD9049939
_publ_section_title
;
Structure prediction by ZEFSAII (Michael W. Deem and Ramdas Pophale) SiO2 
 PCOD9049939
Probable space group: P -1
;
_chemical_formula_sum "Si O2"
_cell_formula_units_Z 15
_cell_length_a 4.843628
_cell_length_b 12.809287
_cell_length_c 20.764043
_cell_angle_alpha 30.660127
_cell_angle_beta 68.308876
_cell_angle_gamma 75.615572
_cell_volume 603.825101
_symmetry_space_group_name_H-M "P -1"
_symmetry_group_IT_number 2
_symmetry_cell_setting 'triclinic'
loop_
_space_group_symop_operation_xyz
x,y,z
-x,-y,-z
loop_
_atom_site_type_symbol
_atom_site_label
_atom_site_fract_x
_atom_site_fract_y
_atom_site_fract_z
Si Si1 0.462798 0.008933 0.221356
Si Si2 0.500000 0.000000 0.000000
Si Si3 0.910372 0.535660 0.631933
Si Si4 0.266143 0.427291 0.767083
Si Si5 0.065173 0.833251 0.246933
Si Si6 0.644348 0.245952 0.299393
Si Si7 0.199634 0.002621 0.384179
Si Si8 0.319085 0.445736 0.980650
O O1 0.217570 0.835732 0.302477
O O2 0.430923 0.030314 0.289560
O O3 0.793488 0.966474 0.199309
O O4 0.367229 0.212114 0.088014
O O5 0.693302 0.801108 0.092800
O O6 0.317376 0.917930 0.127002
O O7 0.562574 0.512138 0.654597
O O8 0.061240 0.400287 0.639948
O O9 0.959935 0.419020 0.757691
O O10 0.043252 0.767713 0.514588
O O11 0.296053 0.605676 0.723374
O O12 0.578665 0.407657 0.164814
O O13 0.365611 0.062644 0.406397
O O14 0.944465 0.145070 0.317415
O O15 0.500000 0.500000 0.000000
O O16 0.000000 0.500000 0.000000
#
# Coordination Sequence:
#
# PCOD9049939 Si02
#       8
#     2   1   2   2   2   2   2   2
#     4  12  24  42  69 102 134 181 218 281 336 413
#     4  10  24  48  70 100 134 172 214 292 336 404
#     4  11  26  46  65  98 134 183 227 292 320 398
#     4  11  25  44  72  99 134 172 234 276 346 396
#     4  11  25  43  71 100 133 172 232 274 347 395
#     4  12  24  42  68 102 131 184 220 279 340 408
#     4  12  26  44  67  95 144 179 228 272 340 394
#     4  12  22  41  65  97 138 172 213 275 334 408
#
# _framework density 24.841631
#
# number of rings (size 3 to 8) (size 9 to 14) (size 15 to 20)
#    0.000    0.533    2.667    5.600    0.000   11.200 
#    0.000    0.000    0.000    0.000    0.000    0.000 
#    0.000    0.000    0.000    0.000    0.000    0.000 
#
# Total GULP energy -83658.112745 kJ/mol
# GULP energy per Si atom -5577.207516 kJ/mol
# Density = 2.478509 g / cm^3
# Si number density = 24.841631 Si / 1000 Ang^3
#
#
#
# Elastic Constant Matrix: (Units=GPa)
#
#
# Indices 1 2 3 4 5 6 
#
# 1 119.5594 33.4746 -20.7684 -2.2813 20.1502 6.9449
# 2 33.4746 124.0701 18.7619 -30.4075 17.5001 1.6305
# 3 -20.7684 18.7619 52.8290 -14.4035 18.7639 -7.2404
# 4 -2.2813 -30.4075 -14.4035 22.3187 -2.8279 -0.2747
# 5 20.1502 17.5001 18.7639 -2.8279 23.2372 -7.0965
# 6 6.9449 1.6305 -7.2404 -0.2747 -7.0965 55.0545
#
#
#
# Elastic Compliance Matrix: (Units=1/GPa)
#
#
# Indices 1 2 3 4 5 6 
#
# 1 0.017973 -0.001151 0.020776 0.009657 -0.031389 -0.003499
# 2 -0.001151 0.014320 0.003622 0.020379 -0.010555 -0.001062
# 3 0.020776 0.003622 0.058095 0.036376 -0.064200 -0.003182
# 4 0.009657 0.020379 0.036376 0.091613 -0.042578 -0.002069
# 5 -0.031389 -0.010555 -0.064200 -0.042578 0.128585 0.012191
# 6 -0.003499 -0.001062 -0.003182 -0.002069 0.012191 0.019779
#
#
# Mechanical properties :
#
#
# Convention : Reuss Voigt Hill
#
# Bulk Modulus (GPa) = 7.30554 39.93273 23.61914
# Shear Modulus (GPa) = 15.17463 37.78812 26.48137
#
# Velocity S-wave (km/s) = 2.47423 3.90444 3.26852
# Velocity P-wave (km/s) = 3.33311 6.03622 4.87574
#
# Compressibility (1/GPa) = 0.13688234
#
# Stress axis : x y z
#
# Youngs Moduli (GPa) = 55.63928 69.83156 17.21328
#
# Poissons Ratio (x) = 0.08036 -0.35763
# Poissons Ratio (y) = 0.06403 -0.06234
# Poissons Ratio (z) = -1.15599 -0.25291
#
# Static dielectric constant tensor:
#      x y z
#    x 1.978610 -0.028120 -0.099030 
#    y -0.028120 1.974840 0.020480 
#    z -0.099030 0.020480 2.052730 
# 
# From -- ./inp_files/582934.got.cif
#   From: 2010.05.17/outbox.cif.g08.bks.cpg/sg2_292_cif.got.tgz:582934.got - 2010.06.03 11:33:40.
