data_PCOD9049931
_publ_section_title
;
Structure prediction by ZEFSAII (Michael W. Deem and Ramdas Pophale) SiO2 
 PCOD9049931
Probable space group: P -1
;
_chemical_formula_sum "Si O2"
_cell_formula_units_Z 14
_cell_length_a 14.222055
_cell_length_b 9.253191
_cell_length_c 7.041435
_cell_angle_alpha 115.350176
_cell_angle_beta 69.285247
_cell_angle_gamma 68.764558
_cell_volume 622.082676
_symmetry_space_group_name_H-M "P -1"
_symmetry_group_IT_number 2
_symmetry_cell_setting 'triclinic'
loop_
_space_group_symop_operation_xyz
x,y,z
-x,-y,-z
loop_
_atom_site_type_symbol
_atom_site_label
_atom_site_fract_x
_atom_site_fract_y
_atom_site_fract_z
Si Si1 0.386259 0.737160 0.997034
Si Si2 0.112328 0.514261 0.461033
Si Si3 0.356448 0.136371 0.244381
Si Si4 0.113792 0.784770 0.875655
Si Si5 0.791396 0.355719 0.846931
Si Si6 0.437862 0.224817 0.607132
Si Si7 0.619517 0.349124 0.498449
O O1 0.536899 0.557605 0.798352
O O2 0.381612 0.671805 0.745898
O O3 0.289784 0.725468 0.182101
O O4 0.342662 0.959550 0.187580
O O5 0.247116 0.295778 0.269160
O O6 0.089932 0.627789 0.737289
O O7 0.119072 0.644520 0.367998
O O8 0.000000 0.500000 0.500000
O O9 0.367567 0.250794 0.473866
O O10 0.500000 0.000000 0.000000
O O11 0.236333 0.733430 0.645243
O O12 0.137291 0.755688 0.068788
O O13 0.000000 0.000000 0.000000
O O14 0.677601 0.592693 0.090755
O O15 0.551043 0.246792 0.541230
O O16 0.500000 0.000000 0.500000
#
# Coordination Sequence:
#
# PCOD9049931 Si02
#       7
#     2   2   2   2   2   2   2
#     4   9  19  37  70  94 132 182 217 284 343 407
#     4  12  29  48  69 103 144 183 232 300 351 414
#     4  12  22  41  71 106 141 179 231 287 356 403
#     4  11  25  46  72  97 137 190 234 282 349 417
#     4  10  24  48  68  97 140 180 239 279 344 429
#     4  11  22  39  68 106 139 178 224 294 353 409
#     4   9  19  40  64  97 139 172 226 283 342 406
#
# _framework density 22.505046
#
# number of rings (size 3 to 8) (size 9 to 14) (size 15 to 20)
#    0.000    1.429    2.857    2.571    4.000    2.286 
#    2.571    3.571    0.000    0.000    0.000    0.000 
#    0.000    0.000    0.000    0.000    0.000    0.000 
#
# Total GULP energy -78015.008017 kJ/mol
# GULP energy per Si atom -5572.500573 kJ/mol
# Density = 2.245382 g / cm^3
# Si number density = 22.505046 Si / 1000 Ang^3
#
#
#
# Elastic Constant Matrix: (Units=GPa)
#
#
# Indices 1 2 3 4 5 6 
#
# 1 138.5321 51.1297 30.4348 3.6391 -17.9397 -2.4812
# 2 51.1297 123.5618 17.1143 6.2657 -14.1820 0.1914
# 3 30.4348 17.1143 27.6226 2.1425 -3.4464 3.4163
# 4 3.6391 6.2657 2.1425 42.0154 2.8512 -0.7474
# 5 -17.9397 -14.1820 -3.4464 2.8512 32.1127 8.4193
# 6 -2.4812 0.1914 3.4163 -0.7474 8.4193 39.4374
#
#
#
# Elastic Compliance Matrix: (Units=1/GPa)
#
#
# Indices 1 2 3 4 5 6 
#
# 1 0.010894 -0.002699 -0.009951 -0.000267 0.003646 0.000777
# 2 -0.002699 0.009980 -0.002668 -0.001326 0.002897 -0.000631
# 3 -0.009951 -0.002668 0.049533 -0.001353 -0.000010 -0.004928
# 4 -0.000267 -0.001326 -0.001353 0.024343 -0.003380 0.001290
# 5 0.003646 0.002897 -0.000010 -0.003380 0.036774 -0.007699
# 6 0.000777 -0.000631 -0.004928 0.001290 -0.007699 0.027503
#
#
# Mechanical properties :
#
#
# Convention : Reuss Voigt Hill
#
# Bulk Modulus (GPa) = 25.14386 54.11936 39.63161
# Shear Modulus (GPa) = 24.64026 35.44893 30.04459
#
# Velocity S-wave (km/s) = 3.31248 3.97313 3.65775
# Velocity P-wave (km/s) = 5.08201 6.71919 5.95711
#
# Compressibility (1/GPa) = 0.03977114
#
# Stress axis : x y z
#
# Youngs Moduli (GPa) = 91.79376 100.19997 20.18864
#
# Poissons Ratio (x) = 0.27041 0.20091
# Poissons Ratio (y) = 0.24773 0.05386
# Poissons Ratio (z) = 0.91349 0.26730
#
# Static dielectric constant tensor:
#      x y z
#    x 1.964910 -0.142750 -0.090790 
#    y -0.142750 1.885060 -0.040760 
#    z -0.090790 -0.040760 1.525400 
# 
# From -- ./inp_files/299439.got.cif
#   From: 2010.05.17/outbox.cif.g08.bks.cpg/sg2_150_cif.got.tgz:299439.got - 2010.06.03 11:33:40.
