data_PCOD9049755
_publ_section_title
;
Structure prediction by ZEFSAII (Michael W. Deem and Ramdas Pophale) SiO2 
 PCOD9049755
Probable space group: P -1
;
_chemical_formula_sum "Si O2"
_cell_formula_units_Z 15
_cell_length_a 9.196926
_cell_length_b 14.678727
_cell_length_c 9.256474
_cell_angle_alpha 40.634020
_cell_angle_beta 81.611111
_cell_angle_gamma 59.102386
_cell_volume 628.330701
_symmetry_space_group_name_H-M "P -1"
_symmetry_group_IT_number 2
_symmetry_cell_setting 'triclinic'
loop_
_space_group_symop_operation_xyz
x,y,z
-x,-y,-z
loop_
_atom_site_type_symbol
_atom_site_label
_atom_site_fract_x
_atom_site_fract_y
_atom_site_fract_z
Si Si1 0.000000 0.500000 0.000000
Si Si2 0.302578 0.170239 0.892953
Si Si3 0.547622 0.012737 0.639292
Si Si4 0.368668 0.607984 0.129498
Si Si5 0.967906 0.173822 0.856717
Si Si6 0.208609 0.857917 0.579192
Si Si7 0.238942 0.380986 0.383970
Si Si8 0.211898 0.608399 0.657433
O O1 0.064268 0.507985 0.150240
O O2 0.862822 0.461305 0.135512
O O3 0.221741 0.343029 0.598539
O O4 0.151468 0.135478 0.945225
O O5 0.500000 0.000000 0.000000
O O6 0.361996 0.158526 0.064550
O O7 0.695462 0.050774 0.570295
O O8 0.353809 0.187566 0.522505
O O9 0.500000 0.000000 0.500000
O O10 0.200586 0.732950 0.115935
O O11 0.363489 0.446187 0.291479
O O12 0.570346 0.536877 0.241778
O O13 0.328418 0.710921 0.862869
O O14 0.911475 0.304904 0.572108
O O15 0.000000 0.000000 0.000000
O O16 0.199462 0.764589 0.554166
O O17 0.000000 0.000000 0.500000
#
# Coordination Sequence:
#
# PCOD9049755 Si02
#       8
#     1   2   2   2   2   2   2   2
#     4  12  24  44  78 106 148 192 256 310 368 450
#     4  10  24  47  73 106 153 194 244 315 379 447
#     4  11  25  45  72 105 144 196 250 300 373 447
#     4  12  26  48  74 106 153 204 251 317 386 442
#     4  12  27  48  75 111 150 202 254 310 381 466
#     4  12  25  45  74 105 150 198 252 316 377 447
#     4  11  24  47  71 103 149 195 247 312 371 447
#     4  12  25  49  74 110 153 197 256 315 380 457
#
# _framework density 23.872776999999999
#
# number of rings (size 3 to 8) (size 9 to 14) (size 15 to 20)
#    0.000    0.533    4.000    4.000    3.733    3.733 
#    4.800    0.000    0.000    0.000    0.000    0.000 
#    0.000    0.000    0.000    0.000    0.000    0.000 
#
# Total GULP energy -83777.497263 kJ/mol
# GULP energy per Si atom -5585.166484 kJ/mol
# Density = 2.381844 g / cm^3
# Si number density = 23.872777 Si / 1000 Ang^3
#
#
#
# Elastic Constant Matrix: (Units=GPa)
#
#
# Indices 1 2 3 4 5 6 
#
# 1 135.5631 27.2503 33.9263 6.4469 4.1052 -3.8141
# 2 27.2503 98.2082 31.9853 15.1151 16.8377 -2.7666
# 3 33.9263 31.9853 140.6044 47.7400 4.2947 9.5512
# 4 6.4469 15.1151 47.7400 39.6865 0.6343 9.4678
# 5 4.1052 16.8377 4.2947 0.6343 38.3510 5.7316
# 6 -3.8141 -2.7666 9.5512 9.4678 5.7316 33.5507
#
#
#
# Elastic Compliance Matrix: (Units=1/GPa)
#
#
# Indices 1 2 3 4 5 6 
#
# 1 0.008246 -0.001809 -0.002274 0.001869 0.000000 0.000908
# 2 -0.001809 0.012726 -0.001230 -0.003751 -0.005675 0.003222
# 3 -0.002274 -0.001230 0.012966 -0.014800 -0.000454 0.000203
# 4 0.001869 -0.003751 -0.014800 0.046359 0.003774 -0.009610
# 5 0.000000 -0.005675 -0.000454 0.003774 0.029519 -0.006446
# 6 0.000908 0.003222 0.000203 -0.009610 -0.006446 0.033930
#
#
# Mechanical properties :
#
#
# Convention : Reuss Voigt Hill
#
# Bulk Modulus (GPa) = 42.89899 62.29994 52.59947
# Shear Modulus (GPa) = 30.83667 41.06521 35.95094
#
# Velocity S-wave (km/s) = 3.59793 4.15199 3.88485
# Velocity P-wave (km/s) = 5.93877 7.00990 6.49645
#
# Compressibility (1/GPa) = 0.02331057
#
# Stress axis : x y z
#
# Youngs Moduli (GPa) = 121.26772 78.57711 77.12381
#
# Poissons Ratio (x) = 0.14218 0.17540
# Poissons Ratio (y) = 0.21942 0.09489
# Poissons Ratio (z) = 0.27580 0.09668
#
# Static dielectric constant tensor:
#      x y z
#    x 1.842410 -0.002910 0.028640 
#    y -0.002910 1.931040 -0.021320 
#    z 0.028640 -0.021320 1.966510 
# 
# From -- ./inp_files/176016.got.cif
#   From: 2010.05.17/outbox.cif.g08.bks.cpg/sg2_89_cif.got.tgz:176016.got - 2010.06.03 11:33:40.
