data_PCOD9049900
_publ_section_title
;
Structure prediction by ZEFSAII (Michael W. Deem and Ramdas Pophale) SiO2 
 PCOD9049900
Probable space group: P -1
;
_chemical_formula_sum "Si O2"
_cell_formula_units_Z 16
_cell_length_a 29.500497
_cell_length_b 8.416645
_cell_length_c 4.768182
_cell_angle_alpha 98.727199
_cell_angle_beta 66.378016
_cell_angle_gamma 145.343787
_cell_volume 579.761348
_symmetry_space_group_name_H-M "P -1"
_symmetry_group_IT_number 2
_symmetry_cell_setting 'triclinic'
loop_
_space_group_symop_operation_xyz
x,y,z
-x,-y,-z
loop_
_atom_site_type_symbol
_atom_site_label
_atom_site_fract_x
_atom_site_fract_y
_atom_site_fract_z
Si Si1 0.207675 0.883419 0.591786
Si Si2 0.896921 0.163858 0.748075
Si Si3 0.652600 0.948124 0.363161
Si Si4 0.640413 0.218853 0.155827
Si Si5 0.515311 0.330472 0.246643
Si Si6 0.928523 0.727267 0.375320
Si Si7 0.347151 0.524821 0.305347
Si Si8 0.100035 0.052150 0.803730
O O1 0.142383 0.607546 0.465073
O O2 0.152086 0.832456 0.950972
O O3 0.274541 0.944681 0.605736
O O4 0.272863 0.184973 0.351595
O O5 0.869041 0.008576 0.482816
O O6 0.000000 0.500000 0.500000
O O7 0.868782 0.698064 0.351745
O O8 0.887665 0.982031 0.925832
O O9 0.594590 0.665599 0.242108
O O10 0.430660 0.198710 0.289168
O O11 0.691341 0.199550 0.142451
O O12 0.662833 0.436062 0.347377
O O13 0.536560 0.890199 0.416309
O O14 0.659098 0.334421 0.833734
O O15 0.559142 0.310455 0.952011
O O16 0.000000 0.000000 0.500000
O O17 0.992597 0.807688 0.014982
#
# Coordination Sequence:
#
# PCOD9049900 Si02
#       8
#     2   2   2   2   2   2   2   2
#     4  12  29  49  79 124 168 210 284 348 408 489
#     4  12  26  51  82 115 157 209 263 338 420 502
#     4   9  23  49  79 121 161 221 270 337 397 477
#     4  10  24  47  82 113 165 221 274 319 410 492
#     4   9  21  48  82 114 169 220 277 312 415 490
#     4  11  25  53  86 118 154 209 273 345 422 502
#     4  12  25  47  76 124 160 219 267 347 402 479
#     4  11  25  51  86 115 144 211 268 323 426 500
#
# _framework density 27.597560999999999
#
# number of rings (size 3 to 8) (size 9 to 14) (size 15 to 20)
#    0.750    0.500    2.500    1.875    0.000    5.500 
#    9.000    1.250    0.000    0.000    0.000    0.000 
#    0.000    0.000    0.000    0.000    0.000    0.000 
#
# Total GULP energy -89503.465893 kJ/mol
# GULP energy per Si atom -5593.966618 kJ/mol
# Density = 2.753475 g / cm^3
# Si number density = 27.597561 Si / 1000 Ang^3
#
#
#
# Elastic Constant Matrix: (Units=GPa)
#
#
# Indices 1 2 3 4 5 6 
#
# 1 166.0101 45.0729 51.2305 -4.5476 -18.9668 4.3795
# 2 45.0729 163.7316 39.9981 -2.5858 -9.1390 -31.1912
# 3 51.2305 39.9981 117.5420 -2.5131 -8.1810 3.8902
# 4 -4.5476 -2.5858 -2.5131 30.9710 -2.8126 5.3677
# 5 -18.9668 -9.1390 -8.1810 -2.8126 54.4795 0.0253
# 6 4.3795 -31.1912 3.8902 5.3677 0.0253 30.0450
#
#
#
# Elastic Compliance Matrix: (Units=1/GPa)
#
#
# Indices 1 2 3 4 5 6 
#
# 1 0.007656 -0.001985 -0.002383 0.001495 0.002053 -0.003137
# 2 -0.001985 0.009317 -0.002661 -0.001528 0.000388 0.010579
# 3 -0.002383 -0.002661 0.010631 0.001013 0.000375 -0.003973
# 4 0.001495 -0.001528 0.001013 0.034050 0.002178 -0.008020
# 5 0.002053 0.000388 0.000375 0.002178 0.019304 -0.000350
# 6 -0.003137 0.010579 -0.003973 -0.008020 -0.000350 0.046670
#
#
# Mechanical properties :
#
#
# Convention : Reuss Voigt Hill
#
# Bulk Modulus (GPa) = 73.81994 79.98744 76.90369
# Shear Modulus (GPa) = 34.19917 43.83124 39.01521
#
# Velocity S-wave (km/s) = 3.52406 3.98958 3.76403
# Velocity P-wave (km/s) = 6.58525 7.09005 6.84230
#
# Compressibility (1/GPa) = 0.01354647
#
# Stress axis : x y z
#
# Youngs Moduli (GPa) = 130.61115 107.33209 94.06557
#
# Poissons Ratio (x) = 0.21305 0.22414
# Poissons Ratio (y) = 0.25926 0.25031
# Poissons Ratio (z) = 0.31122 0.28561
#
# Static dielectric constant tensor:
#      x y z
#    x 2.312830 -0.046190 0.059400 
#    y -0.046190 2.284100 -0.077870 
#    z 0.059400 -0.077870 2.125920 
# 
# From -- ./inp_files/128169.got.cif
#   From: 2010.05.17/outbox.cif.g08.bks.cpg/sg2_65_cif.got.tgz:128169.got - 2010.06.03 11:33:40.
