data_PCOD9049867
_publ_section_title
;
Structure prediction by ZEFSAII (Michael W. Deem and Ramdas Pophale) SiO2 
 PCOD9049867
Probable space group: P -1
;
_chemical_formula_sum "Si O2"
_cell_formula_units_Z 15
_cell_length_a 5.918845
_cell_length_b 9.356556
_cell_length_c 13.837300
_cell_angle_alpha 69.898526
_cell_angle_beta 74.015337
_cell_angle_gamma 67.535626
_cell_volume 655.796580
_symmetry_space_group_name_H-M "P -1"
_symmetry_group_IT_number 2
_symmetry_cell_setting 'triclinic'
loop_
_space_group_symop_operation_xyz
x,y,z
-x,-y,-z
loop_
_atom_site_type_symbol
_atom_site_label
_atom_site_fract_x
_atom_site_fract_y
_atom_site_fract_z
Si Si1 0.109090 0.147122 0.954428
Si Si2 0.689882 0.587762 0.420805
Si Si3 0.000000 0.000000 0.500000
Si Si4 0.138229 0.193507 0.162014
Si Si5 0.320206 0.836512 0.687156
Si Si6 0.162103 0.316067 0.413491
Si Si7 0.460669 0.088999 0.744080
Si Si8 0.216514 0.505393 0.054857
O O1 0.315264 0.116708 0.855363
O O2 0.908414 0.322577 0.920252
O O3 0.198840 0.154625 0.051650
O O4 0.000000 0.000000 0.000000
O O5 0.500000 0.500000 0.500000
O O6 0.798017 0.649852 0.487245
O O7 0.550455 0.742081 0.338334
O O8 0.923407 0.459081 0.372113
O O9 0.200631 0.903106 0.583285
O O10 0.886643 0.851808 0.546883
O O11 0.238216 0.338422 0.143937
O O12 0.850990 0.238064 0.210676
O O13 0.264387 0.029792 0.243187
O O14 0.582074 0.705358 0.665079
O O15 0.345013 0.987841 0.709591
O O16 0.500000 0.500000 0.000000
O O17 0.000000 0.500000 0.000000
#
# Coordination Sequence:
#
# PCOD9049867 Si02
#       8
#     2   2   1   2   2   2   2   2
#     4  11  23  48  76 113 156 203 256 319 390 467
#     4  11  27  49  73 112 150 202 258 328 393 474
#     4  12  24  46  74 104 142 204 248 322 386 466
#     4  11  26  46  80 113 152 207 257 324 388 488
#     4  12  26  44  75 112 146 200 261 314 400 467
#     4  11  26  46  76 102 154 194 262 320 392 465
#     4  12  26  46  76 111 153 201 262 318 403 463
#     4  10  24  47  77 112 155 206 265 324 390 467
#
# _framework density 22.872945999999999
#
# number of rings (size 3 to 8) (size 9 to 14) (size 15 to 20)
#    0.000    0.800    2.667    3.200    7.467    4.267 
#    0.000    0.000    2.933    0.000    0.000    0.000 
#    0.000    0.000    0.000    0.000    0.000    0.000 
#
# Total GULP energy -83643.485934 kJ/mol
# GULP energy per Si atom -5576.232396 kJ/mol
# Density = 2.282089 g / cm^3
# Si number density = 22.872946 Si / 1000 Ang^3
#
#
#
# Elastic Constant Matrix: (Units=GPa)
#
#
# Indices 1 2 3 4 5 6 
#
# 1 101.6282 36.8897 42.8388 7.6102 -21.4193 -17.1160
# 2 36.8897 117.3960 53.2491 -10.1379 -33.1221 -20.1983
# 3 42.8388 53.2491 83.7907 -8.2366 -9.5089 -14.8203
# 4 7.6102 -10.1379 -8.2366 42.1266 0.9051 -0.1402
# 5 -21.4193 -33.1221 -9.5089 0.9051 49.0320 -0.5750
# 6 -17.1160 -20.1983 -14.8203 -0.1402 -0.5750 38.7359
#
#
#
# Elastic Compliance Matrix: (Units=1/GPa)
#
#
# Indices 1 2 3 4 5 6 
#
# 1 0.014731 0.000380 -0.006805 -0.004004 0.005495 0.004170
# 2 0.000380 0.015756 -0.007991 0.001979 0.009287 0.005471
# 3 -0.006805 -0.007991 0.020423 0.003397 -0.004466 0.000586
# 4 -0.004004 0.001979 0.003397 0.025609 -0.000218 0.000652
# 5 0.005495 0.009287 -0.004466 -0.000218 0.028277 0.005981
# 6 0.004170 0.005471 0.000586 0.000652 0.005981 0.030827
#
#
# Mechanical properties :
#
#
# Convention : Reuss Voigt Hill
#
# Bulk Modulus (GPa) = 45.29572 63.19667 54.24619
# Shear Modulus (GPa) = 29.10141 37.30141 33.20141
#
# Velocity S-wave (km/s) = 3.57081 4.04271 3.81407
# Velocity P-wave (km/s) = 6.07018 7.03426 6.56993
#
# Compressibility (1/GPa) = 0.02207714
#
# Stress axis : x y z
#
# Youngs Moduli (GPa) = 67.88546 63.46803 48.96546
#
# Poissons Ratio (x) = -0.02410 0.33321
# Poissons Ratio (y) = -0.02578 0.39127
# Poissons Ratio (z) = 0.46196 0.50716
#
# Static dielectric constant tensor:
#      x y z
#    x 1.889180 -0.022450 0.065600 
#    y -0.022450 1.870750 0.040970 
#    z 0.065600 0.040970 1.909860 
# 
# From -- ./inp_files/479674.got.cif
#   From: 2010.05.17/outbox.cif.g08.bks.cpg/sg2_240_cif.got.tgz:479674.got - 2010.06.03 11:33:40.
