data_PCOD9049822
_publ_section_title
;
Structure prediction by ZEFSAII (Michael W. Deem and Ramdas Pophale) SiO2 
 PCOD9049822
Probable space group: P -1
;
_chemical_formula_sum "Si O2"
_cell_formula_units_Z 12
_cell_length_a 11.989708
_cell_length_b 5.172263
_cell_length_c 17.933737
_cell_angle_alpha 53.371999
_cell_angle_beta 152.257479
_cell_angle_gamma 120.393564
_cell_volume 414.740749
_symmetry_space_group_name_H-M "P -1"
_symmetry_group_IT_number 2
_symmetry_cell_setting 'triclinic'
loop_
_space_group_symop_operation_xyz
x,y,z
-x,-y,-z
loop_
_atom_site_type_symbol
_atom_site_label
_atom_site_fract_x
_atom_site_fract_y
_atom_site_fract_z
Si Si1 0.013879 0.680546 0.347518
Si Si2 0.489352 0.493348 0.406488
Si Si3 0.359689 0.069389 0.985567
Si Si4 0.967588 0.297061 0.095712
Si Si5 0.755582 0.919091 0.910149
Si Si6 0.120414 0.014833 0.629049
O O1 0.253384 0.310965 0.279205
O O2 0.270664 0.644605 0.465715
O O3 0.007134 0.823314 0.403899
O O4 0.028024 0.253784 0.460247
O O5 0.500000 0.500000 0.500000
O O6 0.446830 0.856265 0.286443
O O7 0.083651 0.948112 0.813511
O O8 0.225853 0.430633 0.825463
O O9 0.599492 0.000432 0.192126
O O10 0.500000 0.000000 0.000000
O O11 0.741915 0.543762 0.952984
O O12 0.810074 0.998378 0.015244
O O13 0.000000 0.500000 0.000000
O O14 0.000000 0.000000 0.000000
#
# Coordination Sequence:
#
# PCOD9049822 Si02
#       6
#     2   2   2   2   2   2
#     4  12  29  47  78 113 151 201 247 309 380 445
#     4  12  27  49  75 114 159 195 253 310 371 453
#     4  10  26  48  80 106 151 194 255 305 376 446
#     4  10  25  46  76 105 148 200 248 298 379 432
#     4  10  24  47  75 108 145 200 251 299 377 439
#     4  12  28  52  78 112 151 195 254 313 375 447
#
# _framework density 28.933738000000002
#
# number of rings (size 3 to 8) (size 9 to 14) (size 15 to 20)
#    1.000    0.000    0.000    4.500    7.000    4.667 
#    0.000    1.667    0.000    0.000    0.000    0.000 
#    0.000    0.000    0.000    0.000    0.000    0.000 
#
# Total GULP energy -66818.355080 kJ/mol
# GULP energy per Si atom -5568.196257 kJ/mol
# Density = 2.886788 g / cm^3
# Si number density = 28.933738 Si / 1000 Ang^3
#
#
#
# Elastic Constant Matrix: (Units=GPa)
#
#
# Indices 1 2 3 4 5 6 
#
# 1 294.9263 91.6541 159.7158 29.4981 -10.9587 4.9219
# 2 91.6541 105.8278 51.4779 15.9744 0.5270 14.1803
# 3 159.7158 51.4779 328.3352 22.1744 2.0953 11.3339
# 4 29.4981 15.9744 22.1744 33.8908 22.0809 -7.1948
# 5 -10.9587 0.5270 2.0953 22.0809 84.4370 -4.1205
# 6 4.9219 14.1803 11.3339 -7.1948 -4.1205 72.9127
#
#
#
# Elastic Compliance Matrix: (Units=1/GPa)
#
#
# Indices 1 2 3 4 5 6 
#
# 1 0.006149 -0.003855 -0.002204 -0.003110 0.001713 0.000467
# 2 -0.003855 0.013717 0.000087 -0.003963 0.000312 -0.002794
# 3 -0.002204 0.000087 0.004185 -0.000865 -0.000194 -0.000615
# 4 -0.003110 -0.003963 -0.000865 0.043071 -0.011390 0.004722
# 5 0.001713 0.000312 -0.000194 -0.011390 0.015026 -0.000421
# 6 0.000467 -0.002794 -0.000615 0.004722 -0.000421 0.014765
#
#
# Mechanical properties :
#
#
# Convention : Reuss Voigt Hill
#
# Bulk Modulus (GPa) = 82.59803 148.30943 115.45373
# Shear Modulus (GPa) = 44.28968 66.66420 55.47694
#
# Velocity S-wave (km/s) = 3.91670 4.80524 4.38354
# Velocity P-wave (km/s) = 7.00452 9.06403 8.10000
#
# Compressibility (1/GPa) = 0.01210683
#
# Stress axis : x y z
#
# Youngs Moduli (GPa) = 162.62531 72.90150 238.95222
#
# Poissons Ratio (x) = 0.28106 0.52659
# Poissons Ratio (y) = 0.62697 -0.02076
# Poissons Ratio (z) = 0.35839 -0.00633
#
# Static dielectric constant tensor:
#      x y z
#    x 2.406030 -0.077560 0.014910 
#    y -0.077560 2.624370 -0.445440 
#    z 0.014910 -0.445440 2.909860 
# 
# From -- ./inp_files/592430.got.cif
#   From: 2010.05.17/outbox.cif.g08.bks.cpg/sg2_297_cif.got.tgz:592430.got - 2010.06.03 11:33:40.
