data_PCOD9049038
_publ_section_title
;
Structure prediction by ZEFSAII (Michael W. Deem and Ramdas Pophale) SiO2 
 PCOD9049038
Probable space group: P -1
;
_chemical_formula_sum "Si O2"
_cell_formula_units_Z 16
_cell_length_a 10.446967
_cell_length_b 13.095378
_cell_length_c 11.348323
_cell_angle_alpha 116.062715
_cell_angle_beta 150.856356
_cell_angle_gamma 66.081726
_cell_volume 678.363889
_symmetry_space_group_name_H-M "P -1"
_symmetry_group_IT_number 2
_symmetry_cell_setting 'triclinic'
loop_
_space_group_symop_operation_xyz
x,y,z
-x,-y,-z
loop_
_atom_site_type_symbol
_atom_site_label
_atom_site_fract_x
_atom_site_fract_y
_atom_site_fract_z
Si Si1 0.320569 0.837320 0.986878
Si Si2 0.511561 0.974072 0.634759
Si Si3 0.169234 0.424371 0.434711
Si Si4 0.901189 0.215156 0.750805
Si Si5 0.812240 0.459931 0.724245
Si Si6 0.812747 0.989729 0.228927
Si Si7 0.071678 0.208997 0.139637
Si Si8 0.651922 0.413582 0.165294
O O1 0.433396 0.716011 0.967025
O O2 0.145630 0.809221 0.946070
O O3 0.154869 0.910879 0.793316
O O4 0.524623 0.920184 0.253023
O O5 0.318008 0.877146 0.462425
O O6 0.796838 0.912372 0.849600
O O7 0.500000 0.000000 0.500000
O O8 0.063058 0.489966 0.268001
O O9 0.262744 0.299698 0.398546
O O10 0.358870 0.514762 0.687291
O O11 0.950345 0.402958 0.347078
O O12 0.823554 0.323534 0.665640
O O13 0.136715 0.137007 0.846341
O O14 0.961535 0.256317 0.952192
O O15 0.500000 0.500000 0.500000
O O16 0.000000 0.500000 0.000000
O O17 0.000000 0.000000 0.500000
O O18 0.500000 0.000000 0.000000
O O19 0.500000 0.500000 0.000000
#
# Coordination Sequence:
#
# PCOD9049038 Si02
#       8
#     2   2   2   2   2   2   2   2
#     4  11  24  46  70 109 142 191 257 305 379 446
#     4  12  23  39  72 108 141 188 233 320 383 439
#     4  10  24  46  67 105 142 188 249 301 378 440
#     4  12  26  46  73 107 152 192 253 310 383 446
#     4  12  28  46  77 113 153 200 245 310 388 456
#     4  12  29  50  71 102 153 205 252 301 366 455
#     4  11  22  43  74 107 142 176 251 317 382 440
#     4  10  25  45  73 102 144 196 249 314 368 447
#
# _framework density 23.586161000000001
#
# number of rings (size 3 to 8) (size 9 to 14) (size 15 to 20)
#    0.000    0.750    3.750    2.625    5.250    1.000 
#    4.500    0.000    0.000    0.000    0.000    0.000 
#    0.000    0.000    0.000    0.000    0.000    0.000 
#
# Total GULP energy -89376.288345 kJ/mol
# GULP energy per Si atom -5586.018022 kJ/mol
# Density = 2.353248 g / cm^3
# Si number density = 23.586161 Si / 1000 Ang^3
#
#
#
# Elastic Constant Matrix: (Units=GPa)
#
#
# Indices 1 2 3 4 5 6 
#
# 1 57.6819 18.5440 22.8567 5.8471 -12.1323 -2.1971
# 2 18.5440 181.1974 47.1970 24.7879 -12.4801 -9.7077
# 3 22.8567 47.1970 113.6086 19.3326 -31.4611 -17.5058
# 4 5.8471 24.7879 19.3326 48.9651 -2.5343 -8.0412
# 5 -12.1323 -12.4801 -31.4611 -2.5343 48.1686 -9.1460
# 6 -2.1971 -9.7077 -17.5058 -8.0412 -9.1460 29.6586
#
#
#
# Elastic Compliance Matrix: (Units=1/GPa)
#
#
# Indices 1 2 3 4 5 6 
#
# 1 0.019359 -0.001027 -0.002454 -0.000594 0.003058 0.000432
# 2 -0.001027 0.006489 -0.002069 -0.002314 -0.000014 0.000195
# 3 -0.002454 -0.002069 0.015162 -0.002329 0.010667 0.010748
# 4 -0.000594 -0.002314 -0.002329 0.023233 -0.000281 0.004036
# 5 0.003058 -0.000014 0.010667 -0.000281 0.031550 0.016171
# 6 0.000432 0.000195 0.010748 0.004036 0.016171 0.046238
#
#
# Mechanical properties :
#
#
# Convention : Reuss Voigt Hill
#
# Bulk Modulus (GPa) = 33.43384 58.85371 46.14377
# Shear Modulus (GPa) = 30.65607 42.95114 36.80360
#
# Velocity S-wave (km/s) = 3.60911 4.27198 3.95446
# Velocity P-wave (km/s) = 5.61904 7.02424 6.36056
#
# Compressibility (1/GPa) = 0.02990982
#
# Stress axis : x y z
#
# Youngs Moduli (GPa) = 51.65617 154.10784 65.95544
#
# Poissons Ratio (x) = 0.15829 0.16183
# Poissons Ratio (y) = 0.05306 0.13646
# Poissons Ratio (z) = 0.12675 0.31885
#
# Static dielectric constant tensor:
#      x y z
#    x 1.970050 -0.022480 0.020770 
#    y -0.022480 1.952750 -0.060860 
#    z 0.020770 -0.060860 2.022700 
# 
# From -- ./inp_files/75723.got.cif
#   From: 2010.05.17/outbox.cif.g08.bks.cpg/sg2_38_cif.got.tgz:75723.got - 2010.06.03 11:33:40.
