data_PCOD9049450
_publ_section_title
;
Structure prediction by ZEFSAII (Michael W. Deem and Ramdas Pophale) SiO2 
 PCOD9049450
Probable space group: P -1
;
_chemical_formula_sum "Si O2"
_cell_formula_units_Z 10
_cell_length_a 14.049006
_cell_length_b 10.585867
_cell_length_c 14.695772
_cell_angle_alpha 31.881792
_cell_angle_beta 20.428719
_cell_angle_gamma 30.257683
_cell_volume 374.475835
_symmetry_space_group_name_H-M "P -1"
_symmetry_group_IT_number 2
_symmetry_cell_setting 'triclinic'
loop_
_space_group_symop_operation_xyz
x,y,z
-x,-y,-z
loop_
_atom_site_type_symbol
_atom_site_label
_atom_site_fract_x
_atom_site_fract_y
_atom_site_fract_z
Si Si1 0.316875 0.283209 0.870388
Si Si2 0.480839 0.096285 0.655574
Si Si3 0.932515 0.010925 0.159865
Si Si4 0.837152 0.552335 0.745378
Si Si5 0.383210 0.702234 0.217249
O O1 0.487491 0.328906 0.777646
O O2 0.520105 0.234571 0.627328
O O3 0.000000 0.500000 0.000000
O O4 0.291927 0.004522 0.085766
O O5 0.637100 0.794688 0.719071
O O6 0.618456 0.130297 0.415953
O O7 0.138558 0.150690 0.927944
O O8 0.058204 0.703483 0.252177
O O9 0.000000 0.000000 0.000000
O O10 0.108030 0.617238 0.502621
O O11 0.634694 0.544318 0.017189
#
# Coordination Sequence:
#
# PCOD9049450 Si02
#       5
#     2   2   2   2   2
#     4  10  24  47  75 107 146 188 238 296 348 428
#     4  11  24  45  73 102 139 192 237 281 362 427
#     4  12  26  45  71 106 145 180 238 302 351 420
#     4  11  23  47  74 101 144 186 232 293 355 429
#     4  10  24  46  74 108 141 188 236 288 362 421
#
# _framework density 26.703994000000002
#
# number of rings (size 3 to 8) (size 9 to 14) (size 15 to 20)
#    0.000    1.200    0.000    5.400    2.800    8.800 
#    3.600   10.000    0.000    0.000    0.000    0.000 
#    0.000    0.000    0.000    0.000    0.000    0.000 
#
# Total GULP energy -56079.465835 kJ/mol
# GULP energy per Si atom -5607.946583 kJ/mol
# Density = 2.664321 g / cm^3
# Si number density = 26.703994 Si / 1000 Ang^3
#
#
#
# Elastic Constant Matrix: (Units=GPa)
#
#
# Indices 1 2 3 4 5 6 
#
# 1 111.9659 3.2277 46.4659 4.6614 18.1075 1.9000
# 2 3.2277 120.8828 3.1191 -3.6780 6.9023 3.2179
# 3 46.4659 3.1191 110.4190 0.7062 -7.0720 4.4703
# 4 4.6614 -3.6780 0.7062 29.6423 -2.6278 2.7736
# 5 18.1075 6.9023 -7.0720 -2.6278 61.2543 3.6359
# 6 1.9000 3.2179 4.4703 2.7736 3.6359 53.0794
#
#
#
# Elastic Compliance Matrix: (Units=1/GPa)
#
#
# Indices 1 2 3 4 5 6 
#
# 1 0.011891 -0.000016 -0.005278 -0.002162 -0.004241 0.000423
# 2 -0.000016 0.008375 -0.000275 0.001013 -0.000899 -0.000475
# 3 -0.005278 -0.000275 0.011514 0.000884 0.003019 -0.001017
# 4 -0.002162 0.001013 0.000884 0.034567 0.002230 -0.002017
# 5 -0.004241 -0.000899 0.003019 0.002230 0.018208 -0.001412
# 6 0.000423 -0.000475 -0.001017 -0.002017 -0.001412 0.019141
#
#
# Mechanical properties :
#
#
# Convention : Reuss Voigt Hill
#
# Bulk Modulus (GPa) = 48.44547 49.87700 49.16123
# Shear Modulus (GPa) = 41.07973 48.15887 44.61930
#
# Velocity S-wave (km/s) = 3.92642 4.25129 4.09208
# Velocity P-wave (km/s) = 6.22388 6.54341 6.38565
#
# Compressibility (1/GPa) = 0.02064177
#
# Stress axis : x y z
#
# Youngs Moduli (GPa) = 84.09824 119.40584 86.84911
#
# Poissons Ratio (x) = 0.00194 0.45841
# Poissons Ratio (y) = 0.00136 0.02385
# Poissons Ratio (z) = 0.44389 0.03278
#
# Static dielectric constant tensor:
#      x y z
#    x 2.174460 -0.038540 -0.007260 
#    y -0.038540 2.132660 -0.137480 
#    z -0.007260 -0.137480 2.115700 
# 
# From -- ./inp_files/34871.got.cif
#   From: 2010.05.17/outbox.cif.g08.bks.cpg/sg2_18_cif.got.tgz:34871.got - 2010.06.03 11:33:40.
