data_PCOD9049015
_publ_section_title
;
Structure prediction by ZEFSAII (Michael W. Deem and Ramdas Pophale) SiO2 
 PCOD9049015
Probable space group: P -1
;
_chemical_formula_sum "Si O2"
_cell_formula_units_Z 16
_cell_length_a 22.462079
_cell_length_b 10.086723
_cell_length_c 6.594229
_cell_angle_alpha 49.863875
_cell_angle_beta 129.035609
_cell_angle_gamma 139.845097
_cell_volume 707.501732
_symmetry_space_group_name_H-M "P -1"
_symmetry_group_IT_number 2
_symmetry_cell_setting 'triclinic'
loop_
_space_group_symop_operation_xyz
x,y,z
-x,-y,-z
loop_
_atom_site_type_symbol
_atom_site_label
_atom_site_fract_x
_atom_site_fract_y
_atom_site_fract_z
Si Si1 0.149206 0.130757 0.192170
Si Si2 0.045612 0.690973 0.662790
Si Si3 0.321844 0.339492 0.627622
Si Si4 0.460970 0.289334 0.758912
Si Si5 0.172519 0.991835 0.979529
Si Si6 0.300288 0.868410 0.579959
Si Si7 0.125693 0.485017 0.796462
Si Si8 0.412665 0.772140 0.632605
O O1 0.260722 0.274081 0.355300
O O2 0.095953 0.902170 0.415968
O O3 0.139397 0.088597 0.974423
O O4 0.111850 0.267375 0.040521
O O5 0.086064 0.561916 0.803480
O O6 0.934988 0.556977 0.496744
O O7 0.082702 0.787035 0.869777
O O8 0.399767 0.296232 0.800423
O O9 0.245084 0.174915 0.793116
O O10 0.368563 0.582048 0.559842
O O11 0.500000 0.500000 0.500000
O O12 0.391229 0.075454 0.684947
O O13 0.544516 0.289614 0.035999
O O14 0.232978 0.930037 0.290605
O O15 0.235785 0.674540 0.792755
O O16 0.335822 0.796186 0.544258
O O17 0.500000 0.000000 0.500000
#
# Coordination Sequence:
#
# PCOD9049015 Si02
#       8
#     2   2   2   2   2   2   2   2
#     4  11  23  44  70  99 138 181 226 278 338 411
#     4  10  24  46  66 105 138 181 224 280 341 403
#     4  11  24  43  68  96 132 180 226 277 346 404
#     4  12  25  45  69  95 137 184 227 289 347 412
#     4  11  22  45  70  97 139 177 227 278 339 414
#     4  12  24  42  69 100 133 179 227 282 342 404
#     4  11  24  43  71 100 141 177 228 282 338 410
#     4  12  27  42  65 102 137 173 234 290 344 412
#
# _framework density 22.614782999999999
#
# number of rings (size 3 to 8) (size 9 to 14) (size 15 to 20)
#    0.000    0.750    2.500    4.875    5.250    1.000 
#    0.000    0.000    0.000    0.000    0.000    0.000 
#    0.000    0.000    0.000    0.000    0.000    0.000 
#
# Total GULP energy -89648.477400 kJ/mol
# GULP energy per Si atom -5603.029838 kJ/mol
# Density = 2.256331 g / cm^3
# Si number density = 22.614783 Si / 1000 Ang^3
#
#
#
# Elastic Constant Matrix: (Units=GPa)
#
#
# Indices 1 2 3 4 5 6 
#
# 1 41.2552 18.7288 1.5105 -21.1653 6.1733 -9.5577
# 2 18.7288 125.5917 21.9133 13.7051 0.4702 -18.5575
# 3 1.5105 21.9133 52.6902 -4.5423 -4.7304 -5.5703
# 4 -21.1653 13.7051 -4.5423 41.3139 -6.3193 6.7148
# 5 6.1733 0.4702 -4.7304 -6.3193 29.1893 -2.6577
# 6 -9.5577 -18.5575 -5.5703 6.7148 -2.6577 38.8567
#
#
#
# Elastic Compliance Matrix: (Units=1/GPa)
#
#
# Indices 1 2 3 4 5 6 
#
# 1 0.041596 -0.009365 0.004794 0.024231 -0.002433 0.002092
# 2 -0.009365 0.012041 -0.005233 -0.010216 -0.000872 0.004403
# 3 0.004794 -0.005233 0.022113 0.007130 0.004280 0.000911
# 4 0.024231 -0.010216 0.007130 0.042336 0.004917 -0.004877
# 5 -0.002433 -0.000872 0.004280 0.004917 0.036660 0.001256
# 6 0.002092 0.004403 0.000911 -0.004877 0.001256 0.029412
#
#
# Mechanical properties :
#
#
# Convention : Reuss Voigt Hill
#
# Bulk Modulus (GPa) = 17.81216 33.76023 25.78620
# Shear Modulus (GPa) = 22.47399 33.69762 28.08580
#
# Velocity S-wave (km/s) = 3.15584 3.86433 3.52791
# Velocity P-wave (km/s) = 4.60136 5.90521 5.29358
#
# Compressibility (1/GPa) = 0.05614141
#
# Stress axis : x y z
#
# Youngs Moduli (GPa) = 24.04093 83.05256 45.22253
#
# Poissons Ratio (x) = 0.77782 -0.21681
# Poissons Ratio (y) = 0.22515 0.23663
# Poissons Ratio (z) = -0.11526 0.43459
#
# Static dielectric constant tensor:
#      x y z
#    x 1.798450 0.018330 -0.007370 
#    y 0.018330 1.836700 0.003990 
#    z -0.007370 0.003990 1.838050 
# 
# From -- ./inp_files/116735.got.cif
#   From: 2010.05.17/outbox.cif.g08.bks.cpg/sg2_59_cif.got.tgz:116735.got - 2010.06.03 11:33:40.
