data_PCOD9049087
_publ_section_title
;
Structure prediction by ZEFSAII (Michael W. Deem and Ramdas Pophale) SiO2 
 PCOD9049087
Probable space group: P -1
;
_chemical_formula_sum "Si O2"
_cell_formula_units_Z 16
_cell_length_a 11.051294
_cell_length_b 9.128126
_cell_length_c 18.074471
_cell_angle_alpha 140.753129
_cell_angle_beta 50.737647
_cell_angle_gamma 99.722852
_cell_volume 674.272254
_symmetry_space_group_name_H-M "P -1"
_symmetry_group_IT_number 2
_symmetry_cell_setting 'triclinic'
loop_
_space_group_symop_operation_xyz
x,y,z
-x,-y,-z
loop_
_atom_site_type_symbol
_atom_site_label
_atom_site_fract_x
_atom_site_fract_y
_atom_site_fract_z
Si Si1 0.306841 0.482330 0.752659
Si Si2 0.238497 0.061861 0.681937
Si Si3 0.205294 0.335007 0.584779
Si Si4 0.967698 0.189619 0.701531
Si Si5 0.614828 0.144016 0.306540
Si Si6 0.387471 0.127106 0.937986
Si Si7 0.839798 0.855406 0.682310
Si Si8 0.833772 0.927500 0.880223
O O1 0.551432 0.275688 0.557622
O O2 0.197375 0.501711 0.727230
O O3 0.290681 0.279115 0.733930
O O4 0.207602 0.798912 0.952116
O O5 0.209916 0.038916 0.770445
O O6 0.054710 0.174231 0.742686
O O7 0.442650 0.119276 0.385092
O O8 0.126839 0.158086 0.570640
O O9 0.057404 0.599764 0.685594
O O10 0.935190 0.947791 0.624719
O O11 0.752151 0.522606 0.896546
O O12 0.500000 0.500000 0.500000
O O13 0.671760 0.023151 0.154470
O O14 0.626240 0.958085 0.776740
O O15 0.323150 0.106837 0.036491
O O16 0.800040 0.003337 0.836618
O O17 0.000000 0.500000 0.500000
#
# Coordination Sequence:
#
# PCOD9049087 Si02
#       8
#     2   2   2   2   2   2   2   2
#     4   9  18  36  65  98 137 167 215 267 328 402
#     4   9  20  37  63 103 131 172 212 263 339 395
#     4   9  20  42  64 104 135 177 214 267 342 398
#     4  10  24  46  68  92 138 174 226 279 331 398
#     4  11  23  38  70 103 142 174 216 274 335 405
#     4  11  25  47  65 101 134 176 227 277 334 398
#     4  12  28  47  69  96 128 179 234 284 334 397
#     4  11  23  41  70  94 133 176 222 279 332 396
#
# _framework density 23.729285999999998
#
# number of rings (size 3 to 8) (size 9 to 14) (size 15 to 20)
#    0.000    1.750    0.000    4.125    7.000    2.500 
#    0.000    5.625    0.000    0.000    0.000    0.000 
#    0.000    0.000    0.000    0.000    0.000    0.000 
#
# Total GULP energy -89558.029357 kJ/mol
# GULP energy per Si atom -5597.376835 kJ/mol
# Density = 2.367528 g / cm^3
# Si number density = 23.729286 Si / 1000 Ang^3
#
#
#
# Elastic Constant Matrix: (Units=GPa)
#
#
# Indices 1 2 3 4 5 6 
#
# 1 73.9349 39.1773 13.9353 -11.3246 -15.9888 -15.1998
# 2 39.1773 102.7115 33.5504 7.1897 -5.1489 0.3554
# 3 13.9353 33.5504 56.5726 0.9264 -10.4548 12.3088
# 4 -11.3246 7.1897 0.9264 25.4980 -5.7492 1.6398
# 5 -15.9888 -5.1489 -10.4548 -5.7492 41.5494 -10.5952
# 6 -15.1998 0.3554 12.3088 1.6398 -10.5952 41.0896
#
#
#
# Elastic Compliance Matrix: (Units=1/GPa)
#
#
# Indices 1 2 3 4 5 6 
#
# 1 0.028907 -0.011281 -0.000959 0.018678 0.015739 0.014391
# 2 -0.011281 0.016956 -0.007582 -0.010764 -0.006476 -0.003289
# 3 -0.000959 -0.007582 0.024489 0.002026 0.003392 -0.006831
# 4 0.018678 -0.010764 0.002026 0.053524 0.015901 0.008359
# 5 0.015739 -0.006476 0.003392 0.015901 0.035808 0.013461
# 6 0.014391 -0.003289 -0.006831 0.008359 0.013461 0.034873
#
#
# Mechanical properties :
#
#
# Convention : Reuss Voigt Hill
#
# Bulk Modulus (GPa) = 32.56430 45.17167 38.86799
# Shear Modulus (GPa) = 20.45541 31.39779 25.92660
#
# Velocity S-wave (km/s) = 2.93922 3.64148 3.30903
# Velocity P-wave (km/s) = 5.02710 6.06285 5.56910
#
# Compressibility (1/GPa) = 0.03070847
#
# Stress axis : x y z
#
# Youngs Moduli (GPa) = 34.59412 58.97718 40.83493
#
# Poissons Ratio (x) = 0.66532 0.03915
# Poissons Ratio (y) = 0.39025 0.30960
# Poissons Ratio (z) = 0.03317 0.44715
#
# Static dielectric constant tensor:
#      x y z
#    x 1.909650 0.001440 0.024100 
#    y 0.001440 1.911970 -0.038530 
#    z 0.024100 -0.038530 1.899820 
# 
# From -- ./inp_files/245674.got.cif
#   From: 2010.05.17/outbox.cif.g08.bks.cpg/sg2_123_cif.got.tgz:245674.got - 2010.06.03 11:33:40.
