data_PCOD9049746
_publ_section_title
;
Structure prediction by ZEFSAII (Michael W. Deem and Ramdas Pophale) SiO2 
 PCOD9049746
Probable space group: P -1
;
_chemical_formula_sum "Si O2"
_cell_formula_units_Z 14
_cell_length_a 5.380755
_cell_length_b 10.998256
_cell_length_c 15.323528
_cell_angle_alpha 142.110351
_cell_angle_beta 70.570770
_cell_angle_gamma 97.535497
_cell_volume 511.516626
_symmetry_space_group_name_H-M "P -1"
_symmetry_group_IT_number 2
_symmetry_cell_setting 'triclinic'
loop_
_space_group_symop_operation_xyz
x,y,z
-x,-y,-z
loop_
_atom_site_type_symbol
_atom_site_label
_atom_site_fract_x
_atom_site_fract_y
_atom_site_fract_z
Si Si1 0.257559 0.879260 0.458653
Si Si2 0.261183 0.969296 0.070007
Si Si3 0.012284 0.370326 0.294099
Si Si4 0.291720 0.660363 0.170195
Si Si5 0.714904 0.340603 0.489043
Si Si6 0.480823 0.990967 0.232283
Si Si7 0.006090 0.626871 0.903277
O O1 0.364471 0.680536 0.273755
O O2 0.179595 0.808332 0.522646
O O3 0.500000 0.000000 0.500000
O O4 0.000000 0.000000 0.500000
O O5 0.293706 0.064337 0.213398
O O6 0.017067 0.130631 0.147589
O O7 0.238764 0.743382 0.961276
O O8 0.500000 0.000000 0.000000
O O9 0.275383 0.450596 0.340518
O O10 0.955531 0.440615 0.240941
O O11 0.813397 0.414052 0.424695
O O12 0.316456 0.868372 0.242005
O O13 0.024176 0.569871 0.150762
O O14 0.500000 0.500000 0.000000
O O15 0.537225 0.186783 0.385092
O O16 0.741978 0.815099 0.065589
#
# Coordination Sequence:
#
# PCOD9049746 Si02
#       7
#     2   2   2   2   2   2   2
#     4  12  27  52  78 109 153 199 249 316 383 450
#     4  12  24  39  69 101 135 188 235 298 360 433
#     4  11  23  42  68  97 142 187 236 291 368 433
#     4  10  24  47  73 105 141 193 250 308 378 443
#     4  11  24  44  71 100 143 185 238 300 368 449
#     4  11  23  43  70 101 137 184 242 300 367 435
#     4  11  22  46  66  96 145 180 244 300 361 441
#
# _framework density 27.369589000000001
#
# number of rings (size 3 to 8) (size 9 to 14) (size 15 to 20)
#    0.000    0.857    5.714    1.286    2.000    1.143 
#    7.714    0.000    0.000    0.000    0.000    0.000 
#    0.000    0.000    0.000    0.000    0.000    0.000 
#
# Total GULP energy -77944.753457 kJ/mol
# GULP energy per Si atom -5567.482390 kJ/mol
# Density = 2.730729 g / cm^3
# Si number density = 27.369589 Si / 1000 Ang^3
#
#
#
# Elastic Constant Matrix: (Units=GPa)
#
#
# Indices 1 2 3 4 5 6 
#
# 1 64.2691 61.6562 53.5271 7.1670 15.5349 20.1910
# 2 61.6562 226.8206 62.4562 6.4324 18.9493 30.7627
# 3 53.5271 62.4562 164.3264 -2.4094 38.3477 10.4706
# 4 7.1670 6.4324 -2.4094 67.0313 16.3201 21.9506
# 5 15.5349 18.9493 38.3477 16.3201 54.2400 7.7491
# 6 20.1910 30.7627 10.4706 21.9506 7.7491 30.2256
#
#
#
# Elastic Compliance Matrix: (Units=1/GPa)
#
#
# Indices 1 2 3 4 5 6 
#
# 1 0.030005 -0.004253 -0.007073 0.001816 -0.000592 -0.014431
# 2 -0.004253 0.006303 -0.000653 0.001275 -0.000307 -0.004195
# 3 -0.007073 -0.000653 0.009827 0.001845 -0.005544 0.002066
# 4 0.001816 0.001275 0.001845 0.021933 -0.006377 -0.017443
# 5 -0.000592 -0.000307 -0.005544 -0.006377 0.024409 0.001002
# 6 -0.014431 -0.004195 0.002066 -0.017443 0.001002 0.058689
#
#
# Mechanical properties :
#
#
# Convention : Reuss Voigt Hill
#
# Bulk Modulus (GPa) = 45.09176 90.07724 67.58450
# Shear Modulus (GPa) = 27.39489 48.81783 38.10636
#
# Velocity S-wave (km/s) = 3.16717 4.22791 3.73539
# Velocity P-wave (km/s) = 5.46677 7.53767 6.58415
#
# Compressibility (1/GPa) = 0.02217700
#
# Stress axis : x y z
#
# Youngs Moduli (GPa) = 33.32751 158.65292 101.76499
#
# Poissons Ratio (x) = 0.67483 0.71977
# Poissons Ratio (y) = 0.14176 0.06641
# Poissons Ratio (z) = 0.23572 0.10353
#
# Static dielectric constant tensor:
#      x y z
#    x 2.325630 0.027250 -0.125920 
#    y 0.027250 2.101460 -0.036190 
#    z -0.125920 -0.036190 2.169540 
# 
# From -- ./inp_files/94111.got.cif
#   From: 2010.05.17/outbox.cif.g08.bks.cpg/sg2_48_cif.got.tgz:94111.got - 2010.06.03 11:33:40.
