data_PCOD9049312
_publ_section_title
;
Structure prediction by ZEFSAII (Michael W. Deem and Ramdas Pophale) SiO2 
 PCOD9049312
Probable space group: P -1
;
_chemical_formula_sum "Si O2"
_cell_formula_units_Z 15
_cell_length_a 11.333538
_cell_length_b 10.986064
_cell_length_c 15.722167
_cell_angle_alpha 32.528924
_cell_angle_beta 46.880840
_cell_angle_gamma 67.590853
_cell_volume 666.748841
_symmetry_space_group_name_H-M "P -1"
_symmetry_group_IT_number 2
_symmetry_cell_setting 'triclinic'
loop_
_space_group_symop_operation_xyz
x,y,z
-x,-y,-z
loop_
_atom_site_type_symbol
_atom_site_label
_atom_site_fract_x
_atom_site_fract_y
_atom_site_fract_z
Si Si1 0.633404 0.090035 0.650657
Si Si2 0.000000 0.500000 0.000000
Si Si3 0.106430 0.990459 0.537713
Si Si4 0.188309 0.228759 0.969382
Si Si5 0.906456 0.668729 0.507843
Si Si6 0.080318 0.416375 0.679739
Si Si7 0.498245 0.772935 0.077084
Si Si8 0.727248 0.868991 0.205056
O O1 0.698621 0.979660 0.606662
O O2 0.468511 0.147675 0.674622
O O3 0.812203 0.348713 0.445880
O O4 0.564109 0.893115 0.880304
O O5 0.097623 0.405580 0.932733
O O6 0.994521 0.273449 0.201017
O O7 0.131355 0.220295 0.451470
O O8 0.000000 0.000000 0.500000
O O9 0.358256 0.298775 0.908380
O O10 0.260286 0.227576 0.839335
O O11 0.034319 0.927243 0.239103
O O12 0.020881 0.528407 0.564144
O O13 0.707375 0.465548 0.689464
O O14 0.221058 0.306461 0.658062
O O15 0.892916 0.168565 0.953621
O O16 0.500000 0.000000 0.000000
#
# Coordination Sequence:
#
# PCOD9049312 Si02
#       8
#     2   1   2   2   2   2   2   2
#     4  12  22  41  68 101 136 187 228 292 361 418
#     4  10  24  46  72 104 136 196 240 284 368 424
#     4  11  23  46  76 104 146 187 239 300 357 434
#     4  11  23  44  68  96 140 179 232 295 349 422
#     4  11  24  43  70 102 132 195 235 284 366 422
#     4  11  22  41  61  96 137 174 232 277 350 421
#     4  12  24  42  68 104 143 182 240 297 354 430
#     4  11  25  39  64 101 136 180 228 293 351 415
#
# _framework density 22.497226999999999
#
# number of rings (size 3 to 8) (size 9 to 14) (size 15 to 20)
#    0.000    0.800    5.333    2.000    1.867    1.600 
#    0.000    4.000    0.000    0.000    0.000    0.000 
#    0.000    0.000    0.000    0.000    0.000    0.000 
#
# Total GULP energy -83773.739389 kJ/mol
# GULP energy per Si atom -5584.915959 kJ/mol
# Density = 2.244602 g / cm^3
# Si number density = 22.497227 Si / 1000 Ang^3
#
#
#
# Elastic Constant Matrix: (Units=GPa)
#
#
# Indices 1 2 3 4 5 6 
#
# 1 144.5388 54.8244 66.5659 -7.2807 -4.8003 -16.2429
# 2 54.8244 138.6755 43.5602 13.1814 -8.0680 -21.7753
# 3 66.5659 43.5602 96.4412 -5.7347 -4.8507 -3.0566
# 4 -7.2807 13.1814 -5.7347 41.6046 4.2362 8.1110
# 5 -4.8003 -8.0680 -4.8507 4.2362 48.5199 2.6671
# 6 -16.2429 -21.7753 -3.0566 8.1110 2.6671 33.9569
#
#
#
# Elastic Compliance Matrix: (Units=1/GPa)
#
#
# Indices 1 2 3 4 5 6 
#
# 1 0.011119 -0.001892 -0.006664 0.001003 -0.000148 0.003278
# 2 -0.001892 0.010824 -0.003636 -0.005761 0.001369 0.006977
# 3 -0.006664 -0.003636 0.016667 0.003181 0.000389 -0.004809
# 4 0.001003 -0.005761 0.003181 0.028595 -0.002512 -0.009561
# 5 -0.000148 0.001369 0.000389 -0.002512 0.021093 -0.000215
# 6 0.003278 0.006977 -0.004809 -0.009561 -0.000215 0.037359
#
#
# Mechanical properties :
#
#
# Convention : Reuss Voigt Hill
#
# Bulk Modulus (GPa) = 70.28942 78.83962 74.56452
# Shear Modulus (GPa) = 32.30329 39.12996 35.71663
#
# Velocity S-wave (km/s) = 3.79341 4.17504 3.98879
# Velocity P-wave (km/s) = 7.10620 7.63947 7.37766
#
# Compressibility (1/GPa) = 0.01422689
#
# Stress axis : x y z
#
# Youngs Moduli (GPa) = 89.93452 92.38843 59.99790
#
# Poissons Ratio (x) = 0.17478 0.39984
# Poissons Ratio (y) = 0.17014 0.21813
# Poissons Ratio (z) = 0.59934 0.33590
#
# Static dielectric constant tensor:
#      x y z
#    x 1.850140 0.015680 0.033500 
#    y 0.015680 1.861230 0.016460 
#    z 0.033500 0.016460 1.843990 
# 
# From -- ./inp_files/568441.got.cif
#   From: 2010.05.17/outbox.cif.g08.bks.cpg/sg2_285_cif.got.tgz:568441.got - 2010.06.03 11:33:40.
