data_PCOD9049555
_publ_section_title
;
Structure prediction by ZEFSAII (Michael W. Deem and Ramdas Pophale) SiO2 
 PCOD9049555
Probable space group: P -1
;
_chemical_formula_sum "Si O2"
_cell_formula_units_Z 14
_cell_length_a 10.519287
_cell_length_b 12.252166
_cell_length_c 5.555675
_cell_angle_alpha 86.419493
_cell_angle_beta 123.689172
_cell_angle_gamma 110.262654
_cell_volume 551.151712
_symmetry_space_group_name_H-M "P -1"
_symmetry_group_IT_number 2
_symmetry_cell_setting 'triclinic'
loop_
_space_group_symop_operation_xyz
x,y,z
-x,-y,-z
loop_
_atom_site_type_symbol
_atom_site_label
_atom_site_fract_x
_atom_site_fract_y
_atom_site_fract_z
Si Si1 0.156652 0.024333 0.886435
Si Si2 0.664538 0.578673 0.314170
Si Si3 0.190593 0.570314 0.178987
Si Si4 0.015629 0.202988 0.515251
Si Si5 0.553299 0.292867 0.883693
Si Si6 0.696265 0.209547 0.431767
Si Si7 0.354805 0.048003 0.580537
O O1 0.065651 0.116892 0.758115
O O2 0.263555 0.045096 0.744250
O O3 0.250843 0.046253 0.233506
O O4 0.037270 0.885504 0.759068
O O5 0.718404 0.496827 0.558331
O O6 0.831337 0.672237 0.356964
O O7 0.593163 0.668047 0.355532
O O8 0.500000 0.500000 0.000000
O O9 0.278630 0.598201 0.010950
O O10 0.220467 0.701043 0.282762
O O11 0.000000 0.500000 0.000000
O O12 0.851804 0.223033 0.420033
O O13 0.514660 0.167002 0.736507
O O14 0.567053 0.260796 0.177546
O O15 0.609491 0.070509 0.384229
#
# Coordination Sequence:
#
# PCOD9049555 Si02
#       7
#     2   2   2   2   2   2   2
#     4  10  24  48  76 119 148 204 252 321 386 472
#     4  12  26  49  78 106 153 204 259 318 381 460
#     4  12  30  48  76 108 150 206 260 313 384 468
#     4  10  24  46  79 107 154 197 259 312 389 460
#     4  12  27  50  74 110 148 201 256 323 383 459
#     4  11  27  48  73 111 152 199 247 323 390 464
#     4  11  26  46  83 112 156 194 261 322 396 451
#
# _framework density 25.401351999999999
#
# number of rings (size 3 to 8) (size 9 to 14) (size 15 to 20)
#    0.000    0.857    2.857    1.714   12.000    8.000 
#    0.000    0.000    0.000    0.000    0.000    0.000 
#    0.000    0.000    0.000    0.000    0.000    0.000 
#
# Total GULP energy -78263.442511 kJ/mol
# GULP energy per Si atom -5590.245894 kJ/mol
# Density = 2.534354 g / cm^3
# Si number density = 25.401352 Si / 1000 Ang^3
#
#
#
# Elastic Constant Matrix: (Units=GPa)
#
#
# Indices 1 2 3 4 5 6 
#
# 1 89.3608 46.5851 22.3544 -4.4229 9.5147 14.7324
# 2 46.5851 167.1516 32.9559 7.0021 14.4541 21.6559
# 3 22.3544 32.9559 115.6033 -7.0103 5.7949 16.8892
# 4 -4.4229 7.0021 -7.0103 51.5410 -3.8304 21.4467
# 5 9.5147 14.4541 5.7949 -3.8304 33.4940 4.9817
# 6 14.7324 21.6559 16.8892 21.4467 4.9817 44.3682
#
#
#
# Elastic Compliance Matrix: (Units=1/GPa)
#
#
# Indices 1 2 3 4 5 6 
#
# 1 0.014087 -0.003211 -0.000949 0.003104 -0.001490 -0.004082
# 2 -0.003211 0.007530 -0.001285 -0.001047 -0.002029 -0.001386
# 3 -0.000949 -0.001285 0.010057 0.003353 0.000140 -0.004523
# 4 0.003104 -0.001047 0.003353 0.026964 0.004352 -0.015319
# 5 -0.001490 -0.002029 0.000140 0.004352 0.032267 -0.004295
# 6 -0.004082 -0.001386 -0.004523 -0.015319 -0.004295 0.034179
#
#
# Mechanical properties :
#
#
# Convention : Reuss Voigt Hill
#
# Bulk Modulus (GPa) = 48.11613 63.98960 56.05287
# Shear Modulus (GPa) = 34.98853 43.89533 39.44193
#
# Velocity S-wave (km/s) = 3.71540 4.16152 3.94477
# Velocity P-wave (km/s) = 6.11466 6.95249 6.54699
#
# Compressibility (1/GPa) = 0.02078305
#
# Stress axis : x y z
#
# Youngs Moduli (GPa) = 70.98538 132.80642 99.43085
#
# Poissons Ratio (x) = 0.42649 0.09440
# Poissons Ratio (y) = 0.22796 0.12777
# Poissons Ratio (z) = 0.06739 0.17065
#
# Static dielectric constant tensor:
#      x y z
#    x 2.150480 -0.005280 -0.041270 
#    y -0.005280 1.997750 0.013840 
#    z -0.041270 0.013840 2.018550 
# 
# From -- ./inp_files/31173.got.cif
#   From: 2010.05.17/outbox.cif.g08.bks.cpg/sg2_16_cif.got.tgz:31173.got - 2010.06.03 11:33:40.
