data_PCOD9049585
_publ_section_title
;
Structure prediction by ZEFSAII (Michael W. Deem and Ramdas Pophale) SiO2 
 PCOD9049585
Probable space group: P -1
;
_chemical_formula_sum "Si O2"
_cell_formula_units_Z 15
_cell_length_a 12.645336
_cell_length_b 9.530356
_cell_length_c 11.329720
_cell_angle_alpha 115.042801
_cell_angle_beta 56.609536
_cell_angle_gamma 144.368403
_cell_volume 663.335043
_symmetry_space_group_name_H-M "P -1"
_symmetry_group_IT_number 2
_symmetry_cell_setting 'triclinic'
loop_
_space_group_symop_operation_xyz
x,y,z
-x,-y,-z
loop_
_atom_site_type_symbol
_atom_site_label
_atom_site_fract_x
_atom_site_fract_y
_atom_site_fract_z
Si Si1 0.500000 0.500000 0.500000
Si Si2 0.782202 0.022289 0.835625
Si Si3 0.805799 0.906544 0.038910
Si Si4 0.886054 0.734280 0.453841
Si Si5 0.396380 0.502992 0.817495
Si Si6 0.201219 0.617276 0.467999
Si Si7 0.772581 0.330812 0.058384
Si Si8 0.363818 0.928642 0.717281
O O1 0.668596 0.557419 0.478778
O O2 0.373236 0.392140 0.669082
O O3 0.616705 0.778478 0.776441
O O4 0.814742 0.954286 0.911315
O O5 0.978589 0.224607 0.710655
O O6 0.702464 0.118516 0.949010
O O7 0.636033 0.635013 0.098226
O O8 0.759074 0.030578 0.167639
O O9 0.000000 0.000000 0.000000
O O10 0.861998 0.615417 0.544819
O O11 0.000000 0.000000 0.500000
O O12 0.258300 0.526257 0.919895
O O13 0.402764 0.815013 0.340279
O O14 0.000000 0.500000 0.500000
O O15 0.273650 0.768570 0.598141
O O16 0.664152 0.214977 0.208667
O O17 0.000000 0.500000 0.000000
#
# Coordination Sequence:
#
# PCOD9049585 Si02
#       8
#     1   2   2   2   2   2   2   2
#     4  12  24  44  72 102 148 186 228 302 356 424
#     4  11  25  45  67 106 138 184 241 296 353 434
#     4  11  24  45  70  99 143 186 234 296 364 427
#     4  12  26  46  72 106 142 185 250 297 363 434
#     4  12  24  42  71 105 140 188 236 295 359 420
#     4  11  26  45  72 102 144 192 241 299 360 433
#     4  11  23  45  72  98 142 186 239 293 353 434
#     4  10  24  47  67 103 143 188 237 291 364 429
#
# _framework density 22.613008000000001
#
# number of rings (size 3 to 8) (size 9 to 14) (size 15 to 20)
#    0.000    0.800    1.333    6.400    1.867    5.333 
#    9.600    0.000    0.000    0.000    0.000    0.000 
#    0.000    0.000    0.000    0.000    0.000    0.000 
#
# Total GULP energy -83612.027045 kJ/mol
# GULP energy per Si atom -5574.135136 kJ/mol
# Density = 2.256154 g / cm^3
# Si number density = 22.613008 Si / 1000 Ang^3
#
#
#
# Elastic Constant Matrix: (Units=GPa)
#
#
# Indices 1 2 3 4 5 6 
#
# 1 83.0183 12.6406 -5.7429 -8.5763 -15.4923 -2.2593
# 2 12.6406 80.6850 6.2614 -19.7804 -6.1893 -20.1371
# 3 -5.7429 6.2614 64.1050 -12.7466 -4.2298 -0.7921
# 4 -8.5763 -19.7804 -12.7466 30.2063 -1.6304 -1.3554
# 5 -15.4923 -6.1893 -4.2298 -1.6304 29.4018 -14.8897
# 6 -2.2593 -20.1371 -0.7921 -1.3554 -14.8897 30.4868
#
#
#
# Elastic Compliance Matrix: (Units=1/GPa)
#
#
# Indices 1 2 3 4 5 6 
#
# 1 0.016512 0.004528 0.004595 0.011158 0.017775 0.013511
# 2 0.004528 0.027477 0.004701 0.024177 0.026777 0.032759
# 3 0.004595 0.004701 0.019200 0.013620 0.012266 0.010541
# 4 0.011158 0.024177 0.013620 0.061407 0.035077 0.037012
# 5 0.017775 0.026777 0.012266 0.035077 0.084100 0.061956
# 6 0.013511 0.032759 0.010541 0.037012 0.061956 0.087619
#
#
# Mechanical properties :
#
#
# Convention : Reuss Voigt Hill
#
# Bulk Modulus (GPa) = 11.00891 28.23628 19.62259
# Shear Modulus (GPa) = 16.72545 32.32893 24.52719
#
# Velocity S-wave (km/s) = 2.72258 3.78519 3.29697
# Velocity P-wave (km/s) = 3.84216 5.62293 4.81558
#
# Compressibility (1/GPa) = 0.09083549
#
# Stress axis : x y z
#
# Youngs Moduli (GPa) = 60.56381 36.39418 52.08404
#
# Poissons Ratio (x) = -0.16478 -0.23934
# Poissons Ratio (y) = -0.27420 -0.24484
# Poissons Ratio (z) = -0.27831 -0.17108
#
# Static dielectric constant tensor:
#      x y z
#    x 1.845280 -0.000930 -0.023980 
#    y -0.000930 1.927630 0.088110 
#    z -0.023980 0.088110 2.004330 
# 
# From -- ./inp_files/417810.got.cif
#   From: 2010.05.17/outbox.cif.g08.bks.cpg/sg2_209_cif.got.tgz:417810.got - 2010.06.03 11:33:40.
