data_PCOD9049416
_publ_section_title
;
Structure prediction by ZEFSAII (Michael W. Deem and Ramdas Pophale) SiO2 
 PCOD9049416
Probable space group: P -1
;
_chemical_formula_sum "Si O2"
_cell_formula_units_Z 16
_cell_length_a 5.263647
_cell_length_b 9.747382
_cell_length_c 16.038467
_cell_angle_alpha 84.037017
_cell_angle_beta 105.981177
_cell_angle_gamma 132.315963
_cell_volume 581.104713
_symmetry_space_group_name_H-M "P -1"
_symmetry_group_IT_number 2
_symmetry_cell_setting 'triclinic'
loop_
_space_group_symop_operation_xyz
x,y,z
-x,-y,-z
loop_
_atom_site_type_symbol
_atom_site_label
_atom_site_fract_x
_atom_site_fract_y
_atom_site_fract_z
Si Si1 0.588441 0.252940 0.131581
Si Si2 0.529626 0.757286 0.205286
Si Si3 0.897087 0.222634 0.316551
Si Si4 0.325336 0.168862 0.462657
Si Si5 0.727310 0.572425 0.908880
Si Si6 0.195289 0.908134 0.334147
Si Si7 0.874806 0.413050 0.643412
Si Si8 0.207609 0.879763 0.055894
O O1 0.838936 0.248856 0.215261
O O2 0.460752 0.353502 0.150061
O O3 0.878745 0.361525 0.076627
O O4 0.237428 0.041134 0.089995
O O5 0.513033 0.630137 0.142278
O O6 0.320105 0.646196 0.279538
O O7 0.354656 0.824208 0.139608
O O8 0.941272 0.918676 0.258958
O O9 0.221351 0.256144 0.385373
O O10 0.883570 0.367026 0.352016
O O11 0.558632 0.004348 0.313426
O O12 0.616232 0.321420 0.545520
O O13 0.360154 0.044120 0.418579
O O14 0.000000 0.000000 0.500000
O O15 0.836536 0.686220 0.999844
O O16 0.978521 0.691416 0.341852
O O17 0.500000 0.000000 0.000000
#
# Coordination Sequence:
#
# PCOD9049416 Si02
#       8
#     2   2   2   2   2   2   2   2
#     4  11  24  47  75 111 149 194 252 310 384 452
#     4  12  25  48  74 105 152 197 246 314 383 452
#     4  12  27  45  76 109 146 196 255 312 381 453
#     4  12  25  48  71 105 151 194 249 315 379 453
#     4  11  25  48  75 108 151 194 251 316 378 456
#     4  12  26  45  75 104 146 198 250 314 383 450
#     4  12  26  49  72 109 147 194 255 310 382 457
#     4  10  24  46  73 111 149 195 251 313 380 455
#
# _framework density 27.533764000000001
#
# number of rings (size 3 to 8) (size 9 to 14) (size 15 to 20)
#    0.000    0.500    3.750    3.750    5.250    1.500 
#    4.500    3.125    0.000    0.000    0.000    0.000 
#    0.000    0.000    0.000    0.000    0.000    0.000 
#
# Total GULP energy -89387.615442 kJ/mol
# GULP energy per Si atom -5586.725965 kJ/mol
# Density = 2.747110 g / cm^3
# Si number density = 27.533764 Si / 1000 Ang^3
#
#
#
# Elastic Constant Matrix: (Units=GPa)
#
#
# Indices 1 2 3 4 5 6 
#
# 1 86.4077 19.6037 20.5908 -9.3201 1.0094 -19.8098
# 2 19.6037 134.4002 25.9920 18.6080 -16.7579 -29.8910
# 3 20.5908 25.9920 171.6409 10.7032 12.1624 -2.0648
# 4 -9.3201 18.6080 10.7032 30.2862 -15.1860 11.4912
# 5 1.0094 -16.7579 12.1624 -15.1860 40.7933 6.2073
# 6 -19.8098 -29.8910 -2.0648 11.4912 6.2073 40.4051
#
#
#
# Elastic Compliance Matrix: (Units=1/GPa)
#
#
# Indices 1 2 3 4 5 6 
#
# 1 0.013717 -0.001160 -0.001706 0.004073 0.000518 0.004542
# 2 -0.001160 0.012053 -0.000625 -0.012938 -0.001511 0.012228
# 3 -0.001706 -0.000625 0.006767 -0.005149 -0.004328 0.001176
# 4 0.004073 -0.012938 -0.005149 0.069538 0.026835 -0.031737
# 5 0.000518 -0.001511 -0.004328 0.026835 0.037360 -0.014456
# 6 0.004542 0.012228 0.001176 -0.031737 -0.014456 0.047329
#
#
# Mechanical properties :
#
#
# Convention : Reuss Voigt Hill
#
# Bulk Modulus (GPa) = 39.13092 58.31355 48.72224
# Shear Modulus (GPa) = 24.71994 44.04774 34.38384
#
# Velocity S-wave (km/s) = 2.99959 4.00405 3.53765
# Velocity P-wave (km/s) = 5.12245 6.52698 5.86690
#
# Compressibility (1/GPa) = 0.02555524
#
# Stress axis : x y z
#
# Youngs Moduli (GPa) = 72.90026 82.96674 147.76855
#
# Poissons Ratio (x) = 0.09626 0.25209
# Poissons Ratio (y) = 0.08458 0.09237
# Poissons Ratio (z) = 0.12437 0.05186
#
# Static dielectric constant tensor:
#      x y z
#    x 1.930210 0.086830 0.312000 
#    y 0.086830 2.147950 -0.141210 
#    z 0.312000 -0.141210 1.521570 
# 
# From -- ./inp_files/324144.got.cif
#   From: 2010.05.17/outbox.cif.g08.bks.cpg/sg2_163_cif.got.tgz:324144.got - 2010.06.03 11:33:40.
