data_PCOD9049664
_publ_section_title
;
Structure prediction by ZEFSAII (Michael W. Deem and Ramdas Pophale) SiO2 
 PCOD9049664
Probable space group: P -1
;
_chemical_formula_sum "Si O2"
_cell_formula_units_Z 16
_cell_length_a 7.507758
_cell_length_b 4.881022
_cell_length_c 19.169203
_cell_angle_alpha 82.615705
_cell_angle_beta 63.354854
_cell_angle_gamma 68.027427
_cell_volume 581.604451
_symmetry_space_group_name_H-M "P -1"
_symmetry_group_IT_number 2
_symmetry_cell_setting 'triclinic'
loop_
_space_group_symop_operation_xyz
x,y,z
-x,-y,-z
loop_
_atom_site_type_symbol
_atom_site_label
_atom_site_fract_x
_atom_site_fract_y
_atom_site_fract_z
Si Si1 0.018805 0.612666 0.283011
Si Si2 0.849644 0.279730 0.062249
Si Si3 0.791703 0.600959 0.458776
Si Si4 0.401227 0.409444 0.720447
Si Si5 0.659557 0.124604 0.553064
Si Si6 0.122483 0.980506 0.146601
Si Si7 0.494661 0.175430 0.209823
Si Si8 0.301118 0.398183 0.049526
O O1 0.053837 0.903722 0.236286
O O2 0.244098 0.349872 0.242303
O O3 0.960235 0.636830 0.373863
O O4 0.821144 0.561887 0.279247
O O5 0.623333 0.251802 0.122069
O O6 0.797838 0.564913 0.012509
O O7 0.950603 0.237521 0.123316
O O8 0.000000 0.000000 0.000000
O O9 0.809658 0.272345 0.484160
O O10 0.566439 0.747798 0.452571
O O11 0.759888 0.779927 0.530493
O O12 0.591389 0.242410 0.638347
O O13 0.432018 0.700698 0.735788
O O14 0.438036 0.174554 0.784183
O O15 0.153312 0.671790 0.113171
O O16 0.319094 0.090520 0.092897
O O17 0.500000 0.500000 0.000000
#
# Coordination Sequence:
#
# PCOD9049664 Si02
#       8
#     2   2   2   2   2   2   2   2
#     4  11  26  47  74 108 151 192 247 306 365 436
#     4  10  24  47  71 100 142 183 238 297 359 437
#     4   9  19  36  67 101 138 191 239 292 359 429
#     4  11  26  47  74 107 149 193 245 305 367 436
#     4   9  18  39  66  99 141 190 238 292 361 429
#     4  11  24  42  67  96 133 181 225 285 356 414
#     4  12  27  46  74 108 144 194 248 300 375 439
#     4  11  24  42  67  98 132 176 226 285 352 424
#
# _framework density 27.510104999999999
#
# number of rings (size 3 to 8) (size 9 to 14) (size 15 to 20)
#    0.000    1.500    1.250    2.250    1.750   10.000 
#    0.000    3.750    0.000    0.000    0.000    0.000 
#    0.000    0.000    0.000    0.000    0.000    0.000 
#
# Total GULP energy -89624.862727 kJ/mol
# GULP energy per Si atom -5601.553920 kJ/mol
# Density = 2.744749 g / cm^3
# Si number density = 27.510105 Si / 1000 Ang^3
#
#
#
# Elastic Constant Matrix: (Units=GPa)
#
#
# Indices 1 2 3 4 5 6 
#
# 1 122.1708 17.1484 18.9592 2.9535 -16.6735 -6.7157
# 2 17.1484 115.7587 33.4020 -8.8700 -11.2963 14.3621
# 3 18.9592 33.4020 176.9918 2.0419 -14.9462 6.4498
# 4 2.9535 -8.8700 2.0419 40.8985 1.1251 -5.5224
# 5 -16.6735 -11.2963 -14.9462 1.1251 33.0311 1.8964
# 6 -6.7157 14.3621 6.4498 -5.5224 1.8964 46.1141
#
#
#
# Elastic Compliance Matrix: (Units=1/GPa)
#
#
# Indices 1 2 3 4 5 6 
#
# 1 0.009043 -0.001057 -0.000482 -0.000769 0.003928 0.001460
# 2 -0.001057 0.009953 -0.001486 0.001852 0.002302 -0.002919
# 3 -0.000482 -0.001486 0.006193 -0.000742 0.002113 -0.000649
# 4 -0.000769 0.001852 -0.000742 0.025312 -0.001096 0.002491
# 5 0.003928 0.002302 0.002113 -0.001096 0.034152 -0.001976
# 6 0.001460 -0.002919 -0.000649 0.002491 -0.001976 0.023278
#
#
# Mechanical properties :
#
#
# Convention : Reuss Voigt Hill
#
# Bulk Modulus (GPa) = 52.24946 61.54896 56.89921
# Shear Modulus (GPa) = 41.54250 47.03617 44.28933
#
# Velocity S-wave (km/s) = 3.89019 4.13943 4.01675
# Velocity P-wave (km/s) = 6.26196 6.72817 6.49925
#
# Compressibility (1/GPa) = 0.01913895
#
# Stress axis : x y z
#
# Youngs Moduli (GPa) = 110.57836 100.47571 161.48181
#
# Poissons Ratio (x) = 0.10625 0.07780
# Poissons Ratio (y) = 0.11693 0.23989
# Poissons Ratio (z) = 0.05328 0.14926
#
# Static dielectric constant tensor:
#      x y z
#    x 2.403960 -0.018720 -0.038250 
#    y -0.018720 2.047860 0.056200 
#    z -0.038250 0.056200 2.183470 
# 
# From -- ./inp_files/605446.got.cif
#   From: 2010.05.17/outbox.cif.g08.bks.cpg/sg2_303_cif.got.tgz:605446.got - 2010.06.03 11:33:40.
