data_PCOD9049188
_publ_section_title
;
Structure prediction by ZEFSAII (Michael W. Deem and Ramdas Pophale) SiO2 
 PCOD9049188
Probable space group: P -1
;
_chemical_formula_sum "Si O2"
_cell_formula_units_Z 14
_cell_length_a 13.464345
_cell_length_b 10.054510
_cell_length_c 9.601168
_cell_angle_alpha 148.832768
_cell_angle_beta 58.693804
_cell_angle_gamma 123.076348
_cell_volume 559.506732
_symmetry_space_group_name_H-M "P -1"
_symmetry_group_IT_number 2
_symmetry_cell_setting 'triclinic'
loop_
_space_group_symop_operation_xyz
x,y,z
-x,-y,-z
loop_
_atom_site_type_symbol
_atom_site_label
_atom_site_fract_x
_atom_site_fract_y
_atom_site_fract_z
Si Si1 0.023437 0.693347 0.451251
Si Si2 0.215592 0.178541 0.181804
Si Si3 0.766944 0.262856 0.023571
Si Si4 0.250691 0.874818 0.632039
Si Si5 0.337316 0.092303 0.483120
Si Si6 0.397325 0.623857 0.527922
Si Si7 0.113549 0.286700 0.830515
O O1 0.274081 0.901965 0.234323
O O2 0.056745 0.449896 0.129107
O O3 0.888157 0.668038 0.576341
O O4 0.054842 0.974233 0.594217
O O5 0.347812 0.313715 0.262500
O O6 0.182121 0.915917 0.064259
O O7 0.228436 0.120864 0.959085
O O8 0.866000 0.530661 0.158563
O O9 0.652279 0.323703 0.238323
O O10 0.666682 0.065699 0.511606
O O11 0.319998 0.732797 0.564011
O O12 0.118962 0.744562 0.554112
O O13 0.466211 0.248040 0.480999
O O14 0.252333 0.288737 0.759764
#
# Coordination Sequence:
#
# PCOD9049188 Si02
#       7
#     2   2   2   2   2   2   2
#     4  11  26  47  76 106 147 189 242 295 356 432
#     4  11  27  45  68 113 144 190 238 298 362 429
#     4  11  24  47  70 109 145 188 245 290 368 422
#     4  10  24  46  70 107 141 192 239 297 361 424
#     4  11  24  48  72 108 143 192 244 298 357 433
#     4  11  26  43  74 106 149 189 238 301 362 426
#     4  11  24  46  76 106 138 192 240 295 356 416
#
# _framework density 25.022040000000001
#
# number of rings (size 3 to 8) (size 9 to 14) (size 15 to 20)
#    0.000    1.143    2.857    2.143    8.000    6.857 
#    0.000    0.000    0.000    0.000    0.000    0.000 
#    0.000    0.000    0.000    0.000    0.000    0.000 
#
# Total GULP energy -78330.435146 kJ/mol
# GULP energy per Si atom -5595.031082 kJ/mol
# Density = 2.496509 g / cm^3
# Si number density = 25.022040 Si / 1000 Ang^3
#
#
#
# Elastic Constant Matrix: (Units=GPa)
#
#
# Indices 1 2 3 4 5 6 
#
# 1 84.9732 50.3216 41.0536 -5.3372 8.0903 13.2395
# 2 50.3216 126.2399 67.4340 -13.5783 12.9029 17.8295
# 3 41.0536 67.4340 128.3481 -8.6060 26.5215 6.7319
# 4 -5.3372 -13.5783 -8.6060 41.5923 -8.0173 -1.8950
# 5 8.0903 12.9029 26.5215 -8.0173 27.8115 -5.5014
# 6 13.2395 17.8295 6.7319 -1.8950 -5.5014 59.4253
#
#
#
# Elastic Compliance Matrix: (Units=1/GPa)
#
#
# Indices 1 2 3 4 5 6 
#
# 1 0.016142 -0.004834 -0.002413 -0.000209 -0.000595 -0.001934
# 2 -0.004834 0.013147 -0.005196 0.002613 0.000591 -0.002141
# 3 -0.002413 -0.005196 0.013296 -0.001196 -0.009985 -0.000372
# 4 -0.000209 0.002613 -0.001196 0.026152 0.007715 0.000946
# 5 -0.000595 0.000591 -0.009985 0.007715 0.048757 0.005846
# 6 -0.001934 -0.002141 -0.000372 0.000946 0.005846 0.018515
#
#
# Mechanical properties :
#
#
# Convention : Reuss Voigt Hill
#
# Bulk Modulus (GPa) = 56.50200 73.01996 64.76098
# Shear Modulus (GPa) = 29.97727 37.81596 33.89662
#
# Velocity S-wave (km/s) = 3.46502 3.89177 3.68458
# Velocity P-wave (km/s) = 6.21598 7.03137 6.63621
#
# Compressibility (1/GPa) = 0.01769849
#
# Stress axis : x y z
#
# Youngs Moduli (GPa) = 61.95094 76.06441 75.21287
#
# Poissons Ratio (x) = 0.36769 0.18149
# Poissons Ratio (y) = 0.29947 0.39079
# Poissons Ratio (z) = 0.14949 0.39522
#
# Static dielectric constant tensor:
#      x y z
#    x 1.988950 -0.063480 -0.018140 
#    y -0.063480 2.070060 0.094910 
#    z -0.018140 0.094910 2.013710 
# 
# From -- ./inp_files/464187.got.cif
#   From: 2010.05.17/outbox.cif.g08.bks.cpg/sg2_233_cif.got.tgz:464187.got - 2010.06.03 11:33:40.
