data_PCOD9049431
_publ_section_title
;
Structure prediction by ZEFSAII (Michael W. Deem and Ramdas Pophale) SiO2 
 PCOD9049431
Probable space group: P -1
;
_chemical_formula_sum "Si O2"
_cell_formula_units_Z 15
_cell_length_a 26.111423
_cell_length_b 24.885833
_cell_length_c 9.210846
_cell_angle_alpha 34.213785
_cell_angle_beta 35.166199
_cell_angle_gamma 10.669314
_cell_volume 622.398697
_symmetry_space_group_name_H-M "P -1"
_symmetry_group_IT_number 2
_symmetry_cell_setting 'triclinic'
loop_
_space_group_symop_operation_xyz
x,y,z
-x,-y,-z
loop_
_atom_site_type_symbol
_atom_site_label
_atom_site_fract_x
_atom_site_fract_y
_atom_site_fract_z
Si Si1 0.879748 0.757868 0.309357
Si Si2 0.564046 0.843402 0.103002
Si Si3 0.889722 0.677782 0.142350
Si Si4 0.885276 0.009788 0.252082
Si Si5 0.458337 0.627489 0.472491
Si Si6 0.559612 0.640534 0.672338
Si Si7 0.000000 0.000000 0.500000
Si Si8 0.645573 0.600602 0.884164
O O1 0.904563 0.719909 0.164000
O O2 0.009226 0.532165 0.585957
O O3 0.051740 0.673110 0.159058
O O4 0.559005 0.100857 0.321006
O O5 0.890828 0.506783 0.069559
O O6 0.409726 0.013175 0.927276
O O7 0.469639 0.840505 0.399313
O O8 0.500000 0.000000 0.000000
O O9 0.685542 0.201887 0.423760
O O10 0.688661 0.176905 0.202064
O O11 0.163441 0.663728 0.380351
O O12 0.000000 0.000000 0.000000
O O13 0.755644 0.274645 0.575082
O O14 0.519722 0.661088 0.163364
O O15 0.240603 0.786485 0.532588
O O16 0.642100 0.551171 0.849423
#
# Coordination Sequence:
#
# PCOD9049431 Si02
#       8
#     2   2   2   2   2   2   1   2
#     4  11  24  43  69 104 145 187 248 300 374 425
#     4  12  25  44  73 103 151 196 248 299 375 442
#     4  11  24  42  70 100 143 196 242 304 360 445
#     4  12  29  50  75 109 154 195 252 311 377 443
#     4  11  26  45  79 103 144 191 244 306 374 447
#     4  12  28  47  74 111 150 197 252 308 377 446
#     4  10  24  46  74 104 136 178 254 284 374 438
#     4  12  26  45  73 104 147 187 246 310 362 446
#
# _framework density 24.100307999999998
#
# number of rings (size 3 to 8) (size 9 to 14) (size 15 to 20)
#    0.000    0.533    0.000    7.200   11.200    2.133 
#    0.000    0.000    0.000    0.000    0.000    0.000 
#    0.000    0.000    0.000    0.000    0.000    0.000 
#
# Total GULP energy -83847.109833 kJ/mol
# GULP energy per Si atom -5589.807322 kJ/mol
# Density = 2.404545 g / cm^3
# Si number density = 24.100308 Si / 1000 Ang^3
#
#
#
# Elastic Constant Matrix: (Units=GPa)
#
#
# Indices 1 2 3 4 5 6 
#
# 1 92.9043 -6.1998 40.6088 18.0441 -16.8691 -31.4411
# 2 -6.1998 90.7356 -5.8464 31.4995 -30.2984 -38.2824
# 3 40.6088 -5.8464 97.5875 13.0068 -7.2045 -9.2127
# 4 18.0441 31.4995 13.0068 13.9391 6.5270 8.4290
# 5 -16.8691 -30.2984 -7.2045 6.5270 18.1887 -4.4124
# 6 -31.4411 -38.2824 -9.2127 8.4290 -4.4124 35.8917
#
#
#
# Elastic Compliance Matrix: (Units=1/GPa)
#
#
# Indices 1 2 3 4 5 6 
#
# 1 0.009811 -0.005375 -0.006154 0.008832 -0.005828 -0.001509
# 2 -0.005375 0.001730 -0.000239 0.010658 -0.007565 -0.006358
# 3 -0.006154 -0.000239 0.012744 -0.001655 -0.000975 -0.002106
# 4 0.008832 0.010658 -0.001655 0.015661 0.024025 0.017955
# 5 -0.005828 -0.007565 -0.000975 0.024025 0.024058 -0.016109
# 6 -0.001509 -0.006358 -0.002106 0.017955 -0.016109 0.013021
#
#
# Mechanical properties :
#
#
# Convention : Reuss Voigt Hill
#
# Bulk Modulus (GPa) = 1337.21708 37.59474 687.40591
# Shear Modulus (GPa) = 49.59826 30.44821 40.02324
#
# Velocity S-wave (km/s) = 4.54143 3.55828 4.07958
# Velocity P-wave (km/s) = 24.15696 5.70219 17.55098
#
# Compressibility (1/GPa) = 0.00074782
#
# Stress axis : x y z
#
# Youngs Moduli (GPa) = 101.92918 577.98572 78.46946
#
# Poissons Ratio (x) = 3.10684 0.48294
# Poissons Ratio (y) = 0.54790 0.01873
# Poissons Ratio (z) = 0.62732 0.13797
#
# Static dielectric constant tensor:
#      x y z
#    x 1.920770 0.025580 -0.008180 
#    y 0.025580 1.845570 -0.039800 
#    z -0.008180 -0.039800 1.968440 
# 
# From -- ./inp_files/355438.got.cif
#   From: 2010.05.17/outbox.cif.g08.bks.cpg/sg2_178_cif.got.tgz:355438.got - 2010.06.03 11:33:40.
