data_PCOD9049030
_publ_section_title
;
Structure prediction by ZEFSAII (Michael W. Deem and Ramdas Pophale) SiO2 
 PCOD9049030
Probable space group: P -1
;
_chemical_formula_sum "Si O2"
_cell_formula_units_Z 16
_cell_length_a 7.311553
_cell_length_b 12.641474
_cell_length_c 21.076126
_cell_angle_alpha 27.618673
_cell_angle_beta 87.188568
_cell_angle_gamma 102.904780
_cell_volume 737.214989
_symmetry_space_group_name_H-M "P -1"
_symmetry_group_IT_number 2
_symmetry_cell_setting 'triclinic'
loop_
_space_group_symop_operation_xyz
x,y,z
-x,-y,-z
loop_
_atom_site_type_symbol
_atom_site_label
_atom_site_fract_x
_atom_site_fract_y
_atom_site_fract_z
Si Si1 0.336901 0.013580 0.903315
Si Si2 0.547539 0.306206 0.292025
Si Si3 0.960816 0.219740 0.621037
Si Si4 0.078230 0.129155 0.072329
Si Si5 0.667769 0.901962 0.469554
Si Si6 0.815030 0.198399 0.839759
Si Si7 0.084440 0.864689 0.467275
Si Si8 0.559392 0.581536 0.529075
O O1 0.577542 0.054758 0.881484
O O2 0.416671 0.315151 0.716872
O O3 0.122817 0.831468 0.956240
O O4 0.242825 0.915864 0.027229
O O5 0.507116 0.336104 0.350750
O O6 0.683355 0.169266 0.352433
O O7 0.298785 0.077741 0.392642
O O8 0.685894 0.590751 0.099554
O O9 0.811207 0.087514 0.631433
O O10 0.000000 0.500000 0.500000
O O11 0.191509 0.331884 0.522617
O O12 0.922200 0.001027 0.791177
O O13 0.048403 0.901315 0.144014
O O14 0.573402 0.823117 0.440777
O O15 0.901294 0.932808 0.448089
O O16 0.957093 0.534440 0.659848
O O17 0.500000 0.500000 0.500000
#
# Coordination Sequence:
#
# PCOD9049030 Si02
#       8
#     2   2   2   2   2   2   2   2
#     4  11  23  39  66 101 136 167 225 294 344 385
#     4  11  27  43  69  99 140 192 219 279 342 417
#     4  11  22  42  67 101 133 175 230 281 349 400
#     4  12  25  42  66 102 141 175 230 283 346 407
#     4  10  24  46  66  98 137 182 237 261 349 413
#     4  11  24  40  69 104 132 175 233 293 340 393
#     4  11  24  44  72  96 136 186 228 287 333 411
#     4  11  21  40  69  98 130 177 224 286 336 402
#
# _framework density 21.703301
#
# number of rings (size 3 to 8) (size 9 to 14) (size 15 to 20)
#    0.000    1.000    5.000    1.500    8.750    1.500 
#    0.000    2.500    0.000    0.000    0.000    0.000 
#    0.000    0.000    0.000    0.000    0.000    0.000 
#
# Total GULP energy -89127.675140 kJ/mol
# GULP energy per Si atom -5570.479696 kJ/mol
# Density = 2.165390 g / cm^3
# Si number density = 21.703301 Si / 1000 Ang^3
#
#
#
# Elastic Constant Matrix: (Units=GPa)
#
#
# Indices 1 2 3 4 5 6 
#
# 1 108.6767 37.8651 53.3846 -0.9758 -2.0348 -2.1860
# 2 37.8651 131.5127 47.1748 15.5206 4.9968 1.4790
# 3 53.3846 47.1748 131.1952 25.8476 -3.3361 -1.4707
# 4 -0.9758 15.5206 25.8476 29.6170 3.4491 2.4714
# 5 -2.0348 4.9968 -3.3361 3.4491 23.0236 7.3848
# 6 -2.1860 1.4790 -1.4707 2.4714 7.3848 23.6529
#
#
#
# Elastic Compliance Matrix: (Units=1/GPa)
#
#
# Indices 1 2 3 4 5 6 
#
# 1 0.012916 -0.002460 -0.005690 0.006681 -0.000272 0.000381
# 2 -0.002460 0.009415 -0.001805 -0.003204 -0.002058 0.000049
# 3 -0.005690 -0.001805 0.012809 -0.010836 0.003203 0.000516
# 4 0.006681 -0.003204 -0.010836 0.046082 -0.006323 -0.002697
# 5 -0.000272 -0.002058 0.003203 -0.006323 0.049962 -0.014636
# 6 0.000381 0.000049 0.000516 -0.002697 -0.014636 0.047194
#
#
# Mechanical properties :
#
#
# Convention : Reuss Voigt Hill
#
# Bulk Modulus (GPa) = 65.65915 72.02595 68.84255
# Shear Modulus (GPa) = 24.58632 30.78938 27.68785
#
# Velocity S-wave (km/s) = 3.36942 3.77058 3.57563
# Velocity P-wave (km/s) = 6.74211 7.22600 6.98824
#
# Compressibility (1/GPa) = 0.01523017
#
# Stress axis : x y z
#
# Youngs Moduli (GPa) = 77.42104 106.20861 78.07198
#
# Poissons Ratio (x) = 0.26129 0.44423
# Poissons Ratio (y) = 0.19047 0.14092
# Poissons Ratio (z) = 0.44053 0.19171
#
# Static dielectric constant tensor:
#      x y z
#    x 1.001280 -1.015890 -0.616950 
#    y -1.015890 0.525770 -0.837050 
#    z -0.616950 -0.837050 1.384940 
# 
# From -- ./inp_files/588860.got.cif
#   From: 2010.05.17/outbox.cif.g08.bks.cpg/sg2_295_cif.got.tgz:588860.got - 2010.06.03 11:33:40.
