data_PCOD9049094
_publ_section_title
;
Structure prediction by ZEFSAII (Michael W. Deem and Ramdas Pophale) SiO2 
 PCOD9049094
Probable space group: P -1
;
_chemical_formula_sum "Si O2"
_cell_formula_units_Z 14
_cell_length_a 11.550912
_cell_length_b 6.578919
_cell_length_c 14.347978
_cell_angle_alpha 82.604101
_cell_angle_beta 118.946386
_cell_angle_gamma 135.430542
_cell_volume 626.765553
_symmetry_space_group_name_H-M "P -1"
_symmetry_group_IT_number 2
_symmetry_cell_setting 'triclinic'
loop_
_space_group_symop_operation_xyz
x,y,z
-x,-y,-z
loop_
_atom_site_type_symbol
_atom_site_label
_atom_site_fract_x
_atom_site_fract_y
_atom_site_fract_z
Si Si1 0.309533 0.875129 0.770661
Si Si2 0.606129 0.660601 0.677372
Si Si3 0.113370 0.722216 0.366568
Si Si4 0.673017 0.869839 0.057097
Si Si5 0.877184 0.588743 0.758522
Si Si6 0.828420 0.971112 0.445963
Si Si7 0.671106 0.036323 0.841262
O O1 0.117163 0.511253 0.738806
O O2 0.392696 0.056035 0.889394
O O3 0.229200 0.973648 0.673388
O O4 0.470879 0.940311 0.770602
O O5 0.713815 0.568990 0.716350
O O6 0.374272 0.375701 0.581049
O O7 0.726184 0.949378 0.639761
O O8 0.632087 0.785001 0.782919
O O9 0.153979 0.545583 0.348427
O O10 0.121988 0.795434 0.472925
O O11 0.500000 0.500000 0.000000
O O12 0.898128 0.064356 0.163520
O O13 0.705856 0.019944 0.962611
O O14 0.837432 0.359880 0.831358
O O15 0.000000 0.000000 0.500000
#
# Coordination Sequence:
#
# PCOD9049094 Si02
#       7
#     2   2   2   2   2   2   2
#     4  11  24  47  66 101 140 174 224 284 333 404
#     4  11  24  45  69 102 135 179 224 281 326 407
#     4  10  25  42  69  99 136 178 220 279 333 397
#     4  11  25  42  72 102 132 181 226 277 335 399
#     4  10  24  46  68  97 142 173 228 274 337 399
#     4  12  25  44  72 101 134 180 228 274 339 398
#     4  11  23  46  69  98 138 181 221 275 341 395
#
# _framework density 22.336903
#
# number of rings (size 3 to 8) (size 9 to 14) (size 15 to 20)
#    0.000    1.143    1.429    3.429    6.000    1.143 
#    2.571    0.000    0.000    0.000    0.000    0.000 
#    0.000    0.000    0.000    0.000    0.000    0.000 
#
# Total GULP energy -78251.926466 kJ/mol
# GULP energy per Si atom -5589.423319 kJ/mol
# Density = 2.228606 g / cm^3
# Si number density = 22.336903 Si / 1000 Ang^3
#
#
#
# Elastic Constant Matrix: (Units=GPa)
#
#
# Indices 1 2 3 4 5 6 
#
# 1 153.0872 48.9916 61.4530 10.8475 -9.4785 -5.0429
# 2 48.9916 103.4050 46.7649 35.4563 4.0306 19.3034
# 3 61.4530 46.7649 109.4178 16.4557 -23.7910 -14.2502
# 4 10.8475 35.4563 16.4557 40.4948 4.2660 6.4137
# 5 -9.4785 4.0306 -23.7910 4.2660 49.3142 5.7083
# 6 -5.0429 19.3034 -14.2502 6.4137 5.7083 31.9570
#
#
#
# Elastic Compliance Matrix: (Units=1/GPa)
#
#
# Indices 1 2 3 4 5 6 
#
# 1 0.009063 -0.003618 -0.003649 0.001977 -0.000080 0.001606
# 2 -0.003618 0.022303 -0.008349 -0.012457 -0.003780 -0.014591
# 3 -0.003649 -0.008349 0.018165 -0.001721 0.007555 0.011563
# 4 0.001977 -0.012457 -0.001721 0.035995 -0.002581 0.000306
# 5 -0.000080 -0.003780 0.007555 -0.002581 0.024228 0.001830
# 6 0.001606 -0.014591 0.011563 0.000306 0.001830 0.045127
#
#
# Mechanical properties :
#
#
# Convention : Reuss Voigt Hill
#
# Bulk Modulus (GPa) = 54.65019 75.59210 65.12114
# Shear Modulus (GPa) = 26.01295 38.26656 32.13976
#
# Velocity S-wave (km/s) = 3.41629 4.14352 3.79735
# Velocity P-wave (km/s) = 6.33094 7.53704 6.96016
#
# Compressibility (1/GPa) = 0.01829820
#
# Stress axis : x y z
#
# Youngs Moduli (GPa) = 110.34059 44.83667 55.05236
#
# Poissons Ratio (x) = 0.16222 0.20090
# Poissons Ratio (y) = 0.39922 0.45962
# Poissons Ratio (z) = 0.40266 0.37434
#
# Static dielectric constant tensor:
#      x y z
#    x 1.819420 0.010750 -0.015470 
#    y 0.010750 1.861560 -0.004650 
#    z -0.015470 -0.004650 1.829040 
# 
# From -- ./inp_files/38807.got.cif
#   From: 2010.05.17/outbox.cif.g08.bks.cpg/sg2_20_cif.got.tgz:38807.got - 2010.06.03 11:33:40.
