data_PCOD9049501
_publ_section_title
;
Structure prediction by ZEFSAII (Michael W. Deem and Ramdas Pophale) SiO2 
 PCOD9049501
Probable space group: P -1
;
_chemical_formula_sum "Si O2"
_cell_formula_units_Z 15
_cell_length_a 9.580581
_cell_length_b 7.974989
_cell_length_c 14.023010
_cell_angle_alpha 103.027475
_cell_angle_beta 130.504713
_cell_angle_gamma 111.401482
_cell_volume 574.308193
_symmetry_space_group_name_H-M "P -1"
_symmetry_group_IT_number 2
_symmetry_cell_setting 'triclinic'
loop_
_space_group_symop_operation_xyz
x,y,z
-x,-y,-z
loop_
_atom_site_type_symbol
_atom_site_label
_atom_site_fract_x
_atom_site_fract_y
_atom_site_fract_z
Si Si1 0.139722 0.656324 0.807997
Si Si2 0.350940 0.172468 0.933306
Si Si3 0.480239 0.538660 0.648036
Si Si4 0.940739 0.071695 0.391988
Si Si5 0.136639 0.985305 0.220650
Si Si6 0.718630 0.240405 0.427451
Si Si7 0.500000 0.000000 0.500000
Si Si8 0.950301 0.633869 0.931733
O O1 0.259834 0.914508 0.863360
O O2 0.918700 0.461151 0.614399
O O3 0.035047 0.630066 0.863576
O O4 0.351841 0.645545 0.897939
O O5 0.273494 0.168722 0.791709
O O6 0.151798 0.142422 0.905991
O O7 0.207205 0.271995 0.480207
O O8 0.402702 0.676434 0.673218
O O9 0.666791 0.527081 0.782276
O O10 0.659483 0.726722 0.665277
O O11 0.829964 0.178706 0.395642
O O12 0.000000 0.000000 0.500000
O O13 0.236510 0.934222 0.346495
O O14 0.111910 0.880977 0.091824
O O15 0.557264 0.039694 0.413075
O O16 0.000000 0.500000 0.000000
#
# Coordination Sequence:
#
# PCOD9049501 Si02
#       8
#     2   2   2   2   2   2   1   2
#     4  11  26  45  74 109 148 192 252 305 373 452
#     4  11  26  45  74 109 148 192 252 305 373 452
#     4  11  26  45  78 101 149 196 255 301 379 452
#     4  12  28  46  74 115 147 198 249 317 381 438
#     4  11  25  49  75 109 148 200 249 308 380 446
#     4  11  25  49  75 109 148 200 249 308 380 446
#     4  10  24  46  76 100 146 190 248 306 362 444
#     4  12  28  46  74 115 147 198 249 317 381 438
#
# _framework density 26.118383000000001
#
# number of rings (size 3 to 8) (size 9 to 14) (size 15 to 20)
#    0.000    0.800    2.667    2.400    7.467    5.333 
#    0.000    2.000    0.000    0.000    0.000    0.000 
#    0.000    0.000    0.000    0.000    0.000    0.000 
#
# Total GULP energy -83629.432478 kJ/mol
# GULP energy per Si atom -5575.295499 kJ/mol
# Density = 2.605894 g / cm^3
# Si number density = 26.118383 Si / 1000 Ang^3
#
#
#
# Elastic Constant Matrix: (Units=GPa)
#
#
# Indices 1 2 3 4 5 6 
#
# 1 159.0854 35.1908 46.4011 0.7096 14.6108 -1.5705
# 2 35.1908 67.3227 20.6562 -22.5503 7.3438 -9.2137
# 3 46.4011 20.6562 106.7381 -14.4960 35.1141 -13.6461
# 4 0.7096 -22.5503 -14.4960 30.0608 -10.0014 1.2040
# 5 14.6108 7.3438 35.1141 -10.0014 50.6040 -12.0367
# 6 -1.5705 -9.2137 -13.6461 1.2040 -12.0367 35.7883
#
#
#
# Elastic Compliance Matrix: (Units=1/GPa)
#
#
# Indices 1 2 3 4 5 6 
#
# 1 0.008735 -0.005953 -0.003501 -0.006644 -0.001174 -0.002655
# 2 -0.005953 0.025161 0.000137 0.019986 0.003536 0.006786
# 3 -0.003501 0.000137 0.014240 0.004495 -0.007364 0.002684
# 4 -0.006644 0.019986 0.004495 0.052998 0.008165 0.007531
# 5 -0.001174 0.003536 -0.007364 0.008165 0.028023 0.007202
# 6 -0.002655 0.006786 0.002684 0.007531 0.007202 0.032765
#
#
# Mechanical properties :
#
#
# Convention : Reuss Voigt Hill
#
# Bulk Modulus (GPa) = 33.89539 59.73805 46.81672
# Shear Modulus (GPa) = 26.26202 38.68382 32.47292
#
# Velocity S-wave (km/s) = 3.17440 3.85268 3.52987
# Velocity P-wave (km/s) = 5.14213 6.53548 5.88022
#
# Compressibility (1/GPa) = 0.02950253
#
# Stress axis : x y z
#
# Youngs Moduli (GPa) = 114.48109 39.74446 70.22393
#
# Poissons Ratio (x) = 0.23658 0.24586
# Poissons Ratio (y) = 0.68146 -0.00962
# Poissons Ratio (z) = 0.40080 -0.00544
#
# Static dielectric constant tensor:
#      x y z
#    x 2.100420 0.000060 0.047600 
#    y 0.000060 2.156590 0.030640 
#    z 0.047600 0.030640 2.172750 
# 
# From -- ./inp_files/493246.got.cif
#   From: 2010.05.17/outbox.cif.g08.bks.cpg/sg2_247_cif.got.tgz:493246.got - 2010.06.03 11:33:40.
