data_PCOD9049350
_publ_section_title
;
Structure prediction by ZEFSAII (Michael W. Deem and Ramdas Pophale) SiO2 
 PCOD9049350
Probable space group: P -1
;
_chemical_formula_sum "Si O2"
_cell_formula_units_Z 16
_cell_length_a 20.049620
_cell_length_b 8.098863
_cell_length_c 9.922449
_cell_angle_alpha 147.370497
_cell_angle_beta 48.995303
_cell_angle_gamma 123.943304
_cell_volume 655.552269
_symmetry_space_group_name_H-M "P -1"
_symmetry_group_IT_number 2
_symmetry_cell_setting 'triclinic'
loop_
_space_group_symop_operation_xyz
x,y,z
-x,-y,-z
loop_
_atom_site_type_symbol
_atom_site_label
_atom_site_fract_x
_atom_site_fract_y
_atom_site_fract_z
Si Si1 0.017621 0.290409 0.464865
Si Si2 0.592879 0.653140 0.936266
Si Si3 0.689976 0.645969 0.270908
Si Si4 0.819967 0.214458 0.735144
Si Si5 0.271898 0.730569 0.393400
Si Si6 0.550857 0.202146 0.180849
Si Si7 0.275699 0.380545 0.491361
Si Si8 0.126775 0.725536 0.816390
O O1 0.059785 0.488553 0.667735
O O2 0.000000 0.500000 0.500000
O O3 0.923575 0.165418 0.556590
O O4 0.079121 0.020010 0.141601
O O5 0.669383 0.575579 0.891436
O O6 0.647863 0.515578 0.641536
O O7 0.500000 0.500000 0.000000
O O8 0.575402 0.990397 0.131005
O O9 0.633223 0.356970 0.099168
O O10 0.678376 0.647889 0.446905
O O11 0.664562 0.971711 0.471846
O O12 0.791679 0.552515 0.051517
O O13 0.782098 0.216606 0.634915
O O14 0.769810 0.951251 0.707240
O O15 0.199603 0.763734 0.628282
O O16 0.500000 0.500000 0.500000
O O17 0.500000 0.000000 0.000000
O O18 0.190223 0.591361 0.755140
#
# Coordination Sequence:
#
# PCOD9049350 Si02
#       8
#     2   2   2   2   2   2   2   2
#     4  12  25  43  72 108 151 195 251 307 371 438
#     4  11  24  47  75 106 144 184 249 307 374 440
#     4  11  24  47  73 101 148 200 246 299 383 446
#     4  11  24  43  74 101 147 200 247 301 376 438
#     4  10  24  46  72 109 145 200 244 311 370 442
#     4  12  27  49  76 107 146 190 243 306 371 445
#     4  10  25  47  70 106 148 195 247 308 375 441
#     4  11  26  45  72 111 152 191 253 312 367 435
#
# _framework density 24.406904000000001
#
# number of rings (size 3 to 8) (size 9 to 14) (size 15 to 20)
#    0.000    1.000    2.500    2.625    8.750    1.000 
#    4.500    3.125    0.000    0.000    0.000    0.000 
#    0.000    0.000    0.000    0.000    0.000    0.000 
#
# Total GULP energy -89346.406436 kJ/mol
# GULP energy per Si atom -5584.150402 kJ/mol
# Density = 2.435135 g / cm^3
# Si number density = 24.406904 Si / 1000 Ang^3
#
#
#
# Elastic Constant Matrix: (Units=GPa)
#
#
# Indices 1 2 3 4 5 6 
#
# 1 83.7478 37.3554 41.3653 17.3687 -10.5370 14.2468
# 2 37.3554 106.2232 21.8203 2.7951 -12.4340 11.8803
# 3 41.3653 21.8203 166.4654 15.2285 -36.6412 4.6212
# 4 17.3687 2.7951 15.2285 39.6052 -2.7071 -7.6955
# 5 -10.5370 -12.4340 -36.6412 -2.7071 48.6819 1.3335
# 6 14.2468 11.8803 4.6212 -7.6955 1.3335 27.9613
#
#
#
# Elastic Compliance Matrix: (Units=1/GPa)
#
#
# Indices 1 2 3 4 5 6 
#
# 1 0.018992 -0.004717 -0.002933 -0.008702 0.000477 -0.009606
# 2 -0.004717 0.011541 0.000111 0.000896 0.002125 -0.002373
# 3 -0.002933 0.000111 0.008068 -0.001567 0.005395 -0.000575
# 4 -0.008702 0.000896 -0.001567 0.032074 -0.001412 0.013207
# 5 0.000477 0.002125 0.005395 -0.001412 0.025269 -0.003632
# 6 -0.009606 -0.002373 -0.000575 0.013207 -0.003632 0.045569
#
#
# Mechanical properties :
#
#
# Convention : Reuss Voigt Hill
#
# Bulk Modulus (GPa) = 42.51210 61.94647 52.22928
# Shear Modulus (GPa) = 30.40730 40.30938 35.35834
#
# Velocity S-wave (km/s) = 3.53349 4.06834 3.81031
# Velocity P-wave (km/s) = 5.83980 6.89234 6.38779
#
# Compressibility (1/GPa) = 0.02352272
#
# Stress axis : x y z
#
# Youngs Moduli (GPa) = 52.65239 86.64863 123.94124
#
# Poissons Ratio (x) = 0.40875 0.36356
# Poissons Ratio (y) = 0.24838 -0.01378
# Poissons Ratio (z) = 0.15445 -0.00963
#
# Static dielectric constant tensor:
#      x y z
#    x 2.033210 0.037690 0.000230 
#    y 0.037690 2.062780 -0.012730 
#    z 0.000230 -0.012730 2.016040 
# 
# From -- ./inp_files/474366.got.cif
#   From: 2010.05.17/outbox.cif.g08.bks.cpg/sg2_238_cif.got.tgz:474366.got - 2010.06.03 11:33:40.
