data_PCOD9049287
_publ_section_title
;
Structure prediction by ZEFSAII (Michael W. Deem and Ramdas Pophale) SiO2 
 PCOD9049287
Probable space group: P -1
;
_chemical_formula_sum "Si O2"
_cell_formula_units_Z 14
_cell_length_a 12.248313
_cell_length_b 7.498506
_cell_length_c 10.216237
_cell_angle_alpha 52.571159
_cell_angle_beta 120.351152
_cell_angle_gamma 115.827680
_cell_volume 631.574974
_symmetry_space_group_name_H-M "P -1"
_symmetry_group_IT_number 2
_symmetry_cell_setting 'triclinic'
loop_
_space_group_symop_operation_xyz
x,y,z
-x,-y,-z
loop_
_atom_site_type_symbol
_atom_site_label
_atom_site_fract_x
_atom_site_fract_y
_atom_site_fract_z
Si Si1 0.352737 0.889116 0.493358
Si Si2 0.115147 0.071914 0.351155
Si Si3 0.259780 0.703985 0.963174
Si Si4 0.023729 0.679695 0.656448
Si Si5 0.467488 0.748442 0.873513
Si Si6 0.894047 0.750675 0.005681
Si Si7 0.732380 0.108190 0.833612
O O1 0.366428 0.743915 0.694807
O O2 0.500000 0.000000 0.500000
O O3 0.261691 0.062826 0.406348
O O4 0.286740 0.778755 0.369427
O O5 0.053951 0.158901 0.145109
O O6 0.096146 0.243334 0.379572
O O7 0.051556 0.815979 0.476778
O O8 0.231417 0.437711 0.025774
O O9 0.247917 0.738964 0.093816
O O10 0.145412 0.788274 0.775972
O O11 0.395665 0.803679 0.936567
O O12 0.025485 0.409139 0.792425
O O13 0.597349 0.932234 0.851172
O O14 0.500000 0.500000 0.000000
O O15 0.843134 0.956472 0.952289
#
# Coordination Sequence:
#
# PCOD9049287 Si02
#       7
#     2   2   2   2   2   2   2
#     4   9  19  33  55  80 109 146 186 228 282 332
#     4  10  17  34  60  81 110 157 183 235 282 333
#     4  10  20  35  55  86 109 148 195 229 281 340
#     4   9  19  33  59  84 110 148 198 222 283 342
#     4  11  18  35  57  80 110 154 186 230 286 338
#     4   9  19  35  57  79 113 147 187 227 289 332
#     4  10  20  35  57  80 116 148 186 237 280 332
#
# _framework density 22.166805
#
# number of rings (size 3 to 8) (size 9 to 14) (size 15 to 20)
#    0.857    1.429    2.857    0.857    0.000    0.000 
#    0.000    5.000    0.000    1.714    0.000    0.000 
#    0.000    0.000    0.000    0.000    0.000    0.000 
#
# Total GULP energy -78026.906196 kJ/mol
# GULP energy per Si atom -5573.350443 kJ/mol
# Density = 2.211635 g / cm^3
# Si number density = 22.166805 Si / 1000 Ang^3
#
#
#
# Elastic Constant Matrix: (Units=GPa)
#
#
# Indices 1 2 3 4 5 6 
#
# 1 89.3295 10.4172 19.8911 -0.3763 -11.8366 -23.4789
# 2 10.4172 49.7241 21.1009 2.2299 0.8466 -6.4697
# 3 19.8911 21.1009 116.0093 -15.1025 -7.8060 -3.6784
# 4 -0.3763 2.2299 -15.1025 33.9909 -2.7059 -1.6569
# 5 -11.8366 0.8466 -7.8060 -2.7059 32.5964 3.9899
# 6 -23.4789 -6.4697 -3.6784 -1.6569 3.9899 33.3088
#
#
#
# Elastic Compliance Matrix: (Units=1/GPa)
#
#
# Indices 1 2 3 4 5 6 
#
# 1 0.014723 -0.001195 -0.001716 0.000247 0.003823 0.009511
# 2 -0.001195 0.022911 -0.004515 -0.003586 -0.002808 0.003267
# 3 -0.001716 -0.004515 0.010543 0.005118 0.002563 -0.000975
# 4 0.000247 -0.003586 0.005118 0.032303 0.003946 0.001177
# 5 0.003823 -0.002808 0.002563 0.003946 0.033246 -0.001354
# 6 0.009511 0.003267 -0.000975 0.001177 -0.001354 0.037474
#
#
# Mechanical properties :
#
#
# Convention : Reuss Voigt Hill
#
# Bulk Modulus (GPa) = 30.00652 39.76458 34.88555
# Shear Modulus (GPa) = 28.22289 33.55613 30.88951
#
# Velocity S-wave (km/s) = 3.57207 3.89498 3.73702
# Velocity P-wave (km/s) = 5.52983 6.18107 5.86449
#
# Compressibility (1/GPa) = 0.03332610
#
# Stress axis : x y z
#
# Youngs Moduli (GPa) = 67.91902 43.64749 94.84714
#
# Poissons Ratio (x) = 0.05215 0.16278
# Poissons Ratio (y) = 0.08116 0.42819
# Poissons Ratio (z) = 0.11656 0.19705
#
# Static dielectric constant tensor:
#      x y z
#    x 1.870360 0.023530 -0.010850 
#    y 0.023530 1.817640 -0.004010 
#    z -0.010850 -0.004010 1.848030 
# 
# From -- ./inp_files/237208.got.cif
#   From: 2010.05.17/outbox.cif.g08.bks.cpg/sg2_119_cif.got.tgz:237208.got - 2010.06.03 11:33:40.
