data_PCOD9049960
_publ_section_title
;
Structure prediction by ZEFSAII (Michael W. Deem and Ramdas Pophale) SiO2 
 PCOD9049960
Probable space group: P -1
;
_chemical_formula_sum "Si O2"
_cell_formula_units_Z 15
_cell_length_a 11.713931
_cell_length_b 15.504004
_cell_length_c 21.194791
_cell_angle_alpha 19.069441
_cell_angle_beta 150.534467
_cell_angle_gamma 141.108213
_cell_volume 594.382018
_symmetry_space_group_name_H-M "P -1"
_symmetry_group_IT_number 2
_symmetry_cell_setting 'triclinic'
loop_
_space_group_symop_operation_xyz
x,y,z
-x,-y,-z
loop_
_atom_site_type_symbol
_atom_site_label
_atom_site_fract_x
_atom_site_fract_y
_atom_site_fract_z
Si Si1 0.460288 0.795779 0.967181
Si Si2 0.500000 0.500000 0.500000
Si Si3 0.945189 0.066095 0.225142
Si Si4 0.902704 0.070312 0.974244
Si Si5 0.706641 0.604013 0.658422
Si Si6 0.856958 0.296033 0.546435
Si Si7 0.768608 0.401421 0.127267
Si Si8 0.392319 0.928462 0.616573
O O1 0.653268 0.975856 0.930628
O O2 0.592737 0.496609 0.267111
O O3 0.362055 0.735710 0.894051
O O4 0.244167 0.957104 0.796286
O O5 0.538068 0.545990 0.562703
O O6 0.797443 0.392827 0.709535
O O7 0.029503 0.824685 0.381981
O O8 0.190484 0.091546 0.357925
O O9 0.806714 0.332822 0.935414
O O10 0.080277 0.934238 0.209987
O O11 0.000000 0.000000 0.000000
O O12 0.952669 0.663217 0.711417
O O13 0.571943 0.857221 0.462653
O O14 0.000000 0.500000 0.500000
O O15 0.728771 0.276207 0.261886
O O16 0.624659 0.725870 0.835293
#
# Coordination Sequence:
#
# PCOD9049960 Si02
#       8
#     2   1   2   2   2   2   2   2
#     4  11  25  46  78 105 144 196 247 303 366 440
#     4  12  28  46  72 106 150 188 242 306 366 438
#     4  12  25  46  74 110 147 192 248 304 373 434
#     4  11  27  47  73 107 146 195 244 303 365 441
#     4  12  27  47  70 108 148 194 246 302 367 439
#     4  10  24  48  70 107 149 192 243 299 369 443
#     4  11  25  47  73 109 143 196 245 302 369 432
#     4  11  25  45  75 108 145 193 244 308 363 439
#
# _framework density 25.236294999999998
#
# number of rings (size 3 to 8) (size 9 to 14) (size 15 to 20)
#    0.000    0.800    4.000    1.600    3.733    9.067 
#    0.000    0.000    0.000    0.000    0.000    0.000 
#    0.000    0.000    0.000    0.000    0.000    0.000 
#
# Total GULP energy -83833.264425 kJ/mol
# GULP energy per Si atom -5588.884295 kJ/mol
# Density = 2.517886 g / cm^3
# Si number density = 25.236295 Si / 1000 Ang^3
#
#
#
# Elastic Constant Matrix: (Units=GPa)
#
#
# Indices 1 2 3 4 5 6 
#
# 1 116.1998 37.3170 34.3393 3.9527 27.2536 -19.3323
# 2 37.3170 137.6604 12.3491 13.9877 0.3993 -25.1799
# 3 34.3393 12.3491 131.0428 28.1912 1.7388 -14.4659
# 4 3.9527 13.9877 28.1912 33.7196 -16.2466 2.8095
# 5 27.2536 0.3993 1.7388 -16.2466 53.2730 0.2723
# 6 -19.3323 -25.1799 -14.4659 2.8095 0.2723 53.4208
#
#
#
# Elastic Compliance Matrix: (Units=1/GPa)
#
#
# Indices 1 2 3 4 5 6 
#
# 1 0.012117 -0.002323 -0.002061 -0.002259 -0.006818 0.002886
# 2 -0.002323 0.009044 0.001325 -0.005177 -0.000522 0.004056
# 3 -0.002061 0.001325 0.010800 -0.010895 -0.002648 0.003389
# 4 -0.002259 -0.005177 -0.010895 0.050043 0.016857 -0.008925
# 5 -0.006818 -0.000522 -0.002648 0.016857 0.027513 -0.004457
# 6 0.002886 0.004056 0.003389 -0.008925 -0.004457 0.023085
#
#
# Mechanical properties :
#
#
# Convention : Reuss Voigt Hill
#
# Bulk Modulus (GPa) = 38.69638 61.43485 50.06562
# Shear Modulus (GPa) = 33.93626 48.14252 41.03939
#
# Velocity S-wave (km/s) = 3.67105 4.37243 4.03700
# Velocity P-wave (km/s) = 5.77371 7.06311 6.45071
#
# Compressibility (1/GPa) = 0.02584221
#
# Stress axis : x y z
#
# Youngs Moduli (GPa) = 82.52945 110.56454 92.59658
#
# Poissons Ratio (x) = 0.25680 0.19088
# Poissons Ratio (y) = 0.19169 -0.12266
# Poissons Ratio (z) = 0.17013 -0.14646
#
# Static dielectric constant tensor:
#      x y z
#    x 2.002830 0.077150 -0.096470 
#    y 0.077150 2.167030 -0.377510 
#    z -0.096470 -0.377510 2.563160 
# 
# From -- ./inp_files/595590.got.cif
#   From: 2010.05.17/outbox.cif.g08.bks.cpg/sg2_298_cif.got.tgz:595590.got - 2010.06.03 11:33:40.
