data_PCOD9049643
_publ_section_title
;
Structure prediction by ZEFSAII (Michael W. Deem and Ramdas Pophale) SiO2 
 PCOD9049643
Probable space group: P -1
;
_chemical_formula_sum "Si O2"
_cell_formula_units_Z 16
_cell_length_a 5.533613
_cell_length_b 12.060954
_cell_length_c 14.650041
_cell_angle_alpha 130.692821
_cell_angle_beta 108.047932
_cell_angle_gamma 92.647000
_cell_volume 661.786123
_symmetry_space_group_name_H-M "P -1"
_symmetry_group_IT_number 2
_symmetry_cell_setting 'triclinic'
loop_
_space_group_symop_operation_xyz
x,y,z
-x,-y,-z
loop_
_atom_site_type_symbol
_atom_site_label
_atom_site_fract_x
_atom_site_fract_y
_atom_site_fract_z
Si Si1 0.288320 0.009937 0.122657
Si Si2 0.734402 0.518288 0.609426
Si Si3 0.963016 0.262588 0.563334
Si Si4 0.396508 0.050025 0.708214
Si Si5 0.325629 0.345801 0.952393
Si Si6 0.450821 0.488583 0.224440
Si Si7 0.835218 0.173002 0.159526
Si Si8 0.799856 0.266724 0.747861
O O1 0.548430 0.110945 0.145655
O O2 0.039578 0.073860 0.142808
O O3 0.402901 0.998714 0.229232
O O4 0.201812 0.850293 0.967221
O O5 0.500000 0.500000 0.500000
O O6 0.773659 0.356216 0.552870
O O7 0.663119 0.581974 0.730756
O O8 0.014100 0.653787 0.691156
O O9 0.929461 0.233094 0.651994
O O10 0.261053 0.383449 0.651504
O O11 0.873977 0.096808 0.415744
O O12 0.353867 0.194360 0.829701
O O13 0.546572 0.119560 0.669282
O O14 0.010280 0.317755 0.883155
O O15 0.500000 0.500000 0.000000
O O16 0.434739 0.365201 0.078298
O O17 0.283558 0.586782 0.211267
#
# Coordination Sequence:
#
# PCOD9049643 Si02
#       8
#     2   2   2   2   2   2   2   2
#     4  10  25  44  72 105 146 190 248 309 374 440
#     4  11  27  45  77 101 144 193 248 305 370 440
#     4  11  26  47  68 107 143 192 241 296 373 448
#     4  12  27  41  74 102 147 190 240 301 368 441
#     4  12  25  44  71 106 143 189 239 301 368 439
#     4  11  26  45  73 105 144 186 245 301 368 447
#     4  10  24  47  70 105 145 191 249 311 371 436
#     4  11  24  45  72 100 148 184 243 294 371 441
#
# _framework density 24.176995000000002
#
# number of rings (size 3 to 8) (size 9 to 14) (size 15 to 20)
#    0.000    1.000    2.500    1.500    8.750    5.500 
#    0.000    0.000    0.000    0.000    0.000    0.000 
#    0.000    0.000    0.000    0.000    0.000    0.000 
#
# Total GULP energy -89533.945159 kJ/mol
# GULP energy per Si atom -5595.871572 kJ/mol
# Density = 2.412197 g / cm^3
# Si number density = 24.176995 Si / 1000 Ang^3
#
#
#
# Elastic Constant Matrix: (Units=GPa)
#
#
# Indices 1 2 3 4 5 6 
#
# 1 76.7970 6.5875 17.5138 9.7890 11.9805 -0.4847
# 2 6.5875 34.2562 27.7606 0.2915 0.4744 -1.5045
# 3 17.5138 27.7606 127.7573 28.4884 27.4064 3.0388
# 4 9.7890 0.2915 28.4884 28.1385 -3.4960 -3.5739
# 5 11.9805 0.4744 27.4064 -3.4960 35.1453 1.5293
# 6 -0.4847 -1.5045 3.0388 -3.5739 1.5293 28.9195
#
#
#
# Elastic Compliance Matrix: (Units=1/GPa)
#
#
# Indices 1 2 3 4 5 6 
#
# 1 0.015284 -0.005165 0.002931 -0.009397 -0.008315 -0.001042
# 2 -0.005165 0.044219 -0.017515 0.021899 0.016745 0.005875
# 3 0.002931 -0.017515 0.021239 -0.025440 -0.019629 -0.005200
# 4 -0.009397 0.021899 -0.025440 0.069319 0.029177 0.010679
# 5 -0.008315 0.016745 -0.019629 0.029177 0.049106 0.003803
# 6 -0.001042 0.005875 -0.005200 0.010679 0.003803 0.036532
#
#
# Mechanical properties :
#
#
# Convention : Reuss Voigt Hill
#
# Bulk Modulus (GPa) = 24.24630 38.05938 31.15284
# Shear Modulus (GPa) = 17.30430 30.90389 24.10410
#
# Velocity S-wave (km/s) = 2.67822 3.57912 3.16093
# Velocity P-wave (km/s) = 4.42880 5.73204 5.12204
#
# Compressibility (1/GPa) = 0.04124341
#
# Stress axis : x y z
#
# Youngs Moduli (GPa) = 65.42626 22.61467 47.08327
#
# Poissons Ratio (x) = 0.11681 -0.13800
# Poissons Ratio (y) = 0.33794 0.82468
# Poissons Ratio (z) = -0.19177 0.39611
#
# Static dielectric constant tensor:
#      x y z
#    x 1.987340 -0.010520 -0.011630 
#    y -0.010520 1.946440 0.029170 
#    z -0.011630 0.029170 1.962750 
# 
# From -- ./inp_files/483066.got.cif
#   From: 2010.05.17/outbox.cif.g08.bks.cpg/sg2_242_cif.got.tgz:483066.got - 2010.06.03 11:33:40.
