data_PCOD9049316
_publ_section_title
;
Structure prediction by ZEFSAII (Michael W. Deem and Ramdas Pophale) SiO2 
 PCOD9049316
Probable space group: P -1
;
_chemical_formula_sum "Si O2"
_cell_formula_units_Z 14
_cell_length_a 11.020618
_cell_length_b 12.571691
_cell_length_c 5.182141
_cell_angle_alpha 76.789545
_cell_angle_beta 120.024131
_cell_angle_gamma 126.041011
_cell_volume 500.420098
_symmetry_space_group_name_H-M "P -1"
_symmetry_group_IT_number 2
_symmetry_cell_setting 'triclinic'
loop_
_space_group_symop_operation_xyz
x,y,z
-x,-y,-z
loop_
_atom_site_type_symbol
_atom_site_label
_atom_site_fract_x
_atom_site_fract_y
_atom_site_fract_z
Si Si1 0.443320 0.270009 0.270692
Si Si2 0.578490 0.122968 0.698452
Si Si3 0.763583 0.079013 0.321444
Si Si4 0.863607 0.669628 0.740623
Si Si5 0.406238 0.601053 0.143167
Si Si6 0.098599 0.172049 0.808723
Si Si7 0.890683 0.363388 0.296632
O O1 0.575050 0.229437 0.466862
O O2 0.445847 0.316324 0.537191
O O3 0.525556 0.382972 0.080364
O O4 0.255453 0.158913 0.032571
O O5 0.500000 0.000000 0.500000
O O6 0.415668 0.059742 0.754540
O O7 0.732406 0.126951 0.990783
O O8 0.830375 0.222706 0.450816
O O9 0.914244 0.062063 0.558794
O O10 0.706957 0.543707 0.783191
O O11 0.838523 0.717344 0.410870
O O12 0.986707 0.623640 0.810914
O O13 0.924805 0.781703 0.961724
O O14 0.280089 0.651272 0.971574
O O15 0.000000 0.500000 0.500000
#
# Coordination Sequence:
#
# PCOD9049316 Si02
#       7
#     2   2   2   2   2   2   2
#     4  12  27  45  71 105 146 195 247 297 364 434
#     4  11  25  46  76 105 139 193 246 311 366 420
#     4  10  24  46  72 104 145 187 243 305 363 431
#     4  11  25  44  71 107 148 198 242 296 374 432
#     4  12  24  43  70 105 149 189 247 305 353 443
#     4  11  26  47  70 104 149 196 242 297 366 447
#     4  11  22  43  75 113 147 186 241 307 371 428
#
# _framework density 27.976496000000001
#
# number of rings (size 3 to 8) (size 9 to 14) (size 15 to 20)
#    0.000    0.857    1.429    5.571    6.000    6.286 
#    0.000    0.714    0.000    0.000    0.000    0.000 
#    0.000    0.000    0.000    0.000    0.000    0.000 
#
# Total GULP energy -78192.021782 kJ/mol
# GULP energy per Si atom -5585.144413 kJ/mol
# Density = 2.791282 g / cm^3
# Si number density = 27.976496 Si / 1000 Ang^3
#
#
#
# Elastic Constant Matrix: (Units=GPa)
#
#
# Indices 1 2 3 4 5 6 
#
# 1 111.2022 7.8235 57.0234 -11.1560 -7.4109 1.3108
# 2 7.8235 82.3812 19.2198 -17.7303 -16.4277 31.2698
# 3 57.0234 19.2198 212.0039 3.2922 13.6112 15.2680
# 4 -11.1560 -17.7303 3.2922 47.3941 9.4770 3.9483
# 5 -7.4109 -16.4277 13.6112 9.4770 50.8035 -0.8585
# 6 1.3108 31.2698 15.2680 3.9483 -0.8585 35.5092
#
#
#
# Elastic Compliance Matrix: (Units=1/GPa)
#
#
# Indices 1 2 3 4 5 6 
#
# 1 0.010998 0.000628 -0.003209 0.002594 0.002186 0.000185
# 2 0.000628 0.023752 -0.001321 0.009710 0.005955 -0.021307
# 3 -0.003209 -0.001321 0.005952 -0.001101 -0.002305 -0.001211
# 4 0.002594 0.009710 -0.001101 0.026618 -0.001341 -0.011165
# 5 0.002186 0.005955 -0.002305 -0.001341 0.022734 -0.003635
# 6 0.000185 -0.021307 -0.001211 -0.011165 -0.003635 0.048593
#
#
# Mechanical properties :
#
#
# Convention : Reuss Voigt Hill
#
# Bulk Modulus (GPa) = 30.39621 63.74673 47.07147
# Shear Modulus (GPa) = 31.76298 48.17605 39.96951
#
# Velocity S-wave (km/s) = 3.37314 4.15422 3.78389
# Velocity P-wave (km/s) = 5.10483 6.77092 5.99603
#
# Compressibility (1/GPa) = 0.03289884
#
# Stress axis : x y z
#
# Youngs Moduli (GPa) = 90.92752 42.10148 168.00842
#
# Poissons Ratio (x) = -0.02646 0.53915
# Poissons Ratio (y) = -0.05714 0.22193
# Poissons Ratio (z) = 0.29179 0.05561
#
# Static dielectric constant tensor:
#      x y z
#    x 2.466190 -0.118930 0.081340 
#    y -0.118930 2.154520 0.068350 
#    z 0.081340 0.068350 2.170750 
# 
# From -- ./inp_files/76008.got.cif
#   From: 2010.05.17/outbox.cif.g08.bks.cpg/sg2_39_cif.got.tgz:76008.got - 2010.06.03 11:33:40.
