data_PCOD9049916
_publ_section_title
;
Structure prediction by ZEFSAII (Michael W. Deem and Ramdas Pophale) SiO2 
 PCOD9049916
Probable space group: P -1
;
_chemical_formula_sum "Si O2"
_cell_formula_units_Z 14
_cell_length_a 8.807570
_cell_length_b 26.297757
_cell_length_c 7.091125
_cell_angle_alpha 131.016593
_cell_angle_beta 119.383515
_cell_angle_gamma 29.347344
_cell_volume 592.464425
_symmetry_space_group_name_H-M "P -1"
_symmetry_group_IT_number 2
_symmetry_cell_setting 'triclinic'
loop_
_space_group_symop_operation_xyz
x,y,z
-x,-y,-z
loop_
_atom_site_type_symbol
_atom_site_label
_atom_site_fract_x
_atom_site_fract_y
_atom_site_fract_z
Si Si1 0.648062 0.316932 0.055066
Si Si2 0.568417 0.731812 0.958339
Si Si3 0.290050 0.623978 0.419358
Si Si4 0.200939 0.081824 0.649403
Si Si5 0.256973 0.872332 0.734459
Si Si6 0.552570 0.860551 0.545591
Si Si7 0.274946 0.477985 0.891835
O O1 0.656441 0.248941 0.028047
O O2 0.573638 0.401662 0.356520
O O3 0.382495 0.393991 0.919742
O O4 0.991592 0.212514 0.910744
O O5 0.491285 0.766906 0.778621
O O6 0.527017 0.815980 0.247376
O O7 0.922387 0.589820 0.867729
O O8 0.311577 0.539916 0.161572
O O9 0.919785 0.761969 0.538157
O O10 0.478577 0.604839 0.330589
O O11 0.944775 0.119331 0.474481
O O12 0.500000 0.000000 0.500000
O O13 0.338732 0.993620 0.690693
O O14 0.438473 0.858565 0.657136
O O15 0.000000 0.000000 0.000000
#
# Coordination Sequence:
#
# PCOD9049916 Si02
#       7
#     2   2   2   2   2   2   2
#     4  12  25  43  69 103 139 180 231 285 340 404
#     4  11  25  44  73  99 137 181 229 280 343 404
#     4  10  25  43  73  98 137 180 234 276 350 399
#     4  12  27  45  71 104 144 175 230 288 338 406
#     4  12  25  45  72  98 138 186 228 272 346 412
#     4  11  24  48  69 103 140 183 221 281 343 412
#     4  10  24  48  67  99 140 178 233 285 336 409
#
# _framework density 23.630108
#
# number of rings (size 3 to 8) (size 9 to 14) (size 15 to 20)
#    0.000    0.857    2.857    3.000    6.000    6.857 
#    0.000    0.000    0.000    0.000    0.000    0.000 
#    0.000    0.000    0.000    0.000    0.000    0.000 
#
# Total GULP energy -78423.148289 kJ/mol
# GULP energy per Si atom -5601.653449 kJ/mol
# Density = 2.357633 g / cm^3
# Si number density = 23.630108 Si / 1000 Ang^3
#
#
#
# Elastic Constant Matrix: (Units=GPa)
#
#
# Indices 1 2 3 4 5 6 
#
# 1 79.9429 53.6842 27.6869 -3.0645 -37.3979 -4.7045
# 2 53.6842 137.3568 53.1057 -17.6737 -43.3880 7.3320
# 3 27.6869 53.1057 106.0965 -5.5657 -31.6979 -8.6422
# 4 -3.0645 -17.6737 -5.5657 33.7229 6.6219 -11.0126
# 5 -37.3979 -43.3880 -31.6979 6.6219 40.2949 2.0633
# 6 -4.7045 7.3320 -8.6422 -11.0126 2.0633 37.7070
#
#
#
# Elastic Compliance Matrix: (Units=1/GPa)
#
#
# Indices 1 2 3 4 5 6 
#
# 1 0.023843 -0.004477 0.001748 -0.002854 0.019031 0.002371
# 2 -0.004477 0.013167 -0.003441 0.003505 0.006908 -0.003262
# 3 0.001748 -0.003441 0.013470 0.000106 0.008315 0.003550
# 4 -0.002854 0.003505 0.000106 0.035384 -0.005098 0.009600
# 5 0.019031 0.006908 0.008315 -0.005098 0.057382 -0.001692
# 6 0.002371 -0.003262 0.003550 0.009600 -0.001692 0.031160
#
#
# Mechanical properties :
#
#
# Convention : Reuss Voigt Hill
#
# Bulk Modulus (GPa) = 26.21832 65.81666 46.01749
# Shear Modulus (GPa) = 25.06767 34.93958 30.00363
#
# Velocity S-wave (km/s) = 3.26058 3.84943 3.56718
# Velocity P-wave (km/s) = 5.02937 6.90441 6.04009
#
# Compressibility (1/GPa) = 0.03814126
#
# Stress axis : x y z
#
# Youngs Moduli (GPa) = 41.94162 75.94605 74.23734
#
# Poissons Ratio (x) = 0.34000 -0.12976
# Poissons Ratio (y) = 0.18777 0.25542
# Poissons Ratio (z) = -0.07331 0.26130
#
# Static dielectric constant tensor:
#      x y z
#    x 1.866890 0.024730 0.030170 
#    y 0.024730 1.897620 0.016390 
#    z 0.030170 0.016390 1.913210 
# 
# From -- ./inp_files/48679.got.cif
#   From: 2010.05.17/outbox.cif.g08.bks.cpg/sg2_25_cif.got.tgz:48679.got - 2010.06.03 11:33:40.
