data_PCOD9049865
_publ_section_title
;
Structure prediction by ZEFSAII (Michael W. Deem and Ramdas Pophale) SiO2 
 PCOD9049865
Probable space group: P -1
;
_chemical_formula_sum "Si O2"
_cell_formula_units_Z 16
_cell_length_a 9.240602
_cell_length_b 8.269541
_cell_length_c 10.192695
_cell_angle_alpha 64.416429
_cell_angle_beta 125.072790
_cell_angle_gamma 97.397511
_cell_volume 567.386259
_symmetry_space_group_name_H-M "P -1"
_symmetry_group_IT_number 2
_symmetry_cell_setting 'triclinic'
loop_
_space_group_symop_operation_xyz
x,y,z
-x,-y,-z
loop_
_atom_site_type_symbol
_atom_site_label
_atom_site_fract_x
_atom_site_fract_y
_atom_site_fract_z
Si Si1 0.810462 0.890465 0.466842
Si Si2 0.976046 0.831585 0.316781
Si Si3 0.806554 0.916636 0.751492
Si Si4 0.086457 0.625778 0.102963
Si Si5 0.665187 0.627694 0.174625
Si Si6 0.339181 0.870328 0.047284
Si Si7 0.534084 0.836980 0.805634
Si Si8 0.331376 0.470102 0.510570
O O1 0.977626 0.838801 0.473491
O O2 0.863703 0.851851 0.657635
O O3 0.682855 0.743109 0.416187
O O4 0.675045 0.083279 0.323782
O O5 0.866378 0.672462 0.275041
O O6 0.148789 0.878402 0.312390
O O7 0.821285 0.006350 0.153949
O O8 0.615905 0.852945 0.698287
O O9 0.938223 0.807410 0.965285
O O10 0.260766 0.692384 0.109827
O O11 0.156620 0.543506 0.306721
O O12 0.000000 0.500000 0.000000
O O13 0.511965 0.799154 0.075427
O O14 0.659681 0.485141 0.342756
O O15 0.610579 0.645037 0.984718
O O16 0.372535 0.000964 0.137812
O O17 0.500000 0.500000 0.500000
#
# Coordination Sequence:
#
# PCOD9049865 Si02
#       8
#     2   2   2   2   2   2   2   2
#     4  11  19  36  59  86 120 151 194 243 293 362
#     4   9  18  32  54  85 113 142 195 235 294 344
#     4  11  24  34  56  91 124 156 178 253 309 339
#     4  11  22  38  56  86 120 154 199 239 284 346
#     4  10  18  34  59  86 109 151 198 245 279 345
#     4  10  17  34  61  84 109 150 191 238 286 343
#     4  11  20  37  59  90 122 144 197 244 307 352
#     4  11  20  35  62  87 107 155 213 238 267 345
#
# _framework density 28.199487000000001
#
# number of rings (size 3 to 8) (size 9 to 14) (size 15 to 20)
#    0.000    1.500    6.250    1.500    0.000    4.500 
#    0.000    0.625    0.000    4.500    0.000    0.000 
#    0.000    0.000    0.000    0.000    0.000    0.000 
#
# Total GULP energy -89286.453615 kJ/mol
# GULP energy per Si atom -5580.403351 kJ/mol
# Density = 2.813530 g / cm^3
# Si number density = 28.199487 Si / 1000 Ang^3
#
#
#
# Elastic Constant Matrix: (Units=GPa)
#
#
# Indices 1 2 3 4 5 6 
#
# 1 153.3491 31.2563 39.3139 -6.7628 -14.8630 39.3418
# 2 31.2563 68.6772 12.9040 -5.9893 3.3958 19.9771
# 3 39.3139 12.9040 190.9493 -6.3224 -13.1518 8.5561
# 4 -6.7628 -5.9893 -6.3224 28.4364 15.7822 -5.3346
# 5 -14.8630 3.3958 -13.1518 15.7822 33.8679 -4.3919
# 6 39.3418 19.9771 8.5561 -5.3346 -4.3919 43.6676
#
#
#
# Elastic Compliance Matrix: (Units=1/GPa)
#
#
# Indices 1 2 3 4 5 6 
#
# 1 0.009416 -0.002384 -0.001261 -0.002032 0.003921 -0.007000
# 2 -0.002384 0.018377 -0.000746 0.005662 -0.006606 -0.006086
# 3 -0.001261 -0.000746 0.005646 -0.000122 0.001841 0.000542
# 4 -0.002032 0.005662 -0.000122 0.049936 -0.024399 0.002911
# 5 0.003921 -0.006606 0.001841 -0.024399 0.044070 0.000581
# 6 -0.007000 -0.006086 0.000542 0.002911 0.000581 0.032299
#
#
# Mechanical properties :
#
#
# Convention : Reuss Voigt Hill
#
# Bulk Modulus (GPa) = 40.55602 64.43600 52.49601
# Shear Modulus (GPa) = 28.28952 43.16114 35.72533
#
# Velocity S-wave (km/s) = 3.17076 3.91649 3.56319
# Velocity P-wave (km/s) = 5.27428 6.58419 5.96530
#
# Compressibility (1/GPa) = 0.02465725
#
# Stress axis : x y z
#
# Youngs Moduli (GPa) = 106.19658 54.41692 177.13088
#
# Poissons Ratio (x) = 0.12971 0.22340
# Poissons Ratio (y) = 0.25313 0.13213
# Poissons Ratio (z) = 0.13394 0.04059
#
# Static dielectric constant tensor:
#      x y z
#    x 2.325140 0.020880 -0.102740 
#    y 0.020880 2.451600 -0.028860 
#    z -0.102740 -0.028860 2.270720 
# 
# From -- ./inp_files/392177.got.cif
#   From: 2010.05.17/outbox.cif.g08.bks.cpg/sg2_197_cif.got.tgz:392177.got - 2010.06.03 11:33:40.
