data_PCOD9049616
_publ_section_title
;
Structure prediction by ZEFSAII (Michael W. Deem and Ramdas Pophale) SiO2 
 PCOD9049616
Probable space group: P -1
;
_chemical_formula_sum "Si O2"
_cell_formula_units_Z 16
_cell_length_a 7.729519
_cell_length_b 7.846368
_cell_length_c 17.441216
_cell_angle_alpha 131.358150
_cell_angle_beta 65.578104
_cell_angle_gamma 126.069720
_cell_volume 641.245305
_symmetry_space_group_name_H-M "P -1"
_symmetry_group_IT_number 2
_symmetry_cell_setting 'triclinic'
loop_
_space_group_symop_operation_xyz
x,y,z
-x,-y,-z
loop_
_atom_site_type_symbol
_atom_site_label
_atom_site_fract_x
_atom_site_fract_y
_atom_site_fract_z
Si Si1 0.744495 0.611877 0.887285
Si Si2 0.195937 0.867753 0.941330
Si Si3 0.008169 0.061946 0.295457
Si Si4 0.647358 0.927885 0.196779
Si Si5 0.260170 0.433029 0.756819
Si Si6 0.364601 0.596749 0.608543
Si Si7 0.939711 0.185447 0.513069
Si Si8 0.312028 0.566818 0.313952
O O1 0.525285 0.364507 0.873832
O O2 0.811705 0.524514 0.770686
O O3 0.937478 0.706891 0.941034
O O4 0.727204 0.871163 0.949016
O O5 0.291793 0.671847 0.874211
O O6 0.263603 0.957862 0.868481
O O7 0.853169 0.987238 0.228626
O O8 0.980708 0.785078 0.244879
O O9 0.928470 0.125661 0.408385
O O10 0.222137 0.314995 0.309785
O O11 0.545335 0.099860 0.305558
O O12 0.307011 0.486078 0.673230
O O13 0.441983 0.352686 0.722233
O O14 0.500000 0.500000 0.500000
O O15 0.132072 0.471406 0.574338
O O16 0.728819 0.205384 0.580340
O O17 0.000000 0.000000 0.500000
#
# Coordination Sequence:
#
# PCOD9049616 Si02
#       8
#     2   2   2   2   2   2   2   2
#     4  11  23  43  77  94 131 180 218 284 334 394
#     4  10  24  47  69 102 131 169 230 275 337 402
#     4  12  24  42  67  97 139 177 218 275 327 396
#     4  11  23  43  69  99 134 176 223 275 334 399
#     4  11  25  43  67  97 138 175 218 280 332 395
#     4  11  24  42  64 100 134 176 230 270 324 403
#     4  12  26  43  67  94 137 181 221 271 327 394
#     4  12  25  44  67 100 135 177 222 273 331 391
#
# _framework density 24.951447999999999
#
# number of rings (size 3 to 8) (size 9 to 14) (size 15 to 20)
#    0.000    0.750    5.000    2.250    3.500    3.000 
#    0.000    0.625    0.000    0.000    0.000    0.000 
#    0.000    0.000    0.000    0.000    0.000    0.000 
#
# Total GULP energy -89339.039727 kJ/mol
# GULP energy per Si atom -5583.689983 kJ/mol
# Density = 2.489466 g / cm^3
# Si number density = 24.951448 Si / 1000 Ang^3
#
#
#
# Elastic Constant Matrix: (Units=GPa)
#
#
# Indices 1 2 3 4 5 6 
#
# 1 60.4061 6.6955 9.8096 16.1722 1.9536 11.5424
# 2 6.6955 90.2191 -6.6127 17.4719 6.7202 10.2041
# 3 9.8096 -6.6127 95.8934 24.2981 -8.4241 6.4622
# 4 16.1722 17.4719 24.2981 38.0108 3.9142 6.8669
# 5 1.9536 6.7202 -8.4241 3.9142 41.0108 2.1392
# 6 11.5424 10.2041 6.4622 6.8669 2.1392 28.6941
#
#
#
# Elastic Compliance Matrix: (Units=1/GPa)
#
#
# Indices 1 2 3 4 5 6 
#
# 1 0.019738 0.000831 0.000497 -0.007943 0.000120 -0.006455
# 2 0.000831 0.013177 0.002927 -0.007520 -0.000680 -0.003829
# 3 0.000497 0.002927 0.013609 -0.010223 0.003378 -0.002111
# 4 -0.007943 -0.007520 -0.010223 0.040330 -0.004278 -0.001161
# 5 0.000120 -0.000680 0.003378 -0.004278 0.025668 -0.001457
# 6 -0.006455 -0.003829 -0.002111 -0.001161 -0.001457 0.039671
#
#
# Mechanical properties :
#
#
# Convention : Reuss Voigt Hill
#
# Bulk Modulus (GPa) = 18.17065 29.58928 23.87997
# Shear Modulus (GPa) = 30.85921 37.31821 34.08871
#
# Velocity S-wave (km/s) = 3.52059 3.87154 3.70023
# Velocity P-wave (km/s) = 4.88101 5.64531 5.27702
#
# Compressibility (1/GPa) = 0.05503380
#
# Stress axis : x y z
#
# Youngs Moduli (GPa) = 50.66347 75.88905 73.48303
#
# Poissons Ratio (x) = -0.06307 -0.03648
# Poissons Ratio (y) = -0.04210 -0.21512
# Poissons Ratio (z) = -0.02515 -0.22216
#
# Static dielectric constant tensor:
#      x y z
#    x 2.023480 -0.070330 -0.063590 
#    y -0.070330 2.092260 0.089200 
#    z -0.063590 0.089200 2.035130 
# 
# From -- ./inp_files/314388.got.cif
#   From: 2010.05.17/outbox.cif.g08.bks.cpg/sg2_158_cif.got.tgz:314388.got - 2010.06.03 11:33:40.
