data_PCOD9049507
_publ_section_title
;
Structure prediction by ZEFSAII (Michael W. Deem and Ramdas Pophale) SiO2 
 PCOD9049507
Probable space group: P -1
;
_chemical_formula_sum "Si O2"
_cell_formula_units_Z 15
_cell_length_a 17.145587
_cell_length_b 7.545761
_cell_length_c 7.346069
_cell_angle_alpha 116.453387
_cell_angle_beta 122.106748
_cell_angle_gamma 47.314916
_cell_volume 586.229993
_symmetry_space_group_name_H-M "P -1"
_symmetry_group_IT_number 2
_symmetry_cell_setting 'triclinic'
loop_
_space_group_symop_operation_xyz
x,y,z
-x,-y,-z
loop_
_atom_site_type_symbol
_atom_site_label
_atom_site_fract_x
_atom_site_fract_y
_atom_site_fract_z
Si Si1 0.798287 0.757339 0.643261
Si Si2 0.063043 0.251226 0.579388
Si Si3 0.717391 0.216422 0.342013
Si Si4 0.550667 0.967082 0.349437
Si Si5 0.752334 0.250446 0.801463
Si Si6 0.859781 0.300831 0.278108
Si Si7 0.468257 0.353893 0.104940
Si Si8 0.000000 0.500000 0.000000
O O1 0.665771 0.930046 0.529886
O O2 0.825384 0.549178 0.440320
O O3 0.863497 0.616422 0.841836
O O4 0.829153 0.953963 0.765105
O O5 0.996563 0.133543 0.384869
O O6 0.000000 0.500000 0.500000
O O7 0.034850 0.334687 0.788518
O O8 0.197927 0.073222 0.646274
O O9 0.722080 0.329930 0.590551
O O10 0.788084 0.233888 0.277673
O O11 0.588380 0.310751 0.194013
O O12 0.500000 0.000000 0.500000
O O13 0.487640 0.185233 0.225689
O O14 0.563411 0.744392 0.152181
O O15 0.635406 0.381459 0.833290
O O16 0.822778 0.324161 0.034619
#
# Coordination Sequence:
#
# PCOD9049507 Si02
#       8
#     2   2   2   2   2   2   2   1
#     4  11  24  48  74 108 147 194 252 302 375 441
#     4  11  26  48  77 110 150 196 255 311 375 448
#     4  12  26  44  75 109 150 198 250 308 377 448
#     4  11  26  46  77 109 154 200 251 310 373 447
#     4  12  26  48  78 108 155 197 246 315 370 448
#     4  11  27  47  73 112 148 194 252 309 373 450
#     4  11  27  47  75 113 153 200 253 306 376 448
#     4  10  24  46  76 106 142 194 244 312 366 438
#
# _framework density 25.587228
#
# number of rings (size 3 to 8) (size 9 to 14) (size 15 to 20)
#    0.000    0.800    2.667    3.200    5.600    4.267 
#    0.000    1.333    0.000    0.000    0.000    0.000 
#    0.000    0.000    0.000    0.000    0.000    0.000 
#
# Total GULP energy -83512.690227 kJ/mol
# GULP energy per Si atom -5567.512682 kJ/mol
# Density = 2.552899 g / cm^3
# Si number density = 25.587228 Si / 1000 Ang^3
#
#
#
# Elastic Constant Matrix: (Units=GPa)
#
#
# Indices 1 2 3 4 5 6 
#
# 1 80.4073 4.2520 24.5521 -7.8356 -8.2844 4.0377
# 2 4.2520 79.3788 22.1898 9.8961 9.9504 -1.6706
# 3 24.5521 22.1898 209.1904 -19.7220 5.4818 -10.3738
# 4 -7.8356 9.8961 -19.7220 35.3417 -8.2442 6.3450
# 5 -8.2844 9.9504 5.4818 -8.2442 36.3300 0.3380
# 6 4.0377 -1.6706 -10.3738 6.3450 0.3380 35.2803
#
#
#
# Elastic Compliance Matrix: (Units=1/GPa)
#
#
# Indices 1 2 3 4 5 6 
#
# 1 0.014013 -0.001613 -0.001324 0.004483 0.004881 -0.002922
# 2 -0.001613 0.014857 -0.001829 -0.007199 -0.005810 0.001701
# 3 -0.001324 -0.001829 0.005475 0.003088 0.000063 0.001119
# 4 0.004483 -0.007199 0.003088 0.036775 0.010935 -0.006665
# 5 0.004881 -0.005810 0.000063 0.010935 0.032731 -0.003095
# 6 -0.002922 0.001701 0.001119 -0.006665 -0.003095 0.030317
#
#
# Mechanical properties :
#
#
# Convention : Reuss Voigt Hill
#
# Bulk Modulus (GPa) = 40.30034 52.32937 46.31486
# Shear Modulus (GPa) = 32.90143 42.58922 37.74532
#
# Velocity S-wave (km/s) = 3.58977 4.08422 3.84495
# Velocity P-wave (km/s) = 5.74163 6.53735 6.15237
#
# Compressibility (1/GPa) = 0.02481369
#
# Stress axis : x y z
#
# Youngs Moduli (GPa) = 71.36387 67.30789 182.66198
#
# Poissons Ratio (x) = 0.10856 0.24180
# Poissons Ratio (y) = 0.11510 0.33405
# Poissons Ratio (z) = 0.09447 0.12309
#
# Static dielectric constant tensor:
#      x y z
#    x 2.326120 0.223740 0.345990 
#    y 0.223740 2.444130 0.538850 
#    z 0.345990 0.538850 3.090640 
# 
# From -- ./inp_files/342270.got.cif
#   From: 2010.05.17/outbox.cif.g08.bks.cpg/sg2_172_cif.got.tgz:342270.got - 2010.06.03 11:33:40.
