data_PCOD9049029
_publ_section_title
;
Structure prediction by ZEFSAII (Michael W. Deem and Ramdas Pophale) SiO2 
 PCOD9049029
Probable space group: P -1
;
_chemical_formula_sum "Si O2"
_cell_formula_units_Z 14
_cell_length_a 18.283602
_cell_length_b 5.201217
_cell_length_c 9.995927
_cell_angle_alpha 129.596168
_cell_angle_beta 50.417881
_cell_angle_gamma 121.321969
_cell_volume 554.081619
_symmetry_space_group_name_H-M "P -1"
_symmetry_group_IT_number 2
_symmetry_cell_setting 'triclinic'
loop_
_space_group_symop_operation_xyz
x,y,z
-x,-y,-z
loop_
_atom_site_type_symbol
_atom_site_label
_atom_site_fract_x
_atom_site_fract_y
_atom_site_fract_z
Si Si1 0.444396 0.281484 0.717136
Si Si2 0.636895 0.716422 0.724490
Si Si3 0.249187 0.815810 0.465137
Si Si4 0.330268 0.787765 0.897756
Si Si5 0.087670 0.325271 0.382977
Si Si6 0.021754 0.366080 0.762790
Si Si7 0.133341 0.320448 0.886281
O O1 0.524134 0.551339 0.793302
O O2 0.396947 0.502586 0.740168
O O3 0.500000 0.000000 0.500000
O O4 0.365056 0.066130 0.835342
O O5 0.693706 0.416778 0.593925
O O6 0.676962 0.886140 0.594793
O O7 0.659236 0.000464 0.906918
O O8 0.188856 0.581940 0.341383
O O9 0.173585 0.978061 0.695685
O O10 0.223999 0.583146 0.923702
O O11 0.000000 0.500000 0.500000
O O12 0.077830 0.272020 0.537127
O O13 0.064048 0.962164 0.221752
O O14 0.093136 0.414569 0.820167
O O15 0.959598 0.657162 0.906389
#
# Coordination Sequence:
#
# PCOD9049029 Si02
#       7
#     2   2   2   2   2   2   2
#     4  12  25  48  74 105 141 180 228 293 355 412
#     4  12  26  47  73 102 140 184 236 285 350 419
#     4  12  25  44  70 103 138 185 232 290 344 417
#     4  12  26  45  73 105 140 184 233 286 347 423
#     4  11  23  43  69  98 135 187 234 285 348 409
#     4  10  24  46  66  97 144 184 236 291 347 417
#     4  11  24  44  67 102 139 187 232 291 352 411
#
# _framework density 25.267036000000001
#
# number of rings (size 3 to 8) (size 9 to 14) (size 15 to 20)
#    0.000    0.571    1.429    6.429    4.000    1.714 
#    2.571    0.000    0.000    0.000    0.000    0.000 
#    0.000    0.000    0.000    0.000    0.000    0.000 
#
# Total GULP energy -78477.204590 kJ/mol
# GULP energy per Si atom -5605.514614 kJ/mol
# Density = 2.520953 g / cm^3
# Si number density = 25.267036 Si / 1000 Ang^3
#
#
#
# Elastic Constant Matrix: (Units=GPa)
#
#
# Indices 1 2 3 4 5 6 
#
# 1 138.1954 32.7113 23.3359 25.1497 -2.0862 30.7573
# 2 32.7113 98.8011 7.6397 31.8132 -5.6357 -0.8789
# 3 23.3359 7.6397 93.1215 26.0231 -0.7130 -3.8847
# 4 25.1497 31.8132 26.0231 38.1876 -3.2984 8.1079
# 5 -2.0862 -5.6357 -0.7130 -3.2984 51.6568 7.7002
# 6 30.7573 -0.8789 -3.8847 8.1079 7.7002 43.0108
#
#
#
# Elastic Compliance Matrix: (Units=1/GPa)
#
#
# Indices 1 2 3 4 5 6 
#
# 1 0.010200 -0.002868 -0.002341 -0.001028 0.001130 -0.007572
# 2 -0.002868 0.015625 0.003842 -0.014939 -0.000141 0.005559
# 3 -0.002341 0.003842 0.014919 -0.013157 -0.001173 0.005790
# 4 -0.001028 -0.014939 -0.013157 0.050846 0.003016 -0.010883
# 5 0.001130 -0.000141 -0.001173 0.003016 0.020329 -0.005125
# 6 -0.007572 0.005559 0.005790 -0.010883 -0.005125 0.032271
#
#
# Mechanical properties :
#
#
# Convention : Reuss Voigt Hill
#
# Bulk Modulus (GPa) = 26.30764 50.83242 38.57003
# Shear Modulus (GPa) = 31.32961 44.33313 37.83137
#
# Velocity S-wave (km/s) = 3.52510 4.19332 3.87364
# Velocity P-wave (km/s) = 5.19643 6.60356 5.94180
#
# Compressibility (1/GPa) = 0.03801177
#
# Stress axis : x y z
#
# Youngs Moduli (GPa) = 98.04232 63.99801 67.02730
#
# Poissons Ratio (x) = 0.18354 0.15690
# Poissons Ratio (y) = 0.28118 -0.25754
# Poissons Ratio (z) = 0.22950 -0.24591
#
# Static dielectric constant tensor:
#      x y z
#    x 1.930820 0.002430 0.022340 
#    y 0.002430 2.065320 0.014700 
#    z 0.022340 0.014700 2.060310 
# 
# From -- ./inp_files/459673.got.cif
#   From: 2010.05.17/outbox.cif.g08.bks.cpg/sg2_230_cif.got.tgz:459673.got - 2010.06.03 11:33:40.
