data_PCOD9049483
_publ_section_title
;
Structure prediction by ZEFSAII (Michael W. Deem and Ramdas Pophale) SiO2 
 PCOD9049483
Probable space group: P -1
;
_chemical_formula_sum "Si O2"
_cell_formula_units_Z 14
_cell_length_a 6.923966
_cell_length_b 16.443584
_cell_length_c 17.602103
_cell_angle_alpha 154.861398
_cell_angle_beta 46.679008
_cell_angle_gamma 140.419041
_cell_volume 541.953615
_symmetry_space_group_name_H-M "P -1"
_symmetry_group_IT_number 2
_symmetry_cell_setting 'triclinic'
loop_
_space_group_symop_operation_xyz
x,y,z
-x,-y,-z
loop_
_atom_site_type_symbol
_atom_site_label
_atom_site_fract_x
_atom_site_fract_y
_atom_site_fract_z
Si Si1 0.178977 0.061254 0.922005
Si Si2 0.309794 0.696815 0.617249
Si Si3 0.189730 0.457367 0.977688
Si Si4 0.178937 0.126153 0.804337
Si Si5 0.867816 0.531699 0.724358
Si Si6 0.258367 0.247278 0.640549
Si Si7 0.082422 0.307584 0.585400
O O1 0.053364 0.019966 0.832726
O O2 0.367920 0.931930 0.769865
O O3 0.296802 0.319757 0.108588
O O4 0.000000 0.000000 0.000000
O O5 0.587319 0.649426 0.495694
O O6 0.000000 0.500000 0.500000
O O7 0.188016 0.670840 0.714028
O O8 0.044407 0.274425 0.928360
O O9 0.312474 0.329761 0.781427
O O10 0.469045 0.688993 0.123524
O O11 0.000000 0.500000 0.000000
O O12 0.127718 0.933306 0.597074
O O13 0.596872 0.307027 0.572465
O O14 0.965549 0.463272 0.715893
O O15 0.121846 0.339889 0.692009
O O16 0.000000 0.000000 0.500000
#
# Coordination Sequence:
#
# PCOD9049483 Si02
#       7
#     2   2   2   2   2   2   2
#     4  10  24  46  75 105 150 200 246 314 377 452
#     4  11  23  48  76 106 149 202 248 310 387 447
#     4  11  27  46  75 104 156 201 255 311 387 449
#     4  11  25  46  70 110 144 199 255 310 375 458
#     4  11  25  48  72 108 155 193 256 315 375 465
#     4  12  26  47  72 112 151 200 250 318 388 446
#     4  12  27  43  80 110 151 199 255 313 384 458
#
# _framework density 25.832470000000001
#
# number of rings (size 3 to 8) (size 9 to 14) (size 15 to 20)
#    0.000    0.857    4.286    1.286    6.000    0.571 
#    0.000    2.143    0.000    0.000    0.000    0.000 
#    0.000    0.000    0.000    0.000    0.000    0.000 
#
# Total GULP energy -78016.141843 kJ/mol
# GULP energy per Si atom -5572.581560 kJ/mol
# Density = 2.577367 g / cm^3
# Si number density = 25.832470 Si / 1000 Ang^3
#
#
#
# Elastic Constant Matrix: (Units=GPa)
#
#
# Indices 1 2 3 4 5 6 
#
# 1 176.1636 62.9400 46.6250 23.1451 -12.2755 -26.9530
# 2 62.9400 94.6683 37.0533 11.4872 -11.3500 -19.1150
# 3 46.6250 37.0533 105.8235 1.4662 10.0186 -0.1019
# 4 23.1451 11.4872 1.4662 33.7638 -10.4278 -0.6623
# 5 -12.2755 -11.3500 10.0186 -10.4278 52.8065 6.1727
# 6 -26.9530 -19.1150 -0.1019 -0.6623 6.1727 59.4897
#
#
#
# Elastic Compliance Matrix: (Units=1/GPa)
#
#
# Indices 1 2 3 4 5 6 
#
# 1 0.008664 -0.003640 -0.002531 -0.004372 0.000539 0.002647
# 2 -0.003640 0.015764 -0.004134 -0.001824 0.002602 0.003119
# 3 -0.002531 -0.004134 0.012297 0.001560 -0.003256 -0.002099
# 4 -0.004372 -0.001824 0.001560 0.034809 0.005490 -0.002747
# 5 0.000539 0.002602 -0.003256 0.005490 0.021451 -0.001090
# 6 0.002647 0.003119 -0.002099 -0.002747 -0.001090 0.019090
#
#
# Mechanical properties :
#
#
# Convention : Reuss Voigt Hill
#
# Bulk Modulus (GPa) = 62.05153 74.43244 68.24199
# Shear Modulus (GPa) = 36.21714 44.54781 40.38248
#
# Velocity S-wave (km/s) = 3.74839 4.15720 3.95808
# Velocity P-wave (km/s) = 6.54269 7.20550 6.88208
#
# Compressibility (1/GPa) = 0.01611564
#
# Stress axis : x y z
#
# Youngs Moduli (GPa) = 115.42296 63.43446 81.32216
#
# Poissons Ratio (x) = 0.23091 0.20579
# Poissons Ratio (y) = 0.42015 0.33619
# Poissons Ratio (z) = 0.29208 0.26224
#
# Static dielectric constant tensor:
#      x y z
#    x 2.080020 0.001720 -0.057510 
#    y 0.001720 2.275530 -0.204420 
#    z -0.057510 -0.204420 2.284110 
# 
# From -- ./inp_files/550148.got.cif
#   From: 2010.05.17/outbox.cif.g08.bks.cpg/sg2_276_cif.got.tgz:550148.got - 2010.06.03 11:33:40.
