data_PCOD9049491
_publ_section_title
;
Structure prediction by ZEFSAII (Michael W. Deem and Ramdas Pophale) SiO2 
 PCOD9049491
Probable space group: P -1
;
_chemical_formula_sum "Si O2"
_cell_formula_units_Z 12
_cell_length_a 11.616275
_cell_length_b 9.017902
_cell_length_c 5.166453
_cell_angle_alpha 87.120761
_cell_angle_beta 113.827462
_cell_angle_gamma 71.236523
_cell_volume 458.513676
_symmetry_space_group_name_H-M "P -1"
_symmetry_group_IT_number 2
_symmetry_cell_setting 'triclinic'
loop_
_space_group_symop_operation_xyz
x,y,z
-x,-y,-z
loop_
_atom_site_type_symbol
_atom_site_label
_atom_site_fract_x
_atom_site_fract_y
_atom_site_fract_z
Si Si1 0.917901 0.929373 0.124268
Si Si2 0.656350 0.965899 0.578114
Si Si3 0.703567 0.198437 0.197151
Si Si4 0.745707 0.512092 0.083926
Si Si5 0.908132 0.439744 0.728667
Si Si6 0.440508 0.188131 0.862904
O O1 0.777970 0.917542 0.893340
O O2 0.014734 0.746330 0.262744
O O3 0.850707 0.068931 0.261909
O O4 0.000000 0.000000 0.000000
O O5 0.680366 0.810161 0.434542
O O6 0.500000 0.000000 0.500000
O O7 0.669533 0.115804 0.424961
O O8 0.704780 0.373383 0.188275
O O9 0.575536 0.214327 0.891810
O O10 0.857359 0.518578 0.394862
O O11 0.625215 0.683901 0.984582
O O12 0.789295 0.460656 0.833328
O O13 0.000000 0.500000 0.000000
O O14 0.500000 0.000000 0.000000
#
# Coordination Sequence:
#
# PCOD9049491 Si02
#       6
#     2   2   2   2   2   2
#     4  12  25  46  74 110 154 205 256 310 392 465
#     4  11  24  44  76 111 148 204 263 320 382 457
#     4  11  25  44  75 110 153 198 259 320 388 461
#     4  12  27  50  71 114 154 200 259 325 388 457
#     4  12  29  46  75 108 157 205 256 318 385 466
#     4  10  24  46  75 108 143 196 258 320 383 457
#
# _framework density 26.171522
#
# number of rings (size 3 to 8) (size 9 to 14) (size 15 to 20)
#    0.000    0.667    3.333    3.000    7.000    4.000 
#    0.000    2.500    0.000    0.000    0.000    0.000 
#    0.000    0.000    0.000    0.000    0.000    0.000 
#
# Total GULP energy -66976.685247 kJ/mol
# GULP energy per Si atom -5581.390437 kJ/mol
# Density = 2.611195 g / cm^3
# Si number density = 26.171522 Si / 1000 Ang^3
#
#
#
# Elastic Constant Matrix: (Units=GPa)
#
#
# Indices 1 2 3 4 5 6 
#
# 1 141.9317 51.5976 15.7048 -2.2290 -7.4308 -11.6791
# 2 51.5976 177.9089 16.6888 -4.1736 3.9430 -27.5860
# 3 15.7048 16.6888 82.7157 5.4235 -7.9989 -15.8790
# 4 -2.2290 -4.1736 5.4235 37.7230 2.0296 10.6467
# 5 -7.4308 3.9430 -7.9989 2.0296 44.9873 5.0404
# 6 -11.6791 -27.5860 -15.8790 10.6467 5.0404 48.1181
#
#
#
# Elastic Compliance Matrix: (Units=1/GPa)
#
#
# Indices 1 2 3 4 5 6 
#
# 1 0.008052 -0.002246 -0.000931 0.000243 0.001332 0.000166
# 2 -0.002246 0.006874 -0.000422 -0.000209 -0.001426 0.003452
# 3 -0.000931 -0.000422 0.013651 -0.003467 0.001951 0.004600
# 4 0.000243 -0.000209 -0.003467 0.029186 -0.001028 -0.007555
# 5 0.001332 -0.001426 0.001951 -0.001028 0.023197 -0.002053
# 6 0.000166 0.003452 0.004600 -0.007555 -0.002053 0.026206
#
#
# Mechanical properties :
#
#
# Convention : Reuss Voigt Hill
#
# Bulk Modulus (GPa) = 46.77481 63.39320 55.08401
# Shear Modulus (GPa) = 41.15558 47.40335 44.27946
#
# Velocity S-wave (km/s) = 3.96982 4.26050 4.11773
# Velocity P-wave (km/s) = 6.23890 6.96257 6.61064
#
# Compressibility (1/GPa) = 0.02137903
#
# Stress axis : x y z
#
# Youngs Moduli (GPa) = 124.18641 145.48007 73.25725
#
# Poissons Ratio (x) = 0.32676 0.06819
# Poissons Ratio (y) = 0.27893 0.03091
# Poissons Ratio (z) = 0.11560 0.06138
#
# Static dielectric constant tensor:
#      x y z
#    x 2.142150 -0.049750 -0.040820 
#    y -0.049750 2.048770 0.153120 
#    z -0.040820 0.153120 2.572010 
# 
# From -- ./inp_files/59488.got.cif
#   From: 2010.05.17/outbox.cif.g08.bks.cpg/sg2_30_cif.got.tgz:59488.got - 2010.06.03 11:33:40.
