data_PCOD9049120
_publ_section_title
;
Structure prediction by ZEFSAII (Michael W. Deem and Ramdas Pophale) SiO2 
 PCOD9049120
Probable space group: P -1
;
_chemical_formula_sum "Si O2"
_cell_formula_units_Z 16
_cell_length_a 12.118983
_cell_length_b 9.639525
_cell_length_c 17.302783
_cell_angle_alpha 61.314305
_cell_angle_beta 147.681469
_cell_angle_gamma 134.808271
_cell_volume 730.242585
_symmetry_space_group_name_H-M "P -1"
_symmetry_group_IT_number 2
_symmetry_cell_setting 'triclinic'
loop_
_space_group_symop_operation_xyz
x,y,z
-x,-y,-z
loop_
_atom_site_type_symbol
_atom_site_label
_atom_site_fract_x
_atom_site_fract_y
_atom_site_fract_z
Si Si1 0.319524 0.257217 0.470276
Si Si2 0.908256 0.742978 0.815482
Si Si3 0.617705 0.528644 0.977292
Si Si4 0.863646 0.599734 0.375946
Si Si5 0.108595 0.981889 0.147070
Si Si6 0.411469 0.974112 0.542304
Si Si7 0.355953 0.292975 0.655588
Si Si8 0.587146 0.194590 0.949559
O O1 0.500000 0.500000 0.500000
O O2 0.100302 0.182892 0.294928
O O3 0.239352 0.196619 0.527973
O O4 0.478926 0.178990 0.560459
O O5 0.639149 0.519016 0.742536
O O6 0.936264 0.905949 0.845173
O O7 0.142792 0.729979 0.953716
O O8 0.418528 0.529165 0.801841
O O9 0.618989 0.355259 0.986075
O O10 0.500000 0.500000 0.000000
O O11 0.920091 0.737451 0.109936
O O12 0.819865 0.666889 0.412933
O O13 0.000000 0.500000 0.500000
O O14 0.093691 0.801626 0.409588
O O15 0.414852 0.075229 0.299780
O O16 0.000000 0.000000 0.000000
O O17 0.500000 0.000000 0.500000
O O18 0.406529 0.175583 0.777493
O O19 0.500000 0.000000 0.000000
#
# Coordination Sequence:
#
# PCOD9049120 Si02
#       8
#     2   2   2   2   2   2   2   2
#     4  10  25  43  72  99 139 183 242 288 357 417
#     4  11  23  45  70  99 144 188 237 296 355 422
#     4  11  25  45  68 102 140 181 230 282 352 427
#     4  11  25  46  71 102 143 184 230 297 357 416
#     4  12  25  42  71 105 138 179 238 290 351 423
#     4  12  25  45  73 103 142 185 236 296 358 419
#     4  10  24  46  69 103 140 184 242 291 355 430
#     4  11  25  43  71 100 142 187 234 298 358 414
#
# _framework density 21.910525
#
# number of rings (size 3 to 8) (size 9 to 14) (size 15 to 20)
#    0.000    1.000    1.250    4.875   10.500    1.500 
#    2.250    0.000    0.000    0.000    0.000    0.000 
#    0.000    0.000    0.000    0.000    0.000    0.000 
#
# Total GULP energy -89387.688085 kJ/mol
# GULP energy per Si atom -5586.730505 kJ/mol
# Density = 2.186066 g / cm^3
# Si number density = 21.910525 Si / 1000 Ang^3
#
#
#
# Elastic Constant Matrix: (Units=GPa)
#
#
# Indices 1 2 3 4 5 6 
#
# 1 150.5951 38.5096 54.6124 -13.1340 -5.9242 -23.1260
# 2 38.5096 97.5438 33.9402 -13.3564 0.6800 -8.7743
# 3 54.6124 33.9402 114.0583 -19.1316 0.0111 -22.8889
# 4 -13.1340 -13.3564 -19.1316 41.8485 1.4637 8.3090
# 5 -5.9242 0.6800 0.0111 1.4637 56.6371 -0.4284
# 6 -23.1260 -8.7743 -22.8889 8.3090 -0.4284 45.8791
#
#
#
# Elastic Compliance Matrix: (Units=1/GPa)
#
#
# Indices 1 2 3 4 5 6 
#
# 1 0.008712 -0.002157 -0.003011 0.000148 0.000953 0.002459
# 2 -0.002157 0.012178 -0.002276 0.002245 -0.000432 -0.000304
# 3 -0.003011 -0.002276 0.012127 0.003186 -0.000346 0.003516
# 4 0.000148 0.002245 0.003186 0.026686 -0.000723 -0.002746
# 5 0.000953 -0.000432 -0.000346 -0.000723 0.017784 0.000522
# 6 0.002459 -0.000304 0.003516 -0.002746 0.000522 0.025234
#
#
# Mechanical properties :
#
#
# Convention : Reuss Voigt Hill
#
# Bulk Modulus (GPa) = 55.16011 68.48018 61.82015
# Shear Modulus (GPa) = 40.43637 44.54860 42.49249
#
# Velocity S-wave (km/s) = 4.30062 4.51400 4.40860
# Velocity P-wave (km/s) = 7.06330 7.64791 7.36141
#
# Compressibility (1/GPa) = 0.01812904
#
# Stress axis : x y z
#
# Youngs Moduli (GPa) = 114.78633 82.11437 82.46278
#
# Poissons Ratio (x) = 0.17710 0.24834
# Poissons Ratio (y) = 0.24757 0.18765
# Poissons Ratio (z) = 0.34568 0.18685
#
# Static dielectric constant tensor:
#      x y z
#    x 1.798340 0.060970 -0.002240 
#    y 0.060970 1.880130 0.058460 
#    z -0.002240 0.058460 1.826670 
# 
# From -- ./inp_files/566666.got.cif
#   From: 2010.05.17/outbox.cif.g08.bks.cpg/sg2_284_cif.got.tgz:566666.got - 2010.06.03 11:33:40.
