data_PCOD9049430
_publ_section_title
;
Structure prediction by ZEFSAII (Michael W. Deem and Ramdas Pophale) SiO2 
 PCOD9049430
Probable space group: P -1
;
_chemical_formula_sum "Si O2"
_cell_formula_units_Z 12
_cell_length_a 8.160767
_cell_length_b 16.491251
_cell_length_c 7.386077
_cell_angle_alpha 131.306682
_cell_angle_beta 40.398349
_cell_angle_gamma 126.739513
_cell_volume 474.536597
_symmetry_space_group_name_H-M "P -1"
_symmetry_group_IT_number 2
_symmetry_cell_setting 'triclinic'
loop_
_space_group_symop_operation_xyz
x,y,z
-x,-y,-z
loop_
_atom_site_type_symbol
_atom_site_label
_atom_site_fract_x
_atom_site_fract_y
_atom_site_fract_z
Si Si1 0.635220 0.245500 0.214610
Si Si2 0.213416 0.992409 0.664886
Si Si3 0.212388 0.591284 0.354127
Si Si4 0.902857 0.266573 0.675457
Si Si5 0.877403 0.874306 0.371717
Si Si6 0.268648 0.463439 0.777249
O O1 0.641754 0.338626 0.499750
O O2 0.374348 0.159383 0.341157
O O3 0.676065 0.285495 0.031583
O O4 0.895274 0.194172 0.947768
O O5 0.123803 0.864924 0.486900
O O6 0.500000 0.000000 0.500000
O O7 0.235228 0.104335 0.696877
O O8 0.000000 0.000000 0.000000
O O9 0.000000 0.500000 0.500000
O O10 0.336901 0.518722 0.996845
O O11 0.880454 0.319399 0.573631
O O12 0.163427 0.333080 0.649373
O O13 0.000000 0.000000 0.500000
O O14 0.500000 0.500000 0.500000
O O15 0.000000 0.500000 0.000000
#
# Coordination Sequence:
#
# PCOD9049430 Si02
#       6
#     2   2   2   2   2   2
#     4  12  27  47  78 113 151 202 251 316 378 459
#     4  12  27  46  76 109 152 195 253 317 375 455
#     4  11  24  49  76 114 151 196 260 317 377 458
#     4  11  25  47  75 109 151 200 252 308 389 446
#     4  12  26  49  74 110 152 198 253 308 382 452
#     4  10  24  46  74 103 146 191 242 310 373 441
#
# _framework density 25.287831000000001
#
# number of rings (size 3 to 8) (size 9 to 14) (size 15 to 20)
#    0.000    0.667    3.333    3.500    2.333    9.333 
#    0.000    4.167    0.000    0.000    0.000    0.000 
#    0.000    0.000    0.000    0.000    0.000    0.000 
#
# Total GULP energy -67020.650021 kJ/mol
# GULP energy per Si atom -5585.054168 kJ/mol
# Density = 2.523027 g / cm^3
# Si number density = 25.287831 Si / 1000 Ang^3
#
#
#
# Elastic Constant Matrix: (Units=GPa)
#
#
# Indices 1 2 3 4 5 6 
#
# 1 81.2443 20.9312 50.0440 -8.4341 4.3660 -17.7815
# 2 20.9312 184.6263 78.3064 -26.9878 10.4791 9.8290
# 3 50.0440 78.3064 202.8641 -22.8151 12.4489 -0.4515
# 4 -8.4341 -26.9878 -22.8151 74.6440 -3.8277 9.9346
# 5 4.3660 10.4791 12.4489 -3.8277 63.4401 9.3431
# 6 -17.7815 9.8290 -0.4515 9.9346 9.3431 66.5357
#
#
#
# Elastic Compliance Matrix: (Units=1/GPa)
#
#
# Indices 1 2 3 4 5 6 
#
# 1 0.015659 -0.000428 -0.003645 -0.000130 -0.000944 0.004375
# 2 -0.000428 0.006803 -0.002292 0.001876 -0.000330 -0.001369
# 3 -0.003645 -0.002292 0.006849 0.000910 -0.000565 -0.000645
# 4 -0.000130 0.001876 0.000910 0.014727 0.000794 -0.002616
# 5 -0.000944 -0.000330 -0.000565 0.000794 0.016429 -0.002633
# 6 0.004375 -0.001369 -0.000645 -0.002616 -0.002633 0.017157
#
#
# Mechanical properties :
#
#
# Convention : Reuss Voigt Hill
#
# Bulk Modulus (GPa) = 60.31017 85.25531 72.78274
# Shear Modulus (GPa) = 52.14875 62.22086 57.18481
#
# Velocity S-wave (km/s) = 4.54608 4.96573 4.76053
# Velocity P-wave (km/s) = 7.17336 8.16487 7.68512
#
# Compressibility (1/GPa) = 0.01658095
#
# Stress axis : x y z
#
# Youngs Moduli (GPa) = 63.86307 146.99735 146.01053
#
# Poissons Ratio (x) = 0.06288 0.53215
# Poissons Ratio (y) = 0.02732 0.33469
# Poissons Ratio (z) = 0.23276 0.33695
#
# Static dielectric constant tensor:
#      x y z
#    x 1.482450 0.047160 -0.163340 
#    y 0.047160 2.061460 0.111020 
#    z -0.163340 0.111020 1.944170 
# 
# From -- ./inp_files/221222.got.cif
#   From: 2010.05.17/outbox.cif.g08.bks.cpg/sg2_111_cif.got.tgz:221222.got - 2010.06.03 11:33:40.
