data_PCOD9049286
_publ_section_title
;
Structure prediction by ZEFSAII (Michael W. Deem and Ramdas Pophale) SiO2 
 PCOD9049286
Probable space group: P -1
;
_chemical_formula_sum "Si O2"
_cell_formula_units_Z 16
_cell_length_a 8.768991
_cell_length_b 6.480857
_cell_length_c 20.584546
_cell_angle_alpha 45.691476
_cell_angle_beta 59.003170
_cell_angle_gamma 71.919751
_cell_volume 715.245140
_symmetry_space_group_name_H-M "P -1"
_symmetry_group_IT_number 2
_symmetry_cell_setting 'triclinic'
loop_
_space_group_symop_operation_xyz
x,y,z
-x,-y,-z
loop_
_atom_site_type_symbol
_atom_site_label
_atom_site_fract_x
_atom_site_fract_y
_atom_site_fract_z
Si Si1 0.619087 0.984104 0.096546
Si Si2 0.871693 0.815150 0.369942
Si Si3 0.140526 0.772855 0.903111
Si Si4 0.873530 0.265029 0.873376
Si Si5 0.768190 0.275874 0.750122
Si Si6 0.195704 0.605122 0.788842
Si Si7 0.676601 0.716265 0.564944
Si Si8 0.372081 0.610592 0.559319
O O1 0.407341 0.942841 0.154343
O O2 0.691246 0.673140 0.168839
O O3 0.705712 0.203812 0.082674
O O4 0.708525 0.100399 0.984161
O O5 0.819472 0.691083 0.480095
O O6 0.801016 0.597281 0.375151
O O7 0.077458 0.866471 0.293137
O O8 0.777290 0.117700 0.324919
O O9 0.223017 0.759463 0.817693
O O10 0.018503 0.036013 0.878591
O O11 0.000000 0.500000 0.000000
O O12 0.821383 0.374208 0.790083
O O13 0.990561 0.485862 0.845713
O O14 0.723503 0.542885 0.656179
O O15 0.487506 0.584153 0.605162
O O16 0.663664 0.053213 0.510951
O O17 0.500000 0.500000 0.500000
#
# Coordination Sequence:
#
# PCOD9049286 Si02
#       8
#     2   2   2   2   2   2   2   2
#     4  11  25  42  70 100 141 173 235 285 335 401
#     4  11  25  45  70 101 137 179 229 280 343 412
#     4  11  19  43  74  96 126 181 240 282 326 396
#     4  11  23  45  64  99 142 181 223 281 342 408
#     4  12  27  43  65 104 144 184 217 277 358 412
#     4  11  23  42  73 100 127 185 235 278 335 400
#     4  10  24  46  71  99 138 175 231 287 335 399
#     4   9  22  45  74  98 132 173 233 287 332 394
#
# _framework density 22.369952999999999
#
# number of rings (size 3 to 8) (size 9 to 14) (size 15 to 20)
#    0.000    1.250    3.750    1.500    8.750    0.500 
#    6.750    1.250    0.000    0.000    0.000    0.000 
#    0.000    0.000    0.000    0.000    0.000    0.000 
#
# Total GULP energy -89318.915608 kJ/mol
# GULP energy per Si atom -5582.432226 kJ/mol
# Density = 2.231904 g / cm^3
# Si number density = 22.369953 Si / 1000 Ang^3
#
#
#
# Elastic Constant Matrix: (Units=GPa)
#
#
# Indices 1 2 3 4 5 6 
#
# 1 93.1964 39.5006 38.8012 19.1371 -3.0366 5.5390
# 2 39.5006 87.0310 32.3664 4.6566 -2.1548 7.4349
# 3 38.8012 32.3664 101.6799 22.3820 12.3535 2.3200
# 4 19.1371 4.6566 22.3820 40.0445 -2.4685 -2.0605
# 5 -3.0366 -2.1548 12.3535 -2.4685 45.8398 4.4389
# 6 5.5390 7.4349 2.3200 -2.0605 4.4389 24.3309
#
#
#
# Elastic Compliance Matrix: (Units=1/GPa)
#
#
# Indices 1 2 3 4 5 6 
#
# 1 0.015583 -0.005344 -0.003287 -0.005008 0.001622 -0.002321
# 2 -0.005344 0.015439 -0.003621 0.002726 0.001810 -0.003255
# 3 -0.003287 -0.003621 0.014137 -0.006151 -0.004609 0.000827
# 4 -0.005008 0.002726 -0.006151 0.030814 0.002824 0.002988
# 5 0.001622 0.001810 -0.004609 0.002824 0.023847 -0.004594
# 6 -0.002321 -0.003255 0.000827 0.002988 -0.004594 0.043635
#
#
# Mechanical properties :
#
#
# Convention : Reuss Voigt Hill
#
# Bulk Modulus (GPa) = 48.41484 55.91598 52.16541
# Shear Modulus (GPa) = 28.59698 33.45897 31.02797
#
# Velocity S-wave (km/s) = 3.57930 3.87164 3.72834
# Velocity P-wave (km/s) = 6.22669 6.71092 6.47333
#
# Compressibility (1/GPa) = 0.02065482
#
# Stress axis : x y z
#
# Youngs Moduli (GPa) = 64.17453 64.77035 70.73652
#
# Poissons Ratio (x) = 0.34610 0.23253
# Poissons Ratio (y) = 0.34292 0.25615
# Poissons Ratio (z) = 0.21095 0.23454
#
# Static dielectric constant tensor:
#      x y z
#    x 1.886610 0.036390 -0.014030 
#    y 0.036390 1.887370 0.041790 
#    z -0.014030 0.041790 1.915610 
# 
# From -- ./inp_files/585466.got.cif
#   From: 2010.05.17/outbox.cif.g08.bks.cpg/sg2_293_cif.got.tgz:585466.got - 2010.06.03 11:33:40.
