data_PCOD9049310
_publ_section_title
;
Structure prediction by ZEFSAII (Michael W. Deem and Ramdas Pophale) SiO2 
 PCOD9049310
Probable space group: P -1
;
_chemical_formula_sum "Si O2"
_cell_formula_units_Z 14
_cell_length_a 5.043098
_cell_length_b 17.311115
_cell_length_c 8.845554
_cell_angle_alpha 49.654822
_cell_angle_beta 78.600905
_cell_angle_gamma 82.716802
_cell_volume 576.951929
_symmetry_space_group_name_H-M "P -1"
_symmetry_group_IT_number 2
_symmetry_cell_setting 'triclinic'
loop_
_space_group_symop_operation_xyz
x,y,z
-x,-y,-z
loop_
_atom_site_type_symbol
_atom_site_label
_atom_site_fract_x
_atom_site_fract_y
_atom_site_fract_z
Si Si1 0.361175 0.452152 0.930500
Si Si2 0.203674 0.651670 0.575856
Si Si3 0.011139 0.103106 0.464863
Si Si4 0.787607 0.990702 0.902470
Si Si5 0.868534 0.783262 0.975590
Si Si6 0.671293 0.738795 0.624351
Si Si7 0.337729 0.659027 0.207704
O O1 0.154200 0.537079 0.787449
O O2 0.565262 0.432540 0.793276
O O3 0.500000 0.500000 0.000000
O O4 0.281249 0.342339 0.142310
O O5 0.406453 0.707585 0.600047
O O6 0.332429 0.642277 0.408193
O O7 0.928745 0.715131 0.519225
O O8 0.967340 0.185914 0.234015
O O9 0.286576 0.148717 0.453639
O O10 0.000000 0.000000 0.500000
O O11 0.826133 0.076613 0.661753
O O12 0.844445 0.883585 0.952099
O O13 0.500000 0.000000 0.000000
O O14 0.000000 0.000000 0.000000
O O15 0.560707 0.746168 0.040033
O O16 0.043212 0.695905 0.143686
#
# Coordination Sequence:
#
# PCOD9049310 Si02
#       7
#     2   2   2   2   2   2   2
#     4  10  24  46  72 103 141 189 237 287 349 422
#     4  11  26  43  71 105 143 186 234 293 354 410
#     4  10  25  48  73 103 143 188 234 286 356 422
#     4  11  26  46  72 104 141 177 234 292 346 416
#     4  11  26  45  70 104 139 190 227 283 353 419
#     4  11  24  45  73 102 139 186 242 288 347 424
#     4  12  25  45  70 103 146 178 234 287 351 413
#
# _framework density 24.265453000000001
#
# number of rings (size 3 to 8) (size 9 to 14) (size 15 to 20)
#    0.000    1.143    1.429    2.571   10.000    3.429 
#    0.000   11.429    0.000    0.000    0.000    0.000 
#    0.000    0.000    0.000    0.000    0.000    0.000 
#
# Total GULP energy -78254.763953 kJ/mol
# GULP energy per Si atom -5589.625997 kJ/mol
# Density = 2.421022 g / cm^3
# Si number density = 24.265453 Si / 1000 Ang^3
#
#
#
# Elastic Constant Matrix: (Units=GPa)
#
#
# Indices 1 2 3 4 5 6 
#
# 1 87.7886 21.9255 5.1545 7.4064 -8.8363 -0.7260
# 2 21.9255 130.7864 37.5014 13.8824 -3.4261 15.1474
# 3 5.1545 37.5014 132.0076 31.0540 -12.3761 5.4649
# 4 7.4064 13.8824 31.0540 45.8565 -2.5157 -3.8857
# 5 -8.8363 -3.4261 -12.3761 -2.5157 31.3830 -1.8070
# 6 -0.7260 15.1474 5.4649 -3.8857 -1.8070 34.1489
#
#
#
# Elastic Compliance Matrix: (Units=1/GPa)
#
#
# Indices 1 2 3 4 5 6 
#
# 1 0.012382 -0.002169 0.000790 -0.001593 0.003497 0.001103
# 2 -0.002169 0.009204 -0.002112 -0.001387 -0.000780 -0.003990
# 3 0.000790 -0.002112 0.009952 -0.006142 0.003357 -0.001160
# 4 -0.001593 -0.001387 -0.006142 0.027001 -0.000592 0.004605
# 5 0.003497 -0.000780 0.003357 -0.000592 0.034134 0.001622
# 6 0.001103 -0.003990 -0.001160 0.004605 0.001622 0.031872
#
#
# Mechanical properties :
#
#
# Convention : Reuss Voigt Hill
#
# Bulk Modulus (GPa) = 40.72455 53.30507 47.01481
# Shear Modulus (GPa) = 35.78764 41.34443 38.56603
#
# Velocity S-wave (km/s) = 3.84453 4.13224 3.99098
# Velocity P-wave (km/s) = 6.04372 6.69196 6.37608
#
# Compressibility (1/GPa) = 0.02455521
#
# Stress axis : x y z
#
# Youngs Moduli (GPa) = 80.76338 108.64709 100.48200
#
# Poissons Ratio (x) = 0.23568 -0.07934
# Poissons Ratio (y) = 0.17520 0.21219
# Poissons Ratio (z) = -0.06377 0.22943
#
# Static dielectric constant tensor:
#      x y z
#    x 1.897970 -0.014710 -0.006500 
#    y -0.014710 1.970320 -0.024690 
#    z -0.006500 -0.024690 1.962180 
# 
# From -- ./inp_files/137143.got.cif
#   From: 2010.05.17/outbox.cif.g08.bks.cpg/sg2_69_cif.got.tgz:137143.got - 2010.06.03 11:33:40.
