data_PCOD9049376
_publ_section_title
;
Structure prediction by ZEFSAII (Michael W. Deem and Ramdas Pophale) SiO2 
 PCOD9049376
Probable space group: P -1
;
_chemical_formula_sum "Si O2"
_cell_formula_units_Z 14
_cell_length_a 11.403459
_cell_length_b 13.089931
_cell_length_c 11.713914
_cell_angle_alpha 39.493053
_cell_angle_beta 73.530809
_cell_angle_gamma 106.848028
_cell_volume 588.514350
_symmetry_space_group_name_H-M "P -1"
_symmetry_group_IT_number 2
_symmetry_cell_setting 'triclinic'
loop_
_space_group_symop_operation_xyz
x,y,z
-x,-y,-z
loop_
_atom_site_type_symbol
_atom_site_label
_atom_site_fract_x
_atom_site_fract_y
_atom_site_fract_z
Si Si1 0.006405 0.380986 0.742527
Si Si2 0.693147 0.542619 0.494742
Si Si3 0.927875 0.816576 0.568784
Si Si4 0.779973 0.964336 0.367646
Si Si5 0.701015 0.023118 0.754257
Si Si6 0.476542 0.122494 0.314726
Si Si7 0.408961 0.215969 0.640117
O O1 0.117084 0.381570 0.621347
O O2 0.158864 0.698794 0.448700
O O3 0.961112 0.254071 0.990868
O O4 0.748990 0.109278 0.010373
O O5 0.611053 0.442918 0.472196
O O6 0.730320 0.771225 0.310464
O O7 0.494075 0.269280 0.866356
O O8 0.853147 0.864072 0.453971
O O9 0.128460 0.927058 0.375717
O O10 0.711098 0.471099 0.948529
O O11 0.000000 0.000000 0.500000
O O12 0.715486 0.976479 0.492424
O O13 0.559959 0.741001 0.541080
O O14 0.597673 0.991937 0.696008
O O15 0.500000 0.000000 0.500000
#
# Coordination Sequence:
#
# PCOD9049376 Si02
#       7
#     2   2   2   2   2   2   2
#     4  10  25  44  70 101 142 182 228 288 343 416
#     4  11  23  43  73 100 141 182 232 284 345 410
#     4  12  27  44  72 101 144 184 232 286 338 418
#     4  10  24  46  73 101 138 181 236 280 347 412
#     4  12  28  45  68 110 141 184 230 286 352 411
#     4  12  28  47  72 103 142 180 231 294 351 411
#     4   9  24  41  68 102 132 179 235 274 346 406
#
# _framework density 23.788716000000001
#
# number of rings (size 3 to 8) (size 9 to 14) (size 15 to 20)
#    0.857    0.286    1.429    3.000   10.000    2.857 
#    0.000    0.000    0.000    0.000    0.000    0.000 
#    0.000    0.000    0.000    0.000    0.000    0.000 
#
# Total GULP energy -78238.767488 kJ/mol
# GULP energy per Si atom -5588.483392 kJ/mol
# Density = 2.373457 g / cm^3
# Si number density = 23.788716 Si / 1000 Ang^3
#
#
#
# Elastic Constant Matrix: (Units=GPa)
#
#
# Indices 1 2 3 4 5 6 
#
# 1 70.6004 -4.4974 21.6472 15.4650 13.9016 0.2637
# 2 -4.4974 54.8264 29.9403 -1.6739 0.8943 6.5108
# 3 21.6472 29.9403 129.2465 -0.5135 9.5250 -16.5874
# 4 15.4650 -1.6739 -0.5135 42.6171 -5.1372 -4.6822
# 5 13.9016 0.8943 9.5250 -5.1372 28.9386 16.6694
# 6 0.2637 6.5108 -16.5874 -4.6822 16.6694 45.7091
#
#
#
# Elastic Compliance Matrix: (Units=1/GPa)
#
#
# Indices 1 2 3 4 5 6 
#
# 1 0.019058 0.002933 -0.002947 -0.007946 -0.010505 0.001420
# 2 0.002933 0.023224 -0.007190 -0.000530 0.004552 -0.007649
# 3 -0.002947 -0.007190 0.011328 0.000997 -0.006254 0.007535
# 4 -0.007946 -0.000530 0.000997 0.027360 0.008190 0.000299
# 5 -0.010505 0.004552 -0.006254 0.008190 0.055874 -0.022395
# 6 0.001420 -0.007649 0.007535 0.000299 -0.022395 0.033891
#
#
# Mechanical properties :
#
#
# Convention : Reuss Voigt Hill
#
# Bulk Modulus (GPa) = 25.50873 38.76150 32.13512
# Shear Modulus (GPa) = 25.22558 37.29184 31.25871
#
# Velocity S-wave (km/s) = 3.25991 3.96362 3.62887
# Velocity P-wave (km/s) = 4.99156 6.10545 5.57639
#
# Compressibility (1/GPa) = 0.03920226
#
# Stress axis : x y z
#
# Youngs Moduli (GPa) = 52.47065 43.05821 88.27488
#
# Poissons Ratio (x) = -0.12627 0.26011
# Poissons Ratio (y) = -0.15387 0.63472
# Poissons Ratio (z) = 0.15461 0.30960
#
# Static dielectric constant tensor:
#      x y z
#    x 1.964220 0.004980 -0.007870 
#    y 0.004980 1.907410 -0.020220 
#    z -0.007870 -0.020220 1.848380 
# 
# From -- ./inp_files/427369.got.cif
#   From: 2010.05.17/outbox.cif.g08.bks.cpg/sg2_214_cif.got.tgz:427369.got - 2010.06.03 11:33:40.
