data_PCOD9049217
_publ_section_title
;
Structure prediction by ZEFSAII (Michael W. Deem and Ramdas Pophale) SiO2 
 PCOD9049217
Probable space group: P -1
;
_chemical_formula_sum "Si O2"
_cell_formula_units_Z 15
_cell_length_a 15.052428
_cell_length_b 11.511410
_cell_length_c 11.346690
_cell_angle_alpha 154.785215
_cell_angle_beta 123.279521
_cell_angle_gamma 57.833588
_cell_volume 696.646323
_symmetry_space_group_name_H-M "P -1"
_symmetry_group_IT_number 2
_symmetry_cell_setting 'triclinic'
loop_
_space_group_symop_operation_xyz
x,y,z
-x,-y,-z
loop_
_atom_site_type_symbol
_atom_site_label
_atom_site_fract_x
_atom_site_fract_y
_atom_site_fract_z
Si Si1 0.691463 0.553053 0.948336
Si Si2 0.500000 0.000000 0.000000
Si Si3 0.532590 0.373715 0.035408
Si Si4 0.343669 0.520743 0.420021
Si Si5 0.675766 0.820028 0.581955
Si Si6 0.008172 0.967492 0.834588
Si Si7 0.224826 0.046153 0.458860
Si Si8 0.854252 0.573067 0.649126
O O1 0.571424 0.672600 0.007709
O O2 0.687452 0.491912 0.752143
O O3 0.724624 0.264645 0.771315
O O4 0.766761 0.776265 0.253934
O O5 0.422535 0.241303 0.235898
O O6 0.595873 0.212734 0.263117
O O7 0.598888 0.591294 0.346528
O O8 0.500000 0.500000 0.000000
O O9 0.611704 0.105488 0.827933
O O10 0.234275 0.513908 0.405742
O O11 0.703706 0.817688 0.461832
O O12 0.785489 0.756856 0.671704
O O13 0.082951 0.691829 0.607035
O O14 0.893056 0.951070 0.676794
O O15 0.060766 0.229112 0.061132
O O16 0.000000 0.000000 0.000000
#
# Coordination Sequence:
#
# PCOD9049217 Si02
#       8
#     2   1   2   2   2   2   2   2
#     4  12  26  43  68  98 147 184 227 280 340 429
#     4  10  24  46  70  98 134 192 238 272 320 414
#     4  12  23  39  61 100 140 181 223 269 345 419
#     4  11  26  47  69 102 143 185 235 278 346 406
#     4  12  24  39  65 100 138 174 226 281 351 409
#     4  12  26  46  74 104 136 178 238 300 358 403
#     4  12  24  44  68 100 134 184 232 287 352 406
#     4  12  27  46  71 102 141 176 232 303 345 414
#
# _framework density 21.53173
#
# number of rings (size 3 to 8) (size 9 to 14) (size 15 to 20)
#    0.000    0.267    4.000    4.800    7.467    0.000 
#    0.000    4.000    0.000    0.000    0.000    0.000 
#    0.000    0.000    0.000    0.000    0.000    0.000 
#
# Total GULP energy -83754.532105 kJ/mol
# GULP energy per Si atom -5583.635474 kJ/mol
# Density = 2.148272 g / cm^3
# Si number density = 21.531730 Si / 1000 Ang^3
#
#
#
# Elastic Constant Matrix: (Units=GPa)
#
#
# Indices 1 2 3 4 5 6 
#
# 1 137.0436 46.8344 62.5903 -0.3104 7.4922 -18.1616
# 2 46.8344 55.5296 38.0313 -3.2613 -12.9218 -8.4213
# 3 62.5903 38.0313 185.9895 -1.8243 13.7649 -15.7905
# 4 -0.3104 -3.2613 -1.8243 27.2400 -17.4699 0.1958
# 5 7.4922 -12.9218 13.7649 -17.4699 42.8847 -2.3239
# 6 -18.1616 -8.4213 -15.7905 0.1958 -2.3239 22.9527
#
#
#
# Elastic Compliance Matrix: (Units=1/GPa)
#
#
# Indices 1 2 3 4 5 6 
#
# 1 0.012669 -0.011438 -0.001049 -0.006211 -0.007615 0.004388
# 2 -0.011438 0.038221 -0.005184 0.018859 0.023055 0.003580
# 3 -0.001049 -0.005184 0.007278 -0.003354 -0.004984 0.001799
# 4 -0.006211 0.018859 -0.003354 0.059251 0.032114 0.002443
# 5 -0.007615 0.023055 -0.004984 0.032114 0.046464 0.003435
# 6 0.004388 0.003580 0.001799 0.002443 0.003435 0.049918
#
#
# Mechanical properties :
#
#
# Convention : Reuss Voigt Hill
#
# Bulk Modulus (GPa) = 43.80861 74.83050 59.31955
# Shear Modulus (GPa) = 19.47409 34.02258 26.74834
#
# Velocity S-wave (km/s) = 3.01065 3.97938 3.52842
# Velocity P-wave (km/s) = 5.69873 7.47950 6.64901
#
# Compressibility (1/GPa) = 0.02282657
#
# Stress axis : x y z
#
# Youngs Moduli (GPa) = 78.93415 26.16372 137.39197
#
# Poissons Ratio (x) = 0.29925 0.14418
# Poissons Ratio (y) = 0.90282 0.71220
# Poissons Ratio (z) = 0.08283 0.13563
#
# Static dielectric constant tensor:
#      x y z
#    x 1.732710 0.017940 0.020720 
#    y 0.017940 1.795680 -0.028020 
#    z 0.020720 -0.028020 1.765240 
# 
# From -- ./inp_files/452724.got.cif
#   From: 2010.05.17/outbox.cif.g08.bks.cpg/sg2_227_cif.got.tgz:452724.got - 2010.06.03 11:33:40.
