data_PCOD9049462
_publ_section_title
;
Structure prediction by ZEFSAII (Michael W. Deem and Ramdas Pophale) SiO2 
 PCOD9049462
Probable space group: P -1
;
_chemical_formula_sum "Si O2"
_cell_formula_units_Z 13
_cell_length_a 8.989133
_cell_length_b 9.016433
_cell_length_c 10.748369
_cell_angle_alpha 137.017073
_cell_angle_beta 54.386047
_cell_angle_gamma 111.628093
_cell_volume 480.247495
_symmetry_space_group_name_H-M "P -1"
_symmetry_group_IT_number 2
_symmetry_cell_setting 'triclinic'
loop_
_space_group_symop_operation_xyz
x,y,z
-x,-y,-z
loop_
_atom_site_type_symbol
_atom_site_label
_atom_site_fract_x
_atom_site_fract_y
_atom_site_fract_z
Si Si1 0.432001 0.475576 0.873389
Si Si2 0.941182 0.821950 0.509207
Si Si3 0.690631 0.945162 0.223652
Si Si4 0.435006 0.262020 0.393392
Si Si5 0.171833 0.633984 0.471461
Si Si6 0.745314 0.160917 0.998365
Si Si7 0.000000 0.000000 0.000000
O O1 0.618454 0.464260 0.692211
O O2 0.291775 0.653780 0.979479
O O3 0.350347 0.239855 0.775111
O O4 0.500000 0.500000 0.000000
O O5 0.782572 0.690619 0.454958
O O6 0.128350 0.703465 0.394966
O O7 0.000000 0.000000 0.500000
O O8 0.830500 0.946969 0.752729
O O9 0.507452 0.086541 0.355923
O O10 0.830437 0.137578 0.304992
O O11 0.820062 0.850176 0.991473
O O12 0.500000 0.500000 0.500000
O O13 0.548911 0.153464 0.155345
O O14 0.000000 0.500000 0.500000
O O15 0.889613 0.174400 0.050060
#
# Coordination Sequence:
#
# PCOD9049462 Si02
#       7
#     2   2   2   2   2   2   1
#     4  12  27  46  74 112 152 198 243 309 385 454
#     4  12  25  46  72 109 149 190 246 314 374 443
#     4  11  24  46  72 103 152 191 250 305 377 440
#     4  11  24  46  74 108 146 203 250 304 376 457
#     4  12  26  46  73 106 148 193 247 306 373 446
#     4  11  24  48  76 106 149 200 253 304 377 452
#     4  10  24  46  74 110 138 196 256 314 352 444
#
# _framework density 27.069379000000001
#
# number of rings (size 3 to 8) (size 9 to 14) (size 15 to 20)
#    0.000    0.615    1.538    6.462    2.154    3.077 
#    5.538    0.000    0.000    0.000    0.000    0.000 
#    0.000    0.000    0.000    0.000    0.000    0.000 
#
# Total GULP energy -72408.820736 kJ/mol
# GULP energy per Si atom -5569.909287 kJ/mol
# Density = 2.700777 g / cm^3
# Si number density = 27.069379 Si / 1000 Ang^3
#
#
#
# Elastic Constant Matrix: (Units=GPa)
#
#
# Indices 1 2 3 4 5 6 
#
# 1 121.1065 65.7985 30.4787 16.4862 -23.2729 -26.9551
# 2 65.7985 138.5824 13.6314 3.9762 -2.7225 -7.0599
# 3 30.4787 13.6314 93.4525 -5.0509 -24.0789 6.4640
# 4 16.4862 3.9762 -5.0509 45.0571 -15.4500 -11.0603
# 5 -23.2729 -2.7225 -24.0789 -15.4500 32.7522 11.2545
# 6 -26.9551 -7.0599 6.4640 -11.0603 11.2545 64.9754
#
#
#
# Elastic Compliance Matrix: (Units=1/GPa)
#
#
# Indices 1 2 3 4 5 6 
#
# 1 0.014723 -0.006302 -0.002998 -0.002324 0.005111 0.004440
# 2 -0.006302 0.010123 -0.000284 -0.000060 -0.003572 -0.000878
# 3 -0.002998 -0.000284 0.016062 0.006798 0.014302 -0.004193
# 4 -0.002324 -0.000060 0.006798 0.029841 0.017266 0.000442
# 5 0.005111 -0.003572 0.014302 0.017266 0.054664 -0.006220
# 6 0.004440 -0.000878 -0.004193 0.000442 -0.006220 0.018707
#
#
# Mechanical properties :
#
#
# Convention : Reuss Voigt Hill
#
# Bulk Modulus (GPa) = 45.99982 63.66209 54.83095
# Shear Modulus (GPa) = 29.31962 44.77246 37.04604
#
# Velocity S-wave (km/s) = 3.29466 4.07134 3.70342
# Velocity P-wave (km/s) = 5.61278 6.75798 6.21182
#
# Compressibility (1/GPa) = 0.02173922
#
# Stress axis : x y z
#
# Youngs Moduli (GPa) = 67.92274 98.78616 62.25736
#
# Poissons Ratio (x) = 0.62255 0.18666
# Poissons Ratio (y) = 0.42805 0.01769
# Poissons Ratio (z) = 0.20365 0.02806
#
# Static dielectric constant tensor:
#      x y z
#    x 2.335390 -0.022740 0.091330 
#    y -0.022740 1.888550 0.683650 
#    z 0.091330 0.683650 -0.019190 
# 
# From -- ./inp_files/380502.got.cif
#   From: 2010.05.17/outbox.cif.g08.bks.cpg/sg2_191_cif.got.tgz:380502.got - 2010.06.03 11:33:40.
