data_PCOD9049677
_publ_section_title
;
Structure prediction by ZEFSAII (Michael W. Deem and Ramdas Pophale) SiO2 
 PCOD9049677
Probable space group: P -1
;
_chemical_formula_sum "Si O2"
_cell_formula_units_Z 16
_cell_length_a 23.350586
_cell_length_b 8.363348
_cell_length_c 9.811861
_cell_angle_alpha 42.472996
_cell_angle_beta 38.396133
_cell_angle_gamma 38.835861
_cell_volume 705.446677
_symmetry_space_group_name_H-M "P -1"
_symmetry_group_IT_number 2
_symmetry_cell_setting 'triclinic'
loop_
_space_group_symop_operation_xyz
x,y,z
-x,-y,-z
loop_
_atom_site_type_symbol
_atom_site_label
_atom_site_fract_x
_atom_site_fract_y
_atom_site_fract_z
Si Si1 0.115822 0.245757 0.803820
Si Si2 0.605990 0.444642 0.172348
Si Si3 0.250837 0.673732 0.772939
Si Si4 0.373371 0.876133 0.251028
Si Si5 0.059975 0.176875 0.260953
Si Si6 0.748337 0.839340 0.966256
Si Si7 0.696477 0.653578 0.684049
Si Si8 0.396388 0.080029 0.560399
O O1 0.202177 0.349727 0.568490
O O2 0.015000 0.504321 0.769307
O O3 0.166891 0.964106 0.804610
O O4 0.092147 0.182909 0.039435
O O5 0.650326 0.473971 0.214972
O O6 0.496152 0.680281 0.173934
O O7 0.594901 0.179339 0.370862
O O8 0.696117 0.409216 0.919155
O O9 0.305510 0.726148 0.507900
O O10 0.203831 0.472836 0.970701
O O11 0.338058 0.988460 0.094678
O O12 0.340402 0.117285 0.272290
O O13 0.161115 0.080014 0.230039
O O14 0.000000 0.000000 0.500000
O O15 0.693700 0.846194 0.207039
O O16 0.621946 0.712780 0.655744
O O17 0.500000 0.000000 0.500000
#
# Coordination Sequence:
#
# PCOD9049677 Si02
#       8
#     2   2   2   2   2   2   2   2
#     4  10  24  47  71 104 128 187 232 282 365 419
#     4  12  23  41  71  99 143 199 227 278 350 414
#     4  11  24  43  72  98 147 183 231 293 343 413
#     4  11  24  40  68 106 141 188 236 279 346 419
#     4  11  26  48  77  99 140 182 230 297 363 416
#     4  12  26  45  67 111 139 178 241 293 345 415
#     4  11  23  42  70  96 140 184 234 283 346 425
#     4  12  26  42  65 104 146 186 234 285 344 419
#
# _framework density 22.680664
#
# number of rings (size 3 to 8) (size 9 to 14) (size 15 to 20)
#    0.000    0.750    5.000    2.250    5.250    5.500 
#    0.000    4.375    0.000    0.000    0.000    0.000 
#    0.000    0.000    0.000    0.000    0.000    0.000 
#
# Total GULP energy -89431.115322 kJ/mol
# GULP energy per Si atom -5589.444708 kJ/mol
# Density = 2.262904 g / cm^3
# Si number density = 22.680664 Si / 1000 Ang^3
#
#
#
# Elastic Constant Matrix: (Units=GPa)
#
#
# Indices 1 2 3 4 5 6 
#
# 1 88.7316 24.4602 7.3332 0.3916 -1.3796 -1.0952
# 2 24.4602 88.5146 10.1000 0.2121 -4.8452 -12.4096
# 3 7.3332 10.1000 99.2930 -2.2229 1.0622 5.1963
# 4 0.3916 0.2121 -2.2229 27.0107 -1.5394 -3.1447
# 5 -1.3796 -4.8452 1.0622 -1.5394 46.1684 -11.3940
# 6 -1.0952 -12.4096 5.1963 -3.1447 -11.3940 18.7874
#
#
#
# Elastic Compliance Matrix: (Units=1/GPa)
#
#
# Indices 1 2 3 4 5 6 
#
# 1 0.012281 -0.003643 -0.000439 -0.000441 -0.000500 -0.001946
# 2 -0.003643 0.014621 -0.001921 0.001580 0.004763 0.013129
# 3 -0.000439 -0.001921 0.010597 0.000182 -0.001750 -0.005256
# 4 -0.000441 0.001580 0.000182 0.038380 0.003825 0.009711
# 5 -0.000500 0.004763 -0.001750 0.003825 0.027471 0.020901
# 6 -0.001946 0.013129 -0.005256 0.009711 0.020901 0.077541
#
#
# Mechanical properties :
#
#
# Convention : Reuss Voigt Hill
#
# Bulk Modulus (GPa) = 39.22626 40.03621 39.63124
# Shear Modulus (GPa) = 24.82708 34.03636 29.43172
#
# Velocity S-wave (km/s) = 3.31212 3.87806 3.60621
# Velocity P-wave (km/s) = 5.65327 6.14353 5.90349
#
# Compressibility (1/GPa) = 0.02549312
#
# Stress axis : x y z
#
# Youngs Moduli (GPa) = 81.42973 68.39492 94.36746
#
# Poissons Ratio (x) = 0.24914 0.04144
# Poissons Ratio (y) = 0.29662 0.18127
# Poissons Ratio (z) = 0.03576 0.13138
#
# Static dielectric constant tensor:
#      x y z
#    x 1.854900 -0.007130 -0.001630 
#    y -0.007130 1.914240 -0.002670 
#    z -0.001630 -0.002670 1.833480 
# 
# From -- ./inp_files/351990.got.cif
#   From: 2010.05.17/outbox.cif.g08.bks.cpg/sg2_176_cif.got.tgz:351990.got - 2010.06.03 11:33:40.
