data_PCOD9049249
_publ_section_title
;
Structure prediction by ZEFSAII (Michael W. Deem and Ramdas Pophale) SiO2 
 PCOD9049249
Probable space group: P -1
;
_chemical_formula_sum "Si O2"
_cell_formula_units_Z 14
_cell_length_a 5.805008
_cell_length_b 5.079605
_cell_length_c 19.614037
_cell_angle_alpha 94.057096
_cell_angle_beta 97.674554
_cell_angle_gamma 89.420244
_cell_volume 571.744890
_symmetry_space_group_name_H-M "P -1"
_symmetry_group_IT_number 2
_symmetry_cell_setting 'triclinic'
loop_
_space_group_symop_operation_xyz
x,y,z
-x,-y,-z
loop_
_atom_site_type_symbol
_atom_site_label
_atom_site_fract_x
_atom_site_fract_y
_atom_site_fract_z
Si Si1 0.583882 0.904849 0.427196
Si Si2 0.203247 0.710533 0.138554
Si Si3 0.553102 0.193966 0.721707
Si Si4 0.956448 0.207109 0.153379
Si Si5 0.142375 0.608085 0.570347
Si Si6 0.951420 0.534068 0.288539
Si Si7 0.660606 0.250539 0.007793
O O1 0.447535 0.975392 0.352332
O O2 0.632576 0.590175 0.423473
O O3 0.500000 0.000000 0.500000
O O4 0.811363 0.083733 0.430554
O O5 0.402420 0.847682 0.195711
O O6 0.205630 0.757275 0.058664
O O7 0.177857 0.398838 0.146628
O O8 0.986766 0.893990 0.154856
O O9 0.286100 0.295067 0.713055
O O10 0.796363 0.352346 0.720582
O O11 0.886753 0.314068 0.226138
O O12 0.799050 0.265839 0.083483
O O13 0.017492 0.570846 0.636222
O O14 0.000000 0.500000 0.500000
O O15 0.500000 0.500000 0.000000
O O16 0.500000 0.000000 0.000000
#
# Coordination Sequence:
#
# PCOD9049249 Si02
#       7
#     2   2   2   2   2   2   2
#     4  11  24  42  68 100 138 180 229 283 342 408
#     4  11  24  43  67  96 135 181 228 281 341 408
#     4  10  24  46  71 103 139 182 230 284 344 410
#     4  11  24  43  67  96 135 181 228 281 341 408
#     4  11  24  42  68 100 138 180 229 283 342 408
#     4  10  24  46  71 103 139 182 230 284 344 410
#     4  12  24  40  66  98 136 180 229 284 341 406
#
# _framework density 24.486443999999999
#
# number of rings (size 3 to 8) (size 9 to 14) (size 15 to 20)
#    0.000    1.143    0.000    5.143    0.000   16.000 
#    0.000    0.000    0.000    0.000    0.000    0.000 
#    0.000    0.000    0.000    0.000    0.000    0.000 
#
# Total GULP energy -78012.158092 kJ/mol
# GULP energy per Si atom -5572.297007 kJ/mol
# Density = 2.443071 g / cm^3
# Si number density = 24.486444 Si / 1000 Ang^3
#
#
#
# Elastic Constant Matrix: (Units=GPa)
#
#
# Indices 1 2 3 4 5 6 
#
# 1 71.9116 18.6668 19.2058 9.3473 1.8893 5.7972
# 2 18.6668 87.0349 4.1956 7.5751 -1.1187 -0.0329
# 3 19.2058 4.1956 208.1699 29.4434 19.5573 7.1424
# 4 9.3473 7.5751 29.4434 34.7059 -3.1737 -2.5838
# 5 1.8893 -1.1187 19.5573 -3.1737 52.2766 3.6994
# 6 5.7972 -0.0329 7.1424 -2.5838 3.6994 25.9025
#
#
#
# Elastic Compliance Matrix: (Units=1/GPa)
#
#
# Indices 1 2 3 4 5 6 
#
# 1 0.015610 -0.003039 -0.000783 -0.003167 -0.000277 -0.003558
# 2 -0.003039 0.012310 0.000304 -0.002088 0.000105 0.000389
# 3 -0.000783 0.000304 0.005881 -0.005182 -0.002365 -0.001625
# 4 -0.003167 -0.002088 -0.005182 0.035245 0.003786 0.005110
# 5 -0.000277 0.000105 -0.002365 0.003786 0.020385 -0.001819
# 6 -0.003558 0.000389 -0.001625 0.005110 -0.001819 0.040621
#
#
# Mechanical properties :
#
#
# Convention : Reuss Voigt Hill
#
# Bulk Modulus (GPa) = 37.36269 50.13920 43.75094
# Shear Modulus (GPa) = 34.24463 44.24688 39.24575
#
# Velocity S-wave (km/s) = 3.74373 4.25549 4.00778
# Velocity P-wave (km/s) = 5.82915 6.68329 6.27078
#
# Compressibility (1/GPa) = 0.02676467
#
# Stress axis : x y z
#
# Youngs Moduli (GPa) = 64.06247 81.23424 170.04744
#
# Poissons Ratio (x) = 0.24691 0.13313
# Poissons Ratio (y) = 0.19471 -0.05177
# Poissons Ratio (z) = 0.05016 -0.02473
#
# Static dielectric constant tensor:
#      x y z
#    x 2.012760 0.041010 -0.030090 
#    y 0.041010 1.964510 -0.088700 
#    z -0.030090 -0.088700 2.119130 
# 
# From -- ./inp_files/115836.got.cif
#   From: 2010.05.17/outbox.cif.g08.bks.cpg/sg2_58_cif.got.tgz:115836.got - 2010.06.03 11:33:40.
