data_PCOD9049210
_publ_section_title
;
Structure prediction by ZEFSAII (Michael W. Deem and Ramdas Pophale) SiO2 
 PCOD9049210
Probable space group: P -1
;
_chemical_formula_sum "Si O2"
_cell_formula_units_Z 16
_cell_length_a 9.124828
_cell_length_b 14.806629
_cell_length_c 6.154527
_cell_angle_alpha 85.880496
_cell_angle_beta 95.124035
_cell_angle_gamma 64.274862
_cell_volume 740.426578
_symmetry_space_group_name_H-M "P -1"
_symmetry_group_IT_number 2
_symmetry_cell_setting 'triclinic'
loop_
_space_group_symop_operation_xyz
x,y,z
-x,-y,-z
loop_
_atom_site_type_symbol
_atom_site_label
_atom_site_fract_x
_atom_site_fract_y
_atom_site_fract_z
Si Si1 0.364472 0.913427 0.440940
Si Si2 0.448780 0.578207 0.776380
Si Si3 0.209935 0.784072 0.561159
Si Si4 0.940707 0.577302 0.182669
Si Si5 0.972250 0.930761 0.826424
Si Si6 0.728210 0.531493 0.488646
Si Si7 0.378776 0.045334 0.776931
Si Si8 0.966514 0.777234 0.172515
O O1 0.334537 0.815018 0.440427
O O2 0.533693 0.904069 0.370718
O O3 0.214539 0.005252 0.284765
O O4 0.364101 0.952232 0.677127
O O5 0.315986 0.695218 0.758478
O O6 0.602946 0.580782 0.666294
O O7 0.352771 0.533620 0.619475
O O8 0.500000 0.500000 0.000000
O O9 0.089380 0.890195 0.640223
O O10 0.102265 0.753781 0.384137
O O11 0.778474 0.586487 0.289100
O O12 0.927390 0.686596 0.108186
O O13 0.095589 0.534254 0.372315
O O14 0.000000 0.500000 0.000000
O O15 0.010971 0.825428 0.964409
O O16 0.000000 0.000000 0.000000
O O17 0.199867 0.130657 0.785368
O O18 0.500000 0.000000 0.000000
#
# Coordination Sequence:
#
# PCOD9049210 Si02
#       8
#     2   2   2   2   2   2   2   2
#     4  11  24  44  67 103 144 181 229 292 348 418
#     4  11  25  47  71 103 139 185 241 305 357 423
#     4  12  26  44  75  99 139 187 245 288 356 422
#     4  11  25  46  72 103 142 187 237 297 362 433
#     4  12  24  41  73 107 144 183 235 294 348 426
#     4  10  24  46  70  95 145 178 234 303 360 410
#     4  11  24  45  66  99 148 183 223 287 350 423
#     4  12  25  44  74 101 138 191 241 283 362 425
#
# _framework density 21.609162000000001
#
# number of rings (size 3 to 8) (size 9 to 14) (size 15 to 20)
#    0.000    0.750    5.000    1.875    5.250    0.000 
#    4.500    0.000    0.000    0.000    0.000    0.000 
#    0.000    0.000    0.000    0.000    0.000    0.000 
#
# Total GULP energy -89248.693010 kJ/mol
# GULP energy per Si atom -5578.043313 kJ/mol
# Density = 2.155998 g / cm^3
# Si number density = 21.609162 Si / 1000 Ang^3
#
#
#
# Elastic Constant Matrix: (Units=GPa)
#
#
# Indices 1 2 3 4 5 6 
#
# 1 121.5111 29.8055 19.2344 -0.4473 -10.3448 4.8195
# 2 29.8055 77.1749 24.8774 -13.9123 -14.9218 10.5159
# 3 19.2344 24.8774 74.7114 -7.7128 8.4490 0.8887
# 4 -0.4473 -13.9123 -7.7128 33.0657 2.1854 5.6904
# 5 -10.3448 -14.9218 8.4490 2.1854 39.6617 -4.1906
# 6 4.8195 10.5159 0.8887 5.6904 -4.1906 36.7841
#
#
#
# Elastic Compliance Matrix: (Units=1/GPa)
#
#
# Indices 1 2 3 4 5 6 
#
# 1 0.009398 -0.003032 -0.001792 -0.001712 0.001802 0.000149
# 2 -0.003032 0.019246 -0.005573 0.007232 0.006675 -0.005328
# 3 -0.001792 -0.005573 0.016581 0.001829 -0.006150 0.000444
# 4 -0.001712 0.007232 0.001829 0.035017 -0.000826 -0.007399
# 5 0.001802 0.006675 -0.006150 -0.000826 0.029711 0.001517
# 6 0.000149 -0.005328 0.000444 -0.007399 0.001517 0.029996
#
#
# Mechanical properties :
#
#
# Convention : Reuss Voigt Hill
#
# Bulk Modulus (GPa) = 40.93243 46.80356 43.86799
# Shear Modulus (GPa) = 29.60567 35.20099 32.40333
#
# Velocity S-wave (km/s) = 3.70544 4.04045 3.87656
# Velocity P-wave (km/s) = 6.10658 6.59341 6.35466
#
# Compressibility (1/GPa) = 0.02443051
#
# Stress axis : x y z
#
# Youngs Moduli (GPa) = 106.40064 51.95996 60.31070
#
# Poissons Ratio (x) = 0.15756 0.10809
# Poissons Ratio (y) = 0.32265 0.33609
# Poissons Ratio (z) = 0.19069 0.28955
#
# Static dielectric constant tensor:
#      x y z
#    x 1.886010 -0.012240 -0.099090 
#    y -0.012240 1.780900 0.004990 
#    z -0.099090 0.004990 1.867490 
# 
# From -- ./inp_files/38087.got.cif
#   From: 2010.05.17/outbox.cif.g08.bks.cpg/sg2_20_cif.got.tgz:38087.got - 2010.06.03 11:33:40.
