data_PCOD9049853
_publ_section_title
;
Structure prediction by ZEFSAII (Michael W. Deem and Ramdas Pophale) SiO2 
 PCOD9049853
Probable space group: P -1
;
_chemical_formula_sum "Si O2"
_cell_formula_units_Z 13
_cell_length_a 11.943194
_cell_length_b 10.509149
_cell_length_c 6.129416
_cell_angle_alpha 55.930108
_cell_angle_beta 107.867815
_cell_angle_gamma 101.397455
_cell_volume 606.209475
_symmetry_space_group_name_H-M "P -1"
_symmetry_group_IT_number 2
_symmetry_cell_setting 'triclinic'
loop_
_space_group_symop_operation_xyz
x,y,z
-x,-y,-z
loop_
_atom_site_type_symbol
_atom_site_label
_atom_site_fract_x
_atom_site_fract_y
_atom_site_fract_z
Si Si1 0.569531 0.915508 0.314999
Si Si2 0.640811 0.175771 0.455786
Si Si3 0.192501 0.252172 0.418597
Si Si4 0.005493 0.342315 0.528178
Si Si5 0.160991 0.829674 0.088779
Si Si6 0.795550 0.400060 0.039087
Si Si7 0.000000 0.000000 0.500000
O O1 0.478641 0.803464 0.501178
O O2 0.684083 0.826591 0.400264
O O3 0.613869 0.047923 0.380820
O O4 0.500000 0.000000 0.000000
O O5 0.732426 0.114264 0.747901
O O6 0.702389 0.319626 0.227792
O O7 0.131711 0.294797 0.571105
O O8 0.212944 0.417731 0.156191
O O9 0.092113 0.145929 0.340708
O O10 0.000000 0.500000 0.500000
O O11 0.940644 0.215310 0.757210
O O12 0.923573 0.361376 0.248903
O O13 0.207189 0.684500 0.116334
O O14 0.105461 0.942032 0.775602
#
# Coordination Sequence:
#
# PCOD9049853 Si02
#       7
#     2   2   2   2   2   2   1
#     4  11  25  51  70 102 144 182 236 295 341 410
#     4  10  24  47  76  96 136 191 233 288 349 407
#     4  12  25  42  72 103 141 186 228 287 356 409
#     4  11  22  42  67 103 141 184 225 284 354 424
#     4  11  23  44  70 100 145 180 230 291 349 415
#     4  11  22  45  68 101 143 179 230 296 346 409
#     4  12  24  42  64 104 142 182 220 286 352 414
#
# _framework density 21.444731999999998
#
# number of rings (size 3 to 8) (size 9 to 14) (size 15 to 20)
#    0.000    0.923    3.077    4.154    2.154    1.231 
#   16.615    3.077    0.000    0.000    0.000    0.000 
#    0.000    0.000    0.000    0.000    0.000    0.000 
#
# Total GULP energy -72417.593920 kJ/mol
# GULP energy per Si atom -5570.584148 kJ/mol
# Density = 2.139592 g / cm^3
# Si number density = 21.444732 Si / 1000 Ang^3
#
#
#
# Elastic Constant Matrix: (Units=GPa)
#
#
# Indices 1 2 3 4 5 6 
#
# 1 204.9288 56.0463 64.3817 -17.2848 -2.4855 -6.8328
# 2 56.0463 76.4251 60.8676 13.1094 11.3283 11.0893
# 3 64.3817 60.8676 117.3809 -4.4163 18.6958 10.2027
# 4 -17.2848 13.1094 -4.4163 38.5156 13.2888 -3.3944
# 5 -2.4855 11.3283 18.6958 13.2888 31.6674 -3.5080
# 6 -6.8328 11.0893 10.2027 -3.3944 -3.5080 35.4023
#
#
#
# Elastic Compliance Matrix: (Units=1/GPa)
#
#
# Indices 1 2 3 4 5 6 
#
# 1 0.007677 -0.006295 -0.001487 0.005096 0.002101 0.004579
# 2 -0.006295 0.032326 -0.013490 -0.016844 0.001991 -0.008871
# 3 -0.001487 -0.013490 0.018462 0.009474 -0.010332 -0.001498
# 4 0.005096 -0.016844 0.009474 0.041016 -0.015726 0.005904
# 5 0.002101 0.001991 -0.010332 -0.015726 0.044355 0.005647
# 6 0.004579 -0.008871 -0.001498 0.005904 0.005647 0.033466
#
#
# Mechanical properties :
#
#
# Convention : Reuss Voigt Hill
#
# Bulk Modulus (GPa) = 62.80998 84.59179 73.70088
# Shear Modulus (GPa) = 22.20711 35.61301 28.91006
#
# Velocity S-wave (km/s) = 3.22149 4.07958 3.67566
# Velocity P-wave (km/s) = 6.57192 7.85638 7.24268
#
# Compressibility (1/GPa) = 0.01592104
#
# Stress axis : x y z
#
# Youngs Moduli (GPa) = 130.26633 30.93475 54.16460
#
# Poissons Ratio (x) = 0.19474 0.08055
# Poissons Ratio (y) = 0.82005 0.73066
# Poissons Ratio (z) = 0.19372 0.41730
#
# Static dielectric constant tensor:
#      x y z
#    x 1.790700 -0.005370 -0.038870 
#    y -0.005370 1.850700 -0.005110 
#    z -0.038870 -0.005110 1.737950 
# 
# From -- ./inp_files/68214.got.cif
#   From: 2010.05.17/outbox.cif.g08.bks.cpg/sg2_35_cif.got.tgz:68214.got - 2010.06.03 11:33:40.
