data_PCOD9049979
_publ_section_title
;
Structure prediction by ZEFSAII (Michael W. Deem and Ramdas Pophale) SiO2 
 PCOD9049979
Probable space group: P -1
;
_chemical_formula_sum "Si O2"
_cell_formula_units_Z 12
_cell_length_a 14.566351
_cell_length_b 11.075966
_cell_length_c 14.942766
_cell_angle_alpha 150.928859
_cell_angle_beta 29.443527
_cell_angle_gamma 149.767773
_cell_volume 519.687278
_symmetry_space_group_name_H-M "P -1"
_symmetry_group_IT_number 2
_symmetry_cell_setting 'triclinic'
loop_
_space_group_symop_operation_xyz
x,y,z
-x,-y,-z
loop_
_atom_site_type_symbol
_atom_site_label
_atom_site_fract_x
_atom_site_fract_y
_atom_site_fract_z
Si Si1 0.523655 0.047075 0.904149
Si Si2 0.879232 0.638519 0.937536
Si Si3 0.455192 0.258505 0.807639
Si Si4 0.110631 0.697935 0.951269
Si Si5 0.226825 0.257151 0.476151
Si Si6 0.294144 0.644623 0.522927
O O1 0.303769 0.964851 0.993213
O O2 0.621892 0.835435 0.658836
O O3 0.694105 0.342604 0.924550
O O4 0.500000 0.000000 0.000000
O O5 0.972638 0.758037 0.033465
O O6 0.055761 0.596260 0.704165
O O7 0.766150 0.792577 0.080899
O O8 0.623123 0.344810 0.640937
O O9 0.423329 0.947026 0.655947
O O10 0.500000 0.500000 0.000000
O O11 0.196728 0.506839 0.705045
O O12 0.000000 0.500000 0.000000
O O13 0.313454 0.392476 0.393880
O O14 0.000000 0.000000 0.500000
#
# Coordination Sequence:
#
# PCOD9049979 Si02
#       6
#     2   2   2   2   2   2
#     4  12  22  41  68 102 142 186 235 282 359 437
#     4  11  24  45  72 101 147 186 242 300 360 430
#     4  11  26  48  78 103 137 197 252 301 360 425
#     4  11  23  40  64 104 143 188 227 284 359 429
#     4  11  21  43  68 102 145 182 226 294 362 431
#     4  10  24  48  71 105 149 180 246 307 357 428
#
# _framework density 23.090810999999999
#
# number of rings (size 3 to 8) (size 9 to 14) (size 15 to 20)
#    0.000    1.000    5.000    2.000    4.667    0.667 
#    0.000    0.000    0.000    0.000    0.000    0.000 
#    0.000    0.000    0.000    0.000    0.000    0.000 
#
# Total GULP energy -67035.930772 kJ/mol
# GULP energy per Si atom -5586.327564 kJ/mol
# Density = 2.303826 g / cm^3
# Si number density = 23.090811 Si / 1000 Ang^3
#
#
#
# Elastic Constant Matrix: (Units=GPa)
#
#
# Indices 1 2 3 4 5 6 
#
# 1 118.1019 45.8877 26.4146 4.1308 -5.1204 20.9577
# 2 45.8877 160.8523 38.1683 0.2384 15.6606 6.3100
# 3 26.4146 38.1683 84.2745 0.2793 20.4198 1.0452
# 4 4.1308 0.2384 0.2793 50.5591 -3.1908 -1.9143
# 5 -5.1204 15.6606 20.4198 -3.1908 43.2018 1.8524
# 6 20.9577 6.3100 1.0452 -1.9143 1.8524 43.0458
#
#
#
# Elastic Compliance Matrix: (Units=1/GPa)
#
#
# Indices 1 2 3 4 5 6 
#
# 1 0.011368 -0.002650 -0.003268 -0.000845 0.004017 -0.005277
# 2 -0.002650 0.007672 -0.002142 0.000072 -0.002091 0.000311
# 3 -0.003268 -0.002142 0.015547 -0.000185 -0.007051 0.001823
# 4 -0.000845 0.000072 -0.000185 0.019983 0.001384 0.001234
# 5 0.004017 -0.002091 -0.007051 0.001384 0.027929 -0.002618
# 6 -0.005277 0.000311 0.001823 0.001234 -0.002618 0.025878
#
#
# Mechanical properties :
#
#
# Convention : Reuss Voigt Hill
#
# Bulk Modulus (GPa) = 54.14859 64.90777 59.52818
# Shear Modulus (GPa) = 38.26966 44.21188 41.24077
#
# Velocity S-wave (km/s) = 4.07548 4.38047 4.23072
# Velocity P-wave (km/s) = 6.75627 7.33181 7.04992
#
# Compressibility (1/GPa) = 0.01846770
#
# Stress axis : x y z
#
# Youngs Moduli (GPa) = 87.96543 130.33632 64.32274
#
# Poissons Ratio (x) = 0.34545 0.21019
# Poissons Ratio (y) = 0.23315 0.13775
# Poissons Ratio (z) = 0.28745 0.27912
#
# Static dielectric constant tensor:
#      x y z
#    x 1.989040 -0.044400 0.026670 
#    y -0.044400 1.900840 -0.027040 
#    z 0.026670 -0.027040 1.943790 
# 
# From -- ./inp_files/532105.got.cif
#   From: 2010.05.17/outbox.cif.g08.bks.cpg/sg2_267_cif.got.tgz:532105.got - 2010.06.03 11:33:40.
