data_PCOD9049284
_publ_section_title
;
Structure prediction by ZEFSAII (Michael W. Deem and Ramdas Pophale) SiO2 
 PCOD9049284
Probable space group: P -1
;
_chemical_formula_sum "Si O2"
_cell_formula_units_Z 16
_cell_length_a 16.129517
_cell_length_b 9.785249
_cell_length_c 4.952351
_cell_angle_alpha 109.875262
_cell_angle_beta 93.205711
_cell_angle_gamma 106.500523
_cell_volume 694.654998
_symmetry_space_group_name_H-M "P -1"
_symmetry_group_IT_number 2
_symmetry_cell_setting 'triclinic'
loop_
_space_group_symop_operation_xyz
x,y,z
-x,-y,-z
loop_
_atom_site_type_symbol
_atom_site_label
_atom_site_fract_x
_atom_site_fract_y
_atom_site_fract_z
Si Si1 0.781818 0.528579 0.002878
Si Si2 0.166030 0.760359 0.187703
Si Si3 0.497312 0.110789 0.821704
Si Si4 0.871072 0.718168 0.625446
Si Si5 0.587494 0.458326 0.914880
Si Si6 0.248025 0.109414 0.526948
Si Si7 0.352585 0.244133 0.138258
Si Si8 0.953699 0.316723 0.388934
O O1 0.851757 0.597992 0.294622
O O2 0.782506 0.358863 0.828842
O O3 0.816426 0.628393 0.809096
O O4 0.686633 0.521794 0.096226
O O5 0.082152 0.719301 0.340613
O O6 0.226490 0.929503 0.381984
O O7 0.128766 0.741769 0.865751
O O8 0.563394 0.276631 0.838252
O O9 0.419695 0.172385 0.957877
O O10 0.500000 0.000000 0.500000
O O11 0.500000 0.000000 0.000000
O O12 0.832305 0.846013 0.589116
O O13 0.974064 0.763525 0.727240
O O14 0.500000 0.500000 0.000000
O O15 0.612684 0.569236 0.726712
O O16 0.269249 0.171352 0.875377
O O17 0.330002 0.187256 0.398028
O O18 0.000000 0.500000 0.500000
#
# Coordination Sequence:
#
# PCOD9049284 Si02
#       8
#     2   2   2   2   2   2   2   2
#     4  12  23  43  67 103 124 183 225 272 328 400
#     4  12  26  41  70  98 138 170 223 283 339 388
#     4  11  26  45  67 104 134 175 217 284 335 387
#     4  12  24  42  73  93 137 175 227 272 331 400
#     4  10  24  46  71  99 136 181 225 267 330 405
#     4  12  25  45  64 104 133 178 218 283 331 390
#     4  11  24  45  69  91 141 177 223 269 331 403
#     4  12  23  44  67 101 131 177 225 278 330 402
#
# _framework density 23.033014999999999
#
# number of rings (size 3 to 8) (size 9 to 14) (size 15 to 20)
#    0.000    0.500    5.000    2.625    3.500    3.000 
#    0.000    5.625    0.000    0.000    0.000    0.000 
#    0.000    0.000    0.000    0.000    0.000    0.000 
#
# Total GULP energy -89204.256542 kJ/mol
# GULP energy per Si atom -5575.266034 kJ/mol
# Density = 2.298059 g / cm^3
# Si number density = 23.033015 Si / 1000 Ang^3
#
#
#
# Elastic Constant Matrix: (Units=GPa)
#
#
# Indices 1 2 3 4 5 6 
#
# 1 82.3622 -1.9511 -9.4661 -13.8634 -10.6371 -11.0972
# 2 -1.9511 139.9539 38.0555 7.9407 -11.3982 -8.7538
# 3 -9.4661 38.0555 77.2502 -16.6743 -14.9933 -10.2304
# 4 -13.8634 7.9407 -16.6743 27.5098 -1.6506 -2.4388
# 5 -10.6371 -11.3982 -14.9933 -1.6506 30.0910 -1.8136
# 6 -11.0972 -8.7538 -10.2304 -2.4388 -1.8136 33.4418
#
#
#
# Elastic Compliance Matrix: (Units=1/GPa)
#
#
# Indices 1 2 3 4 5 6 
#
# 1 0.020536 -0.002348 0.012571 0.020611 0.014508 0.012335
# 2 -0.002348 0.009338 -0.007124 -0.008386 -0.001375 -0.001200
# 3 0.012571 -0.007124 0.029883 0.028944 0.019102 0.014595
# 4 0.020611 -0.008386 0.028944 0.069877 0.023562 0.019872
# 5 0.014508 -0.001375 0.019102 0.023562 0.049537 0.014703
# 6 0.012335 -0.001200 0.014595 0.019872 0.014703 0.040393
#
#
# Mechanical properties :
#
#
# Convention : Reuss Voigt Hill
#
# Bulk Modulus (GPa) = 15.16184 39.20476 27.18330
# Shear Modulus (GPa) = 21.24486 36.40372 28.82429
#
# Velocity S-wave (km/s) = 3.04034 3.97987 3.54140
# Velocity P-wave (km/s) = 4.34993 6.17877 5.34317
#
# Compressibility (1/GPa) = 0.06595505
#
# Stress axis : x y z
#
# Youngs Moduli (GPa) = 48.69584 107.08561 33.46393
#
# Poissons Ratio (x) = 0.25148 -0.42069
# Poissons Ratio (y) = 0.11436 0.23839
# Poissons Ratio (z) = -0.61217 0.76287
#
# Static dielectric constant tensor:
#      x y z
#    x 1.916060 0.004440 0.027620 
#    y 0.004440 1.862260 -0.024910 
#    z 0.027620 -0.024910 1.820400 
# 
# From -- ./inp_files/90787.got.cif
#   From: 2010.05.17/outbox.cif.g08.bks.cpg/sg2_46_cif.got.tgz:90787.got - 2010.06.03 11:33:40.
