data_PCOD9049105
_publ_section_title
;
Structure prediction by ZEFSAII (Michael W. Deem and Ramdas Pophale) SiO2 
 PCOD9049105
Probable space group: P -1
;
_chemical_formula_sum "Si O2"
_cell_formula_units_Z 13
_cell_length_a 7.618795
_cell_length_b 13.937892
_cell_length_c 11.789770
_cell_angle_alpha 30.579213
_cell_angle_beta 52.594425
_cell_angle_gamma 65.451467
_cell_volume 487.697457
_symmetry_space_group_name_H-M "P -1"
_symmetry_group_IT_number 2
_symmetry_cell_setting 'triclinic'
loop_
_space_group_symop_operation_xyz
x,y,z
-x,-y,-z
loop_
_atom_site_type_symbol
_atom_site_label
_atom_site_fract_x
_atom_site_fract_y
_atom_site_fract_z
Si Si1 0.515117 0.292017 0.655904
Si Si2 0.258062 0.082676 0.392962
Si Si3 0.000000 0.000000 0.000000
Si Si4 0.625814 0.211725 0.937215
Si Si5 0.717921 0.657371 0.515153
Si Si6 0.024099 0.634250 0.740604
Si Si7 0.636805 0.303792 0.195926
O O1 0.500000 0.500000 0.500000
O O2 0.559344 0.179192 0.864088
O O3 0.298558 0.224210 0.721694
O O4 0.734413 0.330137 0.450088
O O5 0.043128 0.168141 0.406343
O O6 0.451420 0.208507 0.273310
O O7 0.233614 0.859447 0.659227
O O8 0.381773 0.137371 0.169567
O O9 0.202330 0.904829 0.962442
O O10 0.944525 0.813741 0.306610
O O11 0.720698 0.442114 0.696264
O O12 0.505124 0.650367 0.687053
O O13 0.821369 0.496452 0.884658
O O14 0.000000 0.500000 0.000000
#
# Coordination Sequence:
#
# PCOD9049105 Si02
#       7
#     2   2   1   2   2   2   2
#     4  10  24  46  69 100 135 176 224 275 336 402
#     4  11  25  44  70 100 136 178 224 280 331 397
#     4  12  26  40  70 102 138 180 220 272 346 396
#     4  11  24  44  71  99 139 176 221 279 335 397
#     4  11  23  47  66 100 136 179 223 279 330 403
#     4  12  23  44  73  98 133 183 220 274 342 394
#     4  11  24  44  71  99 138 171 232 278 328 399
#
# _framework density 26.655868999999999
#
# number of rings (size 3 to 8) (size 9 to 14) (size 15 to 20)
#    0.000    0.923    4.615    1.846    2.154    3.692 
#    0.000    0.000    0.000    0.000    0.000    0.000 
#    0.000    0.000    0.000    0.000    0.000    0.000 
#
# Total GULP energy -72675.771696 kJ/mol
# GULP energy per Si atom -5590.443977 kJ/mol
# Density = 2.659520 g / cm^3
# Si number density = 26.655869 Si / 1000 Ang^3
#
#
#
# Elastic Constant Matrix: (Units=GPa)
#
#
# Indices 1 2 3 4 5 6 
#
# 1 102.0488 39.5207 3.9717 1.9685 17.6960 0.9528
# 2 39.5207 172.9826 52.8681 -13.5923 10.8816 -22.8800
# 3 3.9717 52.8681 106.2217 -17.3305 -0.7115 -1.6712
# 4 1.9685 -13.5923 -17.3305 64.7832 -1.2559 8.3142
# 5 17.6960 10.8816 -0.7115 -1.2559 42.7435 3.7964
# 6 0.9528 -22.8800 -1.6712 8.3142 3.7964 36.8448
#
#
#
# Elastic Compliance Matrix: (Units=1/GPa)
#
#
# Indices 1 2 3 4 5 6 
#
# 1 0.011604 -0.002920 0.000869 -0.000612 -0.003928 -0.001531
# 2 -0.002920 0.008478 -0.004023 0.000083 -0.001484 0.005292
# 3 0.000869 -0.004023 0.011782 0.002652 0.001179 -0.002706
# 4 -0.000612 0.000083 0.002652 0.016676 0.001094 -0.003688
# 5 -0.003928 -0.001484 0.001179 0.001094 0.025777 -0.003669
# 6 -0.001531 0.005292 -0.002706 -0.003688 -0.003669 0.031554
#
#
# Mechanical properties :
#
#
# Convention : Reuss Voigt Hill
#
# Bulk Modulus (GPa) = 50.72356 63.77490 57.24923
# Shear Modulus (GPa) = 40.13156 47.86716 43.99936
#
# Velocity S-wave (km/s) = 3.88434 4.24222 4.06722
# Velocity P-wave (km/s) = 6.26002 6.92622 6.60153
#
# Compressibility (1/GPa) = 0.01971471
#
# Stress axis : x y z
#
# Youngs Moduli (GPa) = 86.18026 117.95923 84.87420
#
# Poissons Ratio (x) = 0.34447 -0.07378
# Poissons Ratio (y) = 0.25167 0.34147
# Poissons Ratio (z) = -0.07491 0.47458
#
# Static dielectric constant tensor:
#      x y z
#    x 1.805650 -0.047310 0.266240 
#    y -0.047310 2.059720 0.069730 
#    z 0.266240 0.069730 1.966190 
# 
# From -- ./inp_files/251151.got.cif
#   From: 2010.05.17/outbox.cif.g08.bks.cpg/sg2_126_cif.got.tgz:251151.got - 2010.06.03 11:33:40.
