data_PCOD9049231
_publ_section_title
;
Structure prediction by ZEFSAII (Michael W. Deem and Ramdas Pophale) SiO2 
 PCOD9049231
Probable space group: P -1
;
_chemical_formula_sum "Si O2"
_cell_formula_units_Z 16
_cell_length_a 14.688806
_cell_length_b 12.584184
_cell_length_c 18.407078
_cell_angle_alpha 152.990379
_cell_angle_beta 151.889180
_cell_angle_gamma 44.806957
_cell_volume 680.145886
_symmetry_space_group_name_H-M "P -1"
_symmetry_group_IT_number 2
_symmetry_cell_setting 'triclinic'
loop_
_space_group_symop_operation_xyz
x,y,z
-x,-y,-z
loop_
_atom_site_type_symbol
_atom_site_label
_atom_site_fract_x
_atom_site_fract_y
_atom_site_fract_z
Si Si1 0.346448 0.432953 0.783781
Si Si2 0.632898 0.274422 0.793401
Si Si3 0.255685 0.180204 0.164913
Si Si4 0.947757 0.990285 0.227829
Si Si5 0.726934 0.216658 0.298333
Si Si6 0.942866 0.614513 0.102245
Si Si7 0.901648 0.286141 0.137632
Si Si8 0.683187 0.251551 0.447537
O O1 0.484489 0.426367 0.807062
O O2 0.208747 0.600041 0.807785
O O3 0.500000 0.500000 0.000000
O O4 0.187172 0.146806 0.501035
O O5 0.778279 0.425173 0.922903
O O6 0.500000 0.000000 0.500000
O O7 0.777630 0.273590 0.965777
O O8 0.456384 0.123013 0.243696
O O9 0.321720 0.472465 0.406695
O O10 0.105055 0.140507 0.965524
O O11 0.140438 0.991965 0.032233
O O12 0.824476 0.173664 0.264639
O O13 0.864889 0.817578 0.134450
O O14 0.758844 0.162611 0.373119
O O15 0.860317 0.522364 0.580986
O O16 0.500000 0.000000 0.000000
O O17 0.000000 0.500000 0.000000
O O18 0.150879 0.736906 0.368048
#
# Coordination Sequence:
#
# PCOD9049231 Si02
#       8
#     2   2   2   2   2   2   2   2
#     4   9  22  43  66  99 140 175 228 283 341 410
#     4  11  24  43  69 106 137 181 237 287 348 413
#     4  11  25  45  71 100 137 188 229 286 359 411
#     4  11  24  44  69 100 138 181 230 284 345 416
#     4  11  23  47  67 104 142 180 237 285 348 422
#     4  12  25  44  72 100 138 181 232 289 346 408
#     4  10  24  46  71 100 142 185 232 288 349 419
#     4  11  25  45  70 100 140 184 234 289 351 416
#
# _framework density 23.524365
#
# number of rings (size 3 to 8) (size 9 to 14) (size 15 to 20)
#    0.000    1.250    3.750    0.750    5.250    4.000 
#    2.250    0.000    0.000    0.000    0.000    0.000 
#    0.000    0.000    0.000    0.000    0.000    0.000 
#
# Total GULP energy -89069.883635 kJ/mol
# GULP energy per Si atom -5566.867727 kJ/mol
# Density = 2.347082 g / cm^3
# Si number density = 23.524365 Si / 1000 Ang^3
#
#
#
# Elastic Constant Matrix: (Units=GPa)
#
#
# Indices 1 2 3 4 5 6 
#
# 1 166.4277 26.0521 48.1474 5.1784 1.1959 17.8460
# 2 26.0521 39.1837 31.6368 -1.4069 15.0652 26.7523
# 3 48.1474 31.6368 155.8680 -3.9073 25.3754 24.1663
# 4 5.1784 -1.4069 -3.9073 19.1978 9.6619 2.6967
# 5 1.1959 15.0652 25.3754 9.6619 42.6739 9.0720
# 6 17.8460 26.7523 24.1663 2.6967 9.0720 40.8007
#
#
#
# Elastic Compliance Matrix: (Units=1/GPa)
#
#
# Indices 1 2 3 4 5 6 
#
# 1 0.007535 -0.005892 -0.002106 -0.005086 0.004005 0.001261
# 2 -0.005892 0.061875 -0.002108 0.019318 -0.017545 -0.034120
# 3 -0.002106 -0.002108 0.008780 0.005072 -0.005121 -0.002093
# 4 -0.005086 0.019318 0.005072 0.069096 -0.022575 -0.012993
# 5 0.004005 -0.017545 -0.005121 -0.022575 0.036355 0.006194
# 6 0.001261 -0.034120 -0.002093 -0.012993 0.006194 0.047051
#
#
# Mechanical properties :
#
#
# Convention : Reuss Voigt Hill
#
# Bulk Modulus (GPa) = 17.24869 63.68357 40.46613
# Shear Modulus (GPa) = 18.50286 37.57737 28.04011
#
# Velocity S-wave (km/s) = 2.80757 4.00106 3.45622
# Velocity P-wave (km/s) = 4.22589 6.96238 5.75903
#
# Compressibility (1/GPa) = 0.05797541
#
# Stress axis : x y z
#
# Youngs Moduli (GPa) = 132.72125 16.16171 113.90054
#
# Poissons Ratio (x) = 0.09523 0.23993
# Poissons Ratio (y) = 0.78201 0.24011
# Poissons Ratio (z) = 0.27958 0.03407
#
# Static dielectric constant tensor:
#      x y z
#    x 2.013260 -0.063320 0.033440 
#    y -0.063320 1.818690 -0.027640 
#    z 0.033440 -0.027640 1.865700 
# 
# From -- ./inp_files/573654.got.cif
#   From: 2010.05.17/outbox.cif.g08.bks.cpg/sg2_287_cif.got.tgz:573654.got - 2010.06.03 11:33:40.
