data_PCOD9049243
_publ_section_title
;
Structure prediction by ZEFSAII (Michael W. Deem and Ramdas Pophale) SiO2 
 PCOD9049243
Probable space group: P -1
;
_chemical_formula_sum "Si O2"
_cell_formula_units_Z 14
_cell_length_a 8.480168
_cell_length_b 14.191140
_cell_length_c 13.059517
_cell_angle_alpha 32.591051
_cell_angle_beta 41.768287
_cell_angle_gamma 39.042806
_cell_volume 513.493245
_symmetry_space_group_name_H-M "P -1"
_symmetry_group_IT_number 2
_symmetry_cell_setting 'triclinic'
loop_
_space_group_symop_operation_xyz
x,y,z
-x,-y,-z
loop_
_atom_site_type_symbol
_atom_site_label
_atom_site_fract_x
_atom_site_fract_y
_atom_site_fract_z
Si Si1 0.476059 0.521156 0.112972
Si Si2 0.202634 0.183544 0.830457
Si Si3 0.585117 0.382908 0.461460
Si Si4 0.966140 0.736421 0.933876
Si Si5 0.295363 0.191122 0.553964
Si Si6 0.437789 0.760505 0.070630
Si Si7 0.128103 0.088488 0.512108
O O1 0.338205 0.384086 0.337599
O O2 0.370340 0.739187 0.004346
O O3 0.778834 0.432192 0.078976
O O4 0.500000 0.500000 0.000000
O O5 0.458549 0.229936 0.661721
O O6 0.131733 0.219058 0.711655
O O7 0.063814 0.288125 0.906245
O O8 0.253907 0.962292 0.022706
O O9 0.500000 0.500000 0.500000
O O10 0.448483 0.558234 0.289807
O O11 0.896562 0.269675 0.406145
O O12 0.715088 0.751769 0.980219
O O13 0.020552 0.924946 0.721683
O O14 0.173480 0.151159 0.546275
O O15 0.587423 0.018078 0.580027
#
# Coordination Sequence:
#
# PCOD9049243 Si02
#       7
#     2   2   2   2   2   2   2
#     4  11  27  47  69 104 143 190 242 291 349 434
#     4  12  25  47  71 110 146 183 238 298 361 425
#     4  12  24  45  73 107 146 186 236 297 358 422
#     4  11  24  46  71 106 142 184 236 298 363 413
#     4  10  25  47  71 100 147 195 234 289 363 421
#     4  12  25  44  75 104 141 186 236 296 355 419
#     4  10  24  46  71 102 145 190 240 292 349 432
#
# _framework density 27.264234999999999
#
# number of rings (size 3 to 8) (size 9 to 14) (size 15 to 20)
#    0.000    0.857    4.286    1.714    8.000    2.286 
#    2.571    1.429    0.000    0.000    0.000    0.000 
#    0.000    0.000    0.000    0.000    0.000    0.000 
#
# Total GULP energy -78423.137553 kJ/mol
# GULP energy per Si atom -5601.652682 kJ/mol
# Density = 2.720218 g / cm^3
# Si number density = 27.264235 Si / 1000 Ang^3
#
#
#
# Elastic Constant Matrix: (Units=GPa)
#
#
# Indices 1 2 3 4 5 6 
#
# 1 110.4702 58.6028 24.4297 -1.9745 -14.3816 23.9615
# 2 58.6028 145.3190 48.7949 -2.0537 -7.2309 11.2877
# 3 24.4297 48.7949 126.8935 -2.5303 -9.5820 3.0270
# 4 -1.9745 -2.0537 -2.5303 34.8785 9.5305 -0.2093
# 5 -14.3816 -7.2309 -9.5820 9.5305 44.3678 -10.9991
# 6 23.9615 11.2877 3.0270 -0.2093 -10.9991 60.9264
#
#
#
# Elastic Compliance Matrix: (Units=1/GPa)
#
#
# Indices 1 2 3 4 5 6 
#
# 1 0.012678 -0.004569 -0.000418 -0.000265 0.002418 -0.003683
# 2 -0.004569 0.009661 -0.002874 0.000258 -0.000571 0.000048
# 3 -0.000418 -0.002874 0.009168 0.000069 0.001488 0.000510
# 4 -0.000265 0.000258 0.000069 0.030543 -0.006858 -0.001080
# 5 0.002418 -0.000571 0.001488 -0.006858 0.025952 0.003742
# 6 -0.003683 0.000048 0.000510 -0.001080 0.003742 0.018499
#
#
# Mechanical properties :
#
#
# Convention : Reuss Voigt Hill
#
# Bulk Modulus (GPa) = 63.36277 71.81528 67.58903
# Shear Modulus (GPa) = 39.22000 44.75823 41.98911
#
# Velocity S-wave (km/s) = 3.79689 4.05612 3.92864
# Velocity P-wave (km/s) = 6.52016 6.95225 6.73967
#
# Compressibility (1/GPa) = 0.01578214
#
# Stress axis : x y z
#
# Youngs Moduli (GPa) = 78.87895 103.51170 109.07518
#
# Poissons Ratio (x) = 0.47298 0.04565
# Poissons Ratio (y) = 0.36043 0.31351
# Poissons Ratio (z) = 0.03301 0.29752
#
# Static dielectric constant tensor:
#      x y z
#    x 2.372240 0.015090 0.201120 
#    y 0.015090 2.176400 0.122310 
#    z 0.201120 0.122310 2.199460 
# 
# From -- ./inp_files/504865.got.cif
#   From: 2010.05.17/outbox.cif.g08.bks.cpg/sg2_253_cif.got.tgz:504865.got - 2010.06.03 11:33:40.
