data_PCOD9049022
_publ_section_title
;
Structure prediction by ZEFSAII (Michael W. Deem and Ramdas Pophale) SiO2 
 PCOD9049022
Probable space group: P -1
;
_chemical_formula_sum "Si O2"
_cell_formula_units_Z 14
_cell_length_a 6.816713
_cell_length_b 28.157031
_cell_length_c 8.187125
_cell_angle_alpha 30.940757
_cell_angle_beta 68.296143
_cell_angle_gamma 55.461529
_cell_volume 639.884270
_symmetry_space_group_name_H-M "P -1"
_symmetry_group_IT_number 2
_symmetry_cell_setting 'triclinic'
loop_
_space_group_symop_operation_xyz
x,y,z
-x,-y,-z
loop_
_atom_site_type_symbol
_atom_site_label
_atom_site_fract_x
_atom_site_fract_y
_atom_site_fract_z
Si Si1 0.414247 0.864811 0.492470
Si Si2 0.101259 0.098263 0.323367
Si Si3 0.704305 0.662972 0.783086
Si Si4 0.124641 0.302289 0.689406
Si Si5 0.165458 0.470369 0.381927
Si Si6 0.590048 0.494411 0.177009
Si Si7 0.518501 0.016940 0.187267
O O1 0.566178 0.741765 0.743927
O O2 0.162079 0.888777 0.590386
O O3 0.560894 0.901702 0.454784
O O4 0.397657 0.934222 0.129526
O O5 0.231866 0.075093 0.171097
O O6 0.305699 0.002298 0.656843
O O7 0.089502 0.209195 0.044981
O O8 0.715744 0.731690 0.425717
O O9 0.984147 0.568020 0.025503
O O10 0.573186 0.602456 0.927208
O O11 0.228001 0.358302 0.610808
O O12 0.857516 0.398667 0.428319
O O13 0.000000 0.500000 0.500000
O O14 0.395865 0.470837 0.384759
O O15 0.500000 0.500000 0.000000
#
# Coordination Sequence:
#
# PCOD9049022 Si02
#       7
#     2   2   2   2   2   2   2
#     4  11  24  43  67  95 125 164 211 260 320 377
#     4  11  24  43  67  95 125 164 211 260 320 377
#     4  11  23  41  62  94 126 165 212 256 308 383
#     4  11  23  41  62  94 126 165 212 256 308 383
#     4  11  25  39  61  93 131 165 209 258 306 371
#     4  11  21  41  63  84 125 177 203 243 311 368
#     4  10  24  46  66  90 128 164 206 268 318 374
#
# _framework density 21.878955999999999
#
# number of rings (size 3 to 8) (size 9 to 14) (size 15 to 20)
#    0.000    1.143    4.286    1.714    6.000    1.143 
#    0.000    1.429    0.000    0.000    0.000    0.000 
#    0.000    0.000    0.000    0.000    0.000    0.000 
#
# Total GULP energy -77991.070933 kJ/mol
# GULP energy per Si atom -5570.790781 kJ/mol
# Density = 2.182916 g / cm^3
# Si number density = 21.878956 Si / 1000 Ang^3
#
#
#
# Elastic Constant Matrix: (Units=GPa)
#
#
# Indices 1 2 3 4 5 6 
#
# 1 88.2337 15.1911 22.3672 -3.8069 -27.5844 -6.7014
# 2 15.1911 78.5969 10.3906 5.2759 -19.1020 -8.0474
# 3 22.3672 10.3906 81.8317 7.6239 -23.2530 1.5499
# 4 -3.8069 5.2759 7.6239 39.3568 4.0106 -10.4312
# 5 -27.5844 -19.1020 -23.2530 4.0106 31.5084 5.2327
# 6 -6.7014 -8.0474 1.5499 -10.4312 5.2327 32.1984
#
#
#
# Elastic Compliance Matrix: (Units=1/GPa)
#
#
# Indices 1 2 3 4 5 6 
#
# 1 0.015686 0.000351 -0.000699 0.000660 0.013102 0.001471
# 2 0.000351 0.015437 0.001288 -0.003095 0.010826 0.001107
# 3 -0.000699 0.001288 0.017016 -0.006333 0.014368 -0.005029
# 4 0.000660 -0.003095 -0.006333 0.031458 -0.011936 0.011800
# 5 0.013102 0.010826 0.014368 -0.011936 0.063461 -0.009439
# 6 0.001471 0.001107 -0.005029 0.011800 -0.009439 0.037239
#
#
# Mechanical properties :
#
#
# Convention : Reuss Voigt Hill
#
# Bulk Modulus (GPa) = 19.99216 38.28445 29.13831
# Shear Modulus (GPa) = 25.62907 33.99362 29.81135
#
# Velocity S-wave (km/s) = 3.42629 3.94599 3.69529
# Velocity P-wave (km/s) = 4.98097 6.18849 5.61727
#
# Compressibility (1/GPa) = 0.05001960
#
# Stress axis : x y z
#
# Youngs Moduli (GPa) = 63.74958 64.77760 58.76931
#
# Poissons Ratio (x) = -0.02274 0.04106
# Poissons Ratio (y) = -0.02238 -0.07567
# Poissons Ratio (z) = 0.04453 -0.08341
#
# Static dielectric constant tensor:
#      x y z
#    x 1.744760 0.051840 0.041870 
#    y 0.051840 1.851580 -0.000480 
#    z 0.041870 -0.000480 1.850420 
# 
# From -- ./inp_files/40333.got.cif
#   From: 2010.05.17/outbox.cif.g08.bks.cpg/sg2_21_cif.got.tgz:40333.got - 2010.06.03 11:33:40.
