data_PCOD9049904
_publ_section_title
;
Structure prediction by ZEFSAII (Michael W. Deem and Ramdas Pophale) SiO2 
 PCOD9049904
Probable space group: P -1
;
_chemical_formula_sum "Si O2"
_cell_formula_units_Z 14
_cell_length_a 5.252403
_cell_length_b 9.007484
_cell_length_c 23.452103
_cell_angle_alpha 149.336387
_cell_angle_beta 90.079846
_cell_angle_gamma 84.198919
_cell_volume 554.904589
_symmetry_space_group_name_H-M "P -1"
_symmetry_group_IT_number 2
_symmetry_cell_setting 'triclinic'
loop_
_space_group_symop_operation_xyz
x,y,z
-x,-y,-z
loop_
_atom_site_type_symbol
_atom_site_label
_atom_site_fract_x
_atom_site_fract_y
_atom_site_fract_z
Si Si1 0.742618 0.567626 0.986207
Si Si2 0.186950 0.756201 0.525707
Si Si3 0.494252 0.457388 0.132193
Si Si4 0.440666 0.794835 0.777996
Si Si5 0.262410 0.362023 0.711241
Si Si6 0.766204 0.383011 0.390563
Si Si7 0.801857 0.888259 0.893085
O O1 0.716675 0.426644 0.878007
O O2 0.500000 0.500000 0.000000
O O3 0.000000 0.500000 0.000000
O O4 0.705980 0.920834 0.092477
O O5 0.491068 0.614382 0.471338
O O6 0.150093 0.760558 0.595590
O O7 0.998409 0.554148 0.432359
O O8 0.131098 0.085388 0.608675
O O9 0.570574 0.711649 0.255254
O O10 0.379665 0.264180 0.115551
O O11 0.728036 0.233408 0.024955
O O12 0.410194 0.473899 0.695225
O O13 0.312563 0.833857 0.729031
O O14 0.728981 0.833915 0.808857
O O15 0.070619 0.666453 0.829006
#
# Coordination Sequence:
#
# PCOD9049904 Si02
#       7
#     2   2   2   2   2   2   2
#     4  11  27  43  64 102 134 176 219 262 324 397
#     4  10  25  44  70  94 129 173 226 268 336 392
#     4   9  21  39  62  92 134 174 211 267 318 395
#     4  10  25  42  66  99 132 173 218 278 328 384
#     4  11  23  39  70  98 127 178 219 274 328 390
#     4  10  24  48  65  95 132 173 218 280 327 394
#     4   9  20  39  62  95 132 170 216 260 332 386
#
# _framework density 25.229562000000001
#
# number of rings (size 3 to 8) (size 9 to 14) (size 15 to 20)
#    0.000    2.000    0.000    1.286   14.000    1.143 
#    2.571    0.000    0.000    0.000    0.000    0.000 
#    0.000    0.000    0.000    0.000    0.000    0.000 
#
# Total GULP energy -78125.256483 kJ/mol
# GULP energy per Si atom -5580.375463 kJ/mol
# Density = 2.517214 g / cm^3
# Si number density = 25.229562 Si / 1000 Ang^3
#
#
#
# Elastic Constant Matrix: (Units=GPa)
#
#
# Indices 1 2 3 4 5 6 
#
# 1 69.7781 16.0946 4.7344 4.7836 11.0729 -18.1441
# 2 16.0946 69.9114 5.2711 -6.7358 11.1029 -16.5897
# 3 4.7344 5.2711 38.3168 -4.9404 13.7439 8.2494
# 4 4.7836 -6.7358 -4.9404 51.1145 -4.2022 21.5032
# 5 11.0729 11.1029 13.7439 -4.2022 26.9713 -8.3772
# 6 -18.1441 -16.5897 8.2494 21.5032 -8.3772 34.1690
#
#
#
# Elastic Compliance Matrix: (Units=1/GPa)
#
#
# Indices 1 2 3 4 5 6 
#
# 1 0.020965 -0.000576 -0.008434 -0.011267 0.000409 0.020080
# 2 -0.000576 0.017224 -0.004067 -0.002488 -0.002030 0.010106
# 3 -0.008434 -0.004067 0.047502 0.017624 -0.027423 -0.035735
# 4 -0.011267 -0.002488 0.017624 0.036719 -0.009030 -0.036767
# 5 0.000409 -0.002030 -0.027423 -0.009030 0.058336 0.025837
# 6 0.020080 0.010106 -0.035735 -0.036767 0.025837 0.082936
#
#
# Mechanical properties :
#
#
# Convention : Reuss Voigt Hill
#
# Bulk Modulus (GPa) = 16.79604 25.57853 21.18728
# Shear Modulus (GPa) = 16.14562 32.57805 24.36183
#
# Velocity S-wave (km/s) = 2.53246 3.59732 3.11079
# Velocity P-wave (km/s) = 3.90165 5.23589 4.61722
#
# Compressibility (1/GPa) = 0.05953785
#
# Stress axis : x y z
#
# Youngs Moduli (GPa) = 47.69873 58.05855 21.05174
#
# Poissons Ratio (x) = 0.03346 0.17754
# Poissons Ratio (y) = 0.02749 0.08561
# Poissons Ratio (z) = 0.40227 0.23611
#
# Static dielectric constant tensor:
#      x y z
#    x 2.141230 -0.055870 -0.011800 
#    y -0.055870 2.085030 -0.017990 
#    z -0.011800 -0.017990 1.975730 
# 
# From -- ./inp_files/46588.got.cif
#   From: 2010.05.17/outbox.cif.g08.bks.cpg/sg2_24_cif.got.tgz:46588.got - 2010.06.03 11:33:40.
