data_PCOD9049448
_publ_section_title
;
Structure prediction by ZEFSAII (Michael W. Deem and Ramdas Pophale) SiO2 
 PCOD9049448
Probable space group: P -1
;
_chemical_formula_sum "Si O2"
_cell_formula_units_Z 13
_cell_length_a 15.149023
_cell_length_b 12.083699
_cell_length_c 8.181138
_cell_angle_alpha 93.278030
_cell_angle_beta 109.173702
_cell_angle_gamma 28.061293
_cell_volume 566.915518
_symmetry_space_group_name_H-M "P -1"
_symmetry_group_IT_number 2
_symmetry_cell_setting 'triclinic'
loop_
_space_group_symop_operation_xyz
x,y,z
-x,-y,-z
loop_
_atom_site_type_symbol
_atom_site_label
_atom_site_fract_x
_atom_site_fract_y
_atom_site_fract_z
Si Si1 0.605981 0.721182 0.781482
Si Si2 0.099415 0.794054 0.928916
Si Si3 0.413106 0.683705 0.333091
Si Si4 0.500000 0.500000 0.000000
Si Si5 0.242712 0.217678 0.031090
Si Si6 0.642659 0.667586 0.439832
Si Si7 0.900767 0.723753 0.392078
O O1 0.659388 0.764873 0.940009
O O2 0.666896 0.697044 0.635350
O O3 0.333691 0.989368 0.634933
O O4 0.750511 0.458025 0.900546
O O5 0.271014 0.661225 0.888375
O O6 0.855262 0.999612 0.754555
O O7 0.000000 0.000000 0.000000
O O8 0.500000 0.500000 0.500000
O O9 0.440830 0.606871 0.159309
O O10 0.570861 0.621010 0.429464
O O11 0.438079 0.945063 0.234757
O O12 0.185234 0.206440 0.838320
O O13 0.000000 0.500000 0.000000
O O14 0.891746 0.413987 0.486211
O O15 0.000000 0.500000 0.500000
#
# Coordination Sequence:
#
# PCOD9049448 Si02
#       7
#     2   2   2   1   2   2   2
#     4  12  25  45  74 105 151 195 246 314 376 447
#     4  10  24  46  74 107 145 194 254 313 376 450
#     4  11  26  48  73 111 149 195 260 316 377 460
#     4  10  24  46  78  98 148 192 252 310 386 430
#     4  12  24  45  72 105 153 194 241 306 376 446
#     4  12  26  46  73 108 150 196 245 310 382 444
#     4  12  27  45  71 110 152 197 258 301 371 464
#
# _framework density 22.931107000000001
#
# number of rings (size 3 to 8) (size 9 to 14) (size 15 to 20)
#    0.000    0.615    3.077    4.615    2.154    4.308 
#    0.000    0.000    0.000    0.000    0.000    0.000 
#    0.000    0.000    0.000    0.000    0.000    0.000 
#
# Total GULP energy -72479.435796 kJ/mol
# GULP energy per Si atom -5575.341215 kJ/mol
# Density = 2.287891 g / cm^3
# Si number density = 22.931107 Si / 1000 Ang^3
#
#
#
# Elastic Constant Matrix: (Units=GPa)
#
#
# Indices 1 2 3 4 5 6 
#
# 1 166.7562 47.0463 52.5654 -36.7830 22.9563 -18.2177
# 2 47.0463 83.9667 47.8478 -27.6590 -11.8202 -22.9376
# 3 52.5654 47.8478 98.0611 -31.6446 5.8105 -7.8394
# 4 -36.7830 -27.6590 -31.6446 57.2019 2.9479 6.5508
# 5 22.9563 -11.8202 5.8105 2.9479 42.8427 -9.1045
# 6 -18.2177 -22.9376 -7.8394 6.5508 -9.1045 58.7015
#
#
#
# Elastic Compliance Matrix: (Units=1/GPa)
#
#
# Indices 1 2 3 4 5 6 
#
# 1 0.009205 -0.004139 -0.001454 0.003466 -0.006180 -0.000300
# 2 -0.004139 0.023939 -0.008648 0.002566 0.011610 0.008429
# 3 -0.001454 -0.008648 0.016785 0.004745 -0.004819 -0.002866
# 4 0.003466 0.002566 0.004745 0.023816 -0.003537 -0.000494
# 5 -0.006180 0.011610 -0.004819 -0.003537 0.032321 0.007383
# 6 -0.000300 0.008429 -0.002866 -0.000494 0.007383 0.021053
#
#
# Mechanical properties :
#
#
# Convention : Reuss Voigt Hill
#
# Bulk Modulus (GPa) = 46.62799 71.52256 59.07528
# Shear Modulus (GPa) = 30.72186 45.17087 37.94637
#
# Velocity S-wave (km/s) = 3.66423 4.44312 4.07233
# Velocity P-wave (km/s) = 6.18710 7.58812 6.92314
#
# Compressibility (1/GPa) = 0.02144634
#
# Stress axis : x y z
#
# Youngs Moduli (GPa) = 108.63101 41.77322 59.57841
#
# Poissons Ratio (x) = 0.17291 0.08663
# Poissons Ratio (y) = 0.44965 0.51523
# Poissons Ratio (z) = 0.15796 0.36125
#
# Static dielectric constant tensor:
#      x y z
#    x 1.881530 -0.000730 0.050320 
#    y -0.000730 1.703550 -0.189960 
#    z 0.050320 -0.189960 1.483680 
# 
# From -- ./inp_files/305251.got.cif
#   From: 2010.05.17/outbox.cif.g08.bks.cpg/sg2_153_cif.got.tgz:305251.got - 2010.06.03 11:33:40.
