data_PCOD9049124
_publ_section_title
;
Structure prediction by ZEFSAII (Michael W. Deem and Ramdas Pophale) SiO2 
 PCOD9049124
Probable space group: P -1
;
_chemical_formula_sum "Si O2"
_cell_formula_units_Z 16
_cell_length_a 10.588393
_cell_length_b 11.407602
_cell_length_c 8.560537
_cell_angle_alpha 130.760289
_cell_angle_beta 120.642747
_cell_angle_gamma 87.724391
_cell_volume 601.861835
_symmetry_space_group_name_H-M "P -1"
_symmetry_group_IT_number 2
_symmetry_cell_setting 'triclinic'
loop_
_space_group_symop_operation_xyz
x,y,z
-x,-y,-z
loop_
_atom_site_type_symbol
_atom_site_label
_atom_site_fract_x
_atom_site_fract_y
_atom_site_fract_z
Si Si1 0.397913 0.177298 0.436228
Si Si2 0.989666 0.400587 0.569119
Si Si3 0.616275 0.129043 0.045880
Si Si4 0.635492 0.506664 0.719600
Si Si5 0.058392 0.887463 0.547766
Si Si6 0.018818 0.675390 0.045980
Si Si7 0.444633 0.320991 0.912258
Si Si8 0.893222 0.874389 0.954243
O O1 0.569059 0.322267 0.603251
O O2 0.381352 0.178783 0.612200
O O3 0.369960 0.996121 0.187887
O O4 0.272638 0.245446 0.343462
O O5 0.072356 0.547127 0.880810
O O6 0.000000 0.500000 0.500000
O O7 0.058957 0.262216 0.533546
O O8 0.796150 0.262312 0.339048
O O9 0.556938 0.257700 0.032552
O O10 0.500000 0.000000 0.000000
O O11 0.500000 0.500000 0.500000
O O12 0.819415 0.564091 0.828906
O O13 0.657493 0.649429 0.988256
O O14 0.095485 0.775326 0.340538
O O15 0.000000 0.000000 0.500000
O O16 0.165235 0.039453 0.868642
O O17 0.022371 0.814411 0.047731
O O18 0.500000 0.500000 0.000000
O O19 0.000000 0.000000 0.000000
#
# Coordination Sequence:
#
# PCOD9049124 Si02
#       8
#     2   2   2   2   2   2   2   2
#     4  11  23  43  68 102 141 177 235 285 352 413
#     4  12  26  47  72 104 144 188 232 289 358 419
#     4  12  26  47  73 103 144 187 235 289 356 420
#     4  11  21  42  69 101 135 179 227 284 351 413
#     4  10  24  46  69 104 138 185 238 282 346 417
#     4  11  24  41  71  99 140 179 235 288 344 415
#     4  10  25  43  71 108 139 182 232 293 350 419
#     4  11  23  42  67  99 139 187 222 284 351 415
#
# _framework density 26.584174000000001
#
# number of rings (size 3 to 8) (size 9 to 14) (size 15 to 20)
#    0.000    1.000    2.500    3.750    3.500    2.000 
#    2.250    2.500    0.000    0.000    0.000    0.000 
#    0.000    0.000    0.000    0.000    0.000    0.000 
#
# Total GULP energy -89201.124012 kJ/mol
# GULP energy per Si atom -5575.070251 kJ/mol
# Density = 2.652367 g / cm^3
# Si number density = 26.584174 Si / 1000 Ang^3
#
#
#
# Elastic Constant Matrix: (Units=GPa)
#
#
# Indices 1 2 3 4 5 6 
#
# 1 52.4705 22.6425 42.6612 2.1870 -11.6843 15.4164
# 2 22.6425 195.1921 39.3726 -3.7086 -0.0205 5.7873
# 3 42.6612 39.3726 140.1510 -18.4284 -23.9512 4.6974
# 4 2.1870 -3.7086 -18.4284 46.7248 -3.4800 1.0376
# 5 -11.6843 -0.0205 -23.9512 -3.4800 51.5682 9.0410
# 6 15.4164 5.7873 4.6974 1.0376 9.0410 42.3565
#
#
#
# Elastic Compliance Matrix: (Units=1/GPa)
#
#
# Indices 1 2 3 4 5 6 
#
# 1 0.031083 -0.001671 -0.008361 -0.004281 0.004812 -0.011080
# 2 -0.001671 0.005559 -0.001234 -0.000045 -0.000987 0.000198
# 3 -0.008361 -0.001234 0.011234 0.004957 0.003463 0.001105
# 4 -0.004281 -0.000045 0.004957 0.023780 0.002973 -0.000203
# 5 0.004812 -0.000987 0.003463 0.002973 0.023535 -0.007097
# 6 -0.011080 0.000198 0.001105 -0.000203 -0.007097 0.029012
#
#
# Mechanical properties :
#
#
# Convention : Reuss Voigt Hill
#
# Bulk Modulus (GPa) = 39.45967 66.35181 52.90574
# Shear Modulus (GPa) = 32.21978 47.00570 39.61274
#
# Velocity S-wave (km/s) = 3.48514 4.20954 3.86435
# Velocity P-wave (km/s) = 5.57409 6.97426 6.31311
#
# Compressibility (1/GPa) = 0.02534233
#
# Stress axis : x y z
#
# Youngs Moduli (GPa) = 32.17188 179.88205 89.01833
#
# Poissons Ratio (x) = 0.30067 0.74428
# Poissons Ratio (y) = 0.05377 0.10987
# Poissons Ratio (z) = 0.26899 0.22203
#
# Static dielectric constant tensor:
#      x y z
#    x 2.280620 -0.157630 0.054610 
#    y -0.157630 2.349360 0.030730 
#    z 0.054610 0.030730 2.124230 
# 
# From -- ./inp_files/263607.got.cif
#   From: 2010.05.17/outbox.cif.g08.bks.cpg/sg2_132_cif.got.tgz:263607.got - 2010.06.03 11:33:40.
