data_PCOD9049515
_publ_section_title
;
Structure prediction by ZEFSAII (Michael W. Deem and Ramdas Pophale) SiO2 
 PCOD9049515
Probable space group: P -1
;
_chemical_formula_sum "Si O2"
_cell_formula_units_Z 16
_cell_length_a 13.496610
_cell_length_b 11.159731
_cell_length_c 8.473918
_cell_angle_alpha 67.129444
_cell_angle_beta 103.316109
_cell_angle_gamma 148.432830
_cell_volume 602.030745
_symmetry_space_group_name_H-M "P -1"
_symmetry_group_IT_number 2
_symmetry_cell_setting 'triclinic'
loop_
_space_group_symop_operation_xyz
x,y,z
-x,-y,-z
loop_
_atom_site_type_symbol
_atom_site_label
_atom_site_fract_x
_atom_site_fract_y
_atom_site_fract_z
Si Si1 0.548705 0.575731 0.205939
Si Si2 0.027923 0.696671 0.099879
Si Si3 0.874139 0.825693 0.391120
Si Si4 0.787621 0.908213 0.821208
Si Si5 0.549375 0.045795 0.677040
Si Si6 0.856344 0.533421 0.652285
Si Si7 0.328296 0.596841 0.027363
Si Si8 0.207829 0.828613 0.770295
O O1 0.692135 0.716420 0.333724
O O2 0.391254 0.290642 0.266632
O O3 0.692794 0.738264 0.026545
O O4 0.423762 0.571579 0.145075
O O5 0.864085 0.626993 0.034555
O O6 0.904904 0.429435 0.182542
O O7 0.133074 0.866586 0.205221
O O8 0.172280 0.835589 0.932855
O O9 0.792525 0.593612 0.511842
O O10 0.000000 0.000000 0.500000
O O11 0.033777 0.979257 0.236671
O O12 0.476349 0.841429 0.851326
O O13 0.427323 0.032802 0.715100
O O14 0.500000 0.000000 0.500000
O O15 0.773973 0.320814 0.640125
O O16 0.086104 0.791507 0.632509
O O17 0.760565 0.420904 0.848118
#
# Coordination Sequence:
#
# PCOD9049515 Si02
#       8
#     2   2   2   2   2   2   2   2
#     4  11  28  47  77 111 146 202 254 310 383 440
#     4   9  21  43  77 104 146 190 248 303 366 449
#     4  12  30  52  72 106 156 201 255 320 373 441
#     4  11  27  45  76 110 144 197 256 311 371 453
#     4  11  26  44  73 114 154 186 243 314 372 453
#     4  11  26  45  73 105 142 202 252 302 375 446
#     4  10  24  46  76 108 150 198 252 303 372 460
#     4   9  22  45  69 106 143 195 236 298 376 440
#
# _framework density 26.576715
#
# number of rings (size 3 to 8) (size 9 to 14) (size 15 to 20)
#    0.000    1.500    0.000    2.250   15.750    4.500 
#    0.000    0.000    0.000    0.000    0.000    0.000 
#    0.000    0.000    0.000    0.000    0.000    0.000 
#
# Total GULP energy -89604.295608 kJ/mol
# GULP energy per Si atom -5600.268475 kJ/mol
# Density = 2.651623 g / cm^3
# Si number density = 26.576715 Si / 1000 Ang^3
#
#
#
# Elastic Constant Matrix: (Units=GPa)
#
#
# Indices 1 2 3 4 5 6 
#
# 1 121.8251 41.6015 28.8673 15.2596 17.7201 12.7680
# 2 41.6015 163.6135 42.7640 22.6129 4.8910 -6.8858
# 3 28.8673 42.7640 68.1192 8.4883 16.6628 5.9506
# 4 15.2596 22.6129 8.4883 53.2864 4.1667 6.6238
# 5 17.7201 4.8910 16.6628 4.1667 37.2871 -0.6746
# 6 12.7680 -6.8858 5.9506 6.6238 -0.6746 45.2568
#
#
#
# Elastic Compliance Matrix: (Units=1/GPa)
#
#
# Indices 1 2 3 4 5 6 
#
# 1 0.010310 -0.001997 -0.001801 -0.001169 -0.003754 -0.002860
# 2 -0.001997 0.008323 -0.004878 -0.002732 0.002395 0.002907
# 3 -0.001801 -0.004878 0.020655 0.000294 -0.007823 -0.003109
# 4 -0.001169 -0.002732 0.000294 0.020734 -0.001592 -0.003183
# 5 -0.003754 0.002395 -0.007823 -0.001592 0.032020 0.003162
# 6 -0.002860 0.002907 -0.003109 -0.003183 0.003162 0.024267
#
#
# Mechanical properties :
#
#
# Convention : Reuss Voigt Hill
#
# Bulk Modulus (GPa) = 45.59192 64.44705 55.01948
# Shear Modulus (GPa) = 35.46786 43.18771 39.32778
#
# Velocity S-wave (km/s) = 3.65711 4.03553 3.85097
# Velocity P-wave (km/s) = 5.91816 6.78351 6.36556
#
# Compressibility (1/GPa) = 0.02193371
#
# Stress axis : x y z
#
# Youngs Moduli (GPa) = 96.99769 120.14822 48.41529
#
# Poissons Ratio (x) = 0.23996 0.08722
# Poissons Ratio (y) = 0.19372 0.23618
# Poissons Ratio (z) = 0.17474 0.58610
#
# Static dielectric constant tensor:
#      x y z
#    x 2.163830 -0.005780 0.092040 
#    y -0.005780 2.090900 0.032630 
#    z 0.092040 0.032630 2.173110 
# 
# From -- ./inp_files/307127.got.cif
#   From: 2010.05.17/outbox.cif.g08.bks.cpg/sg2_154_cif.got.tgz:307127.got - 2010.06.03 11:33:40.
