data_PCOD9049793
_publ_section_title
;
Structure prediction by ZEFSAII (Michael W. Deem and Ramdas Pophale) SiO2 
 PCOD9049793
Probable space group: P -1
;
_chemical_formula_sum "Si O2"
_cell_formula_units_Z 13
_cell_length_a 8.849936
_cell_length_b 8.066624
_cell_length_c 12.022875
_cell_angle_alpha 88.211984
_cell_angle_beta 142.704576
_cell_angle_gamma 81.868059
_cell_volume 499.838750
_symmetry_space_group_name_H-M "P -1"
_symmetry_group_IT_number 2
_symmetry_cell_setting 'triclinic'
loop_
_space_group_symop_operation_xyz
x,y,z
-x,-y,-z
loop_
_atom_site_type_symbol
_atom_site_label
_atom_site_fract_x
_atom_site_fract_y
_atom_site_fract_z
Si Si1 0.293123 0.005542 0.160760
Si Si2 0.192337 0.377071 0.027090
Si Si3 0.220010 0.588106 0.385892
Si Si4 0.798244 0.773418 0.544113
Si Si5 0.263250 0.892584 0.902002
Si Si6 0.500000 0.500000 0.000000
Si Si7 0.958171 0.842697 0.404548
O O1 0.499735 0.883786 0.367174
O O2 0.331175 0.197365 0.174268
O O3 0.343414 0.925510 0.070107
O O4 0.000000 0.000000 0.000000
O O5 0.989675 0.318081 0.828710
O O6 0.364506 0.473166 0.051800
O O7 0.000000 0.500000 0.000000
O O8 0.500000 0.500000 0.500000
O O9 0.129918 0.419479 0.366481
O O10 0.183322 0.712118 0.468477
O O11 0.874738 0.742316 0.459123
O O12 0.968575 0.872603 0.712013
O O13 0.243716 0.055403 0.807365
O O14 0.427990 0.704773 0.965335
O O15 0.000000 0.000000 0.500000
#
# Coordination Sequence:
#
# PCOD9049793 Si02
#       7
#     2   2   2   2   2   1   2
#     4  12  27  48  78 115 160 208 270 332 413 484
#     4  12  28  52  78 116 162 212 270 337 412 487
#     4  12  26  50  78 113 160 206 269 335 412 488
#     4  11  26  46  78 112 152 207 260 326 404 482
#     4  11  25  47  75 116 151 206 264 333 396 489
#     4  12  26  48  82 110 164 210 272 332 410 486
#     4  10  24  47  74 111 151 201 268 325 395 481
#
# _framework density 26.008389000000001
#
# number of rings (size 3 to 8) (size 9 to 14) (size 15 to 20)
#    0.000    0.615    3.077    3.231    2.154    9.231 
#    0.000    0.000    0.000    0.000    0.000    0.000 
#    0.000    0.000    0.000    0.000    0.000    0.000 
#
# Total GULP energy -72420.444308 kJ/mol
# GULP energy per Si atom -5570.803408 kJ/mol
# Density = 2.594919 g / cm^3
# Si number density = 26.008389 Si / 1000 Ang^3
#
#
#
# Elastic Constant Matrix: (Units=GPa)
#
#
# Indices 1 2 3 4 5 6 
#
# 1 100.9156 43.1432 -30.2156 1.0119 13.9517 -9.0678
# 2 43.1432 115.7269 26.8668 -19.2060 21.1790 -15.1227
# 3 -30.2156 26.8668 38.5565 0.8914 -1.5538 4.8553
# 4 1.0119 -19.2060 0.8914 42.6900 5.0120 -6.0769
# 5 13.9517 21.1790 -1.5538 5.0120 22.8132 -11.9966
# 6 -9.0678 -15.1227 4.8553 -6.0769 -11.9966 51.8950
#
#
#
# Elastic Compliance Matrix: (Units=1/GPa)
#
#
# Indices 1 2 3 4 5 6 
#
# 1 0.039833 -0.034877 0.057509 -0.020423 0.012125 -0.008173
# 2 -0.034877 0.047597 -0.063613 0.028348 -0.027839 0.010612
# 3 0.057509 -0.063613 0.119624 -0.038598 0.031632 -0.016888
# 4 -0.020423 0.028348 -0.038598 0.041124 -0.021165 0.008226
# 5 0.012125 -0.027839 0.031632 -0.021165 0.071783 0.005162
# 6 -0.008173 0.010612 -0.016888 0.008226 0.005162 0.024671
#
#
# Mechanical properties :
#
#
# Convention : Reuss Voigt Hill
#
# Bulk Modulus (GPa) = 7.99406 37.19866 22.59636
# Shear Modulus (GPa) = 10.67710 37.83994 24.25852
#
# Velocity S-wave (km/s) = 2.02834 3.81847 3.05736
# Velocity P-wave (km/s) = 2.92675 5.81159 4.60111
#
# Compressibility (1/GPa) = 0.12509290
#
# Stress axis : x y z
#
# Youngs Moduli (GPa) = 25.10474 21.00952 8.35953
#
# Poissons Ratio (x) = 0.73275 -0.48075
# Poissons Ratio (y) = 0.87558 0.53177
# Poissons Ratio (z) = -1.44375 1.33647
#
# Static dielectric constant tensor:
#      x y z
#    x 2.181780 0.048290 0.080060 
#    y 0.048290 2.084790 0.006520 
#    z 0.080060 0.006520 2.128780 
# 
# From -- ./inp_files/382465.got.cif
#   From: 2010.05.17/outbox.cif.g08.bks.cpg/sg2_192_cif.got.tgz:382465.got - 2010.06.03 11:33:40.
