data_PCOD9049636
_publ_section_title
;
Structure prediction by ZEFSAII (Michael W. Deem and Ramdas Pophale) SiO2 
 PCOD9049636
Probable space group: P -1
;
_chemical_formula_sum "Si O2"
_cell_formula_units_Z 16
_cell_length_a 9.787361
_cell_length_b 20.875030
_cell_length_c 5.452207
_cell_angle_alpha 117.256697
_cell_angle_beta 57.642018
_cell_angle_gamma 133.511478
_cell_volume 675.109633
_symmetry_space_group_name_H-M "P -1"
_symmetry_group_IT_number 2
_symmetry_cell_setting 'triclinic'
loop_
_space_group_symop_operation_xyz
x,y,z
-x,-y,-z
loop_
_atom_site_type_symbol
_atom_site_label
_atom_site_fract_x
_atom_site_fract_y
_atom_site_fract_z
Si Si1 0.874154 0.958563 0.302578
Si Si2 0.569514 0.298654 0.155336
Si Si3 0.270979 0.729615 0.547919
Si Si4 0.384651 0.967942 0.241790
Si Si5 0.187940 0.209222 0.086728
Si Si6 0.285473 0.890284 0.622273
Si Si7 0.470174 0.552624 0.421912
Si Si8 0.199701 0.366996 0.109561
O O1 0.772274 0.853163 0.218093
O O2 0.729554 0.989004 0.512473
O O3 0.000000 0.000000 0.500000
O O4 0.000000 0.000000 0.000000
O O5 0.634721 0.274783 0.297618
O O6 0.617943 0.395321 0.317399
O O7 0.672021 0.301343 0.804643
O O8 0.328696 0.230165 0.221357
O O9 0.335631 0.826647 0.578806
O O10 0.032680 0.675562 0.726787
O O11 0.283638 0.872115 0.286560
O O12 0.500000 0.000000 0.500000
O O13 0.369139 0.957597 0.931046
O O14 0.241106 0.304226 0.114675
O O15 0.946602 0.146480 0.210576
O O16 0.500000 0.500000 0.500000
O O17 0.317294 0.471484 0.246272
O O18 0.692876 0.625539 0.232819
#
# Coordination Sequence:
#
# PCOD9049636 Si02
#       8
#     2   2   2   2   2   2   2   2
#     4  12  27  47  74 111 146 192 250 311 370 441
#     4  12  27  47  76 112 151 192 251 312 374 441
#     4  11  28  48  72 114 149 197 247 316 371 440
#     4  11  24  44  73 101 144 194 242 311 377 442
#     4  11  23  50  77 106 147 201 253 309 372 454
#     4  10  24  47  70 102 144 193 249 300 378 443
#     4  11  24  47  77 111 150 202 251 302 375 455
#     4  10  25  48  77 109 153 201 250 305 378 449
#
# _framework density 23.699856
#
# number of rings (size 3 to 8) (size 9 to 14) (size 15 to 20)
#    0.000    1.000    2.500    2.250    7.000    4.000 
#    4.500    0.000    0.000    0.000    0.000    0.000 
#    0.000    0.000    0.000    0.000    0.000    0.000 
#
# Total GULP energy -89146.986834 kJ/mol
# GULP energy per Si atom -5571.686677 kJ/mol
# Density = 2.364591 g / cm^3
# Si number density = 23.699856 Si / 1000 Ang^3
#
#
#
# Elastic Constant Matrix: (Units=GPa)
#
#
# Indices 1 2 3 4 5 6 
#
# 1 217.8541 66.2865 93.6911 -16.3762 0.2944 -22.7280
# 2 66.2865 104.1500 80.9751 -2.0549 -2.7610 -7.7459
# 3 93.6911 80.9751 197.6390 -3.4694 -3.9611 -16.4656
# 4 -16.3762 -2.0549 -3.4694 54.5828 -13.2497 -3.6004
# 5 0.2944 -2.7610 -3.9611 -13.2497 37.0441 1.5731
# 6 -22.7280 -7.7459 -16.4656 -3.6004 1.5731 33.5141
#
#
#
# Elastic Compliance Matrix: (Units=1/GPa)
#
#
# Indices 1 2 3 4 5 6 
#
# 1 0.006623 -0.002537 -0.001792 0.002029 0.000155 0.003235
# 2 -0.002537 0.015080 -0.005039 -0.000449 0.000478 -0.000782
# 3 -0.001792 -0.005039 0.008115 0.000000 0.000439 0.001586
# 4 0.002029 -0.000449 0.000000 0.020891 0.007288 0.003174
# 5 0.000155 0.000478 0.000439 0.007288 0.029690 -0.000180
# 6 0.003235 -0.000782 0.001586 0.003174 -0.000180 0.032980
#
#
# Mechanical properties :
#
#
# Convention : Reuss Voigt Hill
#
# Bulk Modulus (GPa) = 90.24392 111.28319 100.76355
# Shear Modulus (GPa) = 36.81669 43.60755 40.21212
#
# Velocity S-wave (km/s) = 3.94567 4.29417 4.12360
# Velocity P-wave (km/s) = 7.67582 8.46426 8.07966
#
# Compressibility (1/GPa) = 0.01108108
#
# Stress axis : x y z
#
# Youngs Moduli (GPa) = 150.99939 66.31391 123.23483
#
# Poissons Ratio (x) = 0.16825 0.22080
# Poissons Ratio (y) = 0.38312 0.62099
# Poissons Ratio (z) = 0.27054 0.33416
#
# Static dielectric constant tensor:
#      x y z
#    x 2.248560 0.024280 0.012310 
#    y 0.024280 2.031210 0.086640 
#    z 0.012310 0.086640 2.133350 
# 
# From -- ./inp_files/53634.got.cif
#   From: 2010.05.17/outbox.cif.g08.bks.cpg/sg2_27_cif.got.tgz:53634.got - 2010.06.03 11:33:40.
