data_PCOD9049926
_publ_section_title
;
Structure prediction by ZEFSAII (Michael W. Deem and Ramdas Pophale) SiO2 
 PCOD9049926
Probable space group: P -1
;
_chemical_formula_sum "Si O2"
_cell_formula_units_Z 14
_cell_length_a 18.337315
_cell_length_b 11.141141
_cell_length_c 5.842747
_cell_angle_alpha 59.279196
_cell_angle_beta 122.037354
_cell_angle_gamma 146.158870
_cell_volume 557.229174
_symmetry_space_group_name_H-M "P -1"
_symmetry_group_IT_number 2
_symmetry_cell_setting 'triclinic'
loop_
_space_group_symop_operation_xyz
x,y,z
-x,-y,-z
loop_
_atom_site_type_symbol
_atom_site_label
_atom_site_fract_x
_atom_site_fract_y
_atom_site_fract_z
Si Si1 0.414825 0.096440 0.190765
Si Si2 0.850009 0.855541 0.302380
Si Si3 0.388603 0.853839 0.770076
Si Si4 0.634699 0.709887 0.384806
Si Si5 0.143374 0.899131 0.276269
Si Si6 0.852704 0.601065 0.269662
Si Si7 0.141320 0.649107 0.199349
O O1 0.549715 0.186501 0.257451
O O2 0.392582 0.007661 0.496098
O O3 0.273616 0.863370 0.076939
O O4 0.415793 0.253888 0.944646
O O5 0.731320 0.710797 0.434038
O O6 0.818606 0.714107 0.175984
O O7 0.000000 0.000000 0.500000
O O8 0.848147 0.007126 0.041771
O O9 0.250713 0.610568 0.857465
O O10 0.500000 0.000000 0.000000
O O11 0.500000 0.500000 0.500000
O O12 0.735578 0.912294 0.535083
O O13 0.132189 0.725360 0.348096
O O14 0.004724 0.778773 0.269994
O O15 0.842394 0.492875 0.584435
O O16 0.000000 0.500000 0.000000
#
# Coordination Sequence:
#
# PCOD9049926 Si02
#       7
#     2   2   2   2   2   2   2
#     4  10  24  48  68 110 146 194 256 304 381 451
#     4  12  26  51  73 109 159 193 260 324 376 456
#     4  10  25  46  76 108 152 193 245 319 382 457
#     4  12  29  49  80 108 154 211 256 316 383 457
#     4  12  26  47  76 111 148 200 262 310 385 463
#     4  11  25  44  76 110 144 199 247 311 396 450
#     4  11  23  44  75 107 148 192 248 324 378 446
#
# _framework density 25.124312
#
# number of rings (size 3 to 8) (size 9 to 14) (size 15 to 20)
#    0.000    0.857    2.857    2.571    8.000    1.714 
#    7.714    0.000    0.000    0.000    0.000    0.000 
#    0.000    0.000    0.000    0.000    0.000    0.000 
#
# Total GULP energy -78192.555622 kJ/mol
# GULP energy per Si atom -5585.182544 kJ/mol
# Density = 2.506713 g / cm^3
# Si number density = 25.124312 Si / 1000 Ang^3
#
#
#
# Elastic Constant Matrix: (Units=GPa)
#
#
# Indices 1 2 3 4 5 6 
#
# 1 126.0312 32.0831 15.0702 -3.8294 -5.1651 26.6143
# 2 32.0831 134.8850 41.3350 15.3336 -9.7368 33.1704
# 3 15.0702 41.3350 99.4322 9.5131 20.1307 11.0389
# 4 -3.8294 15.3336 9.5131 50.3754 3.4342 -4.8832
# 5 -5.1651 -9.7368 20.1307 3.4342 28.5550 0.9964
# 6 26.6143 33.1704 11.0389 -4.8832 0.9964 45.9770
#
#
#
# Elastic Compliance Matrix: (Units=1/GPa)
#
#
# Indices 1 2 3 4 5 6 
#
# 1 0.009331 -0.000578 -0.001192 0.000489 0.002436 -0.004699
# 2 -0.000578 0.012256 -0.005517 -0.004084 0.008727 -0.007805
# 3 -0.001192 -0.005517 0.014973 -0.000247 -0.012669 0.001324
# 4 0.000489 -0.004084 -0.000247 0.021945 -0.003949 0.005139
# 5 0.002436 0.008727 -0.012669 -0.003949 0.048056 -0.006126
# 6 -0.004699 -0.007805 0.001324 0.005139 -0.006126 0.030462
#
#
# Mechanical properties :
#
#
# Convention : Reuss Voigt Hill
#
# Bulk Modulus (GPa) = 45.48520 59.70278 52.59399
# Shear Modulus (GPa) = 31.46115 43.10548 37.28332
#
# Velocity S-wave (km/s) = 3.54251 4.14658 3.85639
# Velocity P-wave (km/s) = 5.90558 6.83667 6.38811
#
# Compressibility (1/GPa) = 0.02198517
#
# Stress axis : x y z
#
# Youngs Moduli (GPa) = 107.16610 81.59547 66.78844
#
# Poissons Ratio (x) = 0.04719 0.07963
# Poissons Ratio (y) = 0.06198 0.36845
# Poissons Ratio (z) = 0.12776 0.45013
#
# Static dielectric constant tensor:
#      x y z
#    x 2.108040 -0.018100 -0.014110 
#    y -0.018100 2.057320 -0.019760 
#    z -0.014110 -0.019760 2.098150 
# 
# From -- ./inp_files/118567.got.cif
#   From: 2010.05.17/outbox.cif.g08.bks.cpg/sg2_60_cif.got.tgz:118567.got - 2010.06.03 11:33:40.
