data_PCOD9049689
_publ_section_title
;
Structure prediction by ZEFSAII (Michael W. Deem and Ramdas Pophale) SiO2 
 PCOD9049689
Probable space group: P -1
;
_chemical_formula_sum "Si O2"
_cell_formula_units_Z 12
_cell_length_a 6.889691
_cell_length_b 16.729936
_cell_length_c 5.113569
_cell_angle_alpha 55.878035
_cell_angle_beta 77.272962
_cell_angle_gamma 60.753408
_cell_volume 424.560001
_symmetry_space_group_name_H-M "P -1"
_symmetry_group_IT_number 2
_symmetry_cell_setting 'triclinic'
loop_
_space_group_symop_operation_xyz
x,y,z
-x,-y,-z
loop_
_atom_site_type_symbol
_atom_site_label
_atom_site_fract_x
_atom_site_fract_y
_atom_site_fract_z
Si Si1 0.017891 0.913148 0.942869
Si Si2 0.740266 0.551652 0.403067
Si Si3 0.784581 0.710063 0.769800
Si Si4 0.087774 0.686542 0.226763
Si Si5 0.482090 0.617520 0.852097
Si Si6 0.394870 0.942087 0.456083
O O1 0.201089 0.919206 0.684040
O O2 0.094561 0.788408 0.195702
O O3 0.754332 0.962196 0.868533
O O4 0.000000 0.000000 0.000000
O O5 0.583724 0.632164 0.522086
O O6 0.000000 0.500000 0.500000
O O7 0.500000 0.500000 0.000000
O O8 0.718565 0.442612 0.576936
O O9 0.676955 0.617861 0.014357
O O10 0.585723 0.823516 0.545054
O O11 0.958979 0.661165 0.583606
O O12 0.881401 0.710116 0.026341
O O13 0.254448 0.697859 0.893408
O O14 0.500000 0.000000 0.500000
#
# Coordination Sequence:
#
# PCOD9049689 Si02
#       6
#     2   2   2   2   2   2
#     4  11  26  49  81 115 158 217 276 336 409 494
#     4  10  24  49  73 112 160 208 262 338 407 489
#     4  10  25  45  74 114 158 209 264 338 408 489
#     4  12  23  47  75 119 150 215 267 336 407 489
#     4  10  24  47  71 110 159 204 269 329 405 487
#     4  11  25  51  73 118 161 212 272 342 409 485
#
# _framework density 28.264555999999999
#
# number of rings (size 3 to 8) (size 9 to 14) (size 15 to 20)
#    1.000    0.333    1.667    2.500    0.000    7.333 
#   15.000    0.000    0.000    0.000    0.000    0.000 
#    0.000    0.000    0.000    0.000    0.000    0.000 
#
# Total GULP energy -66853.591442 kJ/mol
# GULP energy per Si atom -5571.132620 kJ/mol
# Density = 2.820022 g / cm^3
# Si number density = 28.264556 Si / 1000 Ang^3
#
#
#
# Elastic Constant Matrix: (Units=GPa)
#
#
# Indices 1 2 3 4 5 6 
#
# 1 180.4444 51.6874 46.2346 -12.4149 21.6004 14.1570
# 2 51.6874 212.2535 73.3075 1.2443 -5.7562 5.3914
# 3 46.2346 73.3075 149.0200 22.6571 -0.2917 1.2941
# 4 -12.4149 1.2443 22.6571 55.2812 15.1088 -9.6433
# 5 21.6004 -5.7562 -0.2917 15.1088 46.4177 -4.0547
# 6 14.1570 5.3914 1.2941 -9.6433 -4.0547 65.0700
#
#
#
# Elastic Compliance Matrix: (Units=1/GPa)
#
#
# Indices 1 2 3 4 5 6 
#
# 1 0.007404 -0.001129 -0.002315 0.003773 -0.004935 -0.001220
# 2 -0.001129 0.005919 -0.002615 0.000368 0.001117 -0.000069
# 3 -0.002315 -0.002615 0.009485 -0.005027 0.002443 -0.000061
# 4 0.003773 0.000368 -0.005027 0.023926 -0.009336 0.002213
# 5 -0.004935 0.001117 0.002443 -0.009336 0.027141 0.001240
# 6 -0.001220 -0.000069 -0.000061 0.002213 0.001240 0.016046
#
#
# Mechanical properties :
#
#
# Convention : Reuss Voigt Hill
#
# Bulk Modulus (GPa) = 93.53008 98.24189 95.88598
# Shear Modulus (GPa) = 47.34818 58.05302 52.70060
#
# Velocity S-wave (km/s) = 4.09733 4.53693 4.32272
# Velocity P-wave (km/s) = 7.45298 7.89167 7.67546
#
# Compressibility (1/GPa) = 0.01069175
#
# Stress axis : x y z
#
# Youngs Moduli (GPa) = 135.05809 168.94331 105.43480
#
# Poissons Ratio (x) = 0.19066 0.24405
# Poissons Ratio (y) = 0.15242 0.27569
# Poissons Ratio (z) = 0.31262 0.44175
#
# Static dielectric constant tensor:
#      x y z
#    x 2.366540 0.088420 -0.117260 
#    y 0.088420 2.046140 -0.032720 
#    z -0.117260 -0.032720 2.420660 
# 
# From -- ./inp_files/9176.got.cif
#   From: 2010.05.17/outbox.cif.g08.bks.cpg/sg2_5_cif.got.tgz:9176.got - 2010.06.03 11:33:40.
