data_PCOD9049258
_publ_section_title
;
Structure prediction by ZEFSAII (Michael W. Deem and Ramdas Pophale) SiO2 
 PCOD9049258
Probable space group: P -1
;
_chemical_formula_sum "Si O2"
_cell_formula_units_Z 15
_cell_length_a 6.689978
_cell_length_b 11.680062
_cell_length_c 12.287130
_cell_angle_alpha 93.528327
_cell_angle_beta 44.534487
_cell_angle_gamma 87.368327
_cell_volume 666.533464
_symmetry_space_group_name_H-M "P -1"
_symmetry_group_IT_number 2
_symmetry_cell_setting 'triclinic'
loop_
_space_group_symop_operation_xyz
x,y,z
-x,-y,-z
loop_
_atom_site_type_symbol
_atom_site_label
_atom_site_fract_x
_atom_site_fract_y
_atom_site_fract_z
Si Si1 0.500000 0.500000 0.500000
Si Si2 0.794727 0.720701 0.404485
Si Si3 0.923093 0.766434 0.966511
Si Si4 0.750945 0.902432 0.261653
Si Si5 0.574165 0.399670 0.875943
Si Si6 0.234865 0.086155 0.398105
Si Si7 0.269797 0.538019 0.827903
Si Si8 0.195278 0.057070 0.165950
O O1 0.611090 0.620158 0.501123
O O2 0.292146 0.501356 0.692005
O O3 0.642736 0.804648 0.374251
O O4 0.831955 0.799352 0.499201
O O5 0.111328 0.668948 0.236980
O O6 0.939461 0.847630 0.861534
O O7 0.206799 0.675958 0.868236
O O8 0.862109 0.842397 0.102667
O O9 0.658780 0.691466 0.042017
O O10 0.521312 0.010080 0.325681
O O11 0.995146 0.955090 0.238353
O O12 0.544628 0.470344 0.777707
O O13 0.500000 0.500000 0.000000
O O14 0.241376 0.108869 0.268721
O O15 0.000000 0.000000 0.500000
O O16 0.000000 0.500000 0.000000
O O17 0.500000 0.000000 0.000000
#
# Coordination Sequence:
#
# PCOD9049258 Si02
#       8
#     1   2   2   2   2   2   2   2
#     4  12  28  46  72 110 148 198 262 302 388 442
#     4  12  26  45  76 106 155 198 248 318 373 452
#     4  11  23  42  76 104 150 194 247 314 375 453
#     4  12  25  48  74 109 156 199 242 313 387 454
#     4  11  23  47  72 106 148 201 254 304 382 458
#     4  12  27  48  72 110 150 201 251 302 386 454
#     4  10  24  46  71 104 147 199 248 308 385 449
#     4  12  26  45  72 112 147 191 255 302 375 460
#
# _framework density 22.504496
#
# number of rings (size 3 to 8) (size 9 to 14) (size 15 to 20)
#    0.000    0.533    2.667    6.400    1.867    2.667 
#    0.000    0.000    0.000    0.000    0.000    0.000 
#    0.000    0.000    0.000    0.000    0.000    0.000 
#
# Total GULP energy -83711.541652 kJ/mol
# GULP energy per Si atom -5580.769443 kJ/mol
# Density = 2.245328 g / cm^3
# Si number density = 22.504496 Si / 1000 Ang^3
#
#
#
# Elastic Constant Matrix: (Units=GPa)
#
#
# Indices 1 2 3 4 5 6 
#
# 1 67.0432 38.9751 30.2437 0.2584 16.2412 11.4456
# 2 38.9751 121.6066 34.6160 7.8239 4.6578 18.1141
# 3 30.2437 34.6160 117.2921 17.6589 36.4277 14.2589
# 4 0.2584 7.8239 17.6589 40.8475 8.5557 7.3214
# 5 16.2412 4.6578 36.4277 8.5557 32.5919 -0.2682
# 6 11.4456 18.1141 14.2589 7.3214 -0.2682 40.8441
#
#
#
# Elastic Compliance Matrix: (Units=1/GPa)
#
#
# Indices 1 2 3 4 5 6 
#
# 1 0.022001 -0.006100 -0.000820 0.004265 -0.010328 -0.004006
# 2 -0.006100 0.011176 -0.002789 -0.001584 0.004960 -0.001957
# 3 -0.000820 -0.002789 0.015157 -0.002108 -0.015610 -0.003549
# 4 0.004265 -0.001584 -0.002108 0.027984 -0.006929 -0.004818
# 5 -0.010328 0.004960 -0.015610 -0.006929 0.054450 0.007743
# 6 -0.004006 -0.001957 -0.003549 -0.004818 0.007743 0.028627
#
#
# Mechanical properties :
#
#
# Convention : Reuss Voigt Hill
#
# Bulk Modulus (GPa) = 34.58484 57.06794 45.82639
# Shear Modulus (GPa) = 26.53180 36.33051 31.43116
#
# Velocity S-wave (km/s) = 3.43732 4.02228 3.74125
# Velocity P-wave (km/s) = 5.58165 6.85457 6.25060
#
# Compressibility (1/GPa) = 0.02891440
#
# Stress axis : x y z
#
# Youngs Moduli (GPa) = 45.45161 89.47937 65.97534
#
# Poissons Ratio (x) = 0.54583 0.05413
# Poissons Ratio (y) = 0.27726 0.18404
# Poissons Ratio (z) = 0.03729 0.24960
#
# Static dielectric constant tensor:
#      x y z
#    x 1.840710 -0.033110 0.021820 
#    y -0.033110 1.863890 -0.032560 
#    z 0.021820 -0.032560 1.804230 
# 
# From -- ./inp_files/364680.got.cif
#   From: 2010.05.17/outbox.cif.g08.bks.cpg/sg2_183_cif.got.tgz:364680.got - 2010.06.03 11:33:40.
