data_PCOD9049398
_publ_section_title
;
Structure prediction by ZEFSAII (Michael W. Deem and Ramdas Pophale) SiO2 
 PCOD9049398
Probable space group: P -1
;
_chemical_formula_sum "Si O2"
_cell_formula_units_Z 14
_cell_length_a 15.169022
_cell_length_b 5.518961
_cell_length_c 11.686975
_cell_angle_alpha 52.041254
_cell_angle_beta 47.898759
_cell_angle_gamma 73.544404
_cell_volume 558.252711
_symmetry_space_group_name_H-M "P -1"
_symmetry_group_IT_number 2
_symmetry_cell_setting 'triclinic'
loop_
_space_group_symop_operation_xyz
x,y,z
-x,-y,-z
loop_
_atom_site_type_symbol
_atom_site_label
_atom_site_fract_x
_atom_site_fract_y
_atom_site_fract_z
Si Si1 0.066506 0.153402 0.013704
Si Si2 0.516935 0.666286 0.313958
Si Si3 0.872227 0.333399 0.518163
Si Si4 0.656402 0.262424 0.146231
Si Si5 0.721368 0.759059 0.415122
Si Si6 0.168834 0.795653 0.648628
Si Si7 0.149811 0.601856 0.228452
O O1 0.963895 0.223877 0.169819
O O2 0.129156 0.924628 0.097331
O O3 0.172404 0.441910 0.790776
O O4 0.000000 0.000000 0.000000
O O5 0.500000 0.500000 0.500000
O O6 0.592885 0.477894 0.220243
O O7 0.381267 0.558343 0.411815
O O8 0.575316 0.027567 0.191204
O O9 0.839250 0.638266 0.396149
O O10 0.840976 0.107221 0.502256
O O11 0.810198 0.320535 0.698751
O O12 0.015204 0.381144 0.404333
O O13 0.710686 0.020185 0.251615
O O14 0.758532 0.491173 0.915149
O O15 0.712925 0.979009 0.468104
#
# Coordination Sequence:
#
# PCOD9049398 Si02
#       7
#     2   2   2   2   2   2   2
#     4  11  21  40  59  98 129 169 226 280 341 406
#     4  10  24  46  73 107 136 175 235 299 349 399
#     4  11  25  43  63  97 139 188 219 279 345 420
#     4  11  25  44  74 105 137 181 231 297 344 406
#     4  11  23  42  69 101 131 170 233 285 346 407
#     4  11  22  35  67  94 129 176 223 280 345 406
#     4  11  24  45  62  97 146 177 232 272 348 421
#
# _framework density 25.078247999999999
#
# number of rings (size 3 to 8) (size 9 to 14) (size 15 to 20)
#    0.000    1.143    2.857    3.429   10.000    0.571 
#    2.571    1.429    0.000    0.000    0.000    0.000 
#    0.000    0.000    0.000    0.000    0.000    0.000 
#
# Total GULP energy -78014.007508 kJ/mol
# GULP energy per Si atom -5572.429108 kJ/mol
# Density = 2.502117 g / cm^3
# Si number density = 25.078248 Si / 1000 Ang^3
#
#
#
# Elastic Constant Matrix: (Units=GPa)
#
#
# Indices 1 2 3 4 5 6 
#
# 1 110.4997 25.5787 31.8322 8.6166 19.5939 36.0004
# 2 25.5787 74.1113 32.4311 21.5568 8.1861 17.9018
# 3 31.8322 32.4311 79.7027 44.4399 22.0211 4.6030
# 4 8.6166 21.5568 44.4399 47.1952 12.0224 4.5691
# 5 19.5939 8.1861 22.0211 12.0224 39.3226 1.6565
# 6 36.0004 17.9018 4.6030 4.5691 1.6565 47.4984
#
#
#
# Elastic Compliance Matrix: (Units=1/GPa)
#
#
# Indices 1 2 3 4 5 6 
#
# 1 0.015458 -0.000738 -0.007988 0.007357 -0.004853 -0.011203
# 2 -0.000738 0.018183 -0.005521 -0.002616 0.000707 -0.005532
# 3 -0.007988 -0.005521 0.034867 -0.028026 -0.006150 0.007667
# 4 0.007357 -0.002616 -0.028026 0.048568 -0.002002 -0.006476
# 5 -0.004853 0.000707 -0.006150 -0.002002 0.031628 0.003097
# 6 -0.011203 -0.005532 0.007667 -0.006476 0.003097 0.031401
#
#
# Mechanical properties :
#
#
# Convention : Reuss Voigt Hill
#
# Bulk Modulus (GPa) = 24.99097 49.33308 37.16202
# Shear Modulus (GPa) = 22.52904 38.43472 30.48188
#
# Velocity S-wave (km/s) = 3.00050 3.91908 3.49014
# Velocity P-wave (km/s) = 4.68944 6.33982 5.57603
#
# Compressibility (1/GPa) = 0.04001446
#
# Stress axis : x y z
#
# Youngs Moduli (GPa) = 64.69010 54.99631 28.68074
#
# Poissons Ratio (x) = 0.04057 0.22910
# Poissons Ratio (y) = 0.04772 0.15835
# Poissons Ratio (z) = 0.51674 0.30365
#
# Static dielectric constant tensor:
#      x y z
#    x 2.013060 0.150680 -0.096100 
#    y 0.150680 2.914370 0.083010 
#    z -0.096100 0.083010 2.014470 
# 
# From -- ./inp_files/441555.got.cif
#   From: 2010.05.17/outbox.cif.g08.bks.cpg/sg2_221_cif.got.tgz:441555.got - 2010.06.03 11:33:40.
