data_PCOD9049573
_publ_section_title
;
Structure prediction by ZEFSAII (Michael W. Deem and Ramdas Pophale) SiO2 
 PCOD9049573
Probable space group: P -1
;
_chemical_formula_sum "Si O2"
_cell_formula_units_Z 15
_cell_length_a 8.938589
_cell_length_b 9.336717
_cell_length_c 7.866147
_cell_angle_alpha 79.827531
_cell_angle_beta 118.097324
_cell_angle_gamma 101.727329
_cell_volume 564.537767
_symmetry_space_group_name_H-M "P -1"
_symmetry_group_IT_number 2
_symmetry_cell_setting 'triclinic'
loop_
_space_group_symop_operation_xyz
x,y,z
-x,-y,-z
loop_
_atom_site_type_symbol
_atom_site_label
_atom_site_fract_x
_atom_site_fract_y
_atom_site_fract_z
Si Si1 0.125504 0.901867 0.916098
Si Si2 0.500000 0.000000 0.000000
Si Si3 0.356746 0.182531 0.573157
Si Si4 0.080993 0.374091 0.283430
Si Si5 0.305190 0.636652 0.442272
Si Si6 0.848020 0.078418 0.674509
Si Si7 0.437117 0.256571 0.973012
Si Si8 0.260643 0.514615 0.809009
O O1 0.007389 0.743037 0.874274
O O2 0.304408 0.902764 0.921973
O O3 0.154437 0.935588 0.121113
O O4 0.027793 0.021615 0.741956
O O5 0.549153 0.886367 0.882850
O O6 0.196512 0.273969 0.472061
O O7 0.517172 0.279825 0.549334
O O8 0.416585 0.159636 0.804269
O O9 0.293664 0.034513 0.471864
O O10 0.213247 0.519668 0.280966
O O11 0.925517 0.439485 0.277423
O O12 0.184945 0.756523 0.407807
O O13 0.325451 0.546190 0.643940
O O14 0.280856 0.347005 0.899832
O O15 0.599429 0.380185 0.029942
#
# Coordination Sequence:
#
# PCOD9049573 Si02
#       8
#     2   1   2   2   2   2   2   2
#     4  10  24  47  65 108 138 186 226 296 336 419
#     4  12  24  42  76  96 136 184 232 270 358 406
#     4  11  25  46  72 104 141 178 238 286 344 414
#     4  11  24  46  71 100 146 175 232 289 341 418
#     4  12  25  43  75 105 133 193 223 292 352 407
#     4  10  25  45  71 102 146 173 241 287 345 407
#     4  11  26  45  70 103 140 184 230 289 340 422
#     4  11  26  47  66 102 149 175 234 286 348 413
#
# _framework density 26.570411
#
# number of rings (size 3 to 8) (size 9 to 14) (size 15 to 20)
#    0.000    1.067    2.667    2.000    5.600    0.533 
#    0.000    2.667    0.000    0.000    0.000    0.000 
#    0.000    0.000    0.000    0.000    0.000    0.000 
#
# Total GULP energy -83827.447424 kJ/mol
# GULP energy per Si atom -5588.496495 kJ/mol
# Density = 2.650994 g / cm^3
# Si number density = 26.570411 Si / 1000 Ang^3
#
#
#
# Elastic Constant Matrix: (Units=GPa)
#
#
# Indices 1 2 3 4 5 6 
#
# 1 99.1248 40.4314 53.3146 -2.2539 29.9050 -11.9494
# 2 40.4314 206.9572 60.2156 25.5534 26.3624 -32.6999
# 3 53.3146 60.2156 125.6474 23.3037 21.5547 3.1177
# 4 -2.2539 25.5534 23.3037 50.4053 -8.1366 16.6743
# 5 29.9050 26.3624 21.5547 -8.1366 33.8808 -7.4299
# 6 -11.9494 -32.6999 3.1177 16.6743 -7.4299 42.9769
#
#
#
# Elastic Compliance Matrix: (Units=1/GPa)
#
#
# Indices 1 2 3 4 5 6 
#
# 1 0.016479 0.000105 -0.005432 0.000506 -0.010377 0.003065
# 2 0.000105 0.008141 -0.002070 -0.006640 -0.004929 0.008097
# 3 -0.005432 -0.002070 0.012807 -0.004762 -0.003494 -0.002771
# 4 0.000506 -0.006640 -0.004762 0.032369 0.012231 -0.015010
# 5 -0.010377 -0.004929 -0.003494 0.012231 0.047012 -0.003000
# 6 0.003065 0.008097 -0.002771 -0.015010 -0.003000 0.035788
#
#
# Mechanical properties :
#
#
# Convention : Reuss Voigt Hill
#
# Bulk Modulus (GPa) = 44.18477 82.18360 63.18419
# Shear Modulus (GPa) = 28.58221 43.97046 36.27633
#
# Velocity S-wave (km/s) = 3.28337 4.07242 3.69899
# Velocity P-wave (km/s) = 5.57130 7.28769 6.48652
#
# Compressibility (1/GPa) = 0.02263223
#
# Stress axis : x y z
#
# Youngs Moduli (GPa) = 60.68314 122.83945 78.08185
#
# Poissons Ratio (x) = -0.01289 0.42417
# Poissons Ratio (y) = -0.00637 0.16162
# Poissons Ratio (z) = 0.32966 0.25426
#
# Static dielectric constant tensor:
#      x y z
#    x 2.050820 -0.088420 0.035490 
#    y -0.088420 2.244070 -0.101410 
#    z 0.035490 -0.101410 2.203240 
# 
# From -- ./inp_files/159007.got.cif
#   From: 2010.05.17/outbox.cif.g08.bks.cpg/sg2_80_cif.got.tgz:159007.got - 2010.06.03 11:33:40.
