data_PCOD9049032
_publ_section_title
;
Structure prediction by ZEFSAII (Michael W. Deem and Ramdas Pophale) SiO2 
 PCOD9049032
Probable space group: P -1
;
_chemical_formula_sum "Si O2"
_cell_formula_units_Z 16
_cell_length_a 9.326098
_cell_length_b 11.554995
_cell_length_c 11.186208
_cell_angle_alpha 52.393925
_cell_angle_beta 89.440338
_cell_angle_gamma 125.299210
_cell_volume 645.489424
_symmetry_space_group_name_H-M "P -1"
_symmetry_group_IT_number 2
_symmetry_cell_setting 'triclinic'
loop_
_space_group_symop_operation_xyz
x,y,z
-x,-y,-z
loop_
_atom_site_type_symbol
_atom_site_label
_atom_site_fract_x
_atom_site_fract_y
_atom_site_fract_z
Si Si1 0.546288 0.308206 0.450678
Si Si2 0.209879 0.282153 0.680729
Si Si3 0.838253 0.078188 0.992098
Si Si4 0.246893 0.788633 0.607137
Si Si5 0.620852 0.604989 0.806341
Si Si6 0.099714 0.964822 0.361023
Si Si7 0.225592 0.818741 0.841702
Si Si8 0.525605 0.812054 0.969464
O O1 0.600354 0.464205 0.455070
O O2 0.736512 0.337813 0.399669
O O3 0.493308 0.363140 0.298486
O O4 0.352052 0.060260 0.648090
O O5 0.214258 0.123746 0.834056
O O6 0.125393 0.210281 0.591636
O O7 0.028411 0.216537 0.809645
O O8 0.898614 0.220659 0.016038
O O9 0.626642 0.957622 0.995378
O O10 0.500000 0.000000 0.500000
O O11 0.150395 0.858336 0.502660
O O12 0.135369 0.689240 0.799546
O O13 0.845320 0.845537 0.688118
O O14 0.500000 0.500000 0.000000
O O15 0.611019 0.437804 0.853442
O O16 0.272951 0.087710 0.174733
O O17 0.392502 0.826508 0.885250
#
# Coordination Sequence:
#
# PCOD9049032 Si02
#       8
#     2   2   2   2   2   2   2   2
#     4  11  20  38  64  91 118 159 203 248 290 357
#     4  10  23  40  60  87 124 161 199 237 307 364
#     4  10  22  40  59  85 127 163 193 247 303 356
#     4  10  17  34  59  89 117 152 199 247 298 341
#     4  10  18  31  61  90 113 156 209 243 277 354
#     4  10  18  35  60  87 118 158 198 245 292 358
#     4  11  21  37  64  91 122 152 203 255 294 344
#     4  10  18  35  59  89 116 156 207 245 290 348
#
# _framework density 24.787391
#
# number of rings (size 3 to 8) (size 9 to 14) (size 15 to 20)
#    0.000    1.750    6.250    1.125    1.750    1.000 
#    0.000    1.250    0.000    0.000    0.000    0.000 
#    0.000    0.000    0.000    0.000    0.000    0.000 
#
# Total GULP energy -89482.885037 kJ/mol
# GULP energy per Si atom -5592.680315 kJ/mol
# Density = 2.473097 g / cm^3
# Si number density = 24.787391 Si / 1000 Ang^3
#
#
#
# Elastic Constant Matrix: (Units=GPa)
#
#
# Indices 1 2 3 4 5 6 
#
# 1 49.1606 17.1555 20.7408 -2.1808 12.9576 -7.9448
# 2 17.1555 84.6274 7.7848 7.8412 7.7516 -11.9531
# 3 20.7408 7.7848 98.7331 2.1890 12.8528 8.5499
# 4 -2.1808 7.8412 2.1890 30.8344 -0.9986 5.9887
# 5 12.9576 7.7516 12.8528 -0.9986 47.0072 12.4783
# 6 -7.9448 -11.9531 8.5499 5.9887 12.4783 39.7421
#
#
#
# Elastic Compliance Matrix: (Units=1/GPa)
#
#
# Indices 1 2 3 4 5 6 
#
# 1 0.026927 -0.003362 -0.005110 0.001404 -0.007459 0.007602
# 2 -0.003362 0.013973 -0.000380 -0.004866 -0.002761 0.005212
# 3 -0.005110 -0.000380 0.011638 -0.000477 -0.000844 -0.003302
# 4 0.001404 -0.004866 -0.000477 0.035352 0.003270 -0.007434
# 5 -0.007459 -0.002761 -0.000844 0.003270 0.027037 -0.011122
# 6 0.007602 0.005212 -0.003302 -0.007434 -0.011122 0.033572
#
#
# Mechanical properties :
#
#
# Convention : Reuss Voigt Hill
#
# Bulk Modulus (GPa) = 28.70620 35.98704 32.34662
# Shear Modulus (GPa) = 28.11925 35.97274 32.04600
#
# Velocity S-wave (km/s) = 3.37177 3.81366 3.59950
# Velocity P-wave (km/s) = 5.17344 5.82596 5.50937
#
# Compressibility (1/GPa) = 0.03483568
#
# Stress axis : x y z
#
# Youngs Moduli (GPa) = 37.13695 71.56753 85.92414
#
# Poissons Ratio (x) = 0.24059 0.43907
# Poissons Ratio (y) = 0.12485 0.03262
# Poissons Ratio (z) = 0.18977 0.02717
#
# Static dielectric constant tensor:
#      x y z
#    x 2.037080 0.025130 -0.111940 
#    y 0.025130 2.047760 -0.016100 
#    z -0.111940 -0.016100 1.958930 
# 
# From -- ./inp_files/389117.got.cif
#   From: 2010.05.17/outbox.cif.g08.bks.cpg/sg2_195_cif.got.tgz:389117.got - 2010.06.03 11:33:40.
