data_PCOD9049209
_publ_section_title
;
Structure prediction by ZEFSAII (Michael W. Deem and Ramdas Pophale) SiO2 
 PCOD9049209
Probable space group: P -1
;
_chemical_formula_sum "Si O2"
_cell_formula_units_Z 14
_cell_length_a 17.823472
_cell_length_b 9.913087
_cell_length_c 14.482140
_cell_angle_alpha 132.951522
_cell_angle_beta 159.594669
_cell_angle_gamma 49.345431
_cell_volume 652.156165
_symmetry_space_group_name_H-M "P -1"
_symmetry_group_IT_number 2
_symmetry_cell_setting 'triclinic'
loop_
_space_group_symop_operation_xyz
x,y,z
-x,-y,-z
loop_
_atom_site_type_symbol
_atom_site_label
_atom_site_fract_x
_atom_site_fract_y
_atom_site_fract_z
Si Si1 0.879253 0.926179 0.094461
Si Si2 0.415336 0.408771 0.453148
Si Si3 0.486336 0.777304 0.166998
Si Si4 0.441669 0.373799 0.015141
Si Si5 0.912059 0.915797 0.766699
Si Si6 0.850051 0.334311 0.592827
Si Si7 0.165495 0.545837 0.925017
O O1 0.711099 0.771262 0.801979
O O2 0.741197 0.111889 0.046891
O O3 0.027311 0.847115 0.310866
O O4 0.023793 0.963815 0.189860
O O5 0.500000 0.500000 0.500000
O O6 0.250673 0.549270 0.383061
O O7 0.620994 0.379880 0.745106
O O8 0.473431 0.581802 0.111733
O O9 0.658699 0.895013 0.472921
O O10 0.580062 0.744516 0.156971
O O11 0.653086 0.304049 0.282516
O O12 0.246110 0.396629 0.871952
O O13 0.026710 0.712040 0.795501
O O14 0.000000 0.000000 0.000000
O O15 0.020011 0.454627 0.791344
#
# Coordination Sequence:
#
# PCOD9049209 Si02
#       7
#     2   2   2   2   2   2   2
#     4  12  26  41  67 103 136 172 223 278 337 390
#     4  11  24  40  68  97 138 177 218 269 336 405
#     4  11  25  45  68 101 133 177 227 281 325 392
#     4  10  24  46  70  95 135 178 231 272 329 399
#     4  12  26  40  68 102 137 170 220 280 338 394
#     4  11  24  43  68  99 132 178 219 273 338 398
#     4  11  22  42  67  97 131 182 218 272 334 397
#
# _framework density 21.467251999999998
#
# number of rings (size 3 to 8) (size 9 to 14) (size 15 to 20)
#    0.000    0.857    4.286    2.143    6.000    3.429 
#    0.000    1.429    0.000    0.000    0.000    0.000 
#    0.000    0.000    0.000    0.000    0.000    0.000 
#
# Total GULP energy -78368.552371 kJ/mol
# GULP energy per Si atom -5597.753741 kJ/mol
# Density = 2.141839 g / cm^3
# Si number density = 21.467252 Si / 1000 Ang^3
#
#
#
# Elastic Constant Matrix: (Units=GPa)
#
#
# Indices 1 2 3 4 5 6 
#
# 1 102.5002 8.5548 16.1265 1.1749 6.2544 6.6029
# 2 8.5548 57.8140 27.5744 -23.9482 -5.8675 21.5844
# 3 16.1265 27.5744 53.3310 -23.0642 1.0474 1.1403
# 4 1.1749 -23.9482 -23.0642 38.2324 5.1583 -0.0913
# 5 6.2544 -5.8675 1.0474 5.1583 35.3608 1.5596
# 6 6.6029 21.5844 1.1403 -0.0913 1.5596 34.9664
#
#
#
# Elastic Compliance Matrix: (Units=1/GPa)
#
#
# Indices 1 2 3 4 5 6 
#
# 1 0.010673 -0.000234 -0.004297 -0.002895 -0.001303 -0.001680
# 2 -0.000234 0.040143 -0.013205 0.016346 0.005790 -0.024520
# 3 -0.004297 -0.013205 0.031846 0.011691 -0.004439 0.008153
# 4 -0.002895 0.016346 0.011691 0.043932 -0.003104 -0.009672
# 5 -0.001303 0.005790 -0.004439 -0.003104 0.030256 -0.004541
# 6 -0.001680 -0.024520 0.008153 -0.009672 -0.004541 0.043964
#
#
# Mechanical properties :
#
#
# Convention : Reuss Voigt Hill
#
# Bulk Modulus (GPa) = 21.19061 35.35074 28.27068
# Shear Modulus (GPa) = 19.84012 32.47123 26.15567
#
# Velocity S-wave (km/s) = 3.04337 3.89343 3.49434
# Velocity P-wave (km/s) = 4.71615 6.05927 5.42940
#
# Compressibility (1/GPa) = 0.04719071
#
# Stress axis : x y z
#
# Youngs Moduli (GPa) = 93.69864 24.91108 31.40073
#
# Poissons Ratio (x) = 0.00583 0.13492
# Poissons Ratio (y) = 0.02192 0.41464
# Poissons Ratio (z) = 0.40259 0.32895
#
# Static dielectric constant tensor:
#      x y z
#    x 1.758870 -0.012920 0.007220 
#    y -0.012920 1.772450 -0.004160 
#    z 0.007220 -0.004160 1.781350 
# 
# From -- ./inp_files/27237.got.cif
#   From: 2010.05.17/outbox.cif.g08.bks.cpg/sg2_14_cif.got.tgz:27237.got - 2010.06.03 11:33:40.
