data_PCOD9049878
_publ_section_title
;
Structure prediction by ZEFSAII (Michael W. Deem and Ramdas Pophale) SiO2 
 PCOD9049878
Probable space group: P -1
;
_chemical_formula_sum "Si O2"
_cell_formula_units_Z 13
_cell_length_a 6.424017
_cell_length_b 14.517391
_cell_length_c 5.956134
_cell_angle_alpha 107.099658
_cell_angle_beta 98.037592
_cell_angle_gamma 87.047845
_cell_volume 525.667140
_symmetry_space_group_name_H-M "P -1"
_symmetry_group_IT_number 2
_symmetry_cell_setting 'triclinic'
loop_
_space_group_symop_operation_xyz
x,y,z
-x,-y,-z
loop_
_atom_site_type_symbol
_atom_site_label
_atom_site_fract_x
_atom_site_fract_y
_atom_site_fract_z
Si Si1 0.553784 0.784986 0.188090
Si Si2 0.576204 0.636457 0.722065
Si Si3 0.110784 0.429072 0.642669
Si Si4 0.395978 0.981678 0.213891
Si Si5 0.500000 0.500000 0.000000
Si Si6 0.774173 0.278401 0.550698
Si Si7 0.065615 0.097273 0.448656
O O1 0.391248 0.866628 0.134582
O O2 0.405231 0.724453 0.287519
O O3 0.751972 0.839999 0.361718
O O4 0.649179 0.714262 0.969242
O O5 0.732011 0.633152 0.536048
O O6 0.349509 0.678867 0.648810
O O7 0.549378 0.536617 0.774717
O O8 0.000000 0.500000 0.500000
O O9 0.953384 0.354749 0.680617
O O10 0.254234 0.482519 0.880503
O O11 0.500000 0.000000 0.500000
O O12 0.189379 0.049254 0.225084
O O13 0.500000 0.000000 0.000000
O O14 0.871981 0.171722 0.447469
O O15 0.000000 0.000000 0.500000
#
# Coordination Sequence:
#
# PCOD9049878 Si02
#       7
#     2   2   2   2   1   2   2
#     4  11  27  48  77 113 166 218 278 346 423 503
#     4  12  28  48  79 119 160 213 271 362 411 519
#     4  12  29  54  84 119 161 215 281 342 434 515
#     4  10  24  47  78 111 164 221 278 349 413 502
#     4  12  26  54  82 112 162 204 276 348 422 510
#     4  12  26  50  79 115 168 213 280 349 420 503
#     4  11  24  50  79 117 164 223 285 344 423 506
#
# _framework density 24.730475999999999
#
# number of rings (size 3 to 8) (size 9 to 14) (size 15 to 20)
#    0.000    0.615    3.077    3.231    8.615    3.077 
#    5.538    3.846    0.000    0.000    0.000    0.000 
#    0.000    0.000    0.000    0.000    0.000    0.000 
#
# Total GULP energy -72409.174436 kJ/mol
# GULP energy per Si atom -5569.936495 kJ/mol
# Density = 2.467419 g / cm^3
# Si number density = 24.730476 Si / 1000 Ang^3
#
#
#
# Elastic Constant Matrix: (Units=GPa)
#
#
# Indices 1 2 3 4 5 6 
#
# 1 134.1574 55.3533 60.1508 3.0516 5.4840 0.3939
# 2 55.3533 101.1815 41.0330 -12.6388 8.0296 5.2948
# 3 60.1508 41.0330 99.4697 -15.5436 -1.9760 -0.9743
# 4 3.0516 -12.6388 -15.5436 33.7308 -7.9805 -1.7999
# 5 5.4840 8.0296 -1.9760 -7.9805 52.7697 5.2770
# 6 0.3939 5.2948 -0.9743 -1.7999 5.2770 68.3978
#
#
#
# Elastic Compliance Matrix: (Units=1/GPa)
#
#
# Indices 1 2 3 4 5 6 
#
# 1 0.012711 -0.004909 -0.006713 -0.006505 -0.001827 0.000181
# 2 -0.004909 0.014139 -0.002196 0.004455 -0.000959 -0.000906
# 3 -0.006713 -0.002196 0.016328 0.007996 0.002809 0.000435
# 4 -0.006505 0.004455 0.007996 0.036993 0.005859 0.000328
# 5 -0.001827 -0.000959 0.002809 0.005859 0.020407 -0.001295
# 6 0.000181 -0.000906 0.000435 0.000328 -0.001295 0.014804
#
#
# Mechanical properties :
#
#
# Convention : Reuss Voigt Hill
#
# Bulk Modulus (GPa) = 64.33599 71.98697 68.16148
# Shear Modulus (GPa) = 33.73843 42.86442 38.30143
#
# Velocity S-wave (km/s) = 3.69758 4.16776 3.93969
# Velocity P-wave (km/s) = 6.65588 7.23410 6.95100
#
# Compressibility (1/GPa) = 0.01554340
#
# Stress axis : x y z
#
# Youngs Moduli (GPa) = 78.67135 70.72525 61.24361
#
# Poissons Ratio (x) = 0.34716 0.41111
# Poissons Ratio (y) = 0.38617 0.13450
# Poissons Ratio (z) = 0.52810 0.15533
#
# Static dielectric constant tensor:
#      x y z
#    x 2.044310 -0.087570 -0.011260 
#    y -0.087570 2.106230 0.036210 
#    z -0.011260 0.036210 2.032130 
# 
# From -- ./inp_files/4710.got.cif
#   From: 2010.05.17/outbox.cif.g08.bks.cpg/sg2_3_cif.got.tgz:4710.got - 2010.06.03 11:33:40.
