data_PCOD9049595
_publ_section_title
;
Structure prediction by ZEFSAII (Michael W. Deem and Ramdas Pophale) SiO2 
 PCOD9049595
Probable space group: P -1
;
_chemical_formula_sum "Si O2"
_cell_formula_units_Z 16
_cell_length_a 11.378809
_cell_length_b 9.084500
_cell_length_c 20.381704
_cell_angle_alpha 128.210226
_cell_angle_beta 32.461089
_cell_angle_gamma 140.582309
_cell_volume 714.599867
_symmetry_space_group_name_H-M "P -1"
_symmetry_group_IT_number 2
_symmetry_cell_setting 'triclinic'
loop_
_space_group_symop_operation_xyz
x,y,z
-x,-y,-z
loop_
_atom_site_type_symbol
_atom_site_label
_atom_site_fract_x
_atom_site_fract_y
_atom_site_fract_z
Si Si1 0.680089 0.124390 0.843959
Si Si2 0.918694 0.916257 0.747308
Si Si3 0.029306 0.309488 0.464511
Si Si4 0.721850 0.753708 0.933354
Si Si5 0.775369 0.802028 0.114945
Si Si6 0.089765 0.602793 0.856203
Si Si7 0.357634 0.409978 0.741800
Si Si8 0.397251 0.921950 0.281748
O O1 0.723339 0.107754 0.742092
O O2 0.906257 0.381374 0.835487
O O3 0.694890 0.947622 0.832675
O O4 0.404063 0.101417 0.973305
O O5 0.805422 0.747076 0.817268
O O6 0.009242 0.844411 0.622272
O O7 0.171602 0.167434 0.723631
O O8 0.814894 0.176431 0.587006
O O9 0.000000 0.500000 0.500000
O O10 0.331988 0.427482 0.382654
O O11 0.500000 0.500000 0.000000
O O12 0.993970 0.931612 0.896237
O O13 0.628996 0.652949 0.207544
O O14 0.558226 0.804932 0.175052
O O15 0.920962 0.695156 0.986248
O O16 0.202671 0.528379 0.840787
O O17 0.361465 0.806914 0.748141
#
# Coordination Sequence:
#
# PCOD9049595 Si02
#       8
#     2   2   2   2   2   2   2   2
#     4  11  25  42  69 104 140 184 221 286 354 410
#     4  10  26  47  68 101 141 180 235 282 344 413
#     4  12  27  46  73  97 138 191 233 282 338 415
#     4  11  24  41  72 106 140 180 225 288 351 411
#     4  11  23  44  68 103 143 176 226 290 345 412
#     4  11  24  42  72 101 140 174 225 291 351 406
#     4  10  24  47  68 103 133 181 229 284 351 406
#     4  12  26  45  65 105 140 180 240 277 341 408
#
# _framework density 22.390152
#
# number of rings (size 3 to 8) (size 9 to 14) (size 15 to 20)
#    0.000    1.000    2.500    2.625    5.250    3.500 
#    0.000    2.500    0.000    0.000    0.000    0.000 
#    0.000    0.000    0.000    0.000    0.000    0.000 
#
# Total GULP energy -89572.788455 kJ/mol
# GULP energy per Si atom -5598.299278 kJ/mol
# Density = 2.233919 g / cm^3
# Si number density = 22.390152 Si / 1000 Ang^3
#
#
#
# Elastic Constant Matrix: (Units=GPa)
#
#
# Indices 1 2 3 4 5 6 
#
# 1 112.5001 32.4597 27.3168 2.9983 1.3776 -1.4093
# 2 32.4597 86.3321 27.2307 -8.7975 5.7794 0.8886
# 3 27.3168 27.2307 98.1473 -12.8912 14.8452 2.5848
# 4 2.9983 -8.7975 -12.8912 33.4243 -5.7794 -2.4663
# 5 1.3776 5.7794 14.8452 -5.7794 34.0578 2.1134
# 6 -1.4093 0.8886 2.5848 -2.4663 2.1134 28.2230
#
#
#
# Elastic Compliance Matrix: (Units=1/GPa)
#
#
# Indices 1 2 3 4 5 6 
#
# 1 0.010568 -0.003530 -0.002438 -0.002645 0.000750 0.000575
# 2 -0.003530 0.014019 -0.002415 0.002952 -0.000677 -0.000088
# 3 -0.002438 -0.002415 0.012696 0.003684 -0.004366 -0.000560
# 4 -0.002645 0.002952 0.003684 0.033110 0.003491 0.002070
# 5 0.000750 -0.000677 -0.004366 0.003491 0.032043 -0.001636
# 6 0.000575 -0.000088 -0.000560 0.002070 -0.001636 0.035818
#
#
# Mechanical properties :
#
#
# Convention : Reuss Voigt Hill
#
# Bulk Modulus (GPa) = 48.73768 52.33265 50.53517
# Shear Modulus (GPa) = 30.89118 33.13919 32.01518
#
# Velocity S-wave (km/s) = 3.71843 3.85135 3.78547
# Velocity P-wave (km/s) = 6.34432 6.57275 6.45954
#
# Compressibility (1/GPa) = 0.02051801
#
# Stress axis : x y z
#
# Youngs Moduli (GPa) = 94.62617 71.33127 78.76420
#
# Poissons Ratio (x) = 0.25181 0.19202
# Poissons Ratio (y) = 0.33404 0.19018
# Poissons Ratio (z) = 0.23069 0.17224
#
# Static dielectric constant tensor:
#      x y z
#    x 1.857720 -0.010900 -0.009840 
#    y -0.010900 1.853310 0.011030 
#    z -0.009840 0.011030 1.802060 
# 
# From -- ./inp_files/567034.got.cif
#   From: 2010.05.17/outbox.cif.g08.bks.cpg/sg2_284_cif.got.tgz:567034.got - 2010.06.03 11:33:40.
