data_PCOD9049792
_publ_section_title
;
Structure prediction by ZEFSAII (Michael W. Deem and Ramdas Pophale) SiO2 
 PCOD9049792
Probable space group: P -1
;
_chemical_formula_sum "Si O2"
_cell_formula_units_Z 16
_cell_length_a 20.406309
_cell_length_b 8.689798
_cell_length_c 5.249772
_cell_angle_alpha 119.162683
_cell_angle_beta 64.279504
_cell_angle_gamma 130.535859
_cell_volume 608.095717
_symmetry_space_group_name_H-M "P -1"
_symmetry_group_IT_number 2
_symmetry_cell_setting 'triclinic'
loop_
_space_group_symop_operation_xyz
x,y,z
-x,-y,-z
loop_
_atom_site_type_symbol
_atom_site_label
_atom_site_fract_x
_atom_site_fract_y
_atom_site_fract_z
Si Si1 0.118828 0.654198 0.392955
Si Si2 0.355156 0.594434 0.056049
Si Si3 0.787625 0.687403 0.283846
Si Si4 0.927761 0.621328 0.245804
Si Si5 0.308372 0.180063 0.095702
Si Si6 0.701102 0.123325 0.499941
Si Si7 0.540122 0.734064 0.733080
Si Si8 0.930545 0.042933 0.034865
O O1 0.089511 0.480749 0.530310
O O2 0.224068 0.786969 0.340025
O O3 0.085038 0.799602 0.652158
O O4 0.084479 0.541451 0.088200
O O5 0.336113 0.376868 0.024231
O O6 0.318673 0.700589 0.379313
O O7 0.299118 0.528938 0.838731
O O8 0.458119 0.743780 0.952704
O O9 0.853931 0.664497 0.325046
O O10 0.754631 0.814902 0.589219
O O11 0.840035 0.816675 0.043556
O O12 0.023696 0.836189 0.207845
O O13 0.398037 0.233180 0.110706
O O14 0.265176 0.959177 0.843983
O O15 0.608690 0.918031 0.577255
O O16 0.500000 0.500000 0.500000
O O17 0.000000 0.000000 0.000000
#
# Coordination Sequence:
#
# PCOD9049792 Si02
#       8
#     2   2   2   2   2   2   2   2
#     4  12  25  49  76 112 153 195 257 311 385 452
#     4  12  25  48  72 107 150 193 256 312 379 455
#     4  11  24  48  73 105 150 198 250 313 377 458
#     4  11  26  49  77 111 152 198 252 322 373 460
#     4  12  25  45  73 104 146 200 246 319 378 454
#     4  12  28  45  76 109 145 199 253 311 385 454
#     4  12  25  47  71 104 150 193 250 316 382 454
#     4  10  24  47  74 111 148 200 247 309 387 449
#
# _framework density 26.311646
#
# number of rings (size 3 to 8) (size 9 to 14) (size 15 to 20)
#    0.000    0.500    3.750    3.750    3.500    1.500 
#    2.250    2.500    0.000    0.000    0.000    0.000 
#    0.000    0.000    0.000    0.000    0.000    0.000 
#
# Total GULP energy -89770.069806 kJ/mol
# GULP energy per Si atom -5610.629363 kJ/mol
# Density = 2.625176 g / cm^3
# Si number density = 26.311646 Si / 1000 Ang^3
#
#
#
# Elastic Constant Matrix: (Units=GPa)
#
#
# Indices 1 2 3 4 5 6 
#
# 1 123.7348 42.6284 40.7260 2.3615 -24.1615 4.0661
# 2 42.6284 71.1252 34.7236 -23.5114 -12.4101 -4.1031
# 3 40.7260 34.7236 119.5804 12.6323 -24.3830 -18.6634
# 4 2.3615 -23.5114 12.6323 50.1594 -6.3458 -11.6276
# 5 -24.1615 -12.4101 -24.3830 -6.3458 56.6275 -4.2750
# 6 4.0661 -4.1031 -18.6634 -11.6276 -4.2750 47.7746
#
#
#
# Elastic Compliance Matrix: (Units=1/GPa)
#
#
# Indices 1 2 3 4 5 6 
#
# 1 0.011721 -0.007525 -0.001423 -0.004165 0.002044 -0.003030
# 2 -0.007525 0.027481 -0.005862 0.016151 0.002465 0.004862
# 3 -0.001423 -0.005862 0.012224 -0.004535 0.003133 0.003570
# 4 -0.004165 0.016151 -0.004535 0.031171 0.003900 0.007905
# 5 0.002044 0.002465 0.003133 0.003900 0.021167 0.004105
# 6 -0.003030 0.004862 0.003570 0.007905 0.004105 0.025293
#
#
# Mechanical properties :
#
#
# Convention : Reuss Voigt Hill
#
# Bulk Modulus (GPa) = 45.85775 61.17738 53.51756
# Shear Modulus (GPa) = 30.13037 44.00313 37.06675
#
# Velocity S-wave (km/s) = 3.38765 4.09391 3.75741
# Velocity P-wave (km/s) = 5.72435 6.75636 6.26165
#
# Compressibility (1/GPa) = 0.02180657
#
# Stress axis : x y z
#
# Youngs Moduli (GPa) = 85.31882 36.38908 81.80309
#
# Poissons Ratio (x) = 0.27382 0.11641
# Poissons Ratio (y) = 0.64202 0.47951
# Poissons Ratio (z) = 0.12141 0.21330
#
# Static dielectric constant tensor:
#      x y z
#    x 2.030780 0.028570 0.003400 
#    y 0.028570 2.152980 -0.019950 
#    z 0.003400 -0.019950 2.062800 
# 
# From -- ./inp_files/117319.got.cif
#   From: 2010.05.17/outbox.cif.g08.bks.cpg/sg2_59_cif.got.tgz:117319.got - 2010.06.03 11:33:40.
