data_PCOD9049674
_publ_section_title
;
Structure prediction by ZEFSAII (Michael W. Deem and Ramdas Pophale) SiO2 
 PCOD9049674
Probable space group: P -1
;
_chemical_formula_sum "Si O2"
_cell_formula_units_Z 14
_cell_length_a 19.843422
_cell_length_b 6.626422
_cell_length_c 8.645003
_cell_angle_alpha 57.428204
_cell_angle_beta 141.246762
_cell_angle_gamma 120.493224
_cell_volume 591.319693
_symmetry_space_group_name_H-M "P -1"
_symmetry_group_IT_number 2
_symmetry_cell_setting 'triclinic'
loop_
_space_group_symop_operation_xyz
x,y,z
-x,-y,-z
loop_
_atom_site_type_symbol
_atom_site_label
_atom_site_fract_x
_atom_site_fract_y
_atom_site_fract_z
Si Si1 0.813089 0.452168 0.421874
Si Si2 0.437804 0.866933 0.293596
Si Si3 0.372412 0.308883 0.481021
Si Si4 0.888287 0.524063 0.199979
Si Si5 0.379031 0.335357 0.844080
Si Si6 0.035318 0.787753 0.752304
Si Si7 0.847181 0.993636 0.826610
O O1 0.809397 0.521944 0.205880
O O2 0.708232 0.517862 0.294645
O O3 0.922843 0.599285 0.634980
O O4 0.828950 0.172984 0.582961
O O5 0.377120 0.596318 0.339944
O O6 0.521147 0.792786 0.344015
O O7 0.500000 0.000000 0.500000
O O8 0.376873 0.075334 0.029746
O O9 0.354371 0.284392 0.641425
O O10 0.273907 0.137261 0.291019
O O11 0.870773 0.303044 0.143308
O O12 0.000000 0.500000 0.500000
O O13 0.904426 0.756329 0.019712
O O14 0.500000 0.500000 0.000000
O O15 0.000000 0.000000 0.500000
O O16 0.086285 0.860765 0.977175
#
# Coordination Sequence:
#
# PCOD9049674 Si02
#       7
#     2   2   2   2   2   2   2
#     4  11  27  45  76 110 140 205 241 297 378 418
#     4  11  25  49  81 100 148 192 245 301 371 426
#     4  11  28  46  72 115 138 198 241 302 372 428
#     4  10  24  47  71 103 145 190 243 303 360 422
#     4  12  26  50  77 106 152 186 248 305 357 442
#     4  11  24  50  73 105 151 189 247 304 358 436
#     4  12  26  46  73 105 153 182 250 296 362 445
#
# _framework density 23.675858000000002
#
# number of rings (size 3 to 8) (size 9 to 14) (size 15 to 20)
#    0.000    0.857    4.286    1.714    4.000    5.714 
#    0.000    0.000    0.000    0.000    0.000    0.000 
#    0.000    0.000    0.000    0.000    0.000    0.000 
#
# Total GULP energy -78229.525984 kJ/mol
# GULP energy per Si atom -5587.823285 kJ/mol
# Density = 2.362197 g / cm^3
# Si number density = 23.675858 Si / 1000 Ang^3
#
#
#
# Elastic Constant Matrix: (Units=GPa)
#
#
# Indices 1 2 3 4 5 6 
#
# 1 116.3970 23.6481 37.0162 -4.1251 4.6195 -16.3687
# 2 23.6481 118.8326 36.3029 -22.2400 -4.7413 14.7191
# 3 37.0162 36.3029 102.3104 -32.3781 -6.9287 9.2693
# 4 -4.1251 -22.2400 -32.3781 50.1014 8.3172 0.0573
# 5 4.6195 -4.7413 -6.9287 8.3172 32.5433 -2.4582
# 6 -16.3687 14.7191 9.2693 0.0573 -2.4582 41.2037
#
#
#
# Elastic Compliance Matrix: (Units=1/GPa)
#
#
# Indices 1 2 3 4 5 6 
#
# 1 0.011491 -0.002168 -0.005028 -0.002978 -0.001775 0.006369
# 2 -0.002168 0.010477 -0.001414 0.003512 0.000313 -0.004272
# 3 -0.005028 -0.001414 0.015372 0.008701 0.001187 -0.004892
# 4 -0.002978 0.003512 0.008701 0.027672 -0.004641 -0.004710
# 5 -0.001775 0.000313 0.001187 -0.004641 0.032530 0.000863
# 6 0.006369 -0.004272 -0.004892 -0.004710 0.000863 0.029484
#
#
# Mechanical properties :
#
#
# Convention : Reuss Voigt Hill
#
# Bulk Modulus (GPa) = 49.69786 59.05271 54.37528
# Shear Modulus (GPa) = 33.12259 40.80785 36.96522
#
# Velocity S-wave (km/s) = 3.74438 4.15614 3.95562
# Velocity P-wave (km/s) = 6.30320 6.93020 6.62412
#
# Compressibility (1/GPa) = 0.02012159
#
# Stress axis : x y z
#
# Youngs Moduli (GPa) = 87.02245 95.44363 65.05190
#
# Poissons Ratio (x) = 0.20690 0.32709
# Poissons Ratio (y) = 0.18865 0.09197
# Poissons Ratio (z) = 0.43756 0.13494
#
# Static dielectric constant tensor:
#      x y z
#    x 1.918900 0.007580 0.050020 
#    y 0.007580 1.947910 -0.039790 
#    z 0.050020 -0.039790 1.896730 
# 
# From -- ./inp_files/340217.got.cif
#   From: 2010.05.17/outbox.cif.g08.bks.cpg/sg2_171_cif.got.tgz:340217.got - 2010.06.03 11:33:40.
