data_PCOD9049875
_publ_section_title
;
Structure prediction by ZEFSAII (Michael W. Deem and Ramdas Pophale) SiO2 
 PCOD9049875
Probable space group: P -1
;
_chemical_formula_sum "Si O2"
_cell_formula_units_Z 12
_cell_length_a 7.396568
_cell_length_b 9.487777
_cell_length_c 10.021021
_cell_angle_alpha 120.374574
_cell_angle_beta 96.012264
_cell_angle_gamma 116.865612
_cell_volume 487.864482
_symmetry_space_group_name_H-M "P -1"
_symmetry_group_IT_number 2
_symmetry_cell_setting 'triclinic'
loop_
_space_group_symop_operation_xyz
x,y,z
-x,-y,-z
loop_
_atom_site_type_symbol
_atom_site_label
_atom_site_fract_x
_atom_site_fract_y
_atom_site_fract_z
Si Si1 0.248312 0.694047 0.076722
Si Si2 0.605107 0.801925 0.369987
Si Si3 0.847621 0.356956 0.251312
Si Si4 0.996004 0.795773 0.499781
Si Si5 0.535771 0.846966 0.679092
Si Si6 0.893826 0.824796 0.798854
O O1 0.426987 0.700070 0.189295
O O2 0.288216 0.910126 0.200809
O O3 0.279591 0.682278 0.916548
O O4 0.000000 0.500000 0.000000
O O5 0.792084 0.759244 0.377197
O O6 0.491919 0.762449 0.486379
O O7 0.764988 0.043184 0.470605
O O8 0.672135 0.201679 0.273466
O O9 0.053928 0.419561 0.587796
O O10 0.038165 0.321648 0.225621
O O11 0.985985 0.886200 0.683234
O O12 0.638977 0.748633 0.722306
O O13 0.000000 0.000000 0.000000
#
# Coordination Sequence:
#
# PCOD9049875 Si02
#       6
#     2   2   2   2   2   2
#     4  12  26  43  71 108 148 193 241 299 368 439
#     4  10  24  48  75 104 151 196 242 302 372 437
#     4  12  26  46  76 112 145 189 252 303 366 438
#     4  10  24  47  78 108 143 197 247 302 367 439
#     4  11  25  48  74 106 147 198 242 306 368 430
#     4  11  24  44  73 106 149 190 242 304 364 433
#
# _framework density 24.596995
#
# number of rings (size 3 to 8) (size 9 to 14) (size 15 to 20)
#    0.000    1.000    1.667    3.500    2.333    7.333 
#    0.000    0.000    0.000    0.000    0.000    0.000 
#    0.000    0.000    0.000    0.000    0.000    0.000 
#
# Total GULP energy -67229.488103 kJ/mol
# GULP energy per Si atom -5602.457342 kJ/mol
# Density = 2.454101 g / cm^3
# Si number density = 24.596995 Si / 1000 Ang^3
#
#
#
# Elastic Constant Matrix: (Units=GPa)
#
#
# Indices 1 2 3 4 5 6 
#
# 1 125.8132 31.8515 58.1597 8.9242 23.9314 -13.8480
# 2 31.8515 109.7700 51.1682 14.3763 5.9265 -1.7260
# 3 58.1597 51.1682 183.9763 -22.2414 22.1165 3.8828
# 4 8.9242 14.3763 -22.2414 43.6884 -5.7953 -2.5611
# 5 23.9314 5.9265 22.1165 -5.7953 51.8992 -2.7760
# 6 -13.8480 -1.7260 3.8828 -2.5611 -2.7760 37.3144
#
#
#
# Elastic Compliance Matrix: (Units=1/GPa)
#
#
# Indices 1 2 3 4 5 6 
#
# 1 0.011186 -0.000866 -0.003400 -0.004013 -0.003849 0.003903
# 2 -0.000866 0.011816 -0.003693 -0.005576 0.000013 0.000228
# 3 -0.003400 -0.003693 0.008423 0.005944 -0.001042 -0.001979
# 4 -0.004013 -0.005576 0.005944 0.028984 0.003183 -0.000139
# 5 -0.003849 0.000013 -0.001042 0.003183 0.021869 0.000526
# 6 0.003903 0.000228 -0.001979 -0.000139 0.000526 0.028494
#
#
# Mechanical properties :
#
#
# Convention : Reuss Voigt Hill
#
# Bulk Modulus (GPa) = 64.48943 77.99092 71.24017
# Shear Modulus (GPa) = 37.91944 45.13904 41.52924
#
# Velocity S-wave (km/s) = 3.93062 4.28851 4.11346
# Velocity P-wave (km/s) = 6.84653 7.50320 7.18238
#
# Compressibility (1/GPa) = 0.01550642
#
# Stress axis : x y z
#
# Youngs Moduli (GPa) = 89.39997 84.63160 118.72302
#
# Poissons Ratio (x) = 0.07330 0.40365
# Poissons Ratio (y) = 0.07743 0.43845
# Poissons Ratio (z) = 0.30395 0.31255
#
# Static dielectric constant tensor:
#      x y z
#    x 1.974450 -0.039120 0.044350 
#    y -0.039120 1.930530 -0.026630 
#    z 0.044350 -0.026630 1.938120 
# 
# From -- ./inp_files/181707.got.cif
#   From: 2010.05.17/outbox.cif.g08.bks.cpg/sg2_91_cif.got.tgz:181707.got - 2010.06.03 11:33:40.
