data_PCOD9049321
_publ_section_title
;
Structure prediction by ZEFSAII (Michael W. Deem and Ramdas Pophale) SiO2 
 PCOD9049321
Probable space group: P -1
;
_chemical_formula_sum "Si O2"
_cell_formula_units_Z 15
_cell_length_a 17.295378
_cell_length_b 7.814459
_cell_length_c 6.685848
_cell_angle_alpha 77.133894
_cell_angle_beta 69.798696
_cell_angle_gamma 49.939417
_cell_volume 649.054309
_symmetry_space_group_name_H-M "P -1"
_symmetry_group_IT_number 2
_symmetry_cell_setting 'triclinic'
loop_
_space_group_symop_operation_xyz
x,y,z
-x,-y,-z
loop_
_atom_site_type_symbol
_atom_site_label
_atom_site_fract_x
_atom_site_fract_y
_atom_site_fract_z
Si Si1 0.204320 0.122877 0.663625
Si Si2 0.535049 0.803424 0.673992
Si Si3 0.590026 0.352161 0.289485
Si Si4 0.267753 0.416455 0.649507
Si Si5 0.866411 0.267978 0.621275
Si Si6 0.338261 0.382644 0.030026
Si Si7 0.066182 0.201787 0.401780
Si Si8 0.000000 0.500000 0.000000
O O1 0.261227 0.236132 0.598818
O O2 0.151552 0.163492 0.485874
O O3 0.294557 0.858590 0.683297
O O4 0.111538 0.259835 0.874689
O O5 0.451869 0.758059 0.773926
O O6 0.639166 0.592389 0.525969
O O7 0.578844 0.815700 0.841959
O O8 0.500000 0.000000 0.500000
O O9 0.500000 0.500000 0.500000
O O10 0.607429 0.506382 0.110516
O O11 0.161314 0.651021 0.609642
O O12 0.297325 0.350498 0.870154
O O13 0.767040 0.445317 0.796017
O O14 0.964476 0.258851 0.594040
O O15 0.891416 0.031380 0.678781
O O16 0.026520 0.392121 0.227263
#
# Coordination Sequence:
#
# PCOD9049321 Si02
#       8
#     2   2   2   2   2   2   2   1
#     4  12  27  45  75 108 152 189 244 306 366 437
#     4  11  24  47  70 104 145 188 246 303 370 434
#     4  12  25  50  75 108 147 192 250 307 366 441
#     4  11  23  45  69 105 143 191 245 302 361 442
#     4  10  24  46  72 104 148 192 244 301 370 436
#     4  11  25  44  75 104 145 193 243 304 368 440
#     4  11  25  46  73 106 149 196 241 309 363 439
#     4  12  26  46  72 112 142 192 248 292 374 428
#
# _framework density 23.110545999999999
#
# number of rings (size 3 to 8) (size 9 to 14) (size 15 to 20)
#    0.000    0.800    4.000    2.400    3.733    1.600 
#    2.400    3.333    0.000    0.000    0.000    0.000 
#    0.000    0.000    0.000    0.000    0.000    0.000 
#
# Total GULP energy -83557.666761 kJ/mol
# GULP energy per Si atom -5570.511117 kJ/mol
# Density = 2.305794 g / cm^3
# Si number density = 23.110546 Si / 1000 Ang^3
#
#
#
# Elastic Constant Matrix: (Units=GPa)
#
#
# Indices 1 2 3 4 5 6 
#
# 1 146.4077 31.5401 52.7405 -15.4278 25.3563 -9.3650
# 2 31.5401 108.8393 38.6093 -9.0236 13.8236 -21.6125
# 3 52.7405 38.6093 99.5861 -2.9782 9.9823 -12.9608
# 4 -15.4278 -9.0236 -2.9782 50.0436 -17.4549 -3.9201
# 5 25.3563 13.8236 9.9823 -17.4549 20.8470 -3.0993
# 6 -9.3650 -21.6125 -12.9608 -3.9201 -3.0993 35.0654
#
#
#
# Elastic Compliance Matrix: (Units=1/GPa)
#
#
# Indices 1 2 3 4 5 6 
#
# 1 0.010223 -0.000114 -0.004284 -0.001020 -0.011165 -0.000024
# 2 -0.000114 0.012294 -0.003423 0.000745 -0.004868 0.005934
# 3 -0.004284 -0.003423 0.013801 -0.000817 0.000455 0.001796
# 4 -0.001020 0.000745 -0.000817 0.029481 0.026645 0.005535
# 5 -0.011165 -0.004868 0.000455 0.026645 0.087598 0.004907
# 6 -0.000024 0.005934 0.001796 0.005535 0.004907 0.033886
#
#
# Mechanical properties :
#
#
# Convention : Reuss Voigt Hill
#
# Bulk Modulus (GPa) = 48.36836 66.73477 57.55156
# Shear Modulus (GPa) = 23.83031 36.65408 30.24219
#
# Velocity S-wave (km/s) = 3.21463 3.98682 3.62137
# Velocity P-wave (km/s) = 5.89517 7.08040 6.51479
#
# Compressibility (1/GPa) = 0.02067467
#
# Stress axis : x y z
#
# Youngs Moduli (GPa) = 97.82199 81.34229 72.45658
#
# Poissons Ratio (x) = 0.00928 0.31042
# Poissons Ratio (y) = 0.01115 0.24804
# Poissons Ratio (z) = 0.41909 0.27846
#
# Static dielectric constant tensor:
#      x y z
#    x 1.916250 -0.023680 0.019810 
#    y -0.023680 1.916210 0.017190 
#    z 0.019810 0.017190 1.878220 
# 
# From -- ./inp_files/104925.got.cif
#   From: 2010.05.17/outbox.cif.g08.bks.cpg/sg2_53_cif.got.tgz:104925.got - 2010.06.03 11:33:40.
