data_PCOD9049955
_publ_section_title
;
Structure prediction by ZEFSAII (Michael W. Deem and Ramdas Pophale) SiO2 
 PCOD9049955
Probable space group: P -1
;
_chemical_formula_sum "Si O2"
_cell_formula_units_Z 15
_cell_length_a 18.282304
_cell_length_b 7.042575
_cell_length_c 18.328502
_cell_angle_alpha 89.949109
_cell_angle_beta 163.956225
_cell_angle_gamma 90.051507
_cell_volume 652.202960
_symmetry_space_group_name_H-M "P -1"
_symmetry_group_IT_number 2
_symmetry_cell_setting 'triclinic'
loop_
_space_group_symop_operation_xyz
x,y,z
-x,-y,-z
loop_
_atom_site_type_symbol
_atom_site_label
_atom_site_fract_x
_atom_site_fract_y
_atom_site_fract_z
Si Si1 0.073205 0.743270 0.737510
Si Si2 0.435125 0.500870 0.546305
Si Si3 0.524017 0.780624 0.283436
Si Si4 0.222987 0.499901 0.774619
Si Si5 0.524003 0.218348 0.283345
Si Si6 0.000000 0.500000 0.000000
Si Si7 0.221867 0.999876 0.774807
Si Si8 0.926848 0.744014 0.262574
O O1 0.759094 0.741638 0.451242
O O2 0.103976 0.499692 0.745934
O O3 0.218076 0.751732 0.793448
O O4 0.251117 0.737240 0.980946
O O5 0.429299 0.326904 0.597069
O O6 0.429156 0.674200 0.597083
O O7 0.717197 0.501081 0.775519
O O8 0.182938 0.500993 0.251225
O O9 0.530265 0.999469 0.306522
O O10 0.000000 0.500000 0.500000
O O11 0.218072 0.247935 0.793434
O O12 0.500000 0.500000 0.000000
O O13 0.758998 0.257475 0.451030
O O14 0.251003 0.261748 0.980805
O O15 0.000000 0.000000 0.500000
O O16 0.104354 0.999662 0.750398
O O17 0.500000 0.000000 0.000000
#
# Coordination Sequence:
#
# PCOD9049955 Si02
#       8
#     2   2   2   2   2   1   2   2
#     4  12  23  40  59  89 125 163 223 276 325 384
#     4  11  24  45  74  99 138 173 204 259 320 381
#     4  12  23  43  67 101 128 168 218 269 319 383
#     4  12  24  40  58  83 118 169 224 277 342 397
#     4  12  23  43  67 101 128 168 218 269 319 383
#     4  10  24  48  70 106 140 170 208 244 314 410
#     4  12  22  36  54  80 120 167 210 265 330 372
#     4  12  23  40  59  89 125 163 223 276 325 384
#
# _framework density 22.998974
#
# number of rings (size 3 to 8) (size 9 to 14) (size 15 to 20)
#    0.000    0.267    2.667    8.000    0.000    0.000 
#    0.000    4.000    0.000    0.000    0.000    0.000 
#    0.000    0.000    0.000    0.000    0.000    0.000 
#
# Total GULP energy -83542.366463 kJ/mol
# GULP energy per Si atom -5569.491098 kJ/mol
# Density = 2.294663 g / cm^3
# Si number density = 22.998974 Si / 1000 Ang^3
#
#
#
# Elastic Constant Matrix: (Units=GPa)
#
#
# Indices 1 2 3 4 5 6 
#
# 1 91.0174 29.5821 15.2281 0.2975 -16.6176 -0.4561
# 2 29.5821 166.6895 -19.6371 0.2104 -2.5133 -0.0986
# 3 15.2281 -19.6371 114.9414 0.0418 -3.6734 -0.0132
# 4 0.2975 0.2104 0.0418 36.8431 -0.1613 8.8259
# 5 -16.6176 -2.5133 -3.6734 -0.1613 45.7077 0.0938
# 6 -0.4561 -0.0986 -0.0132 8.8259 0.0938 -8.2385
#
#
#
# Elastic Compliance Matrix: (Units=1/GPa)
#
#
# Indices 1 2 3 4 5 6 
#
# 1 0.012921 -0.002462 -0.001992 0.000066 0.004404 -0.000562
# 2 -0.002462 0.006600 0.001440 -0.000026 -0.000417 0.000022
# 3 -0.001992 0.001440 0.009213 -0.000017 0.000095 0.000061
# 4 0.000066 -0.000026 -0.000017 0.021600 0.000050 0.023137
# 5 0.004404 -0.000417 0.000095 0.000050 0.023464 0.000082
# 6 -0.000562 0.000022 0.000061 0.023137 0.000082 -0.096563
#
#
# Mechanical properties :
#
#
# Convention : Reuss Voigt Hill
#
# Bulk Modulus (GPa) = 44.03861 46.99941 45.51901
# Shear Modulus (GPa) = -545.25537 38.02746 -253.61396
#
# Velocity S-wave (km/s) = -15.41405 4.07066 -10.51243
# Velocity P-wave (km/s) = 17.25111 6.52484 11.29219
#
# Compressibility (1/GPa) = 0.02270734
#
# Stress axis : x y z
#
# Youngs Moduli (GPa) = 77.39192 151.52626 108.54100
#
# Poissons Ratio (x) = 0.37302 0.21619
# Poissons Ratio (y) = 0.19052 -0.15634
# Poissons Ratio (z) = 0.15415 -0.21825
#
# Static dielectric constant tensor:
#      x y z
#    x 1.745620 -0.000770 -0.005070 
#    y -0.000770 2.596860 0.000010 
#    z -0.005070 0.000010 1.627960 
# 
# From -- ./inp_files/528693.got.cif
#   From: 2010.05.17/outbox.cif.g08.bks.cpg/sg2_265_cif.got.tgz:528693.got - 2010.06.03 11:33:40.
