data_PCOD9049471
_publ_section_title
;
Structure prediction by ZEFSAII (Michael W. Deem and Ramdas Pophale) SiO2 
 PCOD9049471
Probable space group: P -1
;
_chemical_formula_sum "Si O2"
_cell_formula_units_Z 15
_cell_length_a 12.708405
_cell_length_b 17.309253
_cell_length_c 5.228384
_cell_angle_alpha 123.306305
_cell_angle_beta 117.082182
_cell_angle_gamma 38.306674
_cell_volume 595.156669
_symmetry_space_group_name_H-M "P -1"
_symmetry_group_IT_number 2
_symmetry_cell_setting 'triclinic'
loop_
_space_group_symop_operation_xyz
x,y,z
-x,-y,-z
loop_
_atom_site_type_symbol
_atom_site_label
_atom_site_fract_x
_atom_site_fract_y
_atom_site_fract_z
Si Si1 0.035945 0.244724 0.590660
Si Si2 0.586653 0.737580 0.562809
Si Si3 0.560606 0.362818 0.763374
Si Si4 0.000000 0.000000 0.500000
Si Si5 0.939920 0.587153 0.844494
Si Si6 0.220652 0.767167 0.736436
Si Si7 0.242553 0.022977 0.772938
Si Si8 0.660100 0.865160 0.573019
O O1 0.177868 0.088929 0.542709
O O2 0.147873 0.240699 0.512496
O O3 0.868816 0.282071 0.411626
O O4 0.999545 0.340621 0.944505
O O5 0.590730 0.625685 0.344997
O O6 0.735718 0.695270 0.819833
O O7 0.608057 0.789204 0.432153
O O8 0.397599 0.865775 0.680441
O O9 0.631581 0.321393 0.476965
O O10 0.500000 0.500000 0.000000
O O11 0.704204 0.250057 0.929987
O O12 0.911229 0.092621 0.304957
O O13 0.080578 0.058883 0.764993
O O14 0.000000 0.500000 0.500000
O O15 0.000000 0.500000 0.000000
O O16 0.313235 0.078977 0.061289
O O17 0.500000 0.000000 0.500000
#
# Coordination Sequence:
#
# PCOD9049471 Si02
#       8
#     2   2   2   1   2   2   2   2
#     4  11  26  46  75 108 156 198 252 321 390 465
#     4  12  26  49  78 112 155 202 266 324 395 464
#     4  12  30  53  79 111 152 214 269 326 379 469
#     4  10  24  46  74 116 158 196 252 318 402 472
#     4  12  29  48  74 107 150 203 255 311 375 457
#     4  11  28  49  81 111 155 200 262 320 401 459
#     4  11  23  46  72 114 149 198 252 323 395 464
#     4  12  24  41  74 112 154 195 246 317 393 464
#
# _framework density 25.203447000000001
#
# number of rings (size 3 to 8) (size 9 to 14) (size 15 to 20)
#    0.000    0.533    4.000    2.400    9.333    2.667 
#    0.000    0.000    0.000    0.000    0.000    0.000 
#    0.000    0.000    0.000    0.000    0.000    0.000 
#
# Total GULP energy -83542.087437 kJ/mol
# GULP energy per Si atom -5569.472496 kJ/mol
# Density = 2.514608 g / cm^3
# Si number density = 25.203447 Si / 1000 Ang^3
#
#
#
# Elastic Constant Matrix: (Units=GPa)
#
#
# Indices 1 2 3 4 5 6 
#
# 1 155.8441 3.1808 41.4672 11.8455 32.1358 4.1137
# 2 3.1808 66.8211 -4.4995 -9.8141 -4.8418 19.2688
# 3 41.4672 -4.4995 80.5323 -7.1251 12.4324 -7.3900
# 4 11.8455 -9.8141 -7.1251 40.7881 4.7888 4.8855
# 5 32.1358 -4.8418 12.4324 4.7888 51.3317 4.1649
# 6 4.1137 19.2688 -7.3900 4.8855 4.1649 32.2655
#
#
#
# Elastic Compliance Matrix: (Units=1/GPa)
#
#
# Indices 1 2 3 4 5 6 
#
# 1 0.008670 -0.001386 -0.004177 -0.003056 -0.004243 -0.000224
# 2 -0.001386 0.020004 0.000754 0.006548 0.003014 -0.012978
# 3 -0.004177 0.000754 0.015519 0.003915 -0.001702 0.003264
# 4 -0.003056 0.006548 0.003915 0.028549 -0.000523 -0.006880
# 5 -0.004243 0.003014 -0.001702 -0.000523 0.023254 -0.004571
# 6 -0.000224 -0.012978 0.003264 -0.006880 -0.004571 0.041151
#
#
# Mechanical properties :
#
#
# Convention : Reuss Voigt Hill
#
# Bulk Modulus (GPa) = 28.92186 42.61050 35.76618
# Shear Modulus (GPa) = 31.58763 42.41365 37.00064
#
# Velocity S-wave (km/s) = 3.54405 4.10671 3.83571
# Velocity P-wave (km/s) = 5.31482 6.27933 5.81710
#
# Compressibility (1/GPa) = 0.03457593
#
# Stress axis : x y z
#
# Youngs Moduli (GPa) = 115.34482 49.98881 64.43643
#
# Poissons Ratio (x) = 0.06927 0.26918
# Poissons Ratio (y) = 0.15982 -0.04861
# Poissons Ratio (z) = 0.48184 -0.03771
#
# Static dielectric constant tensor:
#      x y z
#    x 2.056510 -0.022300 -0.069630 
#    y -0.022300 2.115640 0.057830 
#    z -0.069630 0.057830 2.080050 
# 
# From -- ./inp_files/80994.got.cif
#   From: 2010.05.17/outbox.cif.g08.bks.cpg/sg2_41_cif.got.tgz:80994.got - 2010.06.03 11:33:40.
