data_PCOD9049322
_publ_section_title
;
Structure prediction by ZEFSAII (Michael W. Deem and Ramdas Pophale) SiO2 
 PCOD9049322
Probable space group: P -1
;
_chemical_formula_sum "Si O2"
_cell_formula_units_Z 13
_cell_length_a 10.443920
_cell_length_b 11.595164
_cell_length_c 12.766351
_cell_angle_alpha 146.220146
_cell_angle_beta 35.868660
_cell_angle_gamma 143.621220
_cell_volume 460.758933
_symmetry_space_group_name_H-M "P -1"
_symmetry_group_IT_number 2
_symmetry_cell_setting 'triclinic'
loop_
_space_group_symop_operation_xyz
x,y,z
-x,-y,-z
loop_
_atom_site_type_symbol
_atom_site_label
_atom_site_fract_x
_atom_site_fract_y
_atom_site_fract_z
Si Si1 0.018553 0.242444 0.713548
Si Si2 0.794635 0.124142 0.000429
Si Si3 0.210584 0.492024 0.081026
Si Si4 0.492657 0.703887 0.532586
Si Si5 0.000000 0.000000 0.000000
Si Si6 0.461454 0.907100 0.341578
Si Si7 0.714914 0.644585 0.756195
O O1 0.302919 0.381230 0.641105
O O2 0.906970 0.376902 0.816009
O O3 0.000000 0.000000 0.500000
O O4 0.895381 0.206131 0.881225
O O5 0.606205 0.210533 0.237961
O O6 0.021094 0.230439 0.014636
O O7 0.694209 0.856647 0.869182
O O8 0.284118 0.646965 0.251048
O O9 0.456903 0.508862 0.879952
O O10 0.283753 0.525575 0.465657
O O11 0.621915 0.929154 0.547022
O O12 0.066838 0.225607 0.212614
O O13 0.287243 0.064966 0.852055
O O14 0.500000 0.000000 0.500000
#
# Coordination Sequence:
#
# PCOD9049322 Si02
#       7
#     2   2   2   2   1   2   2
#     4  12  26  48  77 111 157 197 248 310 375 451
#     4  12  27  48  76 107 158 195 244 316 367 445
#     4  11  25  51  71 113 153 195 255 306 371 453
#     4  12  27  47  77 116 148 198 256 302 384 454
#     4  10  24  46  72 104 150 192 250 314 360 440
#     4  11  26  48  77 111 146 195 255 309 375 446
#     4  11  26  49  74 112 152 196 261 302 377 447
#
# _framework density 28.214321000000002
#
# number of rings (size 3 to 8) (size 9 to 14) (size 15 to 20)
#    0.000    0.615    6.154    0.462    6.462    4.923 
#    0.000    3.077    0.000    0.000    0.000    0.000 
#    0.000    0.000    0.000    0.000    0.000    0.000 
#
# Total GULP energy -72832.403389 kJ/mol
# GULP energy per Si atom -5602.492568 kJ/mol
# Density = 2.815010 g / cm^3
# Si number density = 28.214321 Si / 1000 Ang^3
#
#
#
# Elastic Constant Matrix: (Units=GPa)
#
#
# Indices 1 2 3 4 5 6 
#
# 1 115.4308 15.3153 46.8741 4.1011 -15.1857 16.5106
# 2 15.3153 157.7936 32.9678 21.0688 10.7300 12.8170
# 3 46.8741 32.9678 132.8919 16.7648 21.2943 -3.1570
# 4 4.1011 21.0688 16.7648 58.0919 12.0910 1.2276
# 5 -15.1857 10.7300 21.2943 12.0910 52.2319 5.2644
# 6 16.5106 12.8170 -3.1570 1.2276 5.2644 49.3928
#
#
#
# Elastic Compliance Matrix: (Units=1/GPa)
#
#
# Indices 1 2 3 4 5 6 
#
# 1 0.012537 -0.000011 -0.005525 -0.000540 0.006551 -0.005226
# 2 -0.000011 0.007093 -0.001511 -0.002059 -0.000180 -0.001863
# 3 -0.005525 -0.001511 0.011017 -0.001090 -0.005898 0.003599
# 4 -0.000540 -0.002059 -0.001090 0.019085 -0.003765 0.000572
# 5 0.006551 -0.000180 -0.005898 -0.003765 0.024875 -0.005078
# 6 -0.005226 -0.001863 0.003599 0.000572 -0.005078 0.023233
#
#
# Mechanical properties :
#
#
# Convention : Reuss Voigt Hill
#
# Bulk Modulus (GPa) = 60.42044 66.27007 63.34526
# Shear Modulus (GPa) = 42.57079 52.67393 47.62236
#
# Velocity S-wave (km/s) = 3.88859 4.32548 4.11284
# Velocity P-wave (km/s) = 6.45157 6.96315 6.71224
#
# Compressibility (1/GPa) = 0.01655069
#
# Stress axis : x y z
#
# Youngs Moduli (GPa) = 79.76487 140.99068 90.77186
#
# Poissons Ratio (x) = 0.00161 0.50152
# Poissons Ratio (y) = 0.00091 0.13718
# Poissons Ratio (z) = 0.44071 0.21307
#
# Static dielectric constant tensor:
#      x y z
#    x 2.168110 0.074310 0.019360 
#    y 0.074310 2.149010 -0.012990 
#    z 0.019360 -0.012990 2.189510 
# 
# From -- ./inp_files/454291.got.cif
#   From: 2010.05.17/outbox.cif.g08.bks.cpg/sg2_228_cif.got.tgz:454291.got - 2010.06.03 11:33:40.
