data_PCOD9049640
_publ_section_title
;
Structure prediction by ZEFSAII (Michael W. Deem and Ramdas Pophale) SiO2 
 PCOD9049640
Probable space group: P -1
;
_chemical_formula_sum "Si O2"
_cell_formula_units_Z 12
_cell_length_a 8.106011
_cell_length_b 15.303362
_cell_length_c 5.390349
_cell_angle_alpha 114.930766
_cell_angle_beta 107.311782
_cell_angle_gamma 48.446824
_cell_volume 453.605032
_symmetry_space_group_name_H-M "P -1"
_symmetry_group_IT_number 2
_symmetry_cell_setting 'triclinic'
loop_
_space_group_symop_operation_xyz
x,y,z
-x,-y,-z
loop_
_atom_site_type_symbol
_atom_site_label
_atom_site_fract_x
_atom_site_fract_y
_atom_site_fract_z
Si Si1 0.423781 0.226404 0.420985
Si Si2 0.691577 0.428627 0.806395
Si Si3 0.724528 0.978071 0.508360
Si Si4 0.924779 0.829392 0.907419
Si Si5 0.602294 0.310353 0.241058
Si Si6 0.114829 0.487165 0.786416
O O1 0.225922 0.214925 0.288693
O O2 0.506273 0.242581 0.214710
O O3 0.336314 0.347933 0.687482
O O4 0.631182 0.110990 0.521277
O O5 0.714912 0.324945 0.544762
O O6 0.608731 0.544786 0.727107
O O7 0.500000 0.500000 0.000000
O O8 0.884930 0.398782 0.031067
O O9 0.858710 0.924770 0.761504
O O10 0.500000 0.000000 0.500000
O O11 0.838032 0.891201 0.212985
O O12 0.193600 0.748334 0.925739
O O13 0.000000 0.500000 0.500000
O O14 0.000000 0.500000 0.000000
#
# Coordination Sequence:
#
# PCOD9049640 Si02
#       6
#     2   2   2   2   2   2
#     4  11  24  46  72 101 145 191 242 298 365 434
#     4  11  25  47  67 104 158 183 236 311 364 421
#     4  10  24  47  70 104 144 189 239 309 362 420
#     4  11  26  45  74 104 144 189 247 300 361 436
#     4  11  26  46  73 108 146 199 239 302 373 436
#     4  12  27  44  72 107 138 191 246 290 356 443
#
# _framework density 26.454733999999998
#
# number of rings (size 3 to 8) (size 9 to 14) (size 15 to 20)
#    0.000    1.000    1.667    4.000    7.000    9.333 
#    0.000    0.000    0.000    0.000    0.000    0.000 
#    0.000    0.000    0.000    0.000    0.000    0.000 
#
# Total GULP energy -66965.646170 kJ/mol
# GULP energy per Si atom -5580.470514 kJ/mol
# Density = 2.639452 g / cm^3
# Si number density = 26.454734 Si / 1000 Ang^3
#
#
#
# Elastic Constant Matrix: (Units=GPa)
#
#
# Indices 1 2 3 4 5 6 
#
# 1 133.9392 29.1480 37.6728 3.5165 -24.2155 8.4196
# 2 29.1480 111.7054 6.7675 -12.6845 -1.3583 1.3972
# 3 37.6728 6.7675 147.9294 5.6743 -23.9842 -9.7456
# 4 3.5165 -12.6845 5.6743 50.0710 -5.5605 -7.0067
# 5 -24.2155 -1.3583 -23.9842 -5.5605 59.5079 -2.2779
# 6 8.4196 1.3972 -9.7456 -7.0067 -2.2779 44.6903
#
#
#
# Elastic Compliance Matrix: (Units=1/GPa)
#
#
# Indices 1 2 3 4 5 6 
#
# 1 0.009154 -0.002330 -0.001879 -0.001007 0.002741 -0.002080
# 2 -0.002330 0.009853 0.000001 0.002683 -0.000452 0.000529
# 3 -0.001879 0.000001 0.007782 -0.000178 0.002437 0.002147
# 4 -0.001007 0.002683 -0.000178 0.021425 0.001716 0.003513
# 5 0.002741 -0.000452 0.002437 0.001716 0.019101 0.001272
# 6 -0.002080 0.000529 0.002147 0.003513 0.001272 0.023835
#
#
# Mechanical properties :
#
#
# Convention : Reuss Voigt Hill
#
# Bulk Modulus (GPa) = 54.42417 60.08341 57.25379
# Shear Modulus (GPa) = 47.30868 52.18621 49.74745
#
# Velocity S-wave (km/s) = 4.23340 4.44628 4.34115
# Velocity P-wave (km/s) = 6.67179 7.00859 6.84226
#
# Compressibility (1/GPa) = 0.01837419
#
# Stress axis : x y z
#
# Youngs Moduli (GPa) = 109.23898 101.49636 128.50408
#
# Poissons Ratio (x) = 0.23647 0.24142
# Poissons Ratio (y) = 0.25451 -0.00016
# Poissons Ratio (z) = 0.20522 -0.00013
#
# Static dielectric constant tensor:
#      x y z
#    x 2.876760 -0.017590 0.303980 
#    y -0.017590 2.347810 -0.102120 
#    z 0.303980 -0.102120 2.105140 
# 
# From -- ./inp_files/36279.got.cif
#   From: 2010.05.17/outbox.cif.g08.bks.cpg/sg2_19_cif.got.tgz:36279.got - 2010.06.03 11:33:40.
