data_PCOD9049619
_publ_section_title
;
Structure prediction by ZEFSAII (Michael W. Deem and Ramdas Pophale) SiO2 
 PCOD9049619
Probable space group: P -1
;
_chemical_formula_sum "Si O2"
_cell_formula_units_Z 14
_cell_length_a 9.044728
_cell_length_b 8.923712
_cell_length_c 11.490134
_cell_angle_alpha 113.632894
_cell_angle_beta 54.705038
_cell_angle_gamma 129.822924
_cell_volume 580.639591
_symmetry_space_group_name_H-M "P -1"
_symmetry_group_IT_number 2
_symmetry_cell_setting 'triclinic'
loop_
_space_group_symop_operation_xyz
x,y,z
-x,-y,-z
loop_
_atom_site_type_symbol
_atom_site_label
_atom_site_fract_x
_atom_site_fract_y
_atom_site_fract_z
Si Si1 0.136973 0.420235 0.358607
Si Si2 0.982534 0.864452 0.849616
Si Si3 0.565095 0.005441 0.253619
Si Si4 0.751052 0.350238 0.092222
Si Si5 0.485105 0.301434 0.978997
Si Si6 0.431502 0.417382 0.636097
Si Si7 0.152277 0.004127 0.533704
O O1 0.100787 0.367704 0.219423
O O2 0.368378 0.534213 0.355957
O O3 0.000000 0.500000 0.500000
O O4 0.009027 0.195926 0.390222
O O5 0.758391 0.837670 0.901263
O O6 0.236669 0.951191 0.741786
O O7 0.000000 0.000000 0.000000
O O8 0.681269 0.164517 0.146552
O O9 0.367703 0.014631 0.395705
O O10 0.477798 0.792079 0.178732
O O11 0.636361 0.298985 0.005247
O O12 0.666724 0.469595 0.230779
O O13 0.000000 0.500000 0.000000
O O14 0.500000 0.500000 0.000000
O O15 0.500000 0.500000 0.500000
O O16 0.243549 0.191942 0.632871
O O17 0.000000 0.000000 0.500000
#
# Coordination Sequence:
#
# PCOD9049619 Si02
#       7
#     2   2   2   2   2   2   2
#     4  12  27  46  80 112 149 203 259 316 385 458
#     4  10  24  47  69 102 153 190 247 314 380 446
#     4  11  25  46  73 105 150 192 255 310 374 458
#     4  12  26  45  76 109 144 198 252 311 382 453
#     4  11  25  44  72 106 147 190 242 309 385 451
#     4  12  25  49  74 111 155 194 258 315 382 462
#     4  12  27  46  78 109 153 203 251 317 386 454
#
# _framework density 24.111345
#
# number of rings (size 3 to 8) (size 9 to 14) (size 15 to 20)
#    0.000    0.571    4.286    2.143    4.000    6.857 
#    0.000    0.000    0.000    0.000    0.000    0.000 
#    0.000    0.000    0.000    0.000    0.000    0.000 
#
# Total GULP energy -77984.908543 kJ/mol
# GULP energy per Si atom -5570.350610 kJ/mol
# Density = 2.405647 g / cm^3
# Si number density = 24.111345 Si / 1000 Ang^3
#
#
#
# Elastic Constant Matrix: (Units=GPa)
#
#
# Indices 1 2 3 4 5 6 
#
# 1 160.2778 36.7665 25.2153 -3.3644 3.8503 32.7289
# 2 36.7665 112.2466 -9.8084 17.7351 23.3277 3.4418
# 3 25.2153 -9.8084 74.0578 20.9531 -13.3870 10.0790
# 4 -3.3644 17.7351 20.9531 66.2280 2.8235 5.8459
# 5 3.8503 23.3277 -13.3870 2.8235 53.7766 0.6301
# 6 32.7289 3.4418 10.0790 5.8459 0.6301 56.8018
#
#
#
# Elastic Compliance Matrix: (Units=1/GPa)
#
#
# Indices 1 2 3 4 5 6 
#
# 1 0.008544 -0.003407 -0.003603 0.002878 -0.000131 -0.004372
# 2 -0.003407 0.011726 0.003043 -0.004216 -0.003878 0.001189
# 3 -0.003603 0.003043 0.017795 -0.006733 0.003729 -0.000614
# 4 0.002878 -0.004216 -0.006733 0.018735 -0.001012 -0.002125
# 5 -0.000131 -0.003878 0.003729 -0.001012 0.021274 -0.000483
# 6 -0.004372 0.001189 -0.000614 -0.002125 -0.000483 0.020385
#
#
# Mechanical properties :
#
#
# Convention : Reuss Voigt Hill
#
# Bulk Modulus (GPa) = 33.18812 50.10325 41.64569
# Shear Modulus (GPa) = 42.94153 54.98854 48.96504
#
# Velocity S-wave (km/s) = 4.22473 4.78075 4.51132
# Velocity P-wave (km/s) = 6.13125 7.16235 6.66676
#
# Compressibility (1/GPa) = 0.03013126
#
# Stress axis : x y z
#
# Youngs Moduli (GPa) = 117.04396 85.27845 56.19492
#
# Poissons Ratio (x) = 0.29053 0.20247
# Poissons Ratio (y) = 0.39875 -0.17099
# Poissons Ratio (z) = 0.42171 -0.25949
#
# Static dielectric constant tensor:
#      x y z
#    x 1.711330 -0.034520 -0.222020 
#    y -0.034520 2.066860 -0.098330 
#    z -0.222020 -0.098330 1.459730 
# 
# From -- ./inp_files/383150.got.cif
#   From: 2010.05.17/outbox.cif.g08.bks.cpg/sg2_192_cif.got.tgz:383150.got - 2010.06.03 11:33:40.
