data_PCOD9049065
_publ_section_title
;
Structure prediction by ZEFSAII (Michael W. Deem and Ramdas Pophale) SiO2 
 PCOD9049065
Probable space group: P -1
;
_chemical_formula_sum "Si O2"
_cell_formula_units_Z 10
_cell_length_a 14.714150
_cell_length_b 8.299511
_cell_length_c 7.062693
_cell_angle_alpha 99.111936
_cell_angle_beta 52.053024
_cell_angle_gamma 134.548700
_cell_volume 423.667497
_symmetry_space_group_name_H-M "P -1"
_symmetry_group_IT_number 2
_symmetry_cell_setting 'triclinic'
loop_
_space_group_symop_operation_xyz
x,y,z
-x,-y,-z
loop_
_atom_site_type_symbol
_atom_site_label
_atom_site_fract_x
_atom_site_fract_y
_atom_site_fract_z
Si Si1 0.356478 0.895497 0.505687
Si Si2 0.942723 0.662238 0.049799
Si Si3 0.392439 0.520873 0.747695
Si Si4 0.835370 0.218880 0.570969
Si Si5 0.149337 0.049771 0.217113
O O1 0.173446 0.625654 0.793791
O O2 0.302617 0.795324 0.337871
O O3 0.500000 0.000000 0.500000
O O4 0.455295 0.173696 0.374689
O O5 0.783477 0.608006 0.168185
O O6 0.055193 0.863578 0.117499
O O7 0.079150 0.777871 0.722365
O O8 0.500000 0.500000 0.500000
O O9 0.310844 0.348173 0.006176
O O10 0.000000 0.500000 0.500000
O O11 0.780193 0.021004 0.754857
O O12 0.000000 0.000000 0.500000
#
# Coordination Sequence:
#
# PCOD9049065 Si02
#       5
#     2   2   2   2   2
#     4  10  24  46  68 103 149 189 233 305 364 417
#     4  11  24  49  72 102 153 193 245 299 357 445
#     4  11  25  44  71 106 151 192 230 311 376 409
#     4  12  25  45  80 107 139 201 252 288 361 448
#     4  12  26  46  74 108 144 194 251 296 357 447
#
# _framework density 23.603415999999999
#
# number of rings (size 3 to 8) (size 9 to 14) (size 15 to 20)
#    0.000    0.800    4.000    2.400    5.600    0.800 
#    0.000    5.000    0.000    0.000    0.000    0.000 
#    0.000    0.000    0.000    0.000    0.000    0.000 
#
# Total GULP energy -55706.780443 kJ/mol
# GULP energy per Si atom -5570.678044 kJ/mol
# Density = 2.354969 g / cm^3
# Si number density = 23.603416 Si / 1000 Ang^3
#
#
#
# Elastic Constant Matrix: (Units=GPa)
#
#
# Indices 1 2 3 4 5 6 
#
# 1 144.3513 23.1156 32.5620 -22.1724 40.5729 20.2082
# 2 23.1156 130.4153 44.7722 -24.6283 28.1179 5.7904
# 3 32.5620 44.7722 127.0019 -25.1284 14.8685 -13.6510
# 4 -22.1724 -24.6283 -25.1284 59.7393 -9.4892 17.6491
# 5 40.5729 28.1179 14.8685 -9.4892 41.5655 -7.7631
# 6 20.2082 5.7904 -13.6510 17.6491 -7.7631 45.1012
#
#
#
# Elastic Compliance Matrix: (Units=1/GPa)
#
#
# Indices 1 2 3 4 5 6 
#
# 1 0.014930 0.004216 -0.003372 0.007285 -0.017181 -0.014060
# 2 0.004216 0.012158 -0.003851 0.005768 -0.011292 -0.008816
# 3 -0.003372 -0.003851 0.010388 0.000414 0.003314 0.005558
# 4 0.007285 0.005768 0.000414 0.025160 -0.008246 -0.015144
# 5 -0.017181 -0.011292 0.003314 -0.008246 0.049490 0.021897
# 6 -0.014060 -0.008816 0.005558 -0.015144 0.021897 0.040981
#
#
# Mechanical properties :
#
#
# Convention : Reuss Voigt Hill
#
# Bulk Modulus (GPa) = 31.78679 66.96313 49.37496
# Shear Modulus (GPa) = 29.47963 49.36913 39.42438
#
# Velocity S-wave (km/s) = 3.53789 4.57837 4.09134
# Velocity P-wave (km/s) = 5.49410 7.50869 6.57896
#
# Compressibility (1/GPa) = 0.03145960
#
# Stress axis : x y z
#
# Youngs Moduli (GPa) = 66.98111 82.24997 96.26786
#
# Poissons Ratio (x) = -0.34676 0.32465
# Poissons Ratio (y) = -0.28239 0.37077
# Poissons Ratio (z) = 0.22588 0.31678
#
# Static dielectric constant tensor:
#      x y z
#    x 2.121690 0.034410 -0.035400 
#    y 0.034410 1.836210 0.032740 
#    z -0.035400 0.032740 1.839100 
# 
# From -- ./inp_files/18236.got.cif
#   From: 2010.05.17/outbox.cif.g08.bks.cpg/sg2_10_cif.got.tgz:18236.got - 2010.06.03 11:33:40.
