data_PCOD9049954
_publ_section_title
;
Structure prediction by ZEFSAII (Michael W. Deem and Ramdas Pophale) SiO2 
 PCOD9049954
Probable space group: P -1
;
_chemical_formula_sum "Si O2"
_cell_formula_units_Z 15
_cell_length_a 6.662531
_cell_length_b 6.231121
_cell_length_c 18.452807
_cell_angle_alpha 59.503359
_cell_angle_beta 93.312801
_cell_angle_gamma 73.108601
_cell_volume 611.729203
_symmetry_space_group_name_H-M "P -1"
_symmetry_group_IT_number 2
_symmetry_cell_setting 'triclinic'
loop_
_space_group_symop_operation_xyz
x,y,z
-x,-y,-z
loop_
_atom_site_type_symbol
_atom_site_label
_atom_site_fract_x
_atom_site_fract_y
_atom_site_fract_z
Si Si1 0.878281 0.064093 0.861195
Si Si2 0.328324 0.783461 0.866752
Si Si3 0.431483 0.349546 0.247582
Si Si4 0.500000 0.000000 0.500000
Si Si5 0.263866 0.922127 0.308998
Si Si6 0.929282 0.483099 0.583185
Si Si7 0.330308 0.238284 0.002170
Si Si8 0.669969 0.416810 0.384497
O O1 0.728105 0.360663 0.832824
O O2 0.781696 0.030824 0.786198
O O3 0.856736 0.854581 0.955397
O O4 0.125359 0.018637 0.857041
O O5 0.405981 0.813624 0.783376
O O6 0.535163 0.732497 0.930171
O O7 0.262960 0.520632 0.911526
O O8 0.569660 0.387494 0.310172
O O9 0.284716 0.185272 0.297469
O O10 0.305460 0.292729 0.447964
O O11 0.678204 0.154160 0.472753
O O12 0.091269 0.802205 0.353750
O O13 0.498660 0.691196 0.367631
O O14 0.000000 0.500000 0.500000
O O15 0.106854 0.540171 0.625096
O O16 0.500000 0.000000 0.000000
#
# Coordination Sequence:
#
# PCOD9049954 Si02
#       8
#     2   2   2   1   2   2   2   2
#     4  11  24  45  69 105 137 184 239 284 353 418
#     4  11  25  43  71  99 139 189 232 287 357 410
#     4  11  24  48  70 101 146 182 234 299 340 421
#     4  10  24  48  70 106 136 176 236 290 336 426
#     4  10  25  46  68 106 142 181 239 288 347 427
#     4  11  26  47  74 103 142 188 229 289 357 413
#     4  11  23  45  68 101 143 180 237 294 342 421
#     4  10  25  45  72 105 139 181 238 284 353 416
#
# _framework density 24.520652999999999
#
# number of rings (size 3 to 8) (size 9 to 14) (size 15 to 20)
#    0.000    1.333    2.667    0.800    5.600    2.667 
#    9.600    0.000    0.000    0.000    0.000    0.000 
#    0.000    0.000    0.000    0.000    0.000    0.000 
#
# Total GULP energy -83765.686003 kJ/mol
# GULP energy per Si atom -5584.379067 kJ/mol
# Density = 2.446484 g / cm^3
# Si number density = 24.520653 Si / 1000 Ang^3
#
#
#
# Elastic Constant Matrix: (Units=GPa)
#
#
# Indices 1 2 3 4 5 6 
#
# 1 131.2594 20.9708 23.1034 -10.8381 -23.4292 15.4710
# 2 20.9708 40.9058 17.9115 -7.7622 -15.2931 19.2621
# 3 23.1034 17.9115 68.7966 -10.8901 -33.9196 14.2892
# 4 -10.8381 -7.7622 -10.8901 33.2612 0.2322 -10.0691
# 5 -23.4292 -15.2931 -33.9196 0.2322 41.8319 -5.4653
# 6 15.4710 19.2621 14.2892 -10.0691 -5.4653 41.9513
#
#
#
# Elastic Compliance Matrix: (Units=1/GPa)
#
#
# Indices 1 2 3 4 5 6 
#
# 1 0.009009 -0.002067 0.000254 0.002083 0.004301 -0.001399
# 2 -0.002067 0.036589 -0.000499 0.003475 0.010000 -0.013730
# 3 0.000254 -0.000499 0.027261 0.007351 0.021423 -0.004594
# 4 0.002083 0.003475 0.007351 0.035342 0.008824 0.004765
# 5 0.004301 0.010000 0.021423 0.008824 0.046602 -0.005286
# 6 -0.001399 -0.013730 -0.004594 0.004765 -0.005286 0.032678
#
#
# Mechanical properties :
#
#
# Convention : Reuss Voigt Hill
#
# Bulk Modulus (GPa) = 14.65569 40.54815 27.60192
# Shear Modulus (GPa) = 23.27209 35.34061 29.30635
#
# Velocity S-wave (km/s) = 3.08406 3.80051 3.46087
# Velocity P-wave (km/s) = 4.32108 5.98588 5.22027
#
# Compressibility (1/GPa) = 0.06823291
#
# Stress axis : x y z
#
# Youngs Moduli (GPa) = 111.00303 27.33088 36.68273
#
# Poissons Ratio (x) = 0.05651 -0.00932
# Poissons Ratio (y) = 0.22949 0.01831
# Poissons Ratio (z) = -0.02819 0.01364
#
# Static dielectric constant tensor:
#      x y z
#    x 1.912520 0.010540 0.000500 
#    y 0.010540 1.917220 0.016100 
#    z 0.000500 0.016100 1.994640 
# 
# From -- ./inp_files/11477.got.cif
#   From: 2010.05.17/outbox.cif.g08.bks.cpg/sg2_6_cif.got.tgz:11477.got - 2010.06.03 11:33:40.
