data_PCOD9049271
_publ_section_title
;
Structure prediction by ZEFSAII (Michael W. Deem and Ramdas Pophale) SiO2 
 PCOD9049271
Probable space group: P -1
;
_chemical_formula_sum "Si O2"
_cell_formula_units_Z 10
_cell_length_a 13.040206
_cell_length_b 5.693447
_cell_length_c 12.553028
_cell_angle_alpha 88.700185
_cell_angle_beta 156.334888
_cell_angle_gamma 91.975081
_cell_volume 373.775095
_symmetry_space_group_name_H-M "P -1"
_symmetry_group_IT_number 2
_symmetry_cell_setting 'triclinic'
loop_
_space_group_symop_operation_xyz
x,y,z
-x,-y,-z
loop_
_atom_site_type_symbol
_atom_site_label
_atom_site_fract_x
_atom_site_fract_y
_atom_site_fract_z
Si Si1 0.033303 0.659491 0.423951
Si Si2 0.247471 0.382273 0.374019
Si Si3 0.763180 0.692173 0.871882
Si Si4 0.533445 0.446155 0.906108
Si Si5 0.853885 0.062220 0.134525
O O1 0.300894 0.582797 0.636072
O O2 0.000000 0.500000 0.500000
O O3 0.984726 0.932479 0.362391
O O4 0.800731 0.570821 0.130556
O O5 0.532943 0.491070 0.669640
O O6 0.266506 0.244234 0.281442
O O7 0.092789 0.215195 0.311837
O O8 0.046174 0.587622 0.156752
O O9 0.750498 0.913120 0.936434
O O10 0.500000 0.500000 0.000000
O O11 0.605992 0.184067 0.949189
#
# Coordination Sequence:
#
# PCOD9049271 Si02
#       5
#     2   2   2   2   2
#     4  10  25  46  68 104 146 189 248 309 361 431
#     4  10  24  46  71 107 150 188 242 309 367 440
#     4  10  24  46  71 107 150 188 242 309 367 440
#     4  10  25  46  68 104 146 189 248 309 361 431
#     4  12  25  44  80 108 144 204 249 294 378 446
#
# _framework density 26.754054
#
# number of rings (size 3 to 8) (size 9 to 14) (size 15 to 20)
#    0.000    1.600    0.000    1.800    0.000   19.200 
#    0.000    6.000    0.000    6.000    0.000    0.000 
#    0.000    0.000    0.000    0.000    0.000    0.000 
#
# Total GULP energy -55800.679575 kJ/mol
# GULP energy per Si atom -5580.067958 kJ/mol
# Density = 2.669316 g / cm^3
# Si number density = 26.754054 Si / 1000 Ang^3
#
#
#
# Elastic Constant Matrix: (Units=GPa)
#
#
# Indices 1 2 3 4 5 6 
#
# 1 121.9516 41.4996 6.1658 -9.2251 0.3839 -19.7832
# 2 41.4996 85.2184 41.5761 -16.8019 -3.7799 -25.9099
# 3 6.1658 41.5761 226.7701 -16.7995 17.5551 -10.5333
# 4 -9.2251 -16.8019 -16.7995 55.8006 -9.8835 1.9786
# 5 0.3839 -3.7799 17.5551 -9.8835 29.2760 -4.4111
# 6 -19.7832 -25.9099 -10.5333 1.9786 -4.4111 61.3749
#
#
#
# Elastic Compliance Matrix: (Units=1/GPa)
#
#
# Indices 1 2 3 4 5 6 
#
# 1 0.010045 -0.004900 0.000773 0.000202 -0.000975 0.001226
# 2 -0.004900 0.018846 -0.003214 0.004921 0.007016 0.006171
# 3 0.000773 -0.003214 0.005244 0.000118 -0.003601 -0.000470
# 4 0.000202 0.004921 0.000118 0.020796 0.007893 0.002060
# 5 -0.000975 0.007016 -0.003601 0.007893 0.040607 0.004694
# 6 0.001226 0.006171 -0.000470 0.002060 0.004694 0.019484
#
#
# Mechanical properties :
#
#
# Convention : Reuss Voigt Hill
#
# Bulk Modulus (GPa) = 51.40596 68.04703 59.72649
# Shear Modulus (GPa) = 36.71366 52.27021 44.49193
#
# Velocity S-wave (km/s) = 3.70843 4.42490 4.08241
# Velocity P-wave (km/s) = 6.13128 7.18302 6.67789
#
# Compressibility (1/GPa) = 0.01945300
#
# Stress axis : x y z
#
# Youngs Moduli (GPa) = 99.54822 53.06118 190.70894
#
# Poissons Ratio (x) = 0.25998 -0.14732
# Poissons Ratio (y) = 0.48774 0.61294
# Poissons Ratio (z) = -0.07690 0.17054
#
# Static dielectric constant tensor:
#      x y z
#    x -5.558930 0.505540 -0.007390 
#    y 0.505540 2.575480 -0.039680 
#    z -0.007390 -0.039680 2.166760 
# 
# From -- ./inp_files/525405.got.cif
#   From: 2010.05.17/outbox.cif.g08.bks.cpg/sg2_263_cif.got.tgz:525405.got - 2010.06.03 11:33:40.
