data_PCOD9049192
_publ_section_title
;
Structure prediction by ZEFSAII (Michael W. Deem and Ramdas Pophale) SiO2 
 PCOD9049192
Probable space group: P -1
;
_chemical_formula_sum "Si O2"
_cell_formula_units_Z 15
_cell_length_a 15.617737
_cell_length_b 7.702320
_cell_length_c 5.619661
_cell_angle_alpha 66.554715
_cell_angle_beta 67.341462
_cell_angle_gamma 90.209299
_cell_volume 562.408053
_symmetry_space_group_name_H-M "P -1"
_symmetry_group_IT_number 2
_symmetry_cell_setting 'triclinic'
loop_
_space_group_symop_operation_xyz
x,y,z
-x,-y,-z
loop_
_atom_site_type_symbol
_atom_site_label
_atom_site_fract_x
_atom_site_fract_y
_atom_site_fract_z
Si Si1 0.500000 0.500000 0.000000
Si Si2 0.824097 0.987398 0.310950
Si Si3 0.014267 0.713318 0.763955
Si Si4 0.832491 0.281519 0.775546
Si Si5 0.815859 0.659231 0.835724
Si Si6 0.534433 0.219594 0.399611
Si Si7 0.379765 0.254868 0.847517
Si Si8 0.671550 0.153207 0.685449
O O1 0.571814 0.343224 0.065608
O O2 0.438291 0.349204 0.958344
O O3 0.732382 0.041746 0.504486
O O4 0.917308 0.125341 0.244737
O O5 0.821821 0.770303 0.513823
O O6 0.815165 0.065421 0.014944
O O7 0.910551 0.757501 0.816282
O O8 0.066471 0.694340 0.468865
O O9 0.000000 0.500000 0.000000
O O10 0.823083 0.438595 0.898934
O O11 0.753096 0.294523 0.658422
O O12 0.721826 0.686590 0.058169
O O13 0.601663 0.240256 0.542322
O O14 0.500000 0.000000 0.500000
O O15 0.441084 0.315042 0.507052
O O16 0.375718 0.025702 0.001902
#
# Coordination Sequence:
#
# PCOD9049192 Si02
#       8
#     1   2   2   2   2   2   2   2
#     4  12  28  48  72 112 140 186 254 286 372 428
#     4  10  24  46  70 108 140 188 242 291 363 428
#     4  11  23  47  71 105 147 191 242 289 359 438
#     4  11  25  46  74 104 143 194 239 291 367 426
#     4  11  25  47  72 106 149 183 241 307 353 426
#     4  12  27  50  75 101 148 193 239 302 357 430
#     4  11  27  47  71 112 141 191 243 295 368 428
#     4  10  25  47  73 103 143 188 240 296 356 432
#
# _framework density 26.671029000000001
#
# number of rings (size 3 to 8) (size 9 to 14) (size 15 to 20)
#    0.000    1.067    2.667    1.600    5.600    0.533 
#   12.000    0.000    0.000    0.000    0.000    0.000 
#    0.000    0.000    0.000    0.000    0.000    0.000 
#
# Total GULP energy -83856.907426 kJ/mol
# GULP energy per Si atom -5590.460495 kJ/mol
# Density = 2.661032 g / cm^3
# Si number density = 26.671029 Si / 1000 Ang^3
#
#
#
# Elastic Constant Matrix: (Units=GPa)
#
#
# Indices 1 2 3 4 5 6 
#
# 1 170.6379 33.1109 15.7675 20.1322 -5.8111 -14.0740
# 2 33.1109 100.7468 -8.5262 -13.5188 -2.8423 -3.4323
# 3 15.7675 -8.5262 57.5189 -5.4681 -10.7722 -17.3482
# 4 20.1322 -13.5188 -5.4681 45.8561 -13.2133 1.9065
# 5 -5.8111 -2.8423 -10.7722 -13.2133 42.6160 0.6057
# 6 -14.0740 -3.4323 -17.3482 1.9065 0.6057 34.5317
#
#
#
# Elastic Compliance Matrix: (Units=1/GPa)
#
#
# Indices 1 2 3 4 5 6 
#
# 1 0.007458 -0.003366 -0.002837 -0.005113 -0.001533 0.001589
# 2 -0.003366 0.012477 0.004604 0.006663 0.003578 0.001750
# 3 -0.002837 0.004604 0.024417 0.007431 0.008239 0.011013
# 4 -0.005113 0.006663 0.007431 0.030033 0.010931 0.000462
# 5 -0.001533 0.003578 0.008239 0.010931 0.028928 0.002760
# 6 0.001589 0.001750 0.011013 0.000462 0.002760 0.035239
#
#
# Mechanical properties :
#
#
# Convention : Reuss Voigt Hill
#
# Bulk Modulus (GPa) = 24.30050 45.51201 34.90625
# Shear Modulus (GPa) = 32.16095 43.83751 37.99923
#
# Velocity S-wave (km/s) = 3.47629 4.05858 3.77867
# Velocity P-wave (km/s) = 5.02431 6.25012 5.67044
#
# Compressibility (1/GPa) = 0.04115142
#
# Stress axis : x y z
#
# Youngs Moduli (GPa) = 134.08840 80.15065 40.95516
#
# Poissons Ratio (x) = 0.26981 0.11620
# Poissons Ratio (y) = 0.45138 -0.18854
# Poissons Ratio (z) = 0.38044 -0.36898
#
# Static dielectric constant tensor:
#      x y z
#    x 2.277310 -0.119790 1.087160 
#    y -0.119790 2.142400 -0.541540 
#    z 1.087160 -0.541540 7.319710 
# 
# From -- ./inp_files/89641.got.cif
#   From: 2010.05.17/outbox.cif.g08.bks.cpg/sg2_45_cif.got.tgz:89641.got - 2010.06.03 11:33:40.
