data_PCOD9049211
_publ_section_title
;
Structure prediction by ZEFSAII (Michael W. Deem and Ramdas Pophale) SiO2 
 PCOD9049211
Probable space group: P -1
;
_chemical_formula_sum "Si O2"
_cell_formula_units_Z 14
_cell_length_a 17.673069
_cell_length_b 8.779137
_cell_length_c 11.337044
_cell_angle_alpha 65.886024
_cell_angle_beta 149.287411
_cell_angle_gamma 131.088234
_cell_volume 618.628191
_symmetry_space_group_name_H-M "P -1"
_symmetry_group_IT_number 2
_symmetry_cell_setting 'triclinic'
loop_
_space_group_symop_operation_xyz
x,y,z
-x,-y,-z
loop_
_atom_site_type_symbol
_atom_site_label
_atom_site_fract_x
_atom_site_fract_y
_atom_site_fract_z
Si Si1 0.583786 0.296640 0.681309
Si Si2 0.659127 0.108151 0.372888
Si Si3 0.790762 0.392447 0.698730
Si Si4 0.715349 0.672822 0.376236
Si Si5 0.327660 0.555043 0.854519
Si Si6 0.012226 0.845453 0.344112
Si Si7 0.192077 0.208521 0.125988
O O1 0.640983 0.253313 0.649229
O O2 0.379572 0.242434 0.405362
O O3 0.751870 0.556914 0.850271
O O4 0.536333 0.135829 0.774469
O O5 0.738983 0.249877 0.556949
O O6 0.618079 0.221220 0.186954
O O7 0.828665 0.118590 0.541368
O O8 0.776333 0.577103 0.582643
O O9 0.000000 0.500000 0.000000
O O10 0.695825 0.567657 0.258515
O O11 0.869096 0.936261 0.487694
O O12 0.505951 0.601433 0.149511
O O13 0.120049 0.387772 0.693989
O O14 0.858845 0.840536 0.063894
O O15 0.000000 0.000000 0.000000
#
# Coordination Sequence:
#
# PCOD9049211 Si02
#       7
#     2   2   2   2   2   2   2
#     4  11  24  43  67  99 139 181 217 277 342 397
#     4  11  25  43  65 103 138 173 227 276 333 397
#     4  11  24  45  68 100 138 175 223 280 339 399
#     4  10  24  46  70  96 129 178 230 273 333 404
#     4  10  24  48  66  95 137 178 226 272 332 401
#     4  12  23  41  72  98 132 178 225 279 331 394
#     4  11  23  41  70 101 136 172 227 275 336 407
#
# _framework density 22.630718000000002
#
# number of rings (size 3 to 8) (size 9 to 14) (size 15 to 20)
#    0.000    1.143    1.429    3.857    6.000    0.571 
#   15.429    0.000    0.000    0.000    0.000    0.000 
#    0.000    0.000    0.000    0.000    0.000    0.000 
#
# Total GULP energy -78339.485141 kJ/mol
# GULP energy per Si atom -5595.677510 kJ/mol
# Density = 2.257921 g / cm^3
# Si number density = 22.630718 Si / 1000 Ang^3
#
#
#
# Elastic Constant Matrix: (Units=GPa)
#
#
# Indices 1 2 3 4 5 6 
#
# 1 70.0433 44.2147 12.5508 7.7695 18.8211 23.0047
# 2 44.2147 155.9513 56.6014 9.8152 15.9924 25.2956
# 3 12.5508 56.6014 96.0615 3.5525 8.4068 6.2671
# 4 7.7695 9.8152 3.5525 38.5357 5.2151 1.0409
# 5 18.8211 15.9924 8.4068 5.2151 21.6967 11.5220
# 6 23.0047 25.2956 6.2671 1.0409 11.5220 36.3683
#
#
#
# Elastic Compliance Matrix: (Units=1/GPa)
#
#
# Indices 1 2 3 4 5 6 
#
# 1 0.022863 -0.004272 0.001201 -0.001709 -0.012687 -0.007629
# 2 -0.004272 0.010100 -0.005155 -0.001198 0.000423 -0.003534
# 3 0.001201 -0.005155 0.013473 0.000240 -0.003348 0.001558
# 4 -0.001709 -0.001198 0.000240 0.027290 -0.005851 0.002946
# 5 -0.012687 0.000423 -0.003348 -0.005851 0.066109 -0.012469
# 6 -0.007629 -0.003534 0.001558 0.002946 -0.012469 0.038378
#
#
# Mechanical properties :
#
#
# Convention : Reuss Voigt Hill
#
# Bulk Modulus (GPa) = 33.35120 60.97665 47.16393
# Shear Modulus (GPa) = 24.43108 33.23275 28.83192
#
# Velocity S-wave (km/s) = 3.28922 3.83623 3.57321
# Velocity P-wave (km/s) = 5.40319 6.82824 6.15708
#
# Compressibility (1/GPa) = 0.02998393
#
# Stress axis : x y z
#
# Youngs Moduli (GPa) = 43.73960 99.01476 74.22309
#
# Poissons Ratio (x) = 0.42297 -0.08916
# Poissons Ratio (y) = 0.18685 0.38261
# Poissons Ratio (z) = -0.05254 0.51041
#
# Static dielectric constant tensor:
#      x y z
#    x 1.834890 -0.005480 -0.021930 
#    y -0.005480 1.877780 0.006520 
#    z -0.021930 0.006520 1.827130 
# 
# From -- ./inp_files/123545.got.cif
#   From: 2010.05.17/outbox.cif.g08.bks.cpg/sg2_62_cif.got.tgz:123545.got - 2010.06.03 11:33:40.
