data_PCOD9049333
_publ_section_title
;
Structure prediction by ZEFSAII (Michael W. Deem and Ramdas Pophale) SiO2 
 PCOD9049333
Probable space group: P -1
;
_chemical_formula_sum "Si O2"
_cell_formula_units_Z 14
_cell_length_a 16.550613
_cell_length_b 10.269881
_cell_length_c 9.035569
_cell_angle_alpha 42.738010
_cell_angle_beta 138.104250
_cell_angle_gamma 141.897227
_cell_volume 590.198476
_symmetry_space_group_name_H-M "P -1"
_symmetry_group_IT_number 2
_symmetry_cell_setting 'triclinic'
loop_
_space_group_symop_operation_xyz
x,y,z
-x,-y,-z
loop_
_atom_site_type_symbol
_atom_site_label
_atom_site_fract_x
_atom_site_fract_y
_atom_site_fract_z
Si Si1 0.968567 0.185577 0.860948
Si Si2 0.484563 0.207073 0.755278
Si Si3 0.279575 0.511010 0.934671
Si Si4 0.360845 0.258696 0.038265
Si Si5 0.346087 0.953184 0.500250
Si Si6 0.220325 0.147932 0.620970
Si Si7 0.005096 0.277670 0.176290
O O1 0.822063 0.137393 0.630553
O O2 0.116520 0.420949 0.830382
O O3 0.950645 0.179248 0.019605
O O4 0.000000 0.000000 0.000000
O O5 0.619969 0.420274 0.840133
O O6 0.340530 0.174909 0.652844
O O7 0.455174 0.164645 0.576474
O O8 0.500000 0.000000 0.000000
O O9 0.281292 0.315769 0.008126
O O10 0.348270 0.734055 0.737450
O O11 0.378910 0.059163 0.292708
O O12 0.500000 0.500000 0.000000
O O13 0.285784 0.198287 0.830232
O O14 0.158944 0.305738 0.370979
O O15 0.085706 0.891714 0.671395
O O16 0.000000 0.500000 0.000000
#
# Coordination Sequence:
#
# PCOD9049333 Si02
#       7
#     2   2   2   2   2   2   2
#     4  12  23  46  73 106 143 187 246 301 362 433
#     4  10  24  46  72 106 142 194 242 296 359 442
#     4  11  25  44  71 103 143 185 240 294 361 433
#     4  12  25  45  69 104 137 185 234 294 365 430
#     4  11  25  45  71 101 140 184 240 294 354 426
#     4  11  24  48  70 101 154 182 238 305 363 431
#     4  11  27  44  74 108 142 193 243 301 370 430
#
# _framework density 23.720835999999998
#
# number of rings (size 3 to 8) (size 9 to 14) (size 15 to 20)
#    0.000    0.857    4.286    1.286    6.000    3.429 
#    2.571    0.000    0.000    0.000    0.000    0.000 
#    0.000    0.000    0.000    0.000    0.000    0.000 
#
# Total GULP energy -78276.482637 kJ/mol
# GULP energy per Si atom -5591.177331 kJ/mol
# Density = 2.366685 g / cm^3
# Si number density = 23.720836 Si / 1000 Ang^3
#
#
#
# Elastic Constant Matrix: (Units=GPa)
#
#
# Indices 1 2 3 4 5 6 
#
# 1 57.6558 23.5096 24.1872 -10.9655 15.7180 -0.7496
# 2 23.5096 51.5585 24.0384 -11.5517 -2.1517 6.6692
# 3 24.1872 24.0384 132.4675 -6.0585 9.5667 -14.6776
# 4 -10.9655 -11.5517 -6.0585 48.1480 -6.1355 -4.2677
# 5 15.7180 -2.1517 9.5667 -6.1355 37.1256 4.9237
# 6 -0.7496 6.6692 -14.6776 -4.2677 4.9237 52.3796
#
#
#
# Elastic Compliance Matrix: (Units=1/GPa)
#
#
# Indices 1 2 3 4 5 6 
#
# 1 0.026228 -0.011712 -0.001458 0.001756 -0.011472 0.002679
# 2 -0.011712 0.028743 -0.004146 0.004386 0.009146 -0.005491
# 3 -0.001458 -0.004146 0.009096 -0.000203 -0.002434 0.003268
# 4 0.001756 0.004386 -0.000203 0.022687 0.003185 0.000959
# 5 -0.011472 0.009146 -0.002434 0.003185 0.034134 -0.004960
# 6 0.002679 -0.005491 0.003268 0.000959 -0.004960 0.021289
#
#
# Mechanical properties :
#
#
# Convention : Reuss Voigt Hill
#
# Bulk Modulus (GPa) = 33.97159 42.79471 38.38315
# Shear Modulus (GPa) = 26.79235 38.86040 32.82638
#
# Velocity S-wave (km/s) = 3.36443 4.05191 3.72407
# Velocity P-wave (km/s) = 5.42633 6.32224 5.89134
#
# Compressibility (1/GPa) = 0.02943636
#
# Stress axis : x y z
#
# Youngs Moduli (GPa) = 38.12757 34.79067 109.93594
#
# Poissons Ratio (x) = 0.40745 0.16028
# Poissons Ratio (y) = 0.44654 0.45578
# Poissons Ratio (z) = 0.05559 0.14424
#
# Static dielectric constant tensor:
#      x y z
#    x 1.908100 0.063030 -0.006830 
#    y 0.063030 1.942500 -0.025460 
#    z -0.006830 -0.025460 1.848260 
# 
# From -- ./inp_files/332779.got.cif
#   From: 2010.05.17/outbox.cif.g08.bks.cpg/sg2_167_cif.got.tgz:332779.got - 2010.06.03 11:33:40.
