data_PCOD9049591
_publ_section_title
;
Structure prediction by ZEFSAII (Michael W. Deem and Ramdas Pophale) SiO2 
 PCOD9049591
Probable space group: P -1
;
_chemical_formula_sum "Si O2"
_cell_formula_units_Z 16
_cell_length_a 12.235068
_cell_length_b 8.621350
_cell_length_c 15.899342
_cell_angle_alpha 128.690158
_cell_angle_beta 34.553989
_cell_angle_gamma 107.440786
_cell_volume 648.924768
_symmetry_space_group_name_H-M "P -1"
_symmetry_group_IT_number 2
_symmetry_cell_setting 'triclinic'
loop_
_space_group_symop_operation_xyz
x,y,z
-x,-y,-z
loop_
_atom_site_type_symbol
_atom_site_label
_atom_site_fract_x
_atom_site_fract_y
_atom_site_fract_z
Si Si1 0.877340 0.789665 0.052477
Si Si2 0.659830 0.281543 0.269231
Si Si3 0.851355 0.809255 0.619167
Si Si4 0.455388 0.753977 0.130196
Si Si5 0.068781 0.378476 0.220731
Si Si6 0.020287 0.918432 0.706696
Si Si7 0.458517 0.781724 0.337578
Si Si8 0.471674 0.708488 0.825576
O O1 0.934321 0.626610 0.879122
O O2 0.119759 0.721917 0.909133
O O3 0.683829 0.775521 0.219891
O O4 0.758487 0.049644 0.181625
O O5 0.500000 0.500000 0.500000
O O6 0.525995 0.271617 0.270432
O O7 0.016071 0.782415 0.580064
O O8 0.652350 0.771171 0.766525
O O9 0.967261 0.621222 0.410313
O O10 0.749182 0.057167 0.726713
O O11 0.437544 0.808198 0.258918
O O12 0.500000 0.500000 0.000000
O O13 0.675343 0.756057 0.961092
O O14 0.958327 0.235658 0.278780
O O15 0.225387 0.963943 0.586722
O O16 0.776485 0.128685 0.932377
O O17 0.474751 0.542992 0.270095
#
# Coordination Sequence:
#
# PCOD9049591 Si02
#       8
#     2   2   2   2   2   2   2   2
#     4  10  24  47  68 101 135 168 218 289 329 391
#     4  11  24  45  78  97 125 177 226 265 345 408
#     4  12  24  39  70  96 134 186 230 260 330 399
#     4  11  24  41  59  94 137 179 228 279 320 382
#     4  11  22  41  68  92 134 175 225 272 329 398
#     4  12  24  40  66  99 137 180 221 272 325 395
#     4  11  26  41  64  99 139 169 220 280 332 384
#     4  12  24  42  68 100 132 176 222 277 332 398
#
# _framework density 24.656169999999999
#
# number of rings (size 3 to 8) (size 9 to 14) (size 15 to 20)
#    0.000    0.750    3.750    3.750    1.750    5.500 
#    0.000    1.250    0.000    0.000    0.000    0.000 
#    0.000    0.000    0.000    0.000    0.000    0.000 
#
# Total GULP energy -89650.209411 kJ/mol
# GULP energy per Si atom -5603.138088 kJ/mol
# Density = 2.460005 g / cm^3
# Si number density = 24.656170 Si / 1000 Ang^3
#
#
#
# Elastic Constant Matrix: (Units=GPa)
#
#
# Indices 1 2 3 4 5 6 
#
# 1 81.4981 6.5747 16.3744 -4.6757 -3.6760 11.4762
# 2 6.5747 78.2999 37.2759 -5.8203 -16.0905 4.1817
# 3 16.3744 37.2759 149.0911 -9.4614 -9.8828 17.0197
# 4 -4.6757 -5.8203 -9.4614 44.9412 14.5800 -12.5024
# 5 -3.6760 -16.0905 -9.8828 14.5800 40.0250 -2.7439
# 6 11.4762 4.1817 17.0197 -12.5024 -2.7439 26.4835
#
#
#
# Elastic Compliance Matrix: (Units=1/GPa)
#
#
# Indices 1 2 3 4 5 6 
#
# 1 0.013205 -0.000367 -0.000732 -0.000559 0.000719 -0.005383
# 2 -0.000367 0.015582 -0.003556 -0.000476 0.005549 0.000334
# 3 -0.000732 -0.003556 0.008191 -0.000129 0.000270 -0.004418
# 4 -0.000559 -0.000476 -0.000129 0.028952 -0.009927 0.013039
# 5 0.000719 0.005549 0.000270 -0.009927 0.030768 -0.002860
# 6 -0.005383 0.000334 -0.004418 0.013039 -0.002860 0.048738
#
#
# Mechanical properties :
#
#
# Convention : Reuss Voigt Hill
#
# Bulk Modulus (GPa) = 36.14155 47.70436 41.92296
# Shear Modulus (GPa) = 30.49358 38.86756 34.68057
#
# Velocity S-wave (km/s) = 3.52056 3.97468 3.75449
# Velocity P-wave (km/s) = 5.58712 6.36034 5.98622
#
# Compressibility (1/GPa) = 0.02766898
#
# Stress axis : x y z
#
# Youngs Moduli (GPa) = 75.72723 64.17586 122.08743
#
# Poissons Ratio (x) = 0.02353 0.08936
# Poissons Ratio (y) = 0.02777 0.43416
# Poissons Ratio (z) = 0.05542 0.22822
#
# Static dielectric constant tensor:
#      x y z
#    x 1.935750 0.036380 0.019980 
#    y 0.036380 1.938080 -0.036190 
#    z 0.019980 -0.036190 1.998690 
# 
# From -- ./inp_files/328372.got.cif
#   From: 2010.05.17/outbox.cif.g08.bks.cpg/sg2_165_cif.got.tgz:328372.got - 2010.06.03 11:33:40.
