data_PCOD9049173
_publ_section_title
;
Structure prediction by ZEFSAII (Michael W. Deem and Ramdas Pophale) SiO2 
 PCOD9049173
Probable space group: P -1
;
_chemical_formula_sum "Si O2"
_cell_formula_units_Z 13
_cell_length_a 13.648484
_cell_length_b 12.127771
_cell_length_c 14.518084
_cell_angle_alpha 141.950497
_cell_angle_beta 20.151541
_cell_angle_gamma 138.525085
_cell_volume 509.696492
_symmetry_space_group_name_H-M "P -1"
_symmetry_group_IT_number 2
_symmetry_cell_setting 'triclinic'
loop_
_space_group_symop_operation_xyz
x,y,z
-x,-y,-z
loop_
_atom_site_type_symbol
_atom_site_label
_atom_site_fract_x
_atom_site_fract_y
_atom_site_fract_z
Si Si1 0.180676 0.942781 0.532405
Si Si2 0.406577 0.424101 0.830052
Si Si3 0.594113 0.494359 0.520553
Si Si4 0.237674 0.897452 0.857990
Si Si5 0.023385 0.566154 0.420070
Si Si6 0.500000 0.000000 0.500000
Si Si7 0.777273 0.889337 0.684214
O O1 0.239781 0.738053 0.358069
O O2 0.918369 0.913510 0.675654
O O3 0.462364 0.048367 0.319113
O O4 0.049599 0.025093 0.795045
O O5 0.352739 0.458385 0.790252
O O6 0.687314 0.555727 0.684150
O O7 0.479553 0.220412 0.652375
O O8 0.172313 0.469726 0.141296
O O9 0.500000 0.500000 0.500000
O O10 0.773638 0.316793 0.262513
O O11 0.734347 0.689690 0.550127
O O12 0.304546 0.990501 0.762519
O O13 0.000000 0.500000 0.500000
O O14 0.000000 0.000000 0.500000
O O15 0.500000 0.000000 0.000000
#
# Coordination Sequence:
#
# PCOD9049173 Si02
#       7
#     2   2   2   2   2   1   2
#     4  12  24  46  70 106 141 187 245 295 362 429
#     4  11  25  43  70 107 141 194 236 299 351 445
#     4  11  25  48  72 105 148 192 244 300 367 435
#     4  11  26  45  74 105 145 193 240 300 364 439
#     4  12  24  43  72 104 145 183 243 296 365 421
#     4  10  24  46  70 104 154 186 242 292 374 426
#     4  12  27  46  74 102 142 188 246 304 360 427
#
# _framework density 25.505374
#
# number of rings (size 3 to 8) (size 9 to 14) (size 15 to 20)
#    0.000    0.615    1.538    6.000    2.154    7.385 
#    0.000    5.385    0.000    0.000    0.000    0.000 
#    0.000    0.000    0.000    0.000    0.000    0.000 
#
# Total GULP energy -72400.603023 kJ/mol
# GULP energy per Si atom -5569.277156 kJ/mol
# Density = 2.544732 g / cm^3
# Si number density = 25.505374 Si / 1000 Ang^3
#
#
#
# Elastic Constant Matrix: (Units=GPa)
#
#
# Indices 1 2 3 4 5 6 
#
# 1 127.2454 27.2889 4.8807 -21.8549 30.3478 -0.0240
# 2 27.2889 202.4193 39.8805 -6.6546 6.4243 5.7633
# 3 4.8807 39.8805 131.1806 -26.1419 27.3980 10.4071
# 4 -21.8549 -6.6546 -26.1419 38.0553 3.0024 4.3443
# 5 30.3478 6.4243 27.3980 3.0024 40.0284 -18.6791
# 6 -0.0240 5.7633 10.4071 4.3443 -18.6791 46.0859
#
#
#
# Elastic Compliance Matrix: (Units=1/GPa)
#
#
# Indices 1 2 3 4 5 6 
#
# 1 0.022548 -0.003354 0.016152 0.029169 -0.040184 -0.022253
# 2 -0.003354 0.005760 -0.004095 -0.004586 0.006242 0.003165
# 3 0.016152 -0.004095 0.026253 0.033128 -0.044426 -0.026537
# 4 0.029169 -0.004586 0.033128 0.075260 -0.069340 -0.042091
# 5 -0.040184 0.006242 -0.044426 -0.069340 0.120134 0.064459
# 6 -0.022253 0.003165 -0.026537 -0.042091 0.064459 0.057377
#
#
# Mechanical properties :
#
#
# Convention : Reuss Voigt Hill
#
# Bulk Modulus (GPa) = 13.89549 67.21619 40.55584
# Shear Modulus (GPa) = 15.92782 50.75361 33.34071
#
# Velocity S-wave (km/s) = 2.50169 4.46569 3.61945
# Velocity P-wave (km/s) = 3.71544 7.28016 5.77950
#
# Compressibility (1/GPa) = 0.07196578
#
# Stress axis : x y z
#
# Youngs Moduli (GPa) = 44.34981 173.60381 38.09113
#
# Poissons Ratio (x) = 0.58229 -0.61523
# Poissons Ratio (y) = 0.14875 0.15599
# Poissons Ratio (z) = -0.71632 0.71093
#
# Static dielectric constant tensor:
#      x y z
#    x 2.241760 0.038520 0.344570 
#    y 0.038520 1.630270 0.019630 
#    z 0.344570 0.019630 1.639210 
# 
# From -- ./inp_files/531992.got.cif
#   From: 2010.05.17/outbox.cif.g08.bks.cpg/sg2_266_cif.got.tgz:531992.got - 2010.06.03 11:33:40.
