data_PCOD9049533
_publ_section_title
;
Structure prediction by ZEFSAII (Michael W. Deem and Ramdas Pophale) SiO2 
 PCOD9049533
Probable space group: P -1
;
_chemical_formula_sum "Si O2"
_cell_formula_units_Z 14
_cell_length_a 17.446146
_cell_length_b 5.444538
_cell_length_c 14.808718
_cell_angle_alpha 115.323685
_cell_angle_beta 152.275614
_cell_angle_gamma 56.705160
_cell_volume 540.814711
_symmetry_space_group_name_H-M "P -1"
_symmetry_group_IT_number 2
_symmetry_cell_setting 'triclinic'
loop_
_space_group_symop_operation_xyz
x,y,z
-x,-y,-z
loop_
_atom_site_type_symbol
_atom_site_label
_atom_site_fract_x
_atom_site_fract_y
_atom_site_fract_z
Si Si1 0.623063 0.624690 0.379349
Si Si2 0.112565 0.723060 0.259135
Si Si3 0.210467 0.779279 0.671634
Si Si4 0.782082 0.293004 0.030530
Si Si5 0.197733 0.373748 0.733923
Si Si6 0.870387 0.396208 0.940314
Si Si7 0.486597 0.183109 0.423736
O O1 0.703418 0.405363 0.513870
O O2 0.751609 0.460709 0.405489
O O3 0.418544 0.675693 0.153986
O O4 0.614293 0.946355 0.448431
O O5 0.116727 0.790654 0.166893
O O6 0.048467 0.451162 0.149505
O O7 0.956510 0.994198 0.189051
O O8 0.281268 0.580823 0.803622
O O9 0.290531 0.018885 0.764943
O O10 0.000000 0.000000 0.500000
O O11 0.797521 0.317007 0.942898
O O12 0.810284 0.549857 0.156877
O O13 0.000000 0.500000 0.500000
O O14 0.717659 0.718361 0.806729
O O15 0.500000 0.500000 0.500000
O O16 0.500000 0.000000 0.500000
#
# Coordination Sequence:
#
# PCOD9049533 Si02
#       7
#     2   2   2   2   2   2   2
#     4  12  27  49  82 114 158 218 264 331 415 469
#     4  11  25  48  72 113 160 208 270 324 400 477
#     4  10  24  48  76 113 153 202 267 331 400 475
#     4  12  27  47  78 116 158 211 276 328 403 488
#     4  10  24  46  77 108 155 199 261 339 396 465
#     4  11  26  45  75 109 164 208 269 325 401 471
#     4  12  26  49  76 115 162 206 264 322 387 481
#
# _framework density 25.886872
#
# number of rings (size 3 to 8) (size 9 to 14) (size 15 to 20)
#    0.000    0.857    2.857    3.000    6.000    4.571 
#    0.000    0.000    0.000    0.000    0.000    0.000 
#    0.000    0.000    0.000    0.000    0.000    0.000 
#
# Total GULP energy -78314.493865 kJ/mol
# GULP energy per Si atom -5593.892419 kJ/mol
# Density = 2.582795 g / cm^3
# Si number density = 25.886872 Si / 1000 Ang^3
#
#
#
# Elastic Constant Matrix: (Units=GPa)
#
#
# Indices 1 2 3 4 5 6 
#
# 1 110.2233 59.2865 13.9779 -3.7318 -8.7493 -10.5609
# 2 59.2865 185.5044 33.1335 -2.0358 -4.3098 -14.1635
# 3 13.9779 33.1335 95.8943 -4.5230 -3.2176 -9.7170
# 4 -3.7318 -2.0358 -4.5230 35.4915 -2.4763 -2.5846
# 5 -8.7493 -4.3098 -3.2176 -2.4763 30.0362 -3.3791
# 6 -10.5609 -14.1635 -9.7170 -2.5846 -3.3791 65.5602
#
#
#
# Elastic Compliance Matrix: (Units=1/GPa)
#
#
# Indices 1 2 3 4 5 6 
#
# 1 0.011335 -0.003408 -0.000184 0.001278 0.003041 0.001270
# 2 -0.003408 0.006849 -0.001816 -0.000160 -0.000145 0.000648
# 3 -0.000184 -0.001816 0.011333 0.001503 0.001179 0.001378
# 4 0.001278 -0.000160 0.001503 0.028830 0.003077 0.001689
# 5 0.003041 -0.000145 0.001179 0.003077 0.034825 0.002550
# 6 0.001270 0.000648 0.001378 0.001689 0.002550 0.016000
#
#
# Mechanical properties :
#
#
# Convention : Reuss Voigt Hill
#
# Bulk Modulus (GPa) = 53.47612 67.15753 60.31682
# Shear Modulus (GPa) = 39.61283 45.23252 42.42268
#
# Velocity S-wave (km/s) = 3.91606 4.18462 4.05257
# Velocity P-wave (km/s) = 6.41481 7.02475 6.72670
#
# Compressibility (1/GPa) = 0.01869994
#
# Stress axis : x y z
#
# Youngs Moduli (GPa) = 88.21956 146.01222 88.24114
#
# Poissons Ratio (x) = 0.49766 0.01621
# Poissons Ratio (y) = 0.30068 0.16028
# Poissons Ratio (z) = 0.01620 0.26521
#
# Static dielectric constant tensor:
#      x y z
#    x 2.194180 0.070770 0.099810 
#    y 0.070770 2.069700 0.046850 
#    z 0.099810 0.046850 2.106750 
# 
# From -- ./inp_files/536451.got.cif
#   From: 2010.05.17/outbox.cif.g08.bks.cpg/sg2_269_cif.got.tgz:536451.got - 2010.06.03 11:33:40.
