data_PCOD9049869
_publ_section_title
;
Structure prediction by ZEFSAII (Michael W. Deem and Ramdas Pophale) SiO2 
 PCOD9049869
Probable space group: P -1
;
_chemical_formula_sum "Si O2"
_cell_formula_units_Z 15
_cell_length_a 8.127349
_cell_length_b 6.303286
_cell_length_c 16.885621
_cell_angle_alpha 57.464524
_cell_angle_beta 123.734724
_cell_angle_gamma 99.121110
_cell_volume 594.235108
_symmetry_space_group_name_H-M "P -1"
_symmetry_group_IT_number 2
_symmetry_cell_setting 'triclinic'
loop_
_space_group_symop_operation_xyz
x,y,z
-x,-y,-z
loop_
_atom_site_type_symbol
_atom_site_label
_atom_site_fract_x
_atom_site_fract_y
_atom_site_fract_z
Si Si1 0.000000 0.000000 0.000000
Si Si2 0.180974 0.326680 0.800540
Si Si3 0.850039 0.008298 0.737234
Si Si4 0.205490 0.409980 0.618269
Si Si5 0.599497 0.355660 0.894563
Si Si6 0.306221 0.891579 0.495726
Si Si7 0.148766 0.509141 0.927346
Si Si8 0.579256 0.051272 0.317153
O O1 0.214844 0.795431 0.076282
O O2 0.874491 0.771372 0.997035
O O3 0.142037 0.472560 0.678684
O O4 0.416591 0.201479 0.878005
O O5 0.179460 0.492030 0.845069
O O6 0.004528 0.161376 0.791860
O O7 0.620669 0.064210 0.693944
O O8 0.843334 0.048593 0.631676
O O9 0.943156 0.715694 0.840943
O O10 0.302941 0.113733 0.689096
O O11 0.000000 0.500000 0.500000
O O12 0.349056 0.586528 0.583682
O O13 0.502841 0.646191 0.781078
O O14 0.684622 0.391779 0.997229
O O15 0.273775 0.993302 0.557006
O O16 0.500000 0.000000 0.500000
#
# Coordination Sequence:
#
# PCOD9049869 Si02
#       8
#     1   2   2   2   2   2   2   2
#     4  12  28  54  86 106 158 200 280 322 390 472
#     4  12  29  47  78 114 163 203 260 326 390 471
#     4  11  26  49  77 119 154 209 262 329 391 465
#     4  12  27  49  76 119 157 209 257 320 397 466
#     4  12  28  52  80 119 151 213 260 331 393 461
#     4  10  24  47  77 115 154 204 256 321 387 464
#     4  12  29  48  79 116 161 205 262 328 392 473
#     4  11  27  49  81 112 161 203 266 318 394 472
#
# _framework density 25.242532000000001
#
# number of rings (size 3 to 8) (size 9 to 14) (size 15 to 20)
#    0.000    0.533    4.000    1.600    7.467    6.933 
#    0.000    0.000    0.000    0.000    0.000    0.000 
#    0.000    0.000    0.000    0.000    0.000    0.000 
#
# Total GULP energy -83611.677294 kJ/mol
# GULP energy per Si atom -5574.111820 kJ/mol
# Density = 2.518508 g / cm^3
# Si number density = 25.242532 Si / 1000 Ang^3
#
#
#
# Elastic Constant Matrix: (Units=GPa)
#
#
# Indices 1 2 3 4 5 6 
#
# 1 95.6472 45.7154 22.8925 -0.4395 19.7628 -3.3476
# 2 45.7154 123.7192 64.1653 1.1966 7.8853 3.6566
# 3 22.8925 64.1653 120.9552 21.7141 0.2416 -17.9277
# 4 -0.4395 1.1966 21.7141 57.1452 3.0834 -3.5512
# 5 19.7628 7.8853 0.2416 3.0834 40.7185 8.1043
# 6 -3.3476 3.6566 -17.9277 -3.5512 8.1043 37.8639
#
#
#
# Elastic Compliance Matrix: (Units=1/GPa)
#
#
# Indices 1 2 3 4 5 6 
#
# 1 0.014350 -0.005235 0.000482 0.000615 -0.006696 0.003493
# 2 -0.005235 0.014094 -0.007687 0.002207 0.000769 -0.005421
# 3 0.000482 -0.007687 0.014152 -0.004785 0.000139 0.007007
# 4 0.000615 0.002207 -0.004785 0.019382 -0.002136 -0.000149
# 5 -0.006696 0.000769 0.000139 -0.002136 0.029225 -0.007056
# 6 0.003493 -0.005421 0.007007 -0.000149 -0.007056 0.032057
#
#
# Mechanical properties :
#
#
# Convention : Reuss Voigt Hill
#
# Bulk Modulus (GPa) = 56.44869 67.31868 61.88368
# Shear Modulus (GPa) = 32.45796 40.98207 36.72002
#
# Velocity S-wave (km/s) = 3.58976 4.03368 3.81818
# Velocity P-wave (km/s) = 6.29229 6.95850 6.63376
#
# Compressibility (1/GPa) = 0.01771520
#
# Stress axis : x y z
#
# Youngs Moduli (GPa) = 69.68400 70.95291 70.66373
#
# Poissons Ratio (x) = 0.37143 -0.03404
# Poissons Ratio (y) = 0.36479 0.54320
# Poissons Ratio (z) = -0.03357 0.54542
#
# Static dielectric constant tensor:
#      x y z
#    x 2.076150 0.037070 -0.086610 
#    y 0.037070 1.992190 0.048910 
#    z -0.086610 0.048910 2.023810 
# 
# From -- ./inp_files/553304.got.cif
#   From: 2010.05.17/outbox.cif.g08.bks.cpg/sg2_277_cif.got.tgz:553304.got - 2010.06.03 11:33:40.
