data_PCOD9049806
_publ_section_title
;
Structure prediction by ZEFSAII (Michael W. Deem and Ramdas Pophale) SiO2 
 PCOD9049806
Probable space group: P -1
;
_chemical_formula_sum "Si O2"
_cell_formula_units_Z 16
_cell_length_a 12.075108
_cell_length_b 17.640772
_cell_length_c 8.994103
_cell_angle_alpha 139.991503
_cell_angle_beta 141.714185
_cell_angle_gamma 39.431776
_cell_volume 689.103414
_symmetry_space_group_name_H-M "P -1"
_symmetry_group_IT_number 2
_symmetry_cell_setting 'triclinic'
loop_
_space_group_symop_operation_xyz
x,y,z
-x,-y,-z
loop_
_atom_site_type_symbol
_atom_site_label
_atom_site_fract_x
_atom_site_fract_y
_atom_site_fract_z
Si Si1 0.206100 0.378247 0.502234
Si Si2 0.941629 0.264781 0.918340
Si Si3 0.478083 0.678657 0.998844
Si Si4 0.526052 0.398801 0.661876
Si Si5 0.036416 0.825607 0.733386
Si Si6 0.503113 0.796476 0.890550
Si Si7 0.040158 0.347599 0.838566
Si Si8 0.881663 0.976820 0.084975
O O1 0.351231 0.332271 0.725486
O O2 0.335287 0.412337 0.570619
O O3 0.000000 0.500000 0.500000
O O4 0.130561 0.276054 0.205992
O O5 0.925477 0.324753 0.825371
O O6 0.984394 0.118134 0.787469
O O7 0.728945 0.355954 0.904085
O O8 0.485648 0.537642 0.762180
O O9 0.512203 0.734612 0.967081
O O10 0.255818 0.772139 0.954397
O O11 0.570197 0.280676 0.418244
O O12 0.010121 0.708007 0.448917
O O13 0.889010 0.896628 0.819762
O O14 0.035901 0.922596 0.744814
O O15 0.337091 0.942913 0.956758
O O16 0.733107 0.751816 0.032421
O O17 0.000000 0.500000 0.000000
#
# Coordination Sequence:
#
# PCOD9049806 Si02
#       8
#     2   2   2   2   2   2   2   2
#     4  12  27  44  67 113 147 183 241 302 372 437
#     4  12  26  46  73 106 148 198 238 301 362 436
#     4  11  23  43  73 103 143 188 242 302 371 432
#     4  12  24  46  72 103 146 188 243 299 371 429
#     4  10  24  47  75 103 144 196 246 302 358 438
#     4  11  25  45  69 107 140 192 248 297 358 433
#     4  12  26  46  75 113 147 187 247 311 372 428
#     4  10  25  48  69 105 142 201 249 288 366 429
#
# _framework density 23.218575000000001
#
# number of rings (size 3 to 8) (size 9 to 14) (size 15 to 20)
#    0.000    0.750    2.500    4.500    3.500    3.000 
#    6.750    0.000    0.000    0.000    0.000    0.000 
#    0.000    0.000    0.000    0.000    0.000    0.000 
#
# Total GULP energy -89404.212465 kJ/mol
# GULP energy per Si atom -5587.763279 kJ/mol
# Density = 2.316573 g / cm^3
# Si number density = 23.218575 Si / 1000 Ang^3
#
#
#
# Elastic Constant Matrix: (Units=GPa)
#
#
# Indices 1 2 3 4 5 6 
#
# 1 164.6629 79.0577 31.9734 5.8658 12.4790 -7.1904
# 2 79.0577 153.5523 23.7093 3.5906 8.0924 -5.9659
# 3 31.9734 23.7093 113.6655 -0.7679 -5.7353 -13.6908
# 4 5.8658 3.5906 -0.7679 32.6123 -10.4317 1.1814
# 5 12.4790 8.0924 -5.7353 -10.4317 35.9977 -7.4010
# 6 -7.1904 -5.9659 -13.6908 1.1814 -7.4010 44.0647
#
#
#
# Elastic Compliance Matrix: (Units=1/GPa)
#
#
# Indices 1 2 3 4 5 6 
#
# 1 0.008618 -0.003958 -0.001782 -0.002118 -0.003023 -0.000134
# 2 -0.003958 0.008726 -0.000730 -0.000536 -0.000823 0.000185
# 3 -0.001782 -0.000730 0.010035 0.001648 0.003532 0.003277
# 4 -0.002118 -0.000536 0.001648 0.034753 0.011410 0.001078
# 5 -0.003023 -0.000823 0.003532 0.011410 0.034098 0.005914
# 6 -0.000134 0.000185 0.003277 0.001078 0.005914 0.024680
#
#
# Mechanical properties :
#
#
# Convention : Reuss Voigt Hill
#
# Bulk Modulus (GPa) = 69.24990 77.92906 73.58948
# Shear Modulus (GPa) = 36.05887 42.34429 39.20158
#
# Velocity S-wave (km/s) = 3.94511 4.27514 4.11344
# Velocity P-wave (km/s) = 7.11631 7.61612 7.37045
#
# Compressibility (1/GPa) = 0.01444045
#
# Stress axis : x y z
#
# Youngs Moduli (GPa) = 116.03408 114.59742 99.64956
#
# Poissons Ratio (x) = 0.45362 0.17753
# Poissons Ratio (y) = 0.45931 0.07270
# Poissons Ratio (z) = 0.20672 0.08361
#
# Static dielectric constant tensor:
#      x y z
#    x 1.952350 -0.017120 0.038220 
#    y -0.017120 1.945060 0.036540 
#    z 0.038220 0.036540 1.981550 
# 
# From -- ./inp_files/280197.got.cif
#   From: 2010.05.17/outbox.cif.g08.bks.cpg/sg2_141_cif.got.tgz:280197.got - 2010.06.03 11:33:40.
