data_PCOD9049277
_publ_section_title
;
Structure prediction by ZEFSAII (Michael W. Deem and Ramdas Pophale) SiO2 
 PCOD9049277
Probable space group: P -1
;
_chemical_formula_sum "Si O2"
_cell_formula_units_Z 16
_cell_length_a 11.882045
_cell_length_b 7.821265
_cell_length_c 13.940702
_cell_angle_alpha 61.322640
_cell_angle_beta 136.985427
_cell_angle_gamma 127.377963
_cell_volume 700.760739
_symmetry_space_group_name_H-M "P -1"
_symmetry_group_IT_number 2
_symmetry_cell_setting 'triclinic'
loop_
_space_group_symop_operation_xyz
x,y,z
-x,-y,-z
loop_
_atom_site_type_symbol
_atom_site_label
_atom_site_fract_x
_atom_site_fract_y
_atom_site_fract_z
Si Si1 0.612882 0.228649 0.823115
Si Si2 0.942570 0.247512 0.551704
Si Si3 0.565096 0.507181 0.885563
Si Si4 0.719664 0.262046 0.667150
Si Si5 0.431648 0.784837 0.606738
Si Si6 0.796564 0.117534 0.306339
Si Si7 0.329054 0.044937 0.922314
Si Si8 0.123255 0.395214 0.810778
O O1 0.631481 0.413274 0.860769
O O2 0.680067 0.310388 0.736815
O O3 0.397895 0.065200 0.730949
O O4 0.712977 0.089155 0.969624
O O5 0.734207 0.157532 0.482398
O O6 0.940795 0.150524 0.472221
O O7 0.000000 0.500000 0.500000
O O8 0.062840 0.248263 0.717419
O O9 0.457813 0.634666 0.742667
O O10 0.425308 0.302420 0.913359
O O11 0.739192 0.640506 0.022677
O O12 0.628266 0.332546 0.502121
O O13 0.933185 0.350576 0.756697
O O14 0.616457 0.002173 0.660696
O O15 0.790490 0.350203 0.230419
O O16 0.817919 0.051406 0.228834
O O17 0.500000 0.000000 0.000000
#
# Coordination Sequence:
#
# PCOD9049277 Si02
#       8
#     2   2   2   2   2   2   2   2
#     4  10  17  34  60  81 106 152 185 220 274 340
#     4   9  18  31  57  78 106 145 185 218 268 332
#     4  10  19  34  59  84 114 140 180 239 278 312
#     4  10  22  35  56  79 111 156 188 214 270 340
#     4  10  21  38  53  83 115 144 187 228 272 328
#     4   9  14  32  55  80 102 142 192 213 264 330
#     4   8  15  30  56  80 104 143 181 220 272 329
#     4  10  18  33  53  86 111 145 180 232 270 326
#
# _framework density 22.832329000000001
#
# number of rings (size 3 to 8) (size 9 to 14) (size 15 to 20)
#    0.000    2.750    5.000    0.000    0.000    1.500 
#    0.000    5.625    0.000   27.000    3.250    0.000 
#    0.000    0.000    0.000    0.000    0.000    0.000 
#
# Total GULP energy -89313.588300 kJ/mol
# GULP energy per Si atom -5582.099269 kJ/mol
# Density = 2.278036 g / cm^3
# Si number density = 22.832329 Si / 1000 Ang^3
#
#
#
# Elastic Constant Matrix: (Units=GPa)
#
#
# Indices 1 2 3 4 5 6 
#
# 1 83.5897 19.0877 37.5110 12.0585 -16.8718 -6.2991
# 2 19.0877 49.2769 32.3667 13.8026 3.3486 -3.4836
# 3 37.5110 32.3667 161.2433 31.5889 -10.2311 -13.2165
# 4 12.0585 13.8026 31.5889 34.1434 -12.0476 -9.5234
# 5 -16.8718 3.3486 -10.2311 -12.0476 27.7160 9.6817
# 6 -6.2991 -3.4836 -13.2165 -9.5234 9.6817 23.4801
#
#
#
# Elastic Compliance Matrix: (Units=1/GPa)
#
#
# Indices 1 2 3 4 5 6 
#
# 1 0.016338 -0.006374 -0.002449 0.002698 0.011546 -0.001608
# 2 -0.006374 0.028850 -0.002838 -0.011108 -0.014028 0.002252
# 3 -0.002449 -0.002838 0.008555 -0.005791 -0.001159 0.001867
# 4 0.002698 -0.011108 -0.005791 0.046754 0.018700 0.007068
# 5 0.011546 -0.014028 -0.001159 0.018700 0.058096 -0.016007
# 6 -0.001608 0.002252 0.001867 0.007068 -0.016007 0.053010
#
#
# Mechanical properties :
#
#
# Convention : Reuss Voigt Hill
#
# Bulk Modulus (GPa) = 32.87104 52.44895 42.66000
# Shear Modulus (GPa) = 20.40279 30.74421 25.57350
#
# Velocity S-wave (km/s) = 2.99254 3.67348 3.35036
# Velocity P-wave (km/s) = 5.13502 6.40420 5.80440
#
# Compressibility (1/GPa) = 0.03042191
#
# Stress axis : x y z
#
# Youngs Moduli (GPa) = 61.20800 34.66175 116.88806
#
# Poissons Ratio (x) = 0.22093 0.28626
# Poissons Ratio (y) = 0.39013 0.33170
# Poissons Ratio (z) = 0.14990 0.09836
#
# Static dielectric constant tensor:
#      x y z
#    x 1.929090 -0.035590 -0.025300 
#    y -0.035590 1.844250 -0.011940 
#    z -0.025300 -0.011940 1.946340 
# 
# From -- ./inp_files/528300.got.cif
#   From: 2010.05.17/outbox.cif.g08.bks.cpg/sg2_265_cif.got.tgz:528300.got - 2010.06.03 11:33:40.
