data_PCOD9049139
_publ_section_title
;
Structure prediction by ZEFSAII (Michael W. Deem and Ramdas Pophale) SiO2 
 PCOD9049139
Probable space group: P -1
;
_chemical_formula_sum "Si O2"
_cell_formula_units_Z 14
_cell_length_a 8.742449
_cell_length_b 17.674848
_cell_length_c 14.527521
_cell_angle_alpha 21.622717
_cell_angle_beta 129.531540
_cell_angle_gamma 129.829017
_cell_volume 628.527150
_symmetry_space_group_name_H-M "P -1"
_symmetry_group_IT_number 2
_symmetry_cell_setting 'triclinic'
loop_
_space_group_symop_operation_xyz
x,y,z
-x,-y,-z
loop_
_atom_site_type_symbol
_atom_site_label
_atom_site_fract_x
_atom_site_fract_y
_atom_site_fract_z
Si Si1 0.333829 0.577646 0.723042
Si Si2 0.323121 0.923480 0.180954
Si Si3 0.297903 0.354661 0.621327
Si Si4 0.954701 0.296877 0.824515
Si Si5 0.247990 0.104711 0.702106
Si Si6 0.249904 0.576396 0.904107
Si Si7 0.997740 0.206212 0.322887
O O1 0.341119 0.790547 0.428734
O O2 0.256660 0.609664 0.760292
O O3 0.184650 0.393281 0.822616
O O4 0.549226 0.507453 0.895128
O O5 0.120476 0.821941 0.164032
O O6 0.515461 0.895607 0.222708
O O7 0.332662 0.170830 0.911699
O O8 0.500000 0.500000 0.500000
O O9 0.157299 0.505022 0.436873
O O10 0.212818 0.233599 0.633448
O O11 0.867704 0.129739 0.059096
O O12 0.160233 0.204805 0.467593
O O13 0.207603 0.770476 0.729546
O O14 0.064219 0.396598 0.063636
O O15 0.000000 0.000000 0.500000
#
# Coordination Sequence:
#
# PCOD9049139 Si02
#       7
#     2   2   2   2   2   2   2
#     4  11  23  45  67  99 146 179 212 285 351 396
#     4  11  22  40  63  99 139 172 223 273 327 416
#     4  11  20  38  66  97 132 176 226 270 331 391
#     4  11  22  40  66  97 137 179 218 273 338 404
#     4  11  21  39  67  98 131 170 230 282 317 406
#     4  10  24  46  69  96 136 177 228 280 338 401
#     4  11  23  45  72 100 125 178 239 281 326 397
#
# _framework density 22.274294999999999
#
# number of rings (size 3 to 8) (size 9 to 14) (size 15 to 20)
#    0.000    1.143    4.286    3.000    0.000    1.714 
#    2.571   12.143    0.000    0.000    0.000    0.000 
#    0.000    0.000    0.000    0.000    0.000    0.000 
#
# Total GULP energy -78326.312939 kJ/mol
# GULP energy per Si atom -5594.736639 kJ/mol
# Density = 2.222360 g / cm^3
# Si number density = 22.274295 Si / 1000 Ang^3
#
#
#
# Elastic Constant Matrix: (Units=GPa)
#
#
# Indices 1 2 3 4 5 6 
#
# 1 89.0398 21.9282 46.3354 1.8360 -6.4638 -8.3294
# 2 21.9282 59.4869 46.6711 2.8722 -6.3767 -3.3923
# 3 46.3354 46.6711 138.8839 -2.4447 -22.0723 -17.6813
# 4 1.8360 2.8722 -2.4447 37.3437 -10.0964 -1.3107
# 5 -6.4638 -6.3767 -22.0723 -10.0964 39.8494 -1.1526
# 6 -8.3294 -3.3923 -17.6813 -1.3107 -1.1526 27.9872
#
#
#
# Elastic Compliance Matrix: (Units=1/GPa)
#
#
# Indices 1 2 3 4 5 6 
#
# 1 0.013845 -0.002012 -0.003839 -0.000829 -0.000372 0.001397
# 2 -0.002012 0.023574 -0.007959 -0.002816 -0.001762 -0.002974
# 3 -0.003839 -0.007959 0.013087 0.003637 0.006465 0.006597
# 4 -0.000829 -0.002816 0.003637 0.029855 0.009094 0.003482
# 5 -0.000372 -0.001762 0.006465 0.009094 0.030795 0.005454
# 6 0.001397 -0.002974 0.006597 0.003482 0.005454 0.040342
#
#
# Mechanical properties :
#
#
# Convention : Reuss Voigt Hill
#
# Bulk Modulus (GPa) = 43.69402 57.47556 50.58479
# Shear Modulus (GPa) = 26.77458 32.53445 29.65452
#
# Velocity S-wave (km/s) = 3.47081 3.82596 3.65270
# Velocity P-wave (km/s) = 5.97670 6.73624 6.36780
#
# Compressibility (1/GPa) = 0.02288643
#
# Stress axis : x y z
#
# Youngs Moduli (GPa) = 72.22904 42.42013 76.41292
#
# Poissons Ratio (x) = 0.08535 0.29333
# Poissons Ratio (y) = 0.14532 0.60815
# Poissons Ratio (z) = 0.27727 0.33761
#
# Static dielectric constant tensor:
#      x y z
#    x 1.847280 0.001290 0.001890 
#    y 0.001290 1.819180 -0.010620 
#    z 0.001890 -0.010620 1.830560 
# 
# From -- ./inp_files/116838.got.cif
#   From: 2010.05.17/outbox.cif.g08.bks.cpg/sg2_59_cif.got.tgz:116838.got - 2010.06.03 11:33:40.
