data_PCOD9049169
_publ_section_title
;
Structure prediction by ZEFSAII (Michael W. Deem and Ramdas Pophale) SiO2 
 PCOD9049169
Probable space group: P -1
;
_chemical_formula_sum "Si O2"
_cell_formula_units_Z 16
_cell_length_a 5.060766
_cell_length_b 26.268114
_cell_length_c 12.940217
_cell_angle_alpha 151.880668
_cell_angle_beta 126.267616
_cell_angle_gamma 63.725185
_cell_volume 639.383052
_symmetry_space_group_name_H-M "P -1"
_symmetry_group_IT_number 2
_symmetry_cell_setting 'triclinic'
loop_
_space_group_symop_operation_xyz
x,y,z
-x,-y,-z
loop_
_atom_site_type_symbol
_atom_site_label
_atom_site_fract_x
_atom_site_fract_y
_atom_site_fract_z
Si Si1 0.842492 0.089742 0.727086
Si Si2 0.110299 0.891735 0.477426
Si Si3 0.400493 0.107629 0.221484
Si Si4 0.767714 0.478060 0.276637
Si Si5 0.424181 0.631274 0.608617
Si Si6 0.263112 0.427578 0.896584
Si Si7 0.188453 0.788049 0.683076
Si Si8 0.459821 0.718784 0.983278
O O1 0.874661 0.113669 0.654295
O O2 0.500000 0.000000 0.500000
O O3 0.788080 0.201588 0.964924
O O4 0.094956 0.022296 0.717237
O O5 0.399353 0.871804 0.585807
O O6 0.770029 0.799797 0.257848
O O7 0.013744 0.115812 0.164250
O O8 0.556539 0.193112 0.320476
O O9 0.500000 0.000000 0.000000
O O10 0.613035 0.572773 0.464300
O O11 0.757962 0.384778 0.193479
O O12 0.096861 0.539336 0.402376
O O13 0.497546 0.412432 0.017727
O O14 0.598786 0.669216 0.825450
O O15 0.344761 0.740150 0.732232
O O16 0.096410 0.313560 0.602951
O O17 0.500000 0.500000 0.000000
O O18 0.000000 0.500000 0.000000
#
# Coordination Sequence:
#
# PCOD9049169 Si02
#       8
#     2   2   2   2   2   2   2   2
#     4   9  22  43  69 101 132 181 232 290 349 425
#     4  10  24  46  70 104 137 180 243 287 360 421
#     4  12  29  47  76 106 147 181 238 301 356 428
#     4  12  25  45  68 108 146 184 240 290 346 421
#     4  12  27  46  70 103 148 187 238 286 353 424
#     4  12  22  43  70 101 140 189 234 286 340 416
#     4  12  26  48  72 108 140 195 236 286 366 425
#     4  11  26  42  74  99 142 187 233 296 353 409
#
# _framework density 25.02412
#
# number of rings (size 3 to 8) (size 9 to 14) (size 15 to 20)
#    0.000    0.750    2.500    3.375   10.500    3.000 
#    0.000    0.000    0.000    0.000    0.000    0.000 
#    0.000    0.000    0.000    0.000    0.000    0.000 
#
# Total GULP energy -89531.095078 kJ/mol
# GULP energy per Si atom -5595.693442 kJ/mol
# Density = 2.496716 g / cm^3
# Si number density = 25.024120 Si / 1000 Ang^3
#
#
#
# Elastic Constant Matrix: (Units=GPa)
#
#
# Indices 1 2 3 4 5 6 
#
# 1 109.6423 25.0828 -6.3564 8.0855 -4.9673 9.7407
# 2 25.0828 120.8872 -8.8002 8.5985 4.9434 12.2044
# 3 -6.3564 -8.8002 49.0361 16.7500 -1.5691 3.5227
# 4 8.0855 8.5985 16.7500 39.4720 -0.0427 -1.0358
# 5 -4.9673 4.9434 -1.5691 -0.0427 38.4396 6.9449
# 6 9.7407 12.2044 3.5227 -1.0358 6.9449 33.6607
#
#
#
# Elastic Compliance Matrix: (Units=1/GPa)
#
#
# Indices 1 2 3 4 5 6 
#
# 1 0.010190 -0.001514 0.002310 -0.002819 0.002177 -0.003177
# 2 -0.001514 0.009342 0.002694 -0.002952 -0.000717 -0.003174
# 3 0.002310 0.002694 0.025743 -0.012116 0.001912 -0.005107
# 4 -0.002819 -0.002952 -0.012116 0.031810 -0.001237 0.004388
# 5 0.002177 -0.000717 0.001912 -0.001237 0.027604 -0.006303
# 6 -0.003177 -0.003174 -0.005107 0.004388 -0.006303 0.033748
#
#
# Mechanical properties :
#
#
# Convention : Reuss Voigt Hill
#
# Bulk Modulus (GPa) = 19.13725 33.26866 26.20295
# Shear Modulus (GPa) = 33.58529 40.29042 36.93785
#
# Velocity S-wave (km/s) = 3.66747 4.01691 3.84616
# Velocity P-wave (km/s) = 5.05943 5.90234 5.49707
#
# Compressibility (1/GPa) = 0.05225412
#
# Stress axis : x y z
#
# Youngs Moduli (GPa) = 98.13975 107.04221 38.84610
#
# Poissons Ratio (x) = 0.16204 -0.08973
# Poissons Ratio (y) = 0.14856 -0.10464
# Poissons Ratio (z) = -0.22669 -0.28835
#
# Static dielectric constant tensor:
#      x y z
#    x 2.032900 -0.062110 -0.007600 
#    y -0.062110 2.069840 -0.002060 
#    z -0.007600 -0.002060 1.966000 
# 
# From -- ./inp_files/371172.got.cif
#   From: 2010.05.17/outbox.cif.g08.bks.cpg/sg2_186_cif.got.tgz:371172.got - 2010.06.03 11:33:40.
