data_PCOD9049269
_publ_section_title
;
Structure prediction by ZEFSAII (Michael W. Deem and Ramdas Pophale) SiO2 
 PCOD9049269
Probable space group: P -1
;
_chemical_formula_sum "Si O2"
_cell_formula_units_Z 14
_cell_length_a 12.713384
_cell_length_b 8.036630
_cell_length_c 18.116166
_cell_angle_alpha 43.029385
_cell_angle_beta 145.787112
_cell_angle_gamma 112.381008
_cell_volume 576.922891
_symmetry_space_group_name_H-M "P -1"
_symmetry_group_IT_number 2
_symmetry_cell_setting 'triclinic'
loop_
_space_group_symop_operation_xyz
x,y,z
-x,-y,-z
loop_
_atom_site_type_symbol
_atom_site_label
_atom_site_fract_x
_atom_site_fract_y
_atom_site_fract_z
Si Si1 0.750006 0.219919 0.319907
Si Si2 0.708613 0.682300 0.691634
Si Si3 0.971522 0.139703 0.121270
Si Si4 0.017162 0.862439 0.384424
Si Si5 0.674572 0.733244 0.009421
Si Si6 0.901345 0.285599 0.796460
Si Si7 0.368430 0.156280 0.797858
O O1 0.816157 0.101118 0.481120
O O2 0.512974 0.260736 0.151740
O O3 0.709016 0.527937 0.166473
O O4 0.000000 0.000000 0.500000
O O5 0.914647 0.715883 0.817472
O O6 0.715892 0.571690 0.647526
O O7 0.500000 0.000000 0.500000
O O8 0.768013 0.406916 0.867767
O O9 0.911896 0.021958 0.194756
O O10 0.133308 0.847834 0.255972
O O11 0.189478 0.509259 0.585011
O O12 0.799015 0.947393 0.278828
O O13 0.537821 0.062257 0.858882
O O14 0.903812 0.661307 0.128851
O O15 0.000000 0.000000 0.000000
O O16 0.500000 0.000000 0.000000
#
# Coordination Sequence:
#
# PCOD9049269 Si02
#       7
#     2   2   2   2   2   2   2
#     4  11  24  43  66 104 146 187 239 291 368 430
#     4  10  24  50  75 107 137 189 249 308 366 434
#     4  10  24  46  71 107 147 184 241 303 369 435
#     4  11  24  41  67 103 143 185 237 300 354 439
#     4  11  24  44  69 101 144 191 240 300 359 435
#     4  10  24  48  75 104 148 190 244 306 363 432
#     4  11  22  40  64 100 141 185 237 288 354 433
#
# _framework density 24.266674999999999
#
# number of rings (size 3 to 8) (size 9 to 14) (size 15 to 20)
#    0.000    1.429    2.857    0.857    4.000    4.000 
#   10.286    0.000    0.000    0.000    0.000    0.000 
#    0.000    0.000    0.000    0.000    0.000    0.000 
#
# Total GULP energy -77973.637872 kJ/mol
# GULP energy per Si atom -5569.545562 kJ/mol
# Density = 2.421144 g / cm^3
# Si number density = 24.266675 Si / 1000 Ang^3
#
#
#
# Elastic Constant Matrix: (Units=GPa)
#
#
# Indices 1 2 3 4 5 6 
#
# 1 90.8967 28.1436 34.0591 -11.6877 -5.0546 -11.8956
# 2 28.1436 99.8894 24.6700 -4.8901 -10.3829 -10.4009
# 3 34.0591 24.6700 84.3563 -18.8728 4.7661 -5.3637
# 4 -11.6877 -4.8901 -18.8728 28.6443 -18.6155 4.0398
# 5 -5.0546 -10.3829 4.7661 -18.6155 29.8267 -5.0675
# 6 -11.8956 -10.4009 -5.3637 4.0398 -5.0675 42.7727
#
#
#
# Elastic Compliance Matrix: (Units=1/GPa)
#
#
# Indices 1 2 3 4 5 6 
#
# 1 0.014948 -0.001612 -0.004010 0.008030 0.008216 0.003477
# 2 -0.001612 0.012320 -0.002174 0.004651 0.007733 0.002752
# 3 -0.004010 -0.002174 0.016251 0.010243 0.002309 -0.000300
# 4 0.008030 0.004651 0.010243 0.078236 0.050728 0.003270
# 5 0.008216 0.007733 0.002309 0.050728 0.070260 0.007988
# 6 0.003477 0.002752 -0.000300 0.003270 0.007988 0.025616
#
#
# Mechanical properties :
#
#
# Convention : Reuss Voigt Hill
#
# Bulk Modulus (GPa) = 35.80663 49.87643 42.84153
# Shear Modulus (GPa) = 20.61587 32.80007 26.70797
#
# Velocity S-wave (km/s) = 2.91787 3.68047 3.32113
# Velocity P-wave (km/s) = 5.11268 6.21765 5.69204
#
# Compressibility (1/GPa) = 0.02792779
#
# Stress axis : x y z
#
# Youngs Moduli (GPa) = 66.89989 81.16822 61.53325
#
# Poissons Ratio (x) = 0.13084 0.24676
# Poissons Ratio (y) = 0.10784 0.13375
# Poissons Ratio (z) = 0.26828 0.17642
#
# Static dielectric constant tensor:
#      x y z
#    x 1.952720 -0.050170 -0.049600 
#    y -0.050170 2.180030 0.152100 
#    z -0.049600 0.152100 2.396960 
# 
# From -- ./inp_files/566451.got.cif
#   From: 2010.05.17/outbox.cif.g08.bks.cpg/sg2_284_cif.got.tgz:566451.got - 2010.06.03 11:33:40.
