data_PCOD9049771
_publ_section_title
;
Structure prediction by ZEFSAII (Michael W. Deem and Ramdas Pophale) SiO2 
 PCOD9049771
Probable space group: P -1
;
_chemical_formula_sum "Si O2"
_cell_formula_units_Z 15
_cell_length_a 5.892939
_cell_length_b 11.125898
_cell_length_c 14.420336
_cell_angle_alpha 139.806181
_cell_angle_beta 76.580081
_cell_angle_gamma 104.420939
_cell_volume 589.624050
_symmetry_space_group_name_H-M "P -1"
_symmetry_group_IT_number 2
_symmetry_cell_setting 'triclinic'
loop_
_space_group_symop_operation_xyz
x,y,z
-x,-y,-z
loop_
_atom_site_type_symbol
_atom_site_label
_atom_site_fract_x
_atom_site_fract_y
_atom_site_fract_z
Si Si1 0.888971 0.289514 0.993422
Si Si2 0.330026 0.096403 0.140018
Si Si3 0.113601 0.415425 0.242487
Si Si4 0.892559 0.851973 0.500334
Si Si5 0.563738 0.186956 0.350756
Si Si6 0.770199 0.894999 0.255703
Si Si7 0.395976 0.392191 0.758372
Si Si8 0.000000 0.500000 0.500000
O O1 0.685415 0.421983 0.076506
O O2 0.011105 0.353549 0.116266
O O3 0.067681 0.268012 0.880529
O O4 0.798894 0.073405 0.890881
O O5 0.170361 0.224346 0.175388
O O6 0.461950 0.223832 0.281285
O O7 0.500000 0.000000 0.000000
O O8 0.356246 0.545821 0.276651
O O9 0.964434 0.502860 0.388324
O O10 0.646671 0.851884 0.578418
O O11 0.810282 0.677685 0.336684
O O12 0.000000 0.000000 0.500000
O O13 0.086367 0.924151 0.602488
O O14 0.760079 0.357723 0.450545
O O15 0.672021 0.987351 0.228037
O O16 0.585850 0.782938 0.277391
#
# Coordination Sequence:
#
# PCOD9049771 Si02
#       8
#     2   2   2   2   2   2   2   1
#     4  12  25  46  73 105 143 188 241 294 366 423
#     4  12  24  46  71  98 142 191 236 292 353 429
#     4  12  27  45  70 105 144 189 242 294 359 423
#     4  10  24  47  74 102 142 190 241 294 356 425
#     4  12  26  46  76 106 146 190 240 297 361 426
#     4  11  26  47  75 108 142 187 243 295 364 430
#     4  11  26  46  73 105 144 188 238 301 354 429
#     4  12  28  46  72 108 148 192 238 298 358 426
#
# _framework density 25.439938000000001
#
# number of rings (size 3 to 8) (size 9 to 14) (size 15 to 20)
#    0.000    0.533    4.000    3.200    1.867    5.333 
#    0.000    0.000    0.000    0.000    0.000    0.000 
#    0.000    0.000    0.000    0.000    0.000    0.000 
#
# Total GULP energy -83553.469080 kJ/mol
# GULP energy per Si atom -5570.231272 kJ/mol
# Density = 2.538204 g / cm^3
# Si number density = 25.439938 Si / 1000 Ang^3
#
#
#
# Elastic Constant Matrix: (Units=GPa)
#
#
# Indices 1 2 3 4 5 6 
#
# 1 31.8163 36.2581 7.9505 20.2303 1.8321 10.1378
# 2 36.2581 122.3010 10.5349 8.1508 3.4647 36.3975
# 3 7.9505 10.5349 77.8245 4.9893 8.9894 1.6817
# 4 20.2303 8.1508 4.9893 38.1316 11.6073 5.9353
# 5 1.8321 3.4647 8.9894 11.6073 39.7168 4.3508
# 6 10.1378 36.3975 1.6817 5.9353 4.3508 43.5928
#
#
#
# Elastic Compliance Matrix: (Units=1/GPa)
#
#
# Indices 1 2 3 4 5 6 
#
# 1 0.085154 -0.023801 -0.004087 -0.043787 0.011316 0.005060
# 2 -0.023801 0.017697 -0.000165 0.011280 -0.002553 -0.010516
# 3 -0.004087 -0.000165 0.013574 0.001332 -0.003337 0.000716
# 4 -0.043787 0.011280 0.001332 0.051868 -0.013880 -0.004963
# 5 0.011316 -0.002553 -0.003337 -0.013880 0.029851 -0.001460
# 6 0.005060 -0.010516 0.000716 -0.004963 -0.001460 0.031337
#
#
# Mechanical properties :
#
#
# Convention : Reuss Voigt Hill
#
# Bulk Modulus (GPa) = 16.57858 37.93653 27.25755
# Shear Modulus (GPa) = 16.35628 36.10146 26.22887
#
# Velocity S-wave (km/s) = 2.53837 3.77116 3.21442
# Velocity P-wave (km/s) = 3.88870 5.82295 4.95120
#
# Compressibility (1/GPa) = 0.06031881
#
# Stress axis : x y z
#
# Youngs Moduli (GPa) = 11.74344 56.50645 73.67099
#
# Poissons Ratio (x) = 1.34493 0.30106
# Poissons Ratio (y) = 0.27951 0.01216
# Poissons Ratio (z) = 0.04799 0.00933
#
# Static dielectric constant tensor:
#      x y z
#    x 2.124600 0.019910 -0.055400 
#    y 0.019910 1.716420 -0.017040 
#    z -0.055400 -0.017040 2.045220 
# 
# From -- ./inp_files/39804.got.cif
#   From: 2010.05.17/outbox.cif.g08.bks.cpg/sg2_20_cif.got.tgz:39804.got - 2010.06.03 11:33:40.
