data_PCOD9049571
_publ_section_title
;
Structure prediction by ZEFSAII (Michael W. Deem and Ramdas Pophale) SiO2 
 PCOD9049571
Probable space group: P -1
;
_chemical_formula_sum "Si O2"
_cell_formula_units_Z 14
_cell_length_a 13.187818
_cell_length_b 7.871416
_cell_length_c 7.489489
_cell_angle_alpha 81.217652
_cell_angle_beta 72.921579
_cell_angle_gamma 124.296296
_cell_volume 561.930441
_symmetry_space_group_name_H-M "P -1"
_symmetry_group_IT_number 2
_symmetry_cell_setting 'triclinic'
loop_
_space_group_symop_operation_xyz
x,y,z
-x,-y,-z
loop_
_atom_site_type_symbol
_atom_site_label
_atom_site_fract_x
_atom_site_fract_y
_atom_site_fract_z
Si Si1 0.711661 0.979576 0.652233
Si Si2 0.536283 0.738148 0.428021
Si Si3 0.293655 0.591504 0.765152
Si Si4 0.197742 0.213541 0.090551
Si Si5 0.983279 0.776802 0.586049
Si Si6 0.298666 0.875039 0.998165
Si Si7 0.002065 0.302784 0.793218
O O1 0.615422 0.867058 0.550545
O O2 0.725619 0.819261 0.792589
O O3 0.868015 0.150321 0.461125
O O4 0.674547 0.077347 0.811305
O O5 0.500000 0.500000 0.500000
O O6 0.394205 0.699286 0.525449
O O7 0.627378 0.892432 0.186866
O O8 0.344131 0.762331 0.873706
O O9 0.136675 0.470846 0.811727
O O10 0.292284 0.393036 0.862870
O O11 0.131143 0.317623 0.191932
O O12 0.076053 0.965396 0.113460
O O13 0.943426 0.640620 0.447634
O O14 0.000000 0.000000 0.500000
O O15 0.130295 0.715583 0.103683
#
# Coordination Sequence:
#
# PCOD9049571 Si02
#       7
#     2   2   2   2   2   2   2
#     4   9  21  44  62  89 125 162 215 250 307 373
#     4  12  27  41  68  92 121 170 210 260 309 370
#     4  12  24  38  62 100 125 163 207 253 323 368
#     4   9  19  36  66  91 124 161 205 264 303 355
#     4   7  15  33  60  87 118 157 196 259 302 344
#     4  10  24  47  62  88 133 166 204 258 312 376
#     4   9  19  39  64  91 122 162 212 257 300 364
#
# _framework density 24.914114000000001
#
# number of rings (size 3 to 8) (size 9 to 14) (size 15 to 20)
#    0.000    2.857    0.000    3.000    8.000    2.857 
#    2.571    1.429    0.000    0.000    0.000    0.000 
#    0.000    0.000    0.000    0.000    0.000    0.000 
#
# Total GULP energy -78124.400498 kJ/mol
# GULP energy per Si atom -5580.314321 kJ/mol
# Density = 2.485741 g / cm^3
# Si number density = 24.914114 Si / 1000 Ang^3
#
#
#
# Elastic Constant Matrix: (Units=GPa)
#
#
# Indices 1 2 3 4 5 6 
#
# 1 59.6274 43.6449 13.4458 15.7069 1.1737 41.5369
# 2 43.6449 116.9395 6.9276 27.7356 -6.5265 25.3110
# 3 13.4458 6.9276 121.9232 5.0261 -18.7776 -18.2038
# 4 15.7069 27.7356 5.0261 44.3740 -14.2118 20.3071
# 5 1.1737 -6.5265 -18.7776 -14.2118 34.0980 2.7336
# 6 41.5369 25.3110 -18.2038 20.3071 2.7336 82.9356
#
#
#
# Elastic Compliance Matrix: (Units=1/GPa)
#
#
# Indices 1 2 3 4 5 6 
#
# 1 0.038146 -0.010360 -0.007095 -0.000222 -0.005913 -0.017251
# 2 -0.010360 0.013137 0.001192 -0.005654 0.000947 0.002795
# 3 -0.007095 0.001192 0.010619 0.000018 0.005901 0.005322
# 4 -0.000222 -0.005654 0.000018 0.033589 0.013483 -0.006828
# 5 -0.005913 0.000947 0.005901 0.013483 0.038630 -0.000607
# 6 -0.017251 0.002795 0.005322 -0.006828 -0.000607 0.022704
#
#
# Mechanical properties :
#
#
# Convention : Reuss Voigt Hill
#
# Bulk Modulus (GPa) = 34.04182 47.39187 40.71685
# Shear Modulus (GPa) = 25.10738 47.91296 36.51017
#
# Velocity S-wave (km/s) = 3.17796 4.39010 3.83226
# Velocity P-wave (km/s) = 5.21146 6.69035 5.99667
#
# Compressibility (1/GPa) = 0.02937563
#
# Stress axis : x y z
#
# Youngs Moduli (GPa) = 26.21480 76.12324 94.16815
#
# Poissons Ratio (x) = 0.78866 0.66816
# Poissons Ratio (y) = 0.27159 -0.11228
# Poissons Ratio (z) = 0.18600 -0.09076
#
# Static dielectric constant tensor:
#      x y z
#    x 1.995150 -0.040870 -0.030750 
#    y -0.040870 1.984380 -0.045890 
#    z -0.030750 -0.045890 2.041550 
# 
# From -- ./inp_files/242937.got.cif
#   From: 2010.05.17/outbox.cif.g08.bks.cpg/sg2_122_cif.got.tgz:242937.got - 2010.06.03 11:33:40.
