data_PCOD9049581
_publ_section_title
;
Structure prediction by ZEFSAII (Michael W. Deem and Ramdas Pophale) SiO2 
 PCOD9049581
Probable space group: P -1
;
_chemical_formula_sum "Si O2"
_cell_formula_units_Z 14
_cell_length_a 8.600431
_cell_length_b 15.650529
_cell_length_c 15.622260
_cell_angle_alpha 23.222075
_cell_angle_beta 119.715981
_cell_angle_gamma 131.342882
_cell_volume 576.763493
_symmetry_space_group_name_H-M "P -1"
_symmetry_group_IT_number 2
_symmetry_cell_setting 'triclinic'
loop_
_space_group_symop_operation_xyz
x,y,z
-x,-y,-z
loop_
_atom_site_type_symbol
_atom_site_label
_atom_site_fract_x
_atom_site_fract_y
_atom_site_fract_z
Si Si1 0.271931 0.068550 0.417141
Si Si2 0.747371 0.369303 0.295689
Si Si3 0.215426 0.093390 0.560428
Si Si4 0.470904 0.290368 0.897062
Si Si5 0.120696 0.710881 0.418139
Si Si6 0.275053 0.269074 0.698346
Si Si7 0.227001 0.854847 0.950498
O O1 0.525401 0.340022 0.237464
O O2 0.248275 0.965593 0.604212
O O3 0.272936 0.886967 0.512256
O O4 0.046871 0.044770 0.371071
O O5 0.788911 0.379406 0.399299
O O6 0.968899 0.618579 0.083744
O O7 0.355307 0.415392 0.284620
O O8 0.304274 0.057391 0.705469
O O9 0.305783 0.298231 0.781374
O O10 0.626501 0.252944 0.913579
O O11 0.318787 0.017882 0.161323
O O12 0.000000 0.500000 0.500000
O O13 0.926000 0.723124 0.392195
O O14 0.500000 0.500000 0.500000
O O15 0.236451 0.995372 0.910577
#
# Coordination Sequence:
#
# PCOD9049581 Si02
#       7
#     2   2   2   2   2   2   2
#     4  10  24  47  67 100 143 181 235 287 335 417
#     4  11  24  46  70 103 140 181 234 285 348 401
#     4  11  24  46  70 103 136 183 237 279 352 405
#     4  12  25  45  70 104 144 184 230 283 349 414
#     4  12  27  46  73 106 141 183 231 286 349 420
#     4  12  24  43  71 103 141 180 227 285 351 411
#     4  12  24  44  74 101 143 182 230 290 345 414
#
# _framework density 24.273382000000002
#
# number of rings (size 3 to 8) (size 9 to 14) (size 15 to 20)
#    0.000    0.571    2.857    5.143    4.000    1.143 
#   10.286    0.000    0.000    0.000    0.000    0.000 
#    0.000    0.000    0.000    0.000    0.000    0.000 
#
# Total GULP energy -78303.887773 kJ/mol
# GULP energy per Si atom -5593.134841 kJ/mol
# Density = 2.421814 g / cm^3
# Si number density = 24.273382 Si / 1000 Ang^3
#
#
#
# Elastic Constant Matrix: (Units=GPa)
#
#
# Indices 1 2 3 4 5 6 
#
# 1 105.0083 25.8513 2.0676 -16.5187 -7.9494 12.8842
# 2 25.8513 111.7240 21.5572 -5.5135 6.2077 -4.3940
# 3 2.0676 21.5572 95.3584 -5.6137 -16.3956 19.5912
# 4 -16.5187 -5.5135 -5.6137 33.5530 2.7698 -13.7531
# 5 -7.9494 6.2077 -16.3956 2.7698 24.3437 -12.1604
# 6 12.8842 -4.3940 19.5912 -13.7531 -12.1604 38.0334
#
#
#
# Elastic Compliance Matrix: (Units=1/GPa)
#
#
# Indices 1 2 3 4 5 6 
#
# 1 0.011530 -0.003164 0.001928 0.004137 0.004185 -0.002430
# 2 -0.003164 0.010884 -0.003819 0.001307 -0.004935 0.003191
# 3 0.001928 -0.003819 0.013867 -0.000402 0.008094 -0.005795
# 4 0.004137 0.001307 -0.000402 0.037236 0.003231 0.013454
# 5 0.004185 -0.004935 0.008094 0.003231 0.055094 0.012626
# 6 -0.002430 0.003191 -0.005795 0.013454 0.012626 0.039372
#
#
# Mechanical properties :
#
#
# Convention : Reuss Voigt Hill
#
# Bulk Modulus (GPa) = 38.21155 45.67144 41.94149
# Shear Modulus (GPa) = 26.76428 36.69367 31.72898
#
# Velocity S-wave (km/s) = 3.32417 3.89226 3.61938
# Velocity P-wave (km/s) = 5.52357 6.24947 5.89770
#
# Compressibility (1/GPa) = 0.02617010
#
# Stress axis : x y z
#
# Youngs Moduli (GPa) = 86.73175 91.87968 72.11487
#
# Poissons Ratio (x) = 0.29068 -0.13901
# Poissons Ratio (y) = 0.27439 0.27541
# Poissons Ratio (z) = -0.16719 0.35090
#
# Static dielectric constant tensor:
#      x y z
#    x 1.903140 -0.012230 0.003510 
#    y -0.012230 1.943250 -0.028600 
#    z 0.003510 -0.028600 1.952130 
# 
# From -- ./inp_files/40163.got.cif
#   From: 2010.05.17/outbox.cif.g08.bks.cpg/sg2_21_cif.got.tgz:40163.got - 2010.06.03 11:33:40.
