data_PCOD9049518
_publ_section_title
;
Structure prediction by ZEFSAII (Michael W. Deem and Ramdas Pophale) SiO2 
 PCOD9049518
Probable space group: P -1
;
_chemical_formula_sum "Si O2"
_cell_formula_units_Z 15
_cell_length_a 5.847137
_cell_length_b 11.983710
_cell_length_c 9.509991
_cell_angle_alpha 108.860188
_cell_angle_beta 78.867385
_cell_angle_gamma 77.829977
_cell_volume 591.330414
_symmetry_space_group_name_H-M "P -1"
_symmetry_group_IT_number 2
_symmetry_cell_setting 'triclinic'
loop_
_space_group_symop_operation_xyz
x,y,z
-x,-y,-z
loop_
_atom_site_type_symbol
_atom_site_label
_atom_site_fract_x
_atom_site_fract_y
_atom_site_fract_z
Si Si1 0.240998 0.885539 0.443309
Si Si2 0.737198 0.342738 0.289750
Si Si3 0.000000 0.500000 0.500000
Si Si4 0.309331 0.613729 0.996614
Si Si5 0.422700 0.208496 0.399860
Si Si6 0.434708 0.866410 0.116588
Si Si7 0.829922 0.892163 0.868741
Si Si8 0.028661 0.662608 0.314018
O O1 0.352169 0.883206 0.583628
O O2 0.413955 0.892735 0.295423
O O3 0.186899 0.754037 0.377224
O O4 0.000000 0.000000 0.500000
O O5 0.872504 0.402657 0.409031
O O6 0.485377 0.327611 0.374609
O O7 0.904812 0.202300 0.189518
O O8 0.716942 0.411581 0.173364
O O9 0.079359 0.537350 0.344652
O O10 0.410268 0.731889 0.037646
O O11 0.069404 0.643426 0.135105
O O12 0.500000 0.500000 0.000000
O O13 0.303182 0.152217 0.266732
O O14 0.237246 0.261512 0.569458
O O15 0.207627 0.966384 0.107740
O O16 0.673095 0.882333 0.020025
#
# Coordination Sequence:
#
# PCOD9049518 Si02
#       8
#     2   2   1   2   2   2   2   2
#     4  11  24  47  71 110 155 191 245 315 368 448
#     4  12  27  49  77 107 158 192 255 316 372 456
#     4  12  26  48  74 110 140 198 252 306 374 444
#     4  11  28  52  76 111 155 204 246 315 382 451
#     4  12  23  47  77 109 146 201 246 314 371 443
#     4  10  24  46  76 109 152 191 251 305 378 446
#     4  11  24  48  74 117 146 196 255 310 380 447
#     4  11  27  45  73 111 144 194 256 300 384 438
#
# _framework density 25.366529
#
# number of rings (size 3 to 8) (size 9 to 14) (size 15 to 20)
#    0.000    0.800    4.000    1.600    5.600    5.867 
#    7.200    0.000    0.000    0.000    0.000    0.000 
#    0.000    0.000    0.000    0.000    0.000    0.000 
#
# Total GULP energy -83860.612941 kJ/mol
# GULP energy per Si atom -5590.707529 kJ/mol
# Density = 2.530879 g / cm^3
# Si number density = 25.366529 Si / 1000 Ang^3
#
#
#
# Elastic Constant Matrix: (Units=GPa)
#
#
# Indices 1 2 3 4 5 6 
#
# 1 40.0735 20.3793 33.7557 -9.2296 2.4093 3.9655
# 2 20.3793 132.1734 15.6844 -19.6529 2.2059 7.4928
# 3 33.7557 15.6844 147.5732 -35.3262 -9.2150 3.8153
# 4 -9.2296 -19.6529 -35.3262 51.4968 8.0055 0.7222
# 5 2.4093 2.2059 -9.2150 8.0055 46.0909 -4.6154
# 6 3.9655 7.4928 3.8153 0.7222 -4.6154 43.4980
#
#
#
# Elastic Compliance Matrix: (Units=1/GPa)
#
#
# Indices 1 2 3 4 5 6 
#
# 1 0.033713 -0.004163 -0.007448 -0.000124 -0.003235 -0.002044
# 2 -0.004163 0.008683 0.000794 0.003245 -0.000735 -0.001318
# 3 -0.007448 0.000794 0.009799 0.005487 0.001331 -0.000267
# 4 -0.000124 0.003245 0.005487 0.024980 -0.003573 -0.001823
# 5 -0.003235 -0.000735 0.001331 -0.003573 0.023069 0.002812
# 6 -0.002044 -0.001318 -0.000267 -0.001823 0.002812 0.023755
#
#
# Mechanical properties :
#
#
# Convention : Reuss Voigt Hill
#
# Bulk Modulus (GPa) = 32.71998 51.05100 41.88549
# Shear Modulus (GPa) = 32.08849 44.88386 38.48618
#
# Velocity S-wave (km/s) = 3.56053 4.21100 3.89935
# Velocity P-wave (km/s) = 5.46169 6.61909 6.06805
#
# Compressibility (1/GPa) = 0.03056236
#
# Stress axis : x y z
#
# Youngs Moduli (GPa) = 29.66202 115.16885 102.05086
#
# Poissons Ratio (x) = 0.47943 0.76007
# Poissons Ratio (y) = 0.12348 -0.08107
# Poissons Ratio (z) = 0.22092 -0.09149
#
# Static dielectric constant tensor:
#      x y z
#    x 2.090600 -0.085910 -0.039270 
#    y -0.085910 2.043450 0.019200 
#    z -0.039270 0.019200 1.978440 
# 
# From -- ./inp_files/131744.got.cif
#   From: 2010.05.17/outbox.cif.g08.bks.cpg/sg2_66_cif.got.tgz:131744.got - 2010.06.03 11:33:40.
