data_PCOD9049170
_publ_section_title
;
Structure prediction by ZEFSAII (Michael W. Deem and Ramdas Pophale) SiO2 
 PCOD9049170
Probable space group: P -1
;
_chemical_formula_sum "Si O2"
_cell_formula_units_Z 15
_cell_length_a 14.061620
_cell_length_b 5.828177
_cell_length_c 23.546963
_cell_angle_alpha 114.463633
_cell_angle_beta 19.222294
_cell_angle_gamma 112.804665
_cell_volume 578.265970
_symmetry_space_group_name_H-M "P -1"
_symmetry_group_IT_number 2
_symmetry_cell_setting 'triclinic'
loop_
_space_group_symop_operation_xyz
x,y,z
-x,-y,-z
loop_
_atom_site_type_symbol
_atom_site_label
_atom_site_fract_x
_atom_site_fract_y
_atom_site_fract_z
Si Si1 0.295869 0.776855 0.754749
Si Si2 0.178291 0.513115 0.606554
Si Si3 0.786023 0.140859 0.833213
Si Si4 0.966793 0.296624 0.416040
Si Si5 0.500000 0.000000 0.500000
Si Si6 0.252099 0.792633 0.350711
Si Si7 0.980039 0.722022 0.163575
Si Si8 0.218822 0.871715 0.931891
O O1 0.607172 0.729178 0.546057
O O2 0.092071 0.568118 0.820099
O O3 0.314691 0.715218 0.805970
O O4 0.107308 0.030759 0.885644
O O5 0.864732 0.421221 0.795761
O O6 0.143628 0.625661 0.575213
O O7 0.330328 0.727095 0.579228
O O8 0.969673 0.149684 0.789772
O O9 0.873681 0.966438 0.712976
O O10 0.500000 0.000000 0.000000
O O11 0.171241 0.525737 0.342315
O O12 0.748136 0.253028 0.586184
O O13 0.319327 0.136926 0.667111
O O14 0.550460 0.905518 0.173781
O O15 0.000000 0.000000 0.500000
O O16 0.208816 0.752719 0.987884
#
# Coordination Sequence:
#
# PCOD9049170 Si02
#       8
#     2   2   2   2   1   2   2   2
#     4  10  25  44  71 102 139 188 236 303 363 427
#     4  11  25  49  75 104 148 188 247 300 364 440
#     4  12  29  45  72 108 147 197 244 299 362 435
#     4  11  25  47  73 104 142 193 246 299 366 431
#     4  10  24  46  70 104 140 198 234 292 362 430
#     4  11  26  46  75 104 141 193 247 305 361 434
#     4  11  26  42  70 104 145 186 240 290 365 429
#     4  11  25  44  70 105 142 183 241 304 364 424
#
# _framework density 25.939619
#
# number of rings (size 3 to 8) (size 9 to 14) (size 15 to 20)
#    0.000    1.067    1.333    2.800    9.333    8.000 
#    0.000    0.000    0.000    0.000    0.000    0.000 
#    0.000    0.000    0.000    0.000    0.000    0.000 
#
# Total GULP energy -83586.990871 kJ/mol
# GULP energy per Si atom -5572.466058 kJ/mol
# Density = 2.588058 g / cm^3
# Si number density = 25.939619 Si / 1000 Ang^3
#
#
#
# Elastic Constant Matrix: (Units=GPa)
#
#
# Indices 1 2 3 4 5 6 
#
# 1 75.3318 12.3759 8.8297 -12.1759 31.0074 -3.2643
# 2 12.3759 114.9900 38.3035 -27.7447 1.9832 33.7148
# 3 8.8297 38.3035 99.2166 -38.4051 14.1209 10.1339
# 4 -12.1759 -27.7447 -38.4051 56.1202 -5.1628 7.2152
# 5 31.0074 1.9832 14.1209 -5.1628 31.2557 4.1506
# 6 -3.2643 33.7148 10.1339 7.2152 4.1506 42.0226
#
#
#
# Elastic Compliance Matrix: (Units=1/GPa)
#
#
# Indices 1 2 3 4 5 6 
#
# 1 0.025688 -0.005324 0.003618 0.001886 -0.027503 0.007787
# 2 -0.005324 0.016285 -0.002409 0.007989 0.008664 -0.015125
# 3 0.003618 -0.002409 0.016116 0.010151 -0.008701 -0.002556
# 4 0.001886 0.007989 0.010151 0.030928 0.000006 -0.014022
# 5 -0.027503 0.008664 -0.008701 0.000006 0.064435 -0.013355
# 6 0.007787 -0.015125 -0.002556 -0.014022 -0.013355 0.040880
#
#
# Mechanical properties :
#
#
# Convention : Reuss Voigt Hill
#
# Bulk Modulus (GPa) = 20.05609 45.39517 32.72563
# Shear Modulus (GPa) = 22.81244 41.21498 32.01371
#
# Velocity S-wave (km/s) = 2.96876 3.99040 3.51688
# Velocity P-wave (km/s) = 4.41588 6.22651 5.39766
#
# Compressibility (1/GPa) = 0.04986017
#
# Stress axis : x y z
#
# Youngs Moduli (GPa) = 38.92856 61.40766 62.05161
#
# Poissons Ratio (x) = 0.32690 -0.22453
# Poissons Ratio (y) = 0.20724 0.14948
# Poissons Ratio (z) = -0.14086 0.14793
#
# Static dielectric constant tensor:
#      x y z
#    x 1.848840 -0.052190 0.066430 
#    y -0.052190 2.040670 -0.001370 
#    z 0.066430 -0.001370 2.021250 
# 
# From -- ./inp_files/94825.got.cif
#   From: 2010.05.17/outbox.cif.g08.bks.cpg/sg2_48_cif.got.tgz:94825.got - 2010.06.03 11:33:40.
