data_PCOD9049227
_publ_section_title
;
Structure prediction by ZEFSAII (Michael W. Deem and Ramdas Pophale) SiO2 
 PCOD9049227
Probable space group: P -1
;
_chemical_formula_sum "Si O2"
_cell_formula_units_Z 14
_cell_length_a 9.473687
_cell_length_b 8.732368
_cell_length_c 11.105017
_cell_angle_alpha 105.085359
_cell_angle_beta 112.686528
_cell_angle_gamma 42.862715
_cell_volume 576.214375
_symmetry_space_group_name_H-M "P -1"
_symmetry_group_IT_number 2
_symmetry_cell_setting 'triclinic'
loop_
_space_group_symop_operation_xyz
x,y,z
-x,-y,-z
loop_
_atom_site_type_symbol
_atom_site_label
_atom_site_fract_x
_atom_site_fract_y
_atom_site_fract_z
Si Si1 0.599107 0.579489 0.114882
Si Si2 0.881535 0.895388 0.194542
Si Si3 0.993204 0.735212 0.643345
Si Si4 0.170422 0.495529 0.401425
Si Si5 0.728214 0.200035 0.752455
Si Si6 0.255681 0.291063 0.018620
Si Si7 0.505193 0.307469 0.298316
O O1 0.812054 0.382039 0.222031
O O2 0.407270 0.779794 0.181021
O O3 0.674098 0.648639 0.055175
O O4 0.500000 0.500000 0.000000
O O5 0.728382 0.901366 0.061172
O O6 0.022678 0.676437 0.282458
O O7 0.047338 0.871035 0.160566
O O8 0.746092 0.103173 0.285670
O O9 0.099511 0.637951 0.527640
O O10 0.882630 0.648836 0.623307
O O11 0.815128 0.003719 0.650093
O O12 0.419141 0.339886 0.411034
O O13 0.575361 0.456665 0.711143
O O14 0.375229 0.268923 0.170901
O O15 0.000000 0.500000 0.000000
#
# Coordination Sequence:
#
# PCOD9049227 Si02
#       7
#     2   2   2   2   2   2   2
#     4  12  24  44  69 105 138 176 225 284 350 403
#     4  11  23  44  68  99 142 182 226 281 335 414
#     4  11  25  46  70 100 140 179 227 294 334 410
#     4  10  24  46  71 100 134 183 236 275 347 403
#     4  11  25  43  67 101 140 174 228 280 347 396
#     4  12  21  44  69 101 141 177 234 274 336 414
#     4  11  23  43  68 101 136 185 225 280 338 409
#
# _framework density 24.296510000000001
#
# number of rings (size 3 to 8) (size 9 to 14) (size 15 to 20)
#    0.000    0.857    5.714    1.286    2.000    4.000 
#    2.571    7.143    0.000    0.000    0.000    0.000 
#    0.000    0.000    0.000    0.000    0.000    0.000 
#
# Total GULP energy -78370.247814 kJ/mol
# GULP energy per Si atom -5597.874844 kJ/mol
# Density = 2.424121 g / cm^3
# Si number density = 24.296510 Si / 1000 Ang^3
#
#
#
# Elastic Constant Matrix: (Units=GPa)
#
#
# Indices 1 2 3 4 5 6 
#
# 1 161.8852 41.8310 27.0280 19.5323 -28.0773 -18.7306
# 2 41.8310 133.1829 45.2339 38.0824 -2.7294 -18.2112
# 3 27.0280 45.2339 88.3424 14.1773 -3.2804 -1.4574
# 4 19.5323 38.0824 14.1773 46.3133 -7.7975 -2.7393
# 5 -28.0773 -2.7294 -3.2804 -7.7975 44.3385 15.0757
# 6 -18.7306 -18.2112 -1.4574 -2.7393 15.0757 33.1587
#
#
#
# Elastic Compliance Matrix: (Units=1/GPa)
#
#
# Indices 1 2 3 4 5 6 
#
# 1 0.007762 -0.001412 -0.001326 -0.000934 0.004004 0.001653
# 2 -0.001412 0.013134 -0.004889 -0.009036 -0.004603 0.007547
# 3 -0.001326 -0.004889 0.014178 0.000224 0.001062 -0.003275
# 4 -0.000934 -0.009036 0.000224 0.030036 0.006116 -0.005780
# 5 0.004004 -0.004603 0.001062 0.006116 0.030592 -0.013623
# 6 0.001653 0.007547 -0.003275 -0.005780 -0.013623 0.040809
#
#
# Mechanical properties :
#
#
# Convention : Reuss Voigt Hill
#
# Bulk Modulus (GPa) = 50.45536 67.95515 59.20525
# Shear Modulus (GPa) = 31.57138 42.71661 37.14399
#
# Velocity S-wave (km/s) = 3.60866 4.19756 3.91420
# Velocity P-wave (km/s) = 6.17858 7.17792 6.69692
#
# Compressibility (1/GPa) = 0.01981950
#
# Stress axis : x y z
#
# Youngs Moduli (GPa) = 128.83383 76.13805 70.53186
#
# Poissons Ratio (x) = 0.10754 0.09350
# Poissons Ratio (y) = 0.18196 0.34484
# Poissons Ratio (z) = 0.17079 0.37225
#
# Static dielectric constant tensor:
#      x y z
#    x 1.942060 -0.023780 0.011430 
#    y -0.023780 1.955000 0.012150 
#    z 0.011430 0.012150 1.952990 
# 
# From -- ./inp_files/380046.got.cif
#   From: 2010.05.17/outbox.cif.g08.bks.cpg/sg2_191_cif.got.tgz:380046.got - 2010.06.03 11:33:40.
