data_PCOD9049935
_publ_section_title
;
Structure prediction by ZEFSAII (Michael W. Deem and Ramdas Pophale) SiO2 
 PCOD9049935
Probable space group: P -1
;
_chemical_formula_sum "Si O2"
_cell_formula_units_Z 16
_cell_length_a 12.347192
_cell_length_b 14.318548
_cell_length_c 15.799470
_cell_angle_alpha 36.836803
_cell_angle_beta 26.388541
_cell_angle_gamma 39.295206
_cell_volume 727.119172
_symmetry_space_group_name_H-M "P -1"
_symmetry_group_IT_number 2
_symmetry_cell_setting 'triclinic'
loop_
_space_group_symop_operation_xyz
x,y,z
-x,-y,-z
loop_
_atom_site_type_symbol
_atom_site_label
_atom_site_fract_x
_atom_site_fract_y
_atom_site_fract_z
Si Si1 0.309822 0.276949 0.423886
Si Si2 0.087205 0.677081 0.745666
Si Si3 0.707493 0.092233 0.690136
Si Si4 0.591633 0.011388 0.312106
Si Si5 0.674443 0.060138 0.029723
Si Si6 0.939856 0.076767 0.283124
Si Si7 0.752721 0.395460 0.675707
Si Si8 0.601966 0.632736 0.194137
O O1 0.276850 0.137968 0.614152
O O2 0.344096 0.435164 0.333906
O O3 0.053063 0.342181 0.505568
O O4 0.535776 0.180538 0.278060
O O5 0.153211 0.797165 0.543550
O O6 0.131856 0.744472 0.759539
O O7 0.271111 0.507602 0.731404
O O8 0.807646 0.651118 0.966770
O O9 0.480144 0.203955 0.817309
O O10 0.578986 0.983153 0.798357
O O11 0.890005 0.010577 0.695527
O O12 0.312916 0.983104 0.510197
O O13 0.712241 0.015801 0.133307
O O14 0.666872 0.246769 0.887739
O O15 0.896916 0.962202 0.886965
O O16 0.639583 0.403735 0.655458
#
# Coordination Sequence:
#
# PCOD9049935 Si02
#       8
#     2   2   2   2   2   2   2   2
#     4  10  24  48  69  94 129 173 222 286 325 376
#     4  11  24  38  65  97 137 175 212 259 323 391
#     4  12  23  39  67  98 138 173 213 256 327 400
#     4  11  24  44  73  95 127 172 226 272 329 384
#     4  12  24  39  71 100 129 176 216 263 329 394
#     4  12  22  41  64  98 133 172 213 266 318 395
#     4  11  23  44  70  92 134 173 216 276 333 374
#     4  11  23  42  63  98 138 171 213 268 321 396
#
# _framework density 22.004646000000001
#
# number of rings (size 3 to 8) (size 9 to 14) (size 15 to 20)
#    0.000    0.750    5.000    2.625    1.750    1.000 
#    0.000    0.000    2.750    0.000    0.000    0.000 
#    0.000    0.000    0.000    0.000    0.000    0.000 
#
# Total GULP energy -89474.368103 kJ/mol
# GULP energy per Si atom -5592.148006 kJ/mol
# Density = 2.195456 g / cm^3
# Si number density = 22.004646 Si / 1000 Ang^3
#
#
#
# Elastic Constant Matrix: (Units=GPa)
#
#
# Indices 1 2 3 4 5 6 
#
# 1 68.6587 42.7350 17.5425 9.1849 17.8417 21.8172
# 2 42.7350 -17.6931 -47.9469 -33.8508 -83.0106 -106.4159
# 3 17.5425 -47.9469 47.6461 -6.8823 -19.5421 -49.3590
# 4 9.1849 -33.8508 -6.8823 11.0115 -9.7850 -37.7388
# 5 17.8417 -83.0106 -19.5421 -9.7850 -11.9606 -74.3519
# 6 21.8172 -106.4159 -49.3590 -37.7388 -74.3519 -70.7605
#
#
#
# Elastic Compliance Matrix: (Units=1/GPa)
#
#
# Indices 1 2 3 4 5 6 
#
# 1 0.013596 -0.001274 -0.000829 0.001063 0.001524 0.004518
# 2 -0.001274 0.008258 -0.001112 -0.004337 -0.001193 -0.008471
# 3 -0.000829 -0.001112 0.015620 -0.003676 -0.005551 -0.001687
# 4 0.001063 -0.004337 -0.003676 0.060093 -0.023363 0.001913
# 5 0.001524 -0.001193 -0.005551 -0.023363 0.029008 -0.011885
# 6 0.004518 -0.008471 -0.001687 0.001913 -0.011885 0.012645
#
#
# Mechanical properties :
#
#
# Convention : Reuss Voigt Hill
#
# Bulk Modulus (GPa) = 32.21200 13.69700 22.95450
# Shear Modulus (GPa) = 32.05146 -8.58984 11.73081
#
# Velocity S-wave (km/s) = 3.82065 -1.97791 2.31141
# Velocity P-wave (km/s) = 5.84240 1.01091 4.19259
#
# Compressibility (1/GPa) = 0.03104434
#
# Stress axis : x y z
#
# Youngs Moduli (GPa) = 73.55210 121.08787 64.02114
#
# Poissons Ratio (x) = 0.15431 0.05307
# Poissons Ratio (y) = 0.09373 0.07117
# Poissons Ratio (z) = 0.06097 0.13460
#
# Static dielectric constant tensor:
#      x y z
#    x 1.802270 0.008810 -0.014450 
#    y 0.008810 1.841760 0.015600 
#    z -0.014450 0.015600 1.818430 
# 
# From -- ./inp_files/521409.got.cif
#   From: 2010.05.17/outbox.cif.g08.bks.cpg/sg2_261_cif.got.tgz:521409.got - 2010.06.03 11:33:40.
