data_PCOD9049603
_publ_section_title
;
Structure prediction by ZEFSAII (Michael W. Deem and Ramdas Pophale) SiO2 
 PCOD9049603
Probable space group: P -1
;
_chemical_formula_sum "Si O2"
_cell_formula_units_Z 12
_cell_length_a 13.901922
_cell_length_b 5.188560
_cell_length_c 9.190114
_cell_angle_alpha 127.234360
_cell_angle_beta 70.214572
_cell_angle_gamma 106.678355
_cell_volume 493.619558
_symmetry_space_group_name_H-M "P -1"
_symmetry_group_IT_number 2
_symmetry_cell_setting 'triclinic'
loop_
_space_group_symop_operation_xyz
x,y,z
-x,-y,-z
loop_
_atom_site_type_symbol
_atom_site_label
_atom_site_fract_x
_atom_site_fract_y
_atom_site_fract_z
Si Si1 0.315537 0.165285 0.449716
Si Si2 0.423633 0.545011 0.272692
Si Si3 0.805138 0.320145 0.193076
Si Si4 0.805758 0.248265 0.846400
Si Si5 0.360983 0.274356 0.907147
Si Si6 0.000392 0.392514 0.628065
O O1 0.402916 0.375068 0.380962
O O2 0.259757 0.368536 0.665314
O O3 0.353919 0.839997 0.384358
O O4 0.228723 0.072190 0.337945
O O5 0.540516 0.691859 0.234898
O O6 0.398450 0.290981 0.063642
O O7 0.903007 0.413431 0.275159
O O8 0.720267 0.032779 0.186636
O O9 0.842277 0.219407 0.981465
O O10 0.894636 0.456434 0.782993
O O11 0.701632 0.416403 0.968573
O O12 0.000000 0.500000 0.500000
O O13 0.000000 0.000000 0.500000
#
# Coordination Sequence:
#
# PCOD9049603 Si02
#       6
#     2   2   2   2   2   2
#     4  11  25  44  76 101 157 190 246 292 367 420
#     4  10  24  47  68 110 151 199 232 307 350 434
#     4  12  27  46  78 111 142 198 249 299 368 441
#     4  11  26  49  74 109 148 192 245 309 365 434
#     4  10  25  42  77 104 151 191 252 286 372 422
#     4  12  30  51  79 106 147 192 243 307 379 434
#
# _framework density 24.310220999999999
#
# number of rings (size 3 to 8) (size 9 to 14) (size 15 to 20)
#    0.000    1.000    3.333    0.500   14.000    4.000 
#    0.000    0.000    0.000    0.000    0.000    0.000 
#    0.000    0.000    0.000    0.000    0.000    0.000 
#
# Total GULP energy -67229.501996 kJ/mol
# GULP energy per Si atom -5602.458500 kJ/mol
# Density = 2.425489 g / cm^3
# Si number density = 24.310221 Si / 1000 Ang^3
#
#
#
# Elastic Constant Matrix: (Units=GPa)
#
#
# Indices 1 2 3 4 5 6 
#
# 1 232.8658 11.3545 67.2489 93.7523 -10.6795 123.1043
# 2 11.3545 125.1386 30.4368 -28.4598 22.2254 2.1807
# 3 67.2489 30.4368 107.5145 17.0429 5.3110 37.9263
# 4 93.7523 -28.4598 17.0429 115.0328 -15.4722 60.6135
# 5 -10.6795 22.2254 5.3110 -15.4722 46.7530 -15.3110
# 6 123.1043 2.1807 37.9263 60.6135 -15.3110 106.7390
#
#
#
# Elastic Compliance Matrix: (Units=1/GPa)
#
#
# Indices 1 2 3 4 5 6 
#
# 1 0.013202 -0.001031 -0.003021 -0.004581 -0.001514 -0.011748
# 2 -0.001031 0.010173 -0.002336 0.003597 -0.003873 -0.000786
# 3 -0.003021 -0.002336 0.012295 0.000616 -0.001218 -0.001361
# 4 -0.004581 0.003597 0.000616 0.015209 0.001063 -0.003493
# 5 -0.001514 -0.003873 -0.001218 0.001063 0.025095 0.005254
# 6 -0.011748 -0.000786 -0.001361 -0.003493 0.005254 0.026155
#
#
# Mechanical properties :
#
#
# Convention : Reuss Voigt Hill
#
# Bulk Modulus (GPa) = 43.68155 75.95549 59.81852
# Shear Modulus (GPa) = 40.80417 77.47022 59.13719
#
# Velocity S-wave (km/s) = 4.10137 5.65124 4.93750
# Velocity P-wave (km/s) = 6.35891 8.59617 7.56075
#
# Compressibility (1/GPa) = 0.02289296
#
# Stress axis : x y z
#
# Youngs Moduli (GPa) = 75.74335 98.30383 81.33622
#
# Poissons Ratio (x) = 0.10139 0.24570
# Poissons Ratio (y) = 0.07812 0.19001
# Poissons Ratio (z) = 0.22881 0.22965
#
# Static dielectric constant tensor:
#      x y z
#    x 1.926360 -0.013380 0.020860 
#    y -0.013380 1.921290 0.019350 
#    z 0.020860 0.019350 1.977480 
# 
# From -- ./inp_files/33467.got.cif
#   From: 2010.05.17/outbox.cif.g08.bks.cpg/sg2_17_cif.got.tgz:33467.got - 2010.06.03 11:33:40.
