data_PCOD9049630
_publ_section_title
;
Structure prediction by ZEFSAII (Michael W. Deem and Ramdas Pophale) SiO2 
 PCOD9049630
Probable space group: P -1
;
_chemical_formula_sum "Si O2"
_cell_formula_units_Z 14
_cell_length_a 14.268094
_cell_length_b 8.104387
_cell_length_c 16.927196
_cell_angle_alpha 122.205220
_cell_angle_beta 20.977862
_cell_angle_gamma 124.741539
_cell_volume 575.825423
_symmetry_space_group_name_H-M "P -1"
_symmetry_group_IT_number 2
_symmetry_cell_setting 'triclinic'
loop_
_space_group_symop_operation_xyz
x,y,z
-x,-y,-z
loop_
_atom_site_type_symbol
_atom_site_label
_atom_site_fract_x
_atom_site_fract_y
_atom_site_fract_z
Si Si1 0.207761 0.226983 0.778072
Si Si2 0.565569 0.443547 0.847097
Si Si3 0.663445 0.157026 0.486396
Si Si4 0.049396 0.487849 0.179709
Si Si5 0.887115 0.850126 0.478425
Si Si6 0.728280 0.335554 0.115048
Si Si7 0.071745 0.785662 0.544609
O O1 0.353467 0.172927 0.729707
O O2 0.307304 0.469507 0.757677
O O3 0.301632 0.068987 0.606375
O O4 0.889665 0.205213 0.006896
O O5 0.674555 0.243909 0.713004
O O6 0.814592 0.626140 0.673817
O O7 0.500000 0.500000 0.000000
O O8 0.321574 0.430205 0.977500
O O9 0.835652 0.253137 0.450656
O O10 0.809185 0.292528 0.333072
O O11 0.003599 0.658068 0.320594
O O12 0.090749 0.575342 0.081227
O O13 0.564194 0.776806 0.714283
O O14 0.968407 0.994184 0.375426
O O15 0.000000 0.000000 0.500000
#
# Coordination Sequence:
#
# PCOD9049630 Si02
#       7
#     2   2   2   2   2   2   2
#     4  10  24  47  69  97 140 177 233 279 336 401
#     4  11  23  41  70 102 135 179 220 280 340 401
#     4  11  23  45  69 103 132 179 231 283 336 397
#     4  12  25  42  72  99 140 176 228 281 338 406
#     4  12  27  45  69 102 140 178 224 280 340 411
#     4  11  25  48  68 101 137 182 226 278 341 405
#     4  11  25  43  69 100 141 175 227 279 336 407
#
# _framework density 24.312923999999999
#
# number of rings (size 3 to 8) (size 9 to 14) (size 15 to 20)
#    0.000    0.857    2.857    3.429    4.000    5.714 
#   10.286    0.000    0.000    0.000    0.000    0.000 
#    0.000    0.000    0.000    0.000    0.000    0.000 
#
# Total GULP energy -78195.849983 kJ/mol
# GULP energy per Si atom -5585.417856 kJ/mol
# Density = 2.425759 g / cm^3
# Si number density = 24.312924 Si / 1000 Ang^3
#
#
#
# Elastic Constant Matrix: (Units=GPa)
#
#
# Indices 1 2 3 4 5 6 
#
# 1 82.7184 23.5333 36.4803 -1.5245 -22.8240 17.3770
# 2 23.5333 109.4109 44.4582 20.2161 -7.2884 17.7293
# 3 36.4803 44.4582 96.7363 16.8143 -30.3570 8.3643
# 4 -1.5245 20.2161 16.8143 39.8343 -7.6424 -9.5087
# 5 -22.8240 -7.2884 -30.3570 -7.6424 41.6176 -4.8247
# 6 17.3770 17.7293 8.3643 -9.5087 -4.8247 42.3689
#
#
#
# Elastic Compliance Matrix: (Units=1/GPa)
#
#
# Indices 1 2 3 4 5 6 
#
# 1 0.016910 -0.001600 -0.003900 0.003352 0.006298 -0.004026
# 2 -0.001600 0.013619 -0.005267 -0.007030 -0.004330 -0.006074
# 3 -0.003900 -0.005267 0.017603 -0.002944 0.009323 0.000729
# 4 0.003352 -0.007030 -0.002944 0.033636 0.005838 0.010362
# 5 0.006298 -0.004330 0.009323 0.005838 0.034906 0.002673
# 6 -0.004026 -0.006074 0.000729 0.010362 0.002673 0.030281
#
#
# Mechanical properties :
#
#
# Convention : Reuss Voigt Hill
#
# Bulk Modulus (GPa) = 37.59728 55.31213 46.45470
# Shear Modulus (GPa) = 28.19209 37.05706 32.62457
#
# Velocity S-wave (km/s) = 3.40891 3.90830 3.66712
# Velocity P-wave (km/s) = 5.56702 6.57007 6.08924
#
# Compressibility (1/GPa) = 0.02659767
#
# Stress axis : x y z
#
# Youngs Moduli (GPa) = 59.13827 73.42655 56.80847
#
# Poissons Ratio (x) = 0.11748 0.22154
# Poissons Ratio (y) = 0.09462 0.29923
# Poissons Ratio (z) = 0.23062 0.38676
#
# Static dielectric constant tensor:
#      x y z
#    x 1.973720 -0.001450 0.033460 
#    y -0.001450 1.970190 -0.054450 
#    z 0.033460 -0.054450 1.975380 
# 
# From -- ./inp_files/38555.got.cif
#   From: 2010.05.17/outbox.cif.g08.bks.cpg/sg2_20_cif.got.tgz:38555.got - 2010.06.03 11:33:40.
