data_PCOD9049698
_publ_section_title
;
Structure prediction by ZEFSAII (Michael W. Deem and Ramdas Pophale) SiO2 
 PCOD9049698
Probable space group: P -1
;
_chemical_formula_sum "Si O2"
_cell_formula_units_Z 12
_cell_length_a 5.891098
_cell_length_b 10.957737
_cell_length_c 7.291484
_cell_angle_alpha 98.165701
_cell_angle_beta 91.244521
_cell_angle_gamma 103.006010
_cell_volume 453.259611
_symmetry_space_group_name_H-M "P -1"
_symmetry_group_IT_number 2
_symmetry_cell_setting 'triclinic'
loop_
_space_group_symop_operation_xyz
x,y,z
-x,-y,-z
loop_
_atom_site_type_symbol
_atom_site_label
_atom_site_fract_x
_atom_site_fract_y
_atom_site_fract_z
Si Si1 0.034497 0.839695 0.946630
Si Si2 0.619031 0.751215 0.216037
Si Si3 0.116303 0.401102 0.594434
Si Si4 0.634407 0.015005 0.737893
Si Si5 0.180219 0.851793 0.570448
Si Si6 0.227315 0.592441 0.938375
O O1 0.001586 0.860261 0.734807
O O2 0.151166 0.719364 0.910613
O O3 0.827606 0.793118 0.078585
O O4 0.782889 0.042202 0.932643
O O5 0.712677 0.698993 0.392590
O O6 0.505814 0.871624 0.253266
O O7 0.433026 0.637592 0.093063
O O8 0.269192 0.508671 0.752781
O O9 0.000000 0.500000 0.500000
O O10 0.885100 0.284312 0.558565
O O11 0.798232 0.047610 0.570808
O O12 0.435154 0.888832 0.681331
O O13 0.000000 0.500000 0.000000
#
# Coordination Sequence:
#
# PCOD9049698 Si02
#       6
#     2   2   2   2   2   2
#     4  11  22  43  71 101 140 183 237 291 352 415
#     4  11  24  45  73 102 139 192 233 294 354 415
#     4  12  23  42  68 103 144 180 235 289 351 422
#     4  10  24  47  71  99 145 184 237 293 350 417
#     4  11  23  46  70 102 143 189 229 298 348 415
#     4  11  22  43  69  96 144 188 231 283 355 421
#
# _framework density 26.474893000000002
#
# number of rings (size 3 to 8) (size 9 to 14) (size 15 to 20)
#    0.000    1.000    5.000    2.000    0.000    1.333 
#    6.000    4.167    0.000    0.000    0.000    0.000 
#    0.000    0.000    0.000    0.000    0.000    0.000 
#
# Total GULP energy -66858.392757 kJ/mol
# GULP energy per Si atom -5571.532730 kJ/mol
# Density = 2.641464 g / cm^3
# Si number density = 26.474893 Si / 1000 Ang^3
#
#
#
# Elastic Constant Matrix: (Units=GPa)
#
#
# Indices 1 2 3 4 5 6 
#
# 1 113.1571 64.8789 43.5833 4.6524 27.1852 2.8430
# 2 64.8789 135.9030 29.5376 8.6334 18.9931 19.3699
# 3 43.5833 29.5376 112.8359 6.5504 17.2129 -2.4226
# 4 4.6524 8.6334 6.5504 51.6296 4.6897 20.6432
# 5 27.1852 18.9931 17.2129 4.6897 51.2744 15.6660
# 6 2.8430 19.3699 -2.4226 20.6432 15.6660 64.6174
#
#
#
# Elastic Compliance Matrix: (Units=1/GPa)
#
#
# Indices 1 2 3 4 5 6 
#
# 1 0.014671 -0.005883 -0.003259 -0.000407 -0.005197 0.002386
# 2 -0.005883 0.010698 -0.000640 0.000015 0.000302 -0.003050
# 3 -0.003259 -0.000640 0.010717 -0.001451 -0.002016 0.001690
# 4 -0.000407 0.000015 -0.001451 0.022481 0.000916 -0.007445
# 5 -0.005197 0.000302 -0.002016 0.000916 0.024634 -0.006203
# 6 0.002386 -0.003050 0.001690 -0.007445 -0.006203 0.020230
#
#
# Mechanical properties :
#
#
# Convention : Reuss Voigt Hill
#
# Bulk Modulus (GPa) = 60.53233 70.87727 65.70480
# Shear Modulus (GPa) = 38.90956 48.43069 43.67012
#
# Velocity S-wave (km/s) = 3.83780 4.28168 4.06580
# Velocity P-wave (km/s) = 6.52318 7.16054 6.84928
#
# Compressibility (1/GPa) = 0.01652010
#
# Stress axis : x y z
#
# Youngs Moduli (GPa) = 68.16134 93.47911 93.31029
#
# Poissons Ratio (x) = 0.54998 0.30410
# Poissons Ratio (y) = 0.40102 0.05974
# Poissons Ratio (z) = 0.22214 0.05985
#
# Static dielectric constant tensor:
#      x y z
#    x 2.411120 -0.207770 0.080980 
#    y -0.207770 2.104510 -0.090770 
#    z 0.080980 -0.090770 2.179740 
# 
# From -- ./inp_files/131766.got.cif
#   From: 2010.05.17/outbox.cif.g08.bks.cpg/sg2_66_cif.got.tgz:131766.got - 2010.06.03 11:33:40.
