data_PCOD9049703
_publ_section_title
;
Structure prediction by ZEFSAII (Michael W. Deem and Ramdas Pophale) SiO2 
 PCOD9049703
Probable space group: P -1
;
_chemical_formula_sum "Si O2"
_cell_formula_units_Z 16
_cell_length_a 8.858376
_cell_length_b 14.760902
_cell_length_c 8.751192
_cell_angle_alpha 110.403623
_cell_angle_beta 143.891659
_cell_angle_gamma 82.743187
_cell_volume 606.523126
_symmetry_space_group_name_H-M "P -1"
_symmetry_group_IT_number 2
_symmetry_cell_setting 'triclinic'
loop_
_space_group_symop_operation_xyz
x,y,z
-x,-y,-z
loop_
_atom_site_type_symbol
_atom_site_label
_atom_site_fract_x
_atom_site_fract_y
_atom_site_fract_z
Si Si1 0.161566 0.462813 0.977495
Si Si2 0.929667 0.386035 0.436128
Si Si3 0.239458 0.806406 0.185934
Si Si4 0.485648 0.342598 0.802036
Si Si5 0.547993 0.124930 0.297422
Si Si6 0.914219 0.059563 0.102639
Si Si7 0.275973 0.278131 0.092193
Si Si8 0.036043 0.112925 0.539259
O O1 0.953160 0.396590 0.644364
O O2 0.324263 0.390358 0.138724
O O3 0.360842 0.553482 0.099681
O O4 0.000000 0.500000 0.000000
O O5 0.178844 0.342214 0.570743
O O6 0.000000 0.500000 0.500000
O O7 0.650095 0.338574 0.092536
O O8 0.448679 0.743923 0.294792
O O9 0.323965 0.886275 0.439967
O O10 0.961510 0.736895 0.985986
O O11 0.199671 0.859944 0.029273
O O12 0.741118 0.127504 0.316301
O O13 0.491828 0.232573 0.319138
O O14 0.295296 0.029712 0.031800
O O15 0.121708 0.113977 0.434657
O O16 0.000000 0.000000 0.000000
O O17 0.190414 0.198753 0.833315
O O18 0.000000 0.000000 0.500000
#
# Coordination Sequence:
#
# PCOD9049703 Si02
#       8
#     2   2   2   2   2   2   2   2
#     4  11  23  45  74 101 141 192 239 294 361 423
#     4  10  24  47  72 101 145 185 244 296 364 429
#     4  11  25  42  69 103 139 183 241 292 356 432
#     4  11  25  49  72 106 147 193 235 307 361 431
#     4  11  24  46  67  99 141 182 232 295 355 431
#     4  12  23  43  72  98 139 184 231 294 363 426
#     4  11  24  46  67 104 142 181 241 287 358 434
#     4  11  24  45  71  99 141 181 230 295 356 432
#
# _framework density 26.379867000000001
#
# number of rings (size 3 to 8) (size 9 to 14) (size 15 to 20)
#    0.000    1.000    3.750    3.000    3.500    1.000 
#   11.250    6.250    0.000    0.000    0.000    0.000 
#    0.000    0.000    0.000    0.000    0.000    0.000 
#
# Total GULP energy -89596.631028 kJ/mol
# GULP energy per Si atom -5599.789439 kJ/mol
# Density = 2.631982 g / cm^3
# Si number density = 26.379867 Si / 1000 Ang^3
#
#
#
# Elastic Constant Matrix: (Units=GPa)
#
#
# Indices 1 2 3 4 5 6 
#
# 1 142.6222 59.7616 55.7026 -4.0960 -8.8765 -16.0563
# 2 59.7616 167.9928 25.7006 -20.2451 -1.6145 -8.7139
# 3 55.7026 25.7006 64.9523 -18.9270 -16.7006 2.8398
# 4 -4.0960 -20.2451 -18.9270 37.5482 0.2323 3.9591
# 5 -8.8765 -1.6145 -16.7006 0.2323 52.9216 0.8946
# 6 -16.0563 -8.7139 2.8398 3.9591 0.8946 54.7277
#
#
#
# Elastic Compliance Matrix: (Units=1/GPa)
#
#
# Indices 1 2 3 4 5 6 
#
# 1 0.014045 -0.003617 -0.013637 -0.007791 -0.002106 0.004850
# 2 -0.003617 0.007540 0.001434 0.004420 0.000061 -0.000256
# 3 -0.013637 0.001434 0.034002 0.017101 0.008528 -0.006913
# 4 -0.007791 0.004420 0.017101 0.037312 0.004149 -0.005236
# 5 -0.002106 0.000061 0.008528 0.004149 0.021246 -0.001698
# 6 0.004850 -0.000256 -0.006913 -0.005236 -0.001698 0.020420
#
#
# Mechanical properties :
#
#
# Convention : Reuss Voigt Hill
#
# Bulk Modulus (GPa) = 41.76244 73.09964 57.43104
# Shear Modulus (GPa) = 28.70461 44.66634 36.68548
#
# Velocity S-wave (km/s) = 3.30225 4.11931 3.73320
# Velocity P-wave (km/s) = 5.51411 7.09898 6.35614
#
# Compressibility (1/GPa) = 0.02394496
#
# Stress axis : x y z
#
# Youngs Moduli (GPa) = 71.20190 132.62280 29.41026
#
# Poissons Ratio (x) = 0.47976 0.40106
# Poissons Ratio (y) = 0.25757 -0.04216
# Poissons Ratio (z) = 0.97097 -0.19012
#
# Static dielectric constant tensor:
#      x y z
#    x 2.088540 0.017530 0.009700 
#    y 0.017530 2.031020 -0.012380 
#    z 0.009700 -0.012380 2.167400 
# 
# From -- ./inp_files/208578.got.cif
#   From: 2010.05.17/outbox.cif.g08.bks.cpg/sg2_105_cif.got.tgz:208578.got - 2010.06.03 11:33:40.
