data_PCOD9049654
_publ_section_title
;
Structure prediction by ZEFSAII (Michael W. Deem and Ramdas Pophale) SiO2 
 PCOD9049654
Probable space group: P -1
;
_chemical_formula_sum "Si O2"
_cell_formula_units_Z 14
_cell_length_a 14.896442
_cell_length_b 8.386103
_cell_length_c 15.428362
_cell_angle_alpha 135.906169
_cell_angle_beta 151.453114
_cell_angle_gamma 62.522490
_cell_volume 551.395541
_symmetry_space_group_name_H-M "P -1"
_symmetry_group_IT_number 2
_symmetry_cell_setting 'triclinic'
loop_
_space_group_symop_operation_xyz
x,y,z
-x,-y,-z
loop_
_atom_site_type_symbol
_atom_site_label
_atom_site_fract_x
_atom_site_fract_y
_atom_site_fract_z
Si Si1 0.707374 0.018305 0.106396
Si Si2 0.732469 0.525948 0.539133
Si Si3 0.574488 0.898518 0.606511
Si Si4 0.468186 0.217989 0.764282
Si Si5 0.837154 0.559612 0.831795
Si Si6 0.627341 0.814879 0.137994
Si Si7 0.039064 0.149908 0.287349
O O1 0.504704 0.726426 0.787464
O O2 0.772451 0.980451 0.243851
O O3 0.601618 0.204946 0.090521
O O4 0.904113 0.136492 0.252270
O O5 0.729629 0.799106 0.661984
O O6 0.821499 0.484142 0.688574
O O7 0.898312 0.612235 0.633616
O O8 0.389810 0.625762 0.386316
O O9 0.500000 0.000000 0.500000
O O10 0.603893 0.102699 0.787692
O O11 0.614312 0.534388 0.021911
O O12 0.266180 0.170965 0.515655
O O13 0.359045 0.093236 0.715685
O O14 0.000000 0.500000 0.000000
O O15 0.898389 0.861161 0.011870
#
# Coordination Sequence:
#
# PCOD9049654 Si02
#       7
#     2   2   2   2   2   2   2
#     4  11  24  46  75  98 135 187 235 286 355 402
#     4  12  25  47  70 107 146 180 229 291 357 426
#     4  12  22  42  75 102 146 185 221 288 356 420
#     4  11  23  44  70 101 140 186 235 282 348 406
#     4  12  25  43  66 107 146 180 227 285 355 429
#     4  10  24  47  70  96 138 189 236 288 338 411
#     4  12  25  43  71 107 141 179 234 284 352 424
#
# _framework density 25.390122000000002
#
# number of rings (size 3 to 8) (size 9 to 14) (size 15 to 20)
#    0.000    0.571    5.714    1.714    2.000    1.143 
#    0.000    0.000    0.000    0.000    0.000    0.000 
#    0.000    0.000    0.000    0.000    0.000    0.000 
#
# Total GULP energy -78334.761304 kJ/mol
# GULP energy per Si atom -5595.340093 kJ/mol
# Density = 2.533233 g / cm^3
# Si number density = 25.390122 Si / 1000 Ang^3
#
#
#
# Elastic Constant Matrix: (Units=GPa)
#
#
# Indices 1 2 3 4 5 6 
#
# 1 196.1543 50.3062 36.9985 6.0979 -6.0976 37.5584
# 2 50.3062 94.5859 29.1558 11.1692 -17.7870 7.5211
# 3 36.9985 29.1558 45.8268 0.3294 -9.9856 9.7174
# 4 6.0979 11.1692 0.3294 36.7329 4.5290 -15.4591
# 5 -6.0976 -17.7870 -9.9856 4.5290 49.0672 2.0932
# 6 37.5584 7.5211 9.7174 -15.4591 2.0932 73.9857
#
#
#
# Elastic Compliance Matrix: (Units=1/GPa)
#
#
# Indices 1 2 3 4 5 6 
#
# 1 0.007011 -0.002213 -0.003639 -0.001765 -0.000371 -0.003214
# 2 -0.002213 0.015337 -0.006823 -0.005083 0.004396 -0.000726
# 3 -0.003639 -0.006823 0.030010 0.001538 0.003090 -0.001167
# 4 -0.001765 -0.005083 0.001538 0.033173 -0.005164 0.008288
# 5 -0.000371 0.004396 0.003090 -0.005164 0.023135 -0.002398
# 6 -0.003214 -0.000726 -0.001167 0.008288 -0.002398 0.017175
#
#
# Mechanical properties :
#
#
# Convention : Reuss Voigt Hill
#
# Bulk Modulus (GPa) = 37.02563 63.27645 50.15104
# Shear Modulus (GPa) = 31.21249 46.63094 38.92172
#
# Velocity S-wave (km/s) = 3.50996 4.29018 3.91953
# Velocity P-wave (km/s) = 5.57143 7.03681 6.34655
#
# Compressibility (1/GPa) = 0.02700832
#
# Stress axis : x y z
#
# Youngs Moduli (GPa) = 142.63878 65.20175 33.32274
#
# Poissons Ratio (x) = 0.14428 0.12126
# Poissons Ratio (y) = 0.31563 0.22735
# Poissons Ratio (z) = 0.51906 0.44485
#
# Static dielectric constant tensor:
#      x y z
#    x 1.975570 0.028500 -0.096990 
#    y 0.028500 2.000320 -0.002900 
#    z -0.096990 -0.002900 2.074890 
# 
# From -- ./inp_files/187197.got.cif
#   From: 2010.05.17/outbox.cif.g08.bks.cpg/sg2_94_cif.got.tgz:187197.got - 2010.06.03 11:33:40.
