data_PCOD9049791
_publ_section_title
;
Structure prediction by ZEFSAII (Michael W. Deem and Ramdas Pophale) SiO2 
 PCOD9049791
Probable space group: P -1
;
_chemical_formula_sum "Si O2"
_cell_formula_units_Z 15
_cell_length_a 9.463341
_cell_length_b 22.189650
_cell_length_c 13.034468
_cell_angle_alpha 153.796574
_cell_angle_beta 31.919870
_cell_angle_gamma 147.811449
_cell_volume 595.440370
_symmetry_space_group_name_H-M "P -1"
_symmetry_group_IT_number 2
_symmetry_cell_setting 'triclinic'
loop_
_space_group_symop_operation_xyz
x,y,z
-x,-y,-z
loop_
_atom_site_type_symbol
_atom_site_label
_atom_site_fract_x
_atom_site_fract_y
_atom_site_fract_z
Si Si1 0.787395 0.524855 0.754882
Si Si2 0.000000 0.500000 0.000000
Si Si3 0.793249 0.003738 0.224725
Si Si4 0.481596 0.795360 0.595422
Si Si5 0.719527 0.739057 0.576852
Si Si6 0.861606 0.803565 0.034297
Si Si7 0.234244 0.994508 0.440237
Si Si8 0.841121 0.330898 0.054945
O O1 0.558782 0.364314 0.669729
O O2 0.000000 0.500000 0.500000
O O3 0.968258 0.591191 0.845658
O O4 0.684047 0.645572 0.950197
O O5 0.789467 0.597080 0.290228
O O6 0.911396 0.432792 0.068623
O O7 0.982388 0.135618 0.382149
O O8 0.523037 0.026124 0.377163
O O9 0.708702 0.854457 0.114000
O O10 0.000000 0.000000 0.000000
O O11 0.586920 0.792441 0.641947
O O12 0.672318 0.922249 0.597515
O O13 0.166849 0.806101 0.809850
O O14 0.486986 0.712121 0.769661
O O15 0.922428 0.920512 0.266238
O O16 0.116168 0.820801 0.231096
#
# Coordination Sequence:
#
# PCOD9049791 Si02
#       8
#     2   1   2   2   2   2   2   2
#     4  10  24  47  74 110 148 197 253 314 382 445
#     4  12  32  48  76 114 156 200 262 308 392 468
#     4  12  25  47  73 114 153 203 255 306 384 458
#     4  11  26  50  78 112 151 202 255 319 384 453
#     4  12  27  50  78 109 158 200 254 316 386 455
#     4  11  24  46  77 107 155 195 260 309 379 450
#     4  12  28  47  81 112 154 203 253 315 382 457
#     4  12  26  52  76 111 155 203 252 321 384 450
#
# _framework density 25.191438000000002
#
# number of rings (size 3 to 8) (size 9 to 14) (size 15 to 20)
#    0.000    0.533    5.333    1.600    5.600    4.267 
#    0.000    0.000    0.000    0.000    0.000    0.000 
#    0.000    0.000    0.000    0.000    0.000    0.000 
#
# Total GULP energy -83945.111539 kJ/mol
# GULP energy per Si atom -5596.340769 kJ/mol
# Density = 2.513410 g / cm^3
# Si number density = 25.191438 Si / 1000 Ang^3
#
#
#
# Elastic Constant Matrix: (Units=GPa)
#
#
# Indices 1 2 3 4 5 6 
#
# 1 123.8037 41.0577 14.3105 26.3720 6.1842 -32.2213
# 2 41.0577 113.5460 28.6582 8.3354 12.9404 -38.7947
# 3 14.3105 28.6582 105.9825 -6.4913 1.8930 -14.7000
# 4 26.3720 8.3354 -6.4913 42.1935 4.5078 3.8606
# 5 6.1842 12.9404 1.8930 4.5078 43.1953 7.9264
# 6 -32.2213 -38.7947 -14.7000 3.8606 7.9264 64.8915
#
#
#
# Elastic Compliance Matrix: (Units=1/GPa)
#
#
# Indices 1 2 3 4 5 6 
#
# 1 0.011737 -0.001479 -0.000877 -0.007520 -0.001398 0.005363
# 2 -0.001479 0.013134 -0.002392 -0.002200 -0.004725 0.007284
# 3 -0.000877 -0.002392 0.010404 0.002585 0.000056 0.000331
# 4 -0.007520 -0.002200 0.002585 0.029837 -0.000355 -0.006195
# 5 -0.001398 -0.004725 0.000056 -0.000355 0.026024 -0.006664
# 6 0.005363 0.007284 0.000331 -0.006195 -0.006664 0.023686
#
#
# Mechanical properties :
#
#
# Convention : Reuss Voigt Hill
#
# Bulk Modulus (GPa) = 38.78985 56.82056 47.80520
# Shear Modulus (GPa) = 37.61958 47.34309 42.48134
#
# Velocity S-wave (km/s) = 3.86858 4.33983 4.11096
# Velocity P-wave (km/s) = 5.94861 6.90772 6.44603
#
# Compressibility (1/GPa) = 0.02577994
#
# Stress axis : x y z
#
# Youngs Moduli (GPa) = 85.20402 76.13727 96.11787
#
# Poissons Ratio (x) = 0.11260 0.08425
# Poissons Ratio (y) = 0.12601 0.22990
# Poissons Ratio (z) = 0.07469 0.18211
#
# Static dielectric constant tensor:
#      x y z
#    x 1.957370 0.055770 0.006700 
#    y 0.055770 2.031310 0.013020 
#    z 0.006700 0.013020 1.969120 
# 
# From -- ./inp_files/405009.got.cif
#   From: 2010.05.17/outbox.cif.g08.bks.cpg/sg2_203_cif.got.tgz:405009.got - 2010.06.03 11:33:40.
