data_PCOD9049080
_publ_section_title
;
Structure prediction by ZEFSAII (Michael W. Deem and Ramdas Pophale) SiO2 
 PCOD9049080
Probable space group: P -1
;
_chemical_formula_sum "Si O2"
_cell_formula_units_Z 15
_cell_length_a 9.466056
_cell_length_b 20.399921
_cell_length_c 5.209424
_cell_angle_alpha 81.063322
_cell_angle_beta 115.448685
_cell_angle_gamma 51.345150
_cell_volume 566.994940
_symmetry_space_group_name_H-M "P -1"
_symmetry_group_IT_number 2
_symmetry_cell_setting 'triclinic'
loop_
_space_group_symop_operation_xyz
x,y,z
-x,-y,-z
loop_
_atom_site_type_symbol
_atom_site_label
_atom_site_fract_x
_atom_site_fract_y
_atom_site_fract_z
Si Si1 0.932459 0.164038 0.435769
Si Si2 0.855383 0.643258 0.354632
Si Si3 0.910409 0.308327 0.546927
Si Si4 0.500000 0.500000 0.500000
Si Si5 0.235218 0.117244 0.299157
Si Si6 0.604503 0.066724 0.926064
Si Si7 0.215987 0.454964 0.386719
Si Si8 0.408292 0.841806 0.632963
O O1 0.821303 0.273312 0.341424
O O2 0.022814 0.138159 0.226518
O O3 0.759580 0.163542 0.404887
O O4 0.189463 0.058490 0.841324
O O5 0.972833 0.671207 0.548049
O O6 0.683580 0.650420 0.381525
O O7 0.086727 0.528377 0.492170
O O8 0.687642 0.722970 0.938874
O O9 0.704024 0.411700 0.495042
O O10 0.111269 0.209199 0.953794
O O11 0.386645 0.458405 0.422080
O O12 0.336173 0.124859 0.621289
O O13 0.500000 0.000000 0.500000
O O14 0.653798 0.103909 0.717682
O O15 0.615380 0.096911 0.193018
O O16 0.000000 0.500000 0.000000
#
# Coordination Sequence:
#
# PCOD9049080 Si02
#       8
#     2   2   2   1   2   2   2   2
#     4  12  28  43  74 111 154 205 261 327 394 473
#     4  10  24  46  68 108 141 204 249 322 396 475
#     4  11  25  48  73 110 153 199 265 322 400 468
#     4  10  26  46  78 116 146 200 264 334 384 492
#     4  12  25  46  75 108 151 206 265 322 395 470
#     4  12  26  48  72 109 157 206 259 322 391 475
#     4  10  24  47  75 101 152 195 259 326 400 462
#     4  12  28  45  77 110 158 205 260 322 400 476
#
# _framework density 26.455265000000001
#
# number of rings (size 3 to 8) (size 9 to 14) (size 15 to 20)
#    0.000    0.800    2.667    2.800    7.467    2.133 
#    0.000    2.667    0.000    0.000    0.000    0.000 
#    0.000    0.000    0.000    0.000    0.000    0.000 
#
# Total GULP energy -83619.992895 kJ/mol
# GULP energy per Si atom -5574.666193 kJ/mol
# Density = 2.639505 g / cm^3
# Si number density = 26.455265 Si / 1000 Ang^3
#
#
#
# Elastic Constant Matrix: (Units=GPa)
#
#
# Indices 1 2 3 4 5 6 
#
# 1 246.1311 34.0087 11.2631 -9.5376 -25.5495 37.5463
# 2 34.0087 131.4613 -1.2126 -9.8268 -11.8238 5.6453
# 3 11.2631 -1.2126 48.7022 -0.2116 -29.2131 2.6773
# 4 -9.5376 -9.8268 -0.2116 23.3916 3.9792 1.4600
# 5 -25.5495 -11.8238 -29.2131 3.9792 33.7690 -2.3319
# 6 37.5463 5.6453 2.6773 1.4600 -2.3319 43.4708
#
#
#
# Elastic Compliance Matrix: (Units=1/GPa)
#
#
# Indices 1 2 3 4 5 6 
#
# 1 0.005309 -0.000601 0.002104 0.001327 0.005166 -0.004405
# 2 -0.000601 0.008478 0.003535 0.002495 0.005236 -0.000602
# 3 0.002104 0.003535 0.046059 -0.004391 0.043009 -0.002658
# 4 0.001327 0.002495 -0.004391 0.045778 -0.007532 -0.003142
# 5 0.005166 0.005236 0.043009 -0.007532 0.073199 -0.003611
# 6 -0.004405 -0.000602 -0.002658 -0.003142 -0.003611 0.026962
#
#
# Mechanical properties :
#
#
# Convention : Reuss Voigt Hill
#
# Bulk Modulus (GPa) = 14.30170 57.15700 35.72935
# Shear Modulus (GPa) = 22.82916 45.60864 34.21890
#
# Velocity S-wave (km/s) = 2.94076 4.15660 3.60038
# Velocity P-wave (km/s) = 4.11686 6.68495 5.55144
#
# Compressibility (1/GPa) = 0.06992177
#
# Stress axis : x y z
#
# Youngs Moduli (GPa) = 188.35069 117.94884 21.71108
#
# Poissons Ratio (x) = 0.07090 -0.04567
# Poissons Ratio (y) = 0.11322 -0.07674
# Poissons Ratio (z) = -0.39624 -0.41693
#
# Static dielectric constant tensor:
#      x y z
#    x 2.091560 0.028450 -0.016420 
#    y 0.028450 2.190370 0.050420 
#    z -0.016420 0.050420 2.285730 
# 
# From -- ./inp_files/51197.got.cif
#   From: 2010.05.17/outbox.cif.g08.bks.cpg/sg2_26_cif.got.tgz:51197.got - 2010.06.03 11:33:40.
