data_PCOD9049566
_publ_section_title
;
Structure prediction by ZEFSAII (Michael W. Deem and Ramdas Pophale) SiO2 
 PCOD9049566
Probable space group: P -1
;
_chemical_formula_sum "Si O2"
_cell_formula_units_Z 14
_cell_length_a 7.658500
_cell_length_b 15.894734
_cell_length_c 17.260825
_cell_angle_alpha 25.295600
_cell_angle_beta 142.257120
_cell_angle_gamma 147.488586
_cell_volume 478.850458
_symmetry_space_group_name_H-M "P -1"
_symmetry_group_IT_number 2
_symmetry_cell_setting 'triclinic'
loop_
_space_group_symop_operation_xyz
x,y,z
-x,-y,-z
loop_
_atom_site_type_symbol
_atom_site_label
_atom_site_fract_x
_atom_site_fract_y
_atom_site_fract_z
Si Si1 0.676326 0.250222 0.895380
Si Si2 0.787875 0.641828 0.873654
Si Si3 0.177574 0.562661 0.375492
Si Si4 0.250964 0.907038 0.305772
Si Si5 0.662180 0.734524 0.082873
Si Si6 0.224660 0.145900 0.548714
Si Si7 0.363099 0.784838 0.687852
O O1 0.767633 0.410319 0.719340
O O2 0.435153 0.259112 0.867805
O O3 0.992661 0.329602 0.996755
O O4 0.500000 0.000000 0.000000
O O5 0.661069 0.443775 0.930504
O O6 0.454550 0.625046 0.803845
O O7 0.382735 0.118186 0.233472
O O8 0.005517 0.881728 0.709059
O O9 0.522498 0.729655 0.396853
O O10 0.921124 0.646435 0.238377
O O11 0.032183 0.311190 0.568718
O O12 0.531569 0.836114 0.449186
O O13 0.225812 0.025720 0.119483
O O14 0.976268 0.243596 0.373724
O O15 0.500000 0.000000 0.500000
#
# Coordination Sequence:
#
# PCOD9049566 Si02
#       7
#     2   2   2   2   2   2   2
#     4  12  26  53  91 130 172 231 297 361 439 525
#     4  11  24  54  84 126 171 234 296 361 437 522
#     4  12  28  54  87 134 178 228 291 364 451 518
#     4  12  26  52  84 128 179 226 295 365 443 523
#     4  12  29  55  92 127 178 233 294 361 443 530
#     4  11  24  51  84 128 174 231 296 361 444 519
#     4  10  24  46  81 120 172 227 293 363 426 522
#
# _framework density 29.236687
#
# number of rings (size 3 to 8) (size 9 to 14) (size 15 to 20)
#    0.000    0.571    2.857    3.857    0.000    6.857 
#    7.714    7.857    0.000    0.857    0.000    0.000 
#    0.000    0.000    0.000    0.000    0.000    0.000 
#
# Total GULP energy -78589.451439 kJ/mol
# GULP energy per Si atom -5613.532246 kJ/mol
# Density = 2.917014 g / cm^3
# Si number density = 29.236687 Si / 1000 Ang^3
#
#
#
# Elastic Constant Matrix: (Units=GPa)
#
#
# Indices 1 2 3 4 5 6 
#
# 1 249.9679 81.6682 97.7160 -6.7854 -5.4627 -12.5525
# 2 81.6682 192.3762 81.1120 -14.8798 1.6690 -9.6072
# 3 97.7160 81.1120 172.7899 -8.6783 -18.3552 -2.0767
# 4 -6.7854 -14.8798 -8.6783 54.2168 -0.5883 6.5770
# 5 -5.4627 1.6690 -18.3552 -0.5883 72.7328 -5.2727
# 6 -12.5525 -9.6072 -2.0767 6.5770 -5.2727 76.3875
#
#
#
# Elastic Compliance Matrix: (Units=1/GPa)
#
#
# Indices 1 2 3 4 5 6 
#
# 1 0.005401 -0.001215 -0.002499 -0.000140 -0.000150 0.000668
# 2 -0.001215 0.006934 -0.002590 0.001274 -0.000862 0.000433
# 3 -0.002499 -0.002590 0.008649 0.000431 0.002029 -0.000398
# 4 -0.000140 0.001274 0.000431 0.019027 0.000116 -0.001481
# 5 -0.000150 -0.000862 0.002029 0.000116 0.014336 0.000902
# 6 0.000668 0.000433 -0.000398 -0.001481 0.000902 0.013434
#
#
# Mechanical properties :
#
#
# Convention : Reuss Voigt Hill
#
# Bulk Modulus (GPa) = 119.40031 126.23629 122.81830
# Shear Modulus (GPa) = 60.11067 64.30995 62.21031
#
# Velocity S-wave (km/s) = 4.53923 4.69511 4.61783
# Velocity P-wave (km/s) = 8.27047 8.52427 8.39833
#
# Compressibility (1/GPa) = 0.00837519
#
# Stress axis : x y z
#
# Youngs Moduli (GPa) = 185.15557 144.22101 115.62569
#
# Poissons Ratio (x) = 0.17529 0.28891
# Poissons Ratio (y) = 0.22505 0.29946
# Poissons Ratio (z) = 0.46264 0.37352
#
# Static dielectric constant tensor:
#      x y z
#    x 2.188960 -0.022550 -0.025140 
#    y -0.022550 2.469690 -0.119160 
#    z -0.025140 -0.119160 2.435740 
# 
# From -- ./inp_files/617478.got.cif
#   From: 2010.05.17/outbox.cif.g08.bks.cpg/sg2_309_cif.got.tgz:617478.got - 2010.06.03 11:33:40.
