data_PCOD9049048
_publ_section_title
;
Structure prediction by ZEFSAII (Michael W. Deem and Ramdas Pophale) SiO2 
 PCOD9049048
Probable space group: P -1
;
_chemical_formula_sum "Si O2"
_cell_formula_units_Z 12
_cell_length_a 6.430426
_cell_length_b 9.101314
_cell_length_c 14.624862
_cell_angle_alpha 141.941083
_cell_angle_beta 86.757162
_cell_angle_gamma 114.499756
_cell_volume 420.894593
_symmetry_space_group_name_H-M "P -1"
_symmetry_group_IT_number 2
_symmetry_cell_setting 'triclinic'
loop_
_space_group_symop_operation_xyz
x,y,z
-x,-y,-z
loop_
_atom_site_type_symbol
_atom_site_label
_atom_site_fract_x
_atom_site_fract_y
_atom_site_fract_z
Si Si1 0.466030 0.892595 0.791648
Si Si2 0.713962 0.309146 0.495496
Si Si3 0.767568 0.771868 0.855643
Si Si4 0.787683 0.844340 0.349588
Si Si5 0.318846 0.357133 0.029577
Si Si6 0.827453 0.195890 0.775922
O O1 0.275134 0.657985 0.599638
O O2 0.537883 0.786909 0.826083
O O3 0.373564 0.096349 0.909789
O O4 0.737097 0.064034 0.813848
O O5 0.815665 0.588716 0.692837
O O6 0.791259 0.445733 0.888433
O O7 0.794992 0.104151 0.427186
O O8 0.516190 0.451654 0.778520
O O9 0.945713 0.871612 0.998974
O O10 0.905424 0.725298 0.223113
O O11 0.597781 0.910044 0.583117
O O12 0.000000 0.000000 0.500000
O O13 0.500000 0.500000 0.000000
#
# Coordination Sequence:
#
# PCOD9049048 Si02
#       6
#     2   2   2   2   2   2
#     4  10  24  46  67  98 140 179 214 281 335 397
#     4   9  23  46  66  99 133 175 224 273 334 392
#     4  12  26  45  69  98 137 182 224 273 335 402
#     4  11  22  39  74 105 131 173 224 283 334 389
#     4  11  24  44  69 101 139 169 229 276 334 394
#     4   9  22  43  74  96 134 173 223 279 331 394
#
# _framework density 28.510698999999999
#
# number of rings (size 3 to 8) (size 9 to 14) (size 15 to 20)
#    1.000    0.667    0.000    3.500    4.667    4.667 
#    3.000    1.667    0.000    0.000    0.000    0.000 
#    0.000    0.000    0.000    0.000    0.000    0.000 
#
# Total GULP energy -66861.410751 kJ/mol
# GULP energy per Si atom -5571.784229 kJ/mol
# Density = 2.844581 g / cm^3
# Si number density = 28.510699 Si / 1000 Ang^3
#
#
#
# Elastic Constant Matrix: (Units=GPa)
#
#
# Indices 1 2 3 4 5 6 
#
# 1 124.6146 44.6293 65.0075 4.6481 42.5730 -23.2812
# 2 44.6293 202.9712 58.5032 -22.9497 14.3300 -20.1553
# 3 65.0075 58.5032 201.3601 21.9066 44.3830 -20.3380
# 4 4.6481 -22.9497 21.9066 65.7157 -0.4749 4.2913
# 5 42.5730 14.3300 44.3830 -0.4749 58.9900 18.5401
# 6 -23.2812 -20.1553 -20.3380 4.2913 18.5401 62.7368
#
#
#
# Elastic Compliance Matrix: (Units=1/GPa)
#
#
# Indices 1 2 3 4 5 6 
#
# 1 0.014959 -0.001634 -0.000372 -0.002178 -0.012926 0.008874
# 2 -0.001634 0.006061 -0.001703 0.002785 0.000907 0.000330
# 3 -0.000372 -0.001703 0.007783 -0.003470 -0.006453 0.003982
# 4 -0.002178 0.002785 -0.003470 0.017775 0.004803 -0.003674
# 5 -0.012926 0.000907 -0.006453 0.004803 0.036523 -0.017719
# 6 0.008874 0.000330 0.003982 -0.003674 -0.017719 0.026117
#
#
# Mechanical properties :
#
#
# Convention : Reuss Voigt Hill
#
# Bulk Modulus (GPa) = 46.76369 96.13622 71.44995
# Shear Modulus (GPa) = 40.39898 61.54221 50.97059
#
# Velocity S-wave (km/s) = 3.76836 4.65108 4.23279
# Velocity P-wave (km/s) = 5.94742 7.91428 7.00027
#
# Compressibility (1/GPa) = 0.02138411
#
# Stress axis : x y z
#
# Youngs Moduli (GPa) = 66.84760 165.00121 128.48128
#
# Poissons Ratio (x) = 0.26967 0.04785
# Poissons Ratio (y) = 0.10925 0.21877
# Poissons Ratio (z) = 0.02490 0.28096
#
# Static dielectric constant tensor:
#      x y z
#    x 2.236140 0.177260 0.108650 
#    y 0.177260 2.266580 -0.135070 
#    z 0.108650 -0.135070 2.293320 
# 
# From -- ./inp_files/155426.got.cif
#   From: 2010.05.17/outbox.cif.g08.bks.cpg/sg2_78_cif.got.tgz:155426.got - 2010.06.03 11:33:40.
