data_PCOD9049041
_publ_section_title
;
Structure prediction by ZEFSAII (Michael W. Deem and Ramdas Pophale) SiO2 
 PCOD9049041
Probable space group: P -1
;
_chemical_formula_sum "Si O2"
_cell_formula_units_Z 11
_cell_length_a 5.393766
_cell_length_b 9.571354
_cell_length_c 11.287657
_cell_angle_alpha 102.650496
_cell_angle_beta 81.814100
_cell_angle_gamma 48.398329
_cell_volume 390.704438
_symmetry_space_group_name_H-M "P -1"
_symmetry_group_IT_number 2
_symmetry_cell_setting 'triclinic'
loop_
_space_group_symop_operation_xyz
x,y,z
-x,-y,-z
loop_
_atom_site_type_symbol
_atom_site_label
_atom_site_fract_x
_atom_site_fract_y
_atom_site_fract_z
Si Si1 0.038090 0.280496 0.469399
Si Si2 0.403294 0.722310 0.954953
Si Si3 0.453021 0.845606 0.398533
Si Si4 0.927100 0.752037 0.151216
Si Si5 0.500000 0.000000 0.000000
Si Si6 0.660696 0.447213 0.289376
O O1 0.371472 0.224150 0.496095
O O2 0.971837 0.329164 0.344418
O O3 0.681699 0.475637 0.602158
O O4 0.090714 0.087315 0.452587
O O5 0.223323 0.692925 0.857947
O O6 0.800265 0.494206 0.903667
O O7 0.404652 0.879198 0.933128
O O8 0.186439 0.774465 0.098188
O O9 0.726957 0.836775 0.304407
O O10 0.524559 0.661070 0.304799
O O11 0.630560 0.866070 0.090361
#
# Coordination Sequence:
#
# PCOD9049041 Si02
#       6
#     2   2   2   2   1   2
#     4  10  24  46  67 110 143 190 237 284 353 428
#     4  11  27  48  72 105 145 186 239 299 361 423
#     4  11  24  44  73 104 147 187 234 293 352 424
#     4  11  27  46  71 106 143 188 235 298 360 424
#     4  12  28  48  72 104 140 192 242 294 360 424
#     4  11  24  45  74 105 145 188 234 295 353 427
#
# _framework density 28.154274999999998
#
# number of rings (size 3 to 8) (size 9 to 14) (size 15 to 20)
#    0.000    1.091    1.818    2.182   10.182    1.455 
#   13.091    0.000    0.000    0.000    0.000    0.000 
#    0.000    0.000    0.000    0.000    0.000    0.000 
#
# Total GULP energy -61462.582685 kJ/mol
# GULP energy per Si atom -5587.507517 kJ/mol
# Density = 2.809019 g / cm^3
# Si number density = 28.154275 Si / 1000 Ang^3
#
#
#
# Elastic Constant Matrix: (Units=GPa)
#
#
# Indices 1 2 3 4 5 6 
#
# 1 61.2221 18.3889 26.9422 -6.3951 25.6205 12.2035
# 2 18.3889 172.0790 41.6443 -9.3169 25.6894 17.9017
# 3 26.9422 41.6443 82.1830 -24.1129 10.9812 2.6887
# 4 -6.3951 -9.3169 -24.1129 34.1791 -15.3573 25.8453
# 5 25.6205 25.6894 10.9812 -15.3573 46.9271 -4.0408
# 6 12.2035 17.9017 2.6887 25.8453 -4.0408 71.3052
#
#
#
# Elastic Compliance Matrix: (Units=1/GPa)
#
#
# Indices 1 2 3 4 5 6 
#
# 1 0.026207 0.001684 -0.008698 -0.004729 -0.015062 -0.003719
# 2 0.001684 0.007404 -0.003958 -0.001110 -0.004569 -0.001854
# 3 -0.008698 -0.003958 0.022171 0.020584 0.008002 -0.005361
# 4 -0.004729 -0.001110 0.020584 0.068931 0.018898 -0.023602
# 5 -0.015062 -0.004569 0.008002 0.018898 0.036228 -0.001374
# 6 -0.003719 -0.001854 -0.005361 -0.023602 -0.001374 0.023805
#
#
# Mechanical properties :
#
#
# Convention : Reuss Voigt Hill
#
# Bulk Modulus (GPa) = 29.55345 54.38165 41.96755
# Shear Modulus (GPa) = 22.93897 45.71622 34.32759
#
# Velocity S-wave (km/s) = 2.85750 4.03398 3.49559
# Velocity P-wave (km/s) = 4.62675 6.40741 5.58846
#
# Compressibility (1/GPa) = 0.03383700
#
# Stress axis : x y z
#
# Youngs Moduli (GPa) = 38.15838 135.05714 45.10404
#
# Poissons Ratio (x) = -0.22743 0.39231
# Poissons Ratio (y) = -0.06426 0.17854
# Poissons Ratio (z) = 0.33190 0.53462
#
# Static dielectric constant tensor:
#      x y z
#    x 3.173260 -0.341730 -0.419850 
#    y -0.341730 2.294080 0.143870 
#    z -0.419850 0.143870 2.319600 
# 
# From -- ./inp_files/360314.got.cif
#   From: 2010.05.17/outbox.cif.g08.bks.cpg/sg2_181_cif.got.tgz:360314.got - 2010.06.03 11:33:40.
