data_PCOD9049233
_publ_section_title
;
Structure prediction by ZEFSAII (Michael W. Deem and Ramdas Pophale) SiO2 
 PCOD9049233
Probable space group: P -1
;
_chemical_formula_sum "Si O2"
_cell_formula_units_Z 16
_cell_length_a 21.948600
_cell_length_b 5.217572
_cell_length_c 13.999219
_cell_angle_alpha 85.844358
_cell_angle_beta 25.094976
_cell_angle_gamma 87.256439
_cell_volume 677.550117
_symmetry_space_group_name_H-M "P -1"
_symmetry_group_IT_number 2
_symmetry_cell_setting 'triclinic'
loop_
_space_group_symop_operation_xyz
x,y,z
-x,-y,-z
loop_
_atom_site_type_symbol
_atom_site_label
_atom_site_fract_x
_atom_site_fract_y
_atom_site_fract_z
Si Si1 0.175273 0.331139 0.076806
Si Si2 0.704882 0.520947 0.601368
Si Si3 0.601991 0.317638 0.301449
Si Si4 0.304763 0.103920 0.705679
Si Si5 0.130601 0.487351 0.439755
Si Si6 0.907199 0.737170 0.155249
Si Si7 0.785502 0.986446 0.789852
Si Si8 0.529057 0.007728 0.844732
O O1 0.181424 0.098225 0.147835
O O2 0.022246 0.456360 0.296899
O O3 0.302554 0.539092 0.916611
O O4 0.228207 0.243434 0.899839
O O5 0.747216 0.498278 0.652670
O O6 0.844509 0.652834 0.348713
O O7 0.647837 0.241235 0.652776
O O8 0.585192 0.728015 0.749909
O O9 0.500000 0.500000 0.500000
O O10 0.477674 0.126870 0.441781
O O11 0.707115 0.188195 0.231683
O O12 0.229703 0.213549 0.717908
O O13 0.136973 0.216999 0.383850
O O14 0.162822 0.724663 0.316224
O O15 0.000000 0.500000 0.000000
O O16 0.000000 0.000000 0.000000
O O17 0.617091 0.949142 0.005078
O O18 0.500000 0.000000 0.000000
#
# Coordination Sequence:
#
# PCOD9049233 Si02
#       8
#     2   2   2   2   2   2   2   2
#     4  11  26  42  73  97 141 187 230 284 362 404
#     4  12  25  44  74 101 137 193 229 287 365 409
#     4   9  22  43  70  99 133 185 233 291 349 408
#     4  10  24  46  71 100 145 176 243 293 348 418
#     4  12  25  45  67 102 143 180 232 286 348 425
#     4  12  29  48  74 111 147 186 239 292 357 435
#     4  12  27  43  71 102 142 179 237 287 346 420
#     4  12  23  46  70 103 140 184 238 295 345 418
#
# _framework density 23.614488999999999
#
# number of rings (size 3 to 8) (size 9 to 14) (size 15 to 20)
#    0.000    0.750    2.500    3.375   10.500    3.000 
#    0.000    0.000    0.000    0.000    0.000    0.000 
#    0.000    0.000    0.000    0.000    0.000    0.000 
#
# Total GULP energy -89483.031748 kJ/mol
# GULP energy per Si atom -5592.689484 kJ/mol
# Density = 2.356074 g / cm^3
# Si number density = 23.614489 Si / 1000 Ang^3
#
#
#
# Elastic Constant Matrix: (Units=GPa)
#
#
# Indices 1 2 3 4 5 6 
#
# 1 60.7878 5.6449 2.4096 2.4944 -7.5053 -26.5244
# 2 5.6449 125.7389 37.2673 7.2074 -7.1337 -28.6019
# 3 2.4096 37.2673 87.1825 -12.0005 -2.3780 -7.6341
# 4 2.4944 7.2074 -12.0005 41.3066 -3.3446 -0.7817
# 5 -7.5053 -7.1337 -2.3780 -3.3446 31.3545 2.4230
# 6 -26.5244 -28.6019 -7.6341 -0.7817 2.4230 29.1046
#
#
#
# Elastic Compliance Matrix: (Units=1/GPa)
#
#
# Indices 1 2 3 4 5 6 
#
# 1 0.032449 0.007604 -0.001141 -0.002419 0.006359 0.036151
# 2 0.007604 0.013687 -0.004848 -0.003680 0.002722 0.018783
# 3 -0.001141 -0.004848 0.014098 0.005004 0.000382 -0.002004
# 4 -0.002419 -0.003680 0.005004 0.026546 0.002102 -0.003970
# 5 0.006359 0.002722 0.000382 0.002102 0.033839 0.005810
# 6 0.036151 0.018783 -0.002004 -0.003970 0.005810 0.084648
#
#
# Mechanical properties :
#
#
# Convention : Reuss Voigt Hill
#
# Bulk Modulus (GPa) = 15.75737 40.48364 28.12051
# Shear Modulus (GPa) = 22.40239 35.57897 28.99068
#
# Velocity S-wave (km/s) = 3.08339 3.88578 3.50761
# Velocity P-wave (km/s) = 4.40042 6.10845 5.32338
#
# Compressibility (1/GPa) = 0.06346236
#
# Stress axis : x y z
#
# Youngs Moduli (GPa) = 30.81803 73.06447 70.93292
#
# Poissons Ratio (x) = -0.55560 0.08096
# Poissons Ratio (y) = -0.23435 0.34390
# Poissons Ratio (z) = 0.03517 0.35423
#
# Static dielectric constant tensor:
#      x y z
#    x 1.920900 0.062670 -0.022740 
#    y 0.062670 1.987090 -0.078910 
#    z -0.022740 -0.078910 1.977480 
# 
# From -- ./inp_files/542132.got.cif
#   From: 2010.05.17/outbox.cif.g08.bks.cpg/sg2_272_cif.got.tgz:542132.got - 2010.06.03 11:33:40.
