data_PCOD9049849
_publ_section_title
;
Structure prediction by ZEFSAII (Michael W. Deem and Ramdas Pophale) SiO2 
 PCOD9049849
Probable space group: P -1
;
_chemical_formula_sum "Si O2"
_cell_formula_units_Z 16
_cell_length_a 9.431983
_cell_length_b 5.967893
_cell_length_c 22.677768
_cell_angle_alpha 104.763750
_cell_angle_beta 46.319995
_cell_angle_gamma 132.537685
_cell_volume 624.036521
_symmetry_space_group_name_H-M "P -1"
_symmetry_group_IT_number 2
_symmetry_cell_setting 'triclinic'
loop_
_space_group_symop_operation_xyz
x,y,z
-x,-y,-z
loop_
_atom_site_type_symbol
_atom_site_label
_atom_site_fract_x
_atom_site_fract_y
_atom_site_fract_z
Si Si1 0.667778 0.215749 0.245856
Si Si2 0.812136 0.523475 0.950643
Si Si3 0.817799 0.577262 0.552044
Si Si4 0.619529 0.367462 0.801563
Si Si5 0.273806 0.015885 0.994809
Si Si6 0.788137 0.608394 0.433985
Si Si7 0.269967 0.866180 0.650182
Si Si8 0.679385 0.737459 0.715822
O O1 0.623035 0.180268 0.325720
O O2 0.584246 0.384179 0.251574
O O3 0.976660 0.389513 0.154108
O O4 0.465227 0.871892 0.244287
O O5 0.492918 0.246032 0.000944
O O6 0.879193 0.858281 0.961008
O O7 0.843948 0.342300 0.978325
O O8 0.910942 0.759652 0.473884
O O9 0.806084 0.660774 0.627688
O O10 0.000000 0.500000 0.500000
O O11 0.490125 0.256864 0.609007
O O12 0.444832 0.145206 0.893149
O O13 0.566003 0.570918 0.800893
O O14 0.948891 0.657482 0.738280
O O15 0.500000 0.500000 0.500000
O O16 0.724903 0.288031 0.418844
O O17 0.040341 0.871147 0.332847
#
# Coordination Sequence:
#
# PCOD9049849 Si02
#       8
#     2   2   2   2   2   2   2   2
#     4  12  26  47  72 108 149 191 243 311 374 444
#     4  10  24  47  76 110 149 199 250 308 375 449
#     4  12  24  45  72 101 144 189 245 313 370 444
#     4  12  26  47  72 108 147 193 242 307 372 450
#     4  10  24  47  76 110 149 198 254 303 374 458
#     4  12  24  43  68 103 136 191 245 299 370 447
#     4  12  24  47  70 104 144 192 239 308 378 440
#     4  12  26  45  70 110 144 188 251 310 369 451
#
# _framework density 25.639524999999999
#
# number of rings (size 3 to 8) (size 9 to 14) (size 15 to 20)
#    0.000    0.500    3.750    4.500    3.500    1.000 
#    4.500    0.000    0.000    0.000    0.000    0.000 
#    0.000    0.000    0.000    0.000    0.000    0.000 
#
# Total GULP energy -89286.787251 kJ/mol
# GULP energy per Si atom -5580.424203 kJ/mol
# Density = 2.558117 g / cm^3
# Si number density = 25.639525 Si / 1000 Ang^3
#
#
#
# Elastic Constant Matrix: (Units=GPa)
#
#
# Indices 1 2 3 4 5 6 
#
# 1 98.4875 2.9078 17.5197 7.0793 18.6930 -22.3004
# 2 2.9078 49.5575 15.0033 -3.5723 11.4706 -8.5218
# 3 17.5197 15.0033 81.1740 -11.5918 13.7068 -24.3734
# 4 7.0793 -3.5723 -11.5918 33.5621 -10.6474 -0.3730
# 5 18.6930 11.4706 13.7068 -10.6474 56.3719 -1.2047
# 6 -22.3004 -8.5218 -24.3734 -0.3730 -1.2047 48.0701
#
#
#
# Elastic Compliance Matrix: (Units=1/GPa)
#
#
# Indices 1 2 3 4 5 6 
#
# 1 0.012820 0.001369 -0.001192 -0.004487 -0.004971 0.005426
# 2 0.001369 0.022466 -0.002826 -0.000207 -0.004312 0.003075
# 3 -0.001192 -0.002826 0.016303 0.005064 -0.001883 0.007204
# 4 -0.004487 -0.000207 0.005064 0.034656 0.006864 0.000890
# 5 -0.004971 -0.004312 -0.001883 0.006864 0.021946 -0.003422
# 6 0.005426 0.003075 0.007204 0.000890 -0.003422 0.027440
#
#
# Mechanical properties :
#
#
# Convention : Reuss Voigt Hill
#
# Bulk Modulus (GPa) = 21.60249 33.34229 27.47239
# Shear Modulus (GPa) = 31.97766 40.52003 36.24884
#
# Velocity S-wave (km/s) = 3.53541 3.97970 3.76412
# Velocity P-wave (km/s) = 5.01091 5.84379 5.44330
#
# Compressibility (1/GPa) = 0.04629097
#
# Stress axis : x y z
#
# Youngs Moduli (GPa) = 78.00343 44.51240 61.33763
#
# Poissons Ratio (x) = -0.06094 0.07311
# Poissons Ratio (y) = -0.10679 0.17334
# Poissons Ratio (z) = 0.09298 0.12579
#
# Static dielectric constant tensor:
#      x y z
#    x 2.066600 -0.101800 0.019900 
#    y -0.101800 2.178270 -0.041630 
#    z 0.019900 -0.041630 1.975180 
# 
# From -- ./inp_files/605865.got.cif
#   From: 2010.05.17/outbox.cif.g08.bks.cpg/sg2_303_cif.got.tgz:605865.got - 2010.06.03 11:33:40.
