data_PCOD9049692
_publ_section_title
;
Structure prediction by ZEFSAII (Michael W. Deem and Ramdas Pophale) SiO2 
 PCOD9049692
Probable space group: P -1
;
_chemical_formula_sum "Si O2"
_cell_formula_units_Z 13
_cell_length_a 13.707204
_cell_length_b 18.883865
_cell_length_c 8.180162
_cell_angle_alpha 33.261610
_cell_angle_beta 153.203749
_cell_angle_gamma 148.737628
_cell_volume 470.528438
_symmetry_space_group_name_H-M "P -1"
_symmetry_group_IT_number 2
_symmetry_cell_setting 'triclinic'
loop_
_space_group_symop_operation_xyz
x,y,z
-x,-y,-z
loop_
_atom_site_type_symbol
_atom_site_label
_atom_site_fract_x
_atom_site_fract_y
_atom_site_fract_z
Si Si1 0.044600 0.211976 0.953987
Si Si2 0.149198 0.892222 0.455455
Si Si3 0.500000 0.500000 0.500000
Si Si4 0.733787 0.375859 0.815620
Si Si5 0.587572 0.191195 0.456386
Si Si6 0.969256 0.789386 0.718467
Si Si7 0.753898 0.461066 0.313137
O O1 0.206877 0.379648 0.897455
O O2 0.056627 0.163460 0.884193
O O3 0.761642 0.184770 0.586824
O O4 0.096186 0.156439 0.312149
O O5 0.030072 0.889360 0.459275
O O6 0.357839 0.045157 0.421202
O O7 0.258679 0.776636 0.859593
O O8 0.583441 0.412674 0.655306
O O9 0.780992 0.631376 0.686732
O O10 0.679112 0.394179 0.510115
O O11 0.000000 0.500000 0.000000
O O12 0.566042 0.343146 0.131997
O O13 0.779844 0.212287 0.848122
O O14 0.000000 0.500000 0.500000
#
# Coordination Sequence:
#
# PCOD9049692 Si02
#       7
#     2   2   1   2   2   2   2
#     4   9  20  32  60  94 121 158 214 252 308 376
#     4  12  19  38  63  93 123 167 205 257 326 372
#     4  12  24  42  60  98 126 166 218 262 306 376
#     4  12  22  38  66  92 125 167 213 259 315 374
#     4   9  20  33  60  94 126 157 206 260 316 376
#     4  10  22  37  60  86 130 158 208 260 304 372
#     4  10  17  34  60  94 122 156 211 257 299 377
#
# _framework density 27.628512000000001
#
# number of rings (size 3 to 8) (size 9 to 14) (size 15 to 20)
#    0.923    0.615    4.615    0.923    0.000    0.000 
#    0.000    3.846    0.000    0.000    0.000   12.923 
#    0.000    0.000    0.000    0.000    0.000    0.000 
#
# Total GULP energy -72381.722130 kJ/mol
# GULP energy per Si atom -5567.824779 kJ/mol
# Density = 2.756563 g / cm^3
# Si number density = 27.628512 Si / 1000 Ang^3
#
#
#
# Elastic Constant Matrix: (Units=GPa)
#
#
# Indices 1 2 3 4 5 6 
#
# 1 197.9863 22.1411 64.1377 -5.3782 -25.7378 -5.5153
# 2 22.1411 171.7726 39.5193 -2.1498 5.0940 12.0733
# 3 64.1377 39.5193 80.3917 3.7249 -1.6568 -9.4816
# 4 -5.3782 -2.1498 3.7249 48.4847 -8.1852 -9.6907
# 5 -25.7378 5.0940 -1.6568 -8.1852 57.5531 8.1081
# 6 -5.5153 12.0733 -9.4816 -9.6907 8.1081 18.7724
#
#
#
# Elastic Compliance Matrix: (Units=1/GPa)
#
#
# Indices 1 2 3 4 5 6 
#
# 1 0.007584 0.000619 -0.006623 0.001538 0.003691 -0.002315
# 2 0.000619 0.007407 -0.004997 -0.000671 0.000460 -0.007650
# 3 -0.006623 -0.004997 0.021734 -0.000557 -0.003895 0.013640
# 4 0.001538 -0.000671 -0.000557 0.023561 0.002432 0.011714
# 5 0.003691 0.000460 -0.003895 0.002432 0.020453 -0.008757
# 6 -0.002315 -0.007650 0.013640 0.011714 -0.008757 0.074228
#
#
# Mechanical properties :
#
#
# Convention : Reuss Voigt Hill
#
# Bulk Modulus (GPa) = 67.92183 77.97187 72.94685
# Shear Modulus (GPa) = 27.49111 46.58555 37.03833
#
# Velocity S-wave (km/s) = 3.15783 4.11072 3.66537
# Velocity P-wave (km/s) = 6.15899 7.12836 6.66133
#
# Compressibility (1/GPa) = 0.01472281
#
# Stress axis : x y z
#
# Youngs Moduli (GPa) = 131.84872 135.00447 46.01117
#
# Poissons Ratio (x) = -0.08353 0.30475
# Poissons Ratio (y) = -0.08158 0.22990
# Poissons Ratio (z) = 0.87329 0.67457
#
# Static dielectric constant tensor:
#      x y z
#    x 2.185530 0.021380 0.064150 
#    y 0.021380 2.332070 -0.273530 
#    z 0.064150 -0.273530 2.241520 
# 
# From -- ./inp_files/318913.got.cif
#   From: 2010.05.17/outbox.cif.g08.bks.cpg/sg2_160_cif.got.tgz:318913.got - 2010.06.03 11:33:40.
