data_PCOD9049081
_publ_section_title
;
Structure prediction by ZEFSAII (Michael W. Deem and Ramdas Pophale) SiO2 
 PCOD9049081
Probable space group: P -1
;
_chemical_formula_sum "Si O2"
_cell_formula_units_Z 15
_cell_length_a 9.519597
_cell_length_b 7.033574
_cell_length_c 18.715875
_cell_angle_alpha 65.158233
_cell_angle_beta 41.841939
_cell_angle_gamma 47.820808
_cell_volume 611.292572
_symmetry_space_group_name_H-M "P -1"
_symmetry_group_IT_number 2
_symmetry_cell_setting 'triclinic'
loop_
_space_group_symop_operation_xyz
x,y,z
-x,-y,-z
loop_
_atom_site_type_symbol
_atom_site_label
_atom_site_fract_x
_atom_site_fract_y
_atom_site_fract_z
Si Si1 0.114497 0.381158 0.704094
Si Si2 0.586746 0.688744 0.937222
Si Si3 0.465265 0.545970 0.598478
Si Si4 0.178434 0.129795 0.567421
Si Si5 0.397738 0.592545 0.275492
Si Si6 0.582451 0.879522 0.665327
Si Si7 0.000000 0.000000 0.500000
Si Si8 0.282871 0.271018 0.956883
O O1 0.279958 0.492270 0.636909
O O2 0.119954 0.285141 0.637558
O O3 0.823947 0.578537 0.810451
O O4 0.282736 0.123060 0.731189
O O5 0.353294 0.987425 0.962031
O O6 0.500000 0.500000 0.000000
O O7 0.690750 0.693034 0.975305
O O8 0.367739 0.828778 0.563920
O O9 0.428350 0.539367 0.698950
O O10 0.764983 0.299421 0.515985
O O11 0.298907 0.200117 0.448353
O O12 0.912358 0.192801 0.622252
O O13 0.404292 0.361438 0.271942
O O14 0.503414 0.713707 0.167688
O O15 0.764906 0.954664 0.614972
O O16 0.000000 0.500000 0.000000
#
# Coordination Sequence:
#
# PCOD9049081 Si02
#       8
#     2   2   2   2   2   2   1   2
#     4  11  25  45  74 108 146 193 253 302 369 445
#     4  11  26  52  78 114 146 191 255 322 379 456
#     4  11  25  47  69 101 154 192 253 298 366 432
#     4  12  25  46  73 105 150 209 240 300 371 437
#     4  12  25  47  74 107 149 197 244 308 376 446
#     4  11  25  45  72 107 158 199 252 300 366 442
#     4  10  24  46  68 108 144 204 254 316 340 450
#     4  11  27  51  82 107 151 194 249 321 394 443
#
# _framework density 24.538170000000001
#
# number of rings (size 3 to 8) (size 9 to 14) (size 15 to 20)
#    0.000    0.800    2.667    3.200    1.867    5.867 
#   14.400    0.000    0.000    0.000    0.000    0.000 
#    0.000    0.000    0.000    0.000    0.000    0.000 
#
# Total GULP energy -83876.809378 kJ/mol
# GULP energy per Si atom -5591.787292 kJ/mol
# Density = 2.448232 g / cm^3
# Si number density = 24.538170 Si / 1000 Ang^3
#
#
#
# Elastic Constant Matrix: (Units=GPa)
#
#
# Indices 1 2 3 4 5 6 
#
# 1 141.9377 48.8998 34.8159 3.6787 -12.8591 1.4394
# 2 48.8998 184.0498 47.3538 -1.4805 -18.3226 3.5505
# 3 34.8159 47.3538 72.0447 8.6827 4.5976 -0.1989
# 4 3.6787 -1.4805 8.6827 42.9150 -2.5624 -8.3140
# 5 -12.8591 -18.3226 4.5976 -2.5624 34.5446 2.7947
# 6 1.4394 3.5505 -0.1989 -8.3140 2.7947 39.4691
#
#
#
# Elastic Compliance Matrix: (Units=1/GPa)
#
#
# Indices 1 2 3 4 5 6 
#
# 1 0.008593 -0.001000 -0.003711 0.000084 0.003205 -0.000451
# 2 -0.001000 0.007402 -0.004837 0.001453 0.004358 -0.000656
# 3 -0.003711 -0.004837 0.019803 -0.004216 -0.006917 0.000272
# 4 0.000084 0.001453 -0.004216 0.025332 0.002839 0.004980
# 5 0.003205 0.004358 -0.006917 0.002839 0.033773 -0.002337
# 6 -0.000451 -0.000656 0.000272 0.004980 -0.002337 0.026628
#
#
# Mechanical properties :
#
#
# Convention : Reuss Voigt Hill
#
# Bulk Modulus (GPa) = 59.87328 73.35236 66.61282
# Shear Modulus (GPa) = 34.20115 41.18326 37.69221
#
# Velocity S-wave (km/s) = 3.73741 4.10119 3.92352
# Velocity P-wave (km/s) = 6.56333 7.23771 6.90875
#
# Compressibility (1/GPa) = 0.01670194
#
# Stress axis : x y z
#
# Youngs Moduli (GPa) = 116.37535 135.10552 50.49668
#
# Poissons Ratio (x) = 0.13506 0.18741
# Poissons Ratio (y) = 0.11634 0.24425
# Poissons Ratio (z) = 0.43191 0.65349
#
# Static dielectric constant tensor:
#      x y z
#    x 1.932190 -0.012590 -0.018870 
#    y -0.012590 1.945400 -0.024760 
#    z -0.018870 -0.024760 1.882110 
# 
# From -- ./inp_files/210748.got.cif
#   From: 2010.05.17/outbox.cif.g08.bks.cpg/sg2_106_cif.got.tgz:210748.got - 2010.06.03 11:33:40.
