data_PCOD9049871
_publ_section_title
;
Structure prediction by ZEFSAII (Michael W. Deem and Ramdas Pophale) SiO2 
 PCOD9049871
Probable space group: P -1
;
_chemical_formula_sum "Si O2"
_cell_formula_units_Z 16
_cell_length_a 8.284487
_cell_length_b 12.440181
_cell_length_c 11.157517
_cell_angle_alpha 121.733947
_cell_angle_beta 66.961811
_cell_angle_gamma 68.462562
_cell_volume 613.124139
_symmetry_space_group_name_H-M "P -1"
_symmetry_group_IT_number 2
_symmetry_cell_setting 'triclinic'
loop_
_space_group_symop_operation_xyz
x,y,z
-x,-y,-z
loop_
_atom_site_type_symbol
_atom_site_label
_atom_site_fract_x
_atom_site_fract_y
_atom_site_fract_z
Si Si1 0.274435 0.730198 0.528583
Si Si2 0.999789 0.077793 0.667006
Si Si3 0.470417 0.444014 0.104903
Si Si4 0.683950 0.008393 0.887197
Si Si5 0.042585 0.457298 0.675610
Si Si6 0.566175 0.185360 0.261380
Si Si7 0.270277 0.173153 0.929776
Si Si8 0.234181 0.214484 0.696855
O O1 0.448851 0.552885 0.286448
O O2 0.377965 0.718988 0.621391
O O3 0.215712 0.892946 0.572392
O O4 0.986791 0.823192 0.676500
O O5 0.051290 0.196987 0.700354
O O6 0.728026 0.224127 0.898789
O O7 0.000000 0.000000 0.500000
O O8 0.213894 0.493134 0.219707
O O9 0.500000 0.500000 0.000000
O O10 0.658393 0.131954 0.067330
O O11 0.547939 0.076744 0.836427
O O12 0.500000 0.000000 0.000000
O O13 0.258729 0.324072 0.434956
O O14 0.199431 0.339985 0.682853
O O15 0.940820 0.653789 0.821210
O O16 0.709065 0.988465 0.164835
O O17 0.195669 0.268013 0.877750
O O18 0.500000 0.000000 0.500000
#
# Coordination Sequence:
#
# PCOD9049871 Si02
#       8
#     2   2   2   2   2   2   2   2
#     4  12  24  45  71 102 144 181 234 295 349 421
#     4  12  25  42  66 100 147 184 227 278 347 423
#     4  12  25  40  66 102 140 190 228 277 350 421
#     4  10  24  47  77  99 137 186 243 294 353 410
#     4  12  25  43  71 100 148 183 235 283 355 419
#     4  11  25  47  72 105 137 187 243 297 349 408
#     4  11  24  43  68 101 137 188 231 287 354 412
#     4  12  24  41  67 102 144 184 228 281 353 426
#
# _framework density 26.095858
#
# number of rings (size 3 to 8) (size 9 to 14) (size 15 to 20)
#    0.000    0.500    5.000    3.000    5.250    1.500 
#    0.000    2.500    0.000    6.000    0.000    0.000 
#    0.000    0.000    0.000    0.000    0.000    0.000 
#
# Total GULP energy -89522.538099 kJ/mol
# GULP energy per Si atom -5595.158631 kJ/mol
# Density = 2.603646 g / cm^3
# Si number density = 26.095858 Si / 1000 Ang^3
#
#
#
# Elastic Constant Matrix: (Units=GPa)
#
#
# Indices 1 2 3 4 5 6 
#
# 1 125.2913 16.4163 55.0175 -1.5968 19.7436 -14.5251
# 2 16.4163 47.6767 25.4411 -4.5081 11.3897 -3.3669
# 3 55.0175 25.4411 192.3390 4.3306 15.2214 -8.0264
# 4 -1.5968 -4.5081 4.3306 44.5571 -10.4228 3.7655
# 5 19.7436 11.3897 15.2214 -10.4228 52.3934 -8.0043
# 6 -14.5251 -3.3669 -8.0264 3.7655 -8.0043 29.9624
#
#
#
# Elastic Compliance Matrix: (Units=1/GPa)
#
#
# Indices 1 2 3 4 5 6 
#
# 1 0.009949 -0.001427 -0.002320 -0.000397 -0.002313 0.003473
# 2 -0.001427 0.023821 -0.002496 0.001760 -0.003543 0.000149
# 3 -0.002320 -0.002496 0.006275 -0.001105 -0.000586 0.000258
# 4 -0.000397 0.001760 -0.001105 0.023951 0.004533 -0.002090
# 5 -0.002313 -0.003543 -0.000586 0.004533 0.022370 0.003730
# 6 0.003473 0.000149 0.000258 -0.002090 0.003730 0.036404
#
#
# Mechanical properties :
#
#
# Convention : Reuss Voigt Hill
#
# Bulk Modulus (GPa) = 36.28582 62.11743 49.20162
# Shear Modulus (GPa) = 34.61562 43.27805 38.94684
#
# Velocity S-wave (km/s) = 3.64604 4.07680 3.86742
# Velocity P-wave (km/s) = 5.62670 6.78348 6.23199
#
# Compressibility (1/GPa) = 0.02755898
#
# Stress axis : x y z
#
# Youngs Moduli (GPa) = 100.50868 41.97966 159.36286
#
# Poissons Ratio (x) = 0.05992 0.36976
# Poissons Ratio (y) = 0.14346 0.39771
# Poissons Ratio (z) = 0.23320 0.10477
#
# Static dielectric constant tensor:
#      x y z
#    x 1.868660 0.037290 -0.080710 
#    y 0.037290 2.126530 -0.032780 
#    z -0.080710 -0.032780 2.050950 
# 
# From -- ./inp_files/399581.got.cif
#   From: 2010.05.17/outbox.cif.g08.bks.cpg/sg2_200_cif.got.tgz:399581.got - 2010.06.03 11:33:40.
