data_PCOD9049769
_publ_section_title
;
Structure prediction by ZEFSAII (Michael W. Deem and Ramdas Pophale) SiO2 
 PCOD9049769
Probable space group: P -1
;
_chemical_formula_sum "Si O2"
_cell_formula_units_Z 12
_cell_length_a 11.903377
_cell_length_b 5.462858
_cell_length_c 11.731193
_cell_angle_alpha 61.190442
_cell_angle_beta 55.313040
_cell_angle_gamma 93.378358
_cell_volume 487.328380
_symmetry_space_group_name_H-M "P -1"
_symmetry_group_IT_number 2
_symmetry_cell_setting 'triclinic'
loop_
_space_group_symop_operation_xyz
x,y,z
-x,-y,-z
loop_
_atom_site_type_symbol
_atom_site_label
_atom_site_fract_x
_atom_site_fract_y
_atom_site_fract_z
Si Si1 0.444720 0.695526 0.178355
Si Si2 0.272702 0.765668 0.438506
Si Si3 0.182403 0.714538 0.750724
Si Si4 0.829491 0.774561 0.690934
Si Si5 0.269601 0.410286 0.966599
Si Si6 0.977418 0.848639 0.192967
O O1 0.421788 0.741782 0.314421
O O2 0.271778 0.477973 0.285911
O O3 0.560562 0.550254 0.125189
O O4 0.500000 0.000000 0.000000
O O5 0.281585 0.861124 0.545481
O O6 0.112568 0.440374 0.603111
O O7 0.253130 0.003044 0.310912
O O8 0.068534 0.356896 0.850738
O O9 0.099964 0.922771 0.787341
O O10 0.264693 0.657991 0.824679
O O11 0.808867 0.607128 0.861667
O O12 0.000000 0.000000 0.500000
O O13 0.157850 0.060228 0.060057
#
# Coordination Sequence:
#
# PCOD9049769 Si02
#       6
#     2   2   2   2   2   2
#     4  12  27  45  69 113 153 190 250 312 378 440
#     4  10  24  47  73  99 155 186 256 293 375 444
#     4  10  24  47  77 110 147 195 256 304 367 446
#     4  12  27  48  74 105 148 204 252 305 374 451
#     4  12  25  44  76 108 147 195 247 316 371 436
#     4  10  24  47  76 110 146 196 255 300 370 448
#
# _framework density 24.624054000000001
#
# number of rings (size 3 to 8) (size 9 to 14) (size 15 to 20)
#    1.000    0.000    1.667    4.500    2.333    3.333 
#    0.000    1.667    0.000    0.000    0.000    0.000 
#    0.000    0.000    0.000    0.000    0.000    0.000 
#
# Total GULP energy -67066.139928 kJ/mol
# GULP energy per Si atom -5588.844994 kJ/mol
# Density = 2.456801 g / cm^3
# Si number density = 24.624054 Si / 1000 Ang^3
#
#
#
# Elastic Constant Matrix: (Units=GPa)
#
#
# Indices 1 2 3 4 5 6 
#
# 1 87.4581 12.4156 33.3476 -6.4831 12.5069 2.6394
# 2 12.4156 95.3033 14.0385 -7.2060 6.9590 -3.5454
# 3 33.3476 14.0385 119.2664 20.4181 -0.4629 5.8860
# 4 -6.4831 -7.2060 20.4181 30.9238 0.9638 1.6776
# 5 12.5069 6.9590 -0.4629 0.9638 39.5970 -0.0908
# 6 2.6394 -3.5454 5.8860 1.6776 -0.0908 20.7009
#
#
#
# Elastic Compliance Matrix: (Units=1/GPa)
#
#
# Indices 1 2 3 4 5 6 
#
# 1 0.014653 -0.000338 -0.005156 0.006602 -0.004792 -0.001016
# 2 -0.000338 0.011355 -0.002019 0.003849 -0.002001 0.002241
# 3 -0.005156 -0.002019 0.011773 -0.009275 0.002342 -0.002274
# 4 0.006602 0.003849 -0.009275 0.040911 -0.003868 -0.000878
# 5 -0.004792 -0.002001 0.002342 -0.003868 0.027241 0.000035
# 6 -0.001016 0.002241 -0.002274 -0.000878 0.000035 0.049538
#
#
# Mechanical properties :
#
#
# Convention : Reuss Voigt Hill
#
# Bulk Modulus (GPa) = 43.94801 46.84793 45.39797
# Shear Modulus (GPa) = 28.07669 34.39273 31.23471
#
# Velocity S-wave (km/s) = 3.38037 3.74132 3.56541
# Velocity P-wave (km/s) = 5.75519 6.14246 5.95198
#
# Compressibility (1/GPa) = 0.02275416
#
# Stress axis : x y z
#
# Youngs Moduli (GPa) = 68.24328 88.06810 84.93970
#
# Poissons Ratio (x) = 0.02978 0.43796
# Poissons Ratio (y) = 0.02308 0.17152
# Poissons Ratio (z) = 0.35187 0.17784
#
# Static dielectric constant tensor:
#      x y z
#    x 1.946860 0.036840 0.010850 
#    y 0.036840 2.053710 0.019290 
#    z 0.010850 0.019290 1.968210 
# 
# From -- ./inp_files/407590.got.cif
#   From: 2010.05.17/outbox.cif.g08.bks.cpg/sg2_204_cif.got.tgz:407590.got - 2010.06.03 11:33:40.
