data_PCOD9049295
_publ_section_title
;
Structure prediction by ZEFSAII (Michael W. Deem and Ramdas Pophale) SiO2 
 PCOD9049295
Probable space group: P -1
;
_chemical_formula_sum "Si O2"
_cell_formula_units_Z 15
_cell_length_a 8.909273
_cell_length_b 12.579508
_cell_length_c 18.598069
_cell_angle_alpha 152.088901
_cell_angle_beta 53.200913
_cell_angle_gamma 110.891943
_cell_volume 693.383004
_symmetry_space_group_name_H-M "P -1"
_symmetry_group_IT_number 2
_symmetry_cell_setting 'triclinic'
loop_
_space_group_symop_operation_xyz
x,y,z
-x,-y,-z
loop_
_atom_site_type_symbol
_atom_site_label
_atom_site_fract_x
_atom_site_fract_y
_atom_site_fract_z
Si Si1 0.732808 0.323759 0.503119
Si Si2 0.559534 0.943363 0.364937
Si Si3 0.480174 0.198334 0.061971
Si Si4 0.873933 0.035121 0.745995
Si Si5 0.101679 0.287007 0.114749
Si Si6 0.259902 0.713921 0.681755
Si Si7 0.134801 0.130509 0.509209
Si Si8 0.000000 0.500000 0.000000
O O1 0.554490 0.561374 0.736695
O O2 0.785433 0.356786 0.426590
O O3 0.645137 0.120255 0.408095
O O4 0.940933 0.225221 0.431704
O O5 0.755055 0.663524 0.140620
O O6 0.500000 0.000000 0.500000
O O7 0.344912 0.014429 0.426887
O O8 0.280908 0.261743 0.105158
O O9 0.681062 0.123126 0.909001
O O10 0.500000 0.000000 0.000000
O O11 0.812659 0.966704 0.645860
O O12 0.976080 0.231119 0.833135
O O13 0.898594 0.302743 0.224646
O O14 0.004383 0.558551 0.262566
O O15 0.207971 0.014561 0.878855
O O16 0.500000 0.500000 0.500000
O O17 0.000000 0.000000 0.500000
#
# Coordination Sequence:
#
# PCOD9049295 Si02
#       8
#     2   2   2   2   2   2   2   1
#     4  11  24  44  71 103 143 193 246 308 374 448
#     4  11  25  46  71 101 146 191 252 307 369 451
#     4  12  26  43  74 108 149 194 246 309 385 451
#     4  11  26  46  72 107 149 195 252 314 378 448
#     4  11  27  46  70 112 151 194 258 309 380 467
#     4  11  25  46  75 105 149 202 252 316 385 449
#     4  12  27  47  75 110 155 203 253 322 385 457
#     4  10  24  46  72 100 138 200 256 298 370 446
#
# _framework density 21.633067
#
# number of rings (size 3 to 8) (size 9 to 14) (size 15 to 20)
#    0.000    0.800    1.333    4.800    7.467    9.067 
#    0.000    0.000    0.000    0.000    0.000    0.000 
#    0.000    0.000    0.000    0.000    0.000    0.000 
#
# Total GULP energy -83564.010962 kJ/mol
# GULP energy per Si atom -5570.934064 kJ/mol
# Density = 2.158383 g / cm^3
# Si number density = 21.633067 Si / 1000 Ang^3
#
#
#
# Elastic Constant Matrix: (Units=GPa)
#
#
# Indices 1 2 3 4 5 6 
#
# 1 127.1202 34.6058 27.4164 -3.0146 -26.4145 -23.3854
# 2 34.6058 75.9174 59.2946 -1.6676 -6.9610 -14.1980
# 3 27.4164 59.2946 118.4896 -10.0681 -14.7728 -5.8957
# 4 -3.0146 -1.6676 -10.0681 33.9130 -9.5473 2.9257
# 5 -26.4145 -6.9610 -14.7728 -9.5473 41.2638 -1.7929
# 6 -23.3854 -14.1980 -5.8957 2.9257 -1.7929 35.0362
#
#
#
# Elastic Compliance Matrix: (Units=1/GPa)
#
#
# Indices 1 2 3 4 5 6 
#
# 1 0.011708 -0.003981 0.000851 0.002804 0.008060 0.006523
# 2 -0.003981 0.025133 -0.012149 -0.004163 -0.003375 0.005658
# 3 0.000851 -0.012149 0.015357 0.005678 0.005221 -0.001978
# 4 0.002804 -0.004163 0.005678 0.034426 0.011040 -0.001170
# 5 0.008060 -0.003375 0.005221 0.011040 0.033495 0.005683
# 6 0.006523 0.005658 -0.001978 -0.001170 0.005683 0.035244
#
#
# Mechanical properties :
#
#
# Convention : Reuss Voigt Hill
#
# Bulk Modulus (GPa) = 46.21047 62.68453 54.44750
# Shear Modulus (GPa) = 25.88861 35.38996 30.63928
#
# Velocity S-wave (km/s) = 3.46311 4.04904 3.76748
# Velocity P-wave (km/s) = 6.11541 7.13434 6.64443
#
# Compressibility (1/GPa) = 0.02164012
#
# Stress axis : x y z
#
# Youngs Moduli (GPa) = 85.41120 39.78844 65.11591
#
# Poissons Ratio (x) = 0.15839 -0.05540
# Poissons Ratio (y) = 0.34001 0.79109
# Poissons Ratio (z) = -0.07267 0.48339
#
# Static dielectric constant tensor:
#      x y z
#    x 1.813870 -0.046310 0.031130 
#    y -0.046310 1.799840 0.003730 
#    z 0.031130 0.003730 1.805130 
# 
# From -- ./inp_files/382727.got.cif
#   From: 2010.05.17/outbox.cif.g08.bks.cpg/sg2_192_cif.got.tgz:382727.got - 2010.06.03 11:33:40.
