data_PCOD9049468
_publ_section_title
;
Structure prediction by ZEFSAII (Michael W. Deem and Ramdas Pophale) SiO2 
 PCOD9049468
Probable space group: P -1
;
_chemical_formula_sum "Si O2"
_cell_formula_units_Z 15
_cell_length_a 13.423810
_cell_length_b 13.364183
_cell_length_c 5.025520
_cell_angle_alpha 65.145425
_cell_angle_beta 58.650738
_cell_angle_gamma 43.950385
_cell_volume 532.777857
_symmetry_space_group_name_H-M "P -1"
_symmetry_group_IT_number 2
_symmetry_cell_setting 'triclinic'
loop_
_space_group_symop_operation_xyz
x,y,z
-x,-y,-z
loop_
_atom_site_type_symbol
_atom_site_label
_atom_site_fract_x
_atom_site_fract_y
_atom_site_fract_z
Si Si1 0.430450 0.651702 0.273670
Si Si2 0.149385 0.178367 0.421475
Si Si3 0.310985 0.453726 0.386088
Si Si4 0.862159 0.395188 0.029707
Si Si5 0.071256 0.845184 0.466007
Si Si6 0.000000 0.500000 0.000000
Si Si7 0.666568 0.797785 0.472431
Si Si8 0.546796 0.120064 0.818029
O O1 0.500000 0.500000 0.500000
O O2 0.256065 0.744455 0.305130
O O3 0.426618 0.763779 0.341757
O O4 0.531527 0.620124 0.904789
O O5 0.223101 0.174868 0.603152
O O6 0.036893 0.141416 0.625629
O O7 0.294387 0.041345 0.209629
O O8 0.075727 0.332742 0.217121
O O9 0.277815 0.502165 0.680127
O O10 0.246314 0.367162 0.557576
O O11 0.199343 0.585679 0.197675
O O12 0.946759 0.238366 0.194228
O O13 0.940022 0.464131 0.875437
O O14 0.000000 0.000000 0.500000
O O15 0.459388 0.126469 0.672643
O O16 0.566723 0.829093 0.835800
#
# Coordination Sequence:
#
# PCOD9049468 Si02
#       8
#     2   2   2   2   2   1   2   2
#     4  11  23  46  82 113 156 214 275 324 388 481
#     4  11  23  45  77 114 159 205 258 328 402 473
#     4  11  23  45  76 115 147 195 269 325 383 458
#     4  11  24  47  76 113 150 205 255 327 390 468
#     4  11  24  49  78 112 166 210 264 323 407 477
#     4  10  24  46  74 112 156 204 252 322 400 484
#     4  11  24  45  77 111 152 199 259 325 401 467
#     4  11  25  47  76 113 156 203 258 334 391 471
#
# _framework density 28.154319999999998
#
# number of rings (size 3 to 8) (size 9 to 14) (size 15 to 20)
#    0.000    1.067    4.000    2.400    0.000    1.067 
#    2.400    3.333    0.000    0.000    0.000    0.000 
#    0.000    0.000    0.000    0.000    0.000    0.000 
#
# Total GULP energy -83726.565920 kJ/mol
# GULP energy per Si atom -5581.771061 kJ/mol
# Density = 2.809024 g / cm^3
# Si number density = 28.154320 Si / 1000 Ang^3
#
#
#
# Elastic Constant Matrix: (Units=GPa)
#
#
# Indices 1 2 3 4 5 6 
#
# 1 230.8106 71.7918 61.1709 -0.4800 -28.4113 28.6066
# 2 71.7918 202.3398 10.6838 -20.6046 -22.3221 20.0001
# 3 61.1709 10.6838 111.6651 4.7967 -4.7176 9.1707
# 4 -0.4800 -20.6046 4.7967 24.7452 1.6254 -7.9516
# 5 -28.4113 -22.3221 -4.7176 1.6254 53.7352 -12.8156
# 6 28.6066 20.0001 9.1707 -7.9516 -12.8156 52.0489
#
#
#
# Elastic Compliance Matrix: (Units=1/GPa)
#
#
# Indices 1 2 3 4 5 6 
#
# 1 0.006111 -0.001781 -0.002873 -0.001556 0.001819 -0.001958
# 2 -0.001781 0.006256 0.000257 0.004913 0.001444 -0.000364
# 3 -0.002873 0.000257 0.010642 -0.002145 -0.000622 -0.000876
# 4 -0.001556 0.004913 -0.002145 0.047002 0.001237 0.006831
# 5 0.001819 0.001444 -0.000622 0.001237 0.021014 0.003918
# 6 -0.001958 -0.000364 -0.000876 0.006831 0.003918 0.022591
#
#
# Mechanical properties :
#
#
# Convention : Reuss Voigt Hill
#
# Bulk Modulus (GPa) = 70.34307 92.45651 81.39979
# Shear Modulus (GPa) = 39.32374 52.85047 46.08710
#
# Velocity S-wave (km/s) = 3.74133 4.33733 4.05031
# Velocity P-wave (km/s) = 6.61078 7.61536 7.13079
#
# Compressibility (1/GPa) = 0.01421604
#
# Stress axis : x y z
#
# Youngs Moduli (GPa) = 163.63260 159.84334 93.96415
#
# Poissons Ratio (x) = 0.28466 0.26995
# Poissons Ratio (y) = 0.29140 -0.02414
# Poissons Ratio (z) = 0.47010 -0.04106
#
# Static dielectric constant tensor:
#      x y z
#    x 2.274120 0.018860 0.013130 
#    y 0.018860 2.137350 -0.119890 
#    z 0.013130 -0.119890 2.125310 
# 
# From -- ./inp_files/93339.got.cif
#   From: 2010.05.17/outbox.cif.g08.bks.cpg/sg2_47_cif.got.tgz:93339.got - 2010.06.03 11:33:40.
