data_PCOD9049358
_publ_section_title
;
Structure prediction by ZEFSAII (Michael W. Deem and Ramdas Pophale) SiO2 
 PCOD9049358
Probable space group: P -1
;
_chemical_formula_sum "Si O2"
_cell_formula_units_Z 15
_cell_length_a 7.401668
_cell_length_b 17.770017
_cell_length_c 9.889657
_cell_angle_alpha 42.411643
_cell_angle_beta 53.311612
_cell_angle_gamma 79.721047
_cell_volume 614.960550
_symmetry_space_group_name_H-M "P -1"
_symmetry_group_IT_number 2
_symmetry_cell_setting 'triclinic'
loop_
_space_group_symop_operation_xyz
x,y,z
-x,-y,-z
loop_
_atom_site_type_symbol
_atom_site_label
_atom_site_fract_x
_atom_site_fract_y
_atom_site_fract_z
Si Si1 0.624157 0.709826 0.371695
Si Si2 0.375216 0.634012 0.875834
Si Si3 0.856970 0.204933 0.118243
Si Si4 0.111085 0.206704 0.419701
Si Si5 0.455278 0.049763 0.278094
Si Si6 0.929187 0.404899 0.284316
Si Si7 0.699441 0.983589 0.032579
Si Si8 0.000000 0.000000 0.500000
O O1 0.524629 0.649029 0.647054
O O2 0.365494 0.640988 0.488176
O O3 0.870010 0.714043 0.183253
O O4 0.702507 0.855528 0.171528
O O5 0.222382 0.715673 0.850127
O O6 0.595186 0.691683 0.814372
O O7 0.150168 0.487773 0.183535
O O8 0.633888 0.144068 0.185058
O O9 0.818430 0.070310 0.381677
O O10 0.956382 0.285087 0.381858
O O11 0.063100 0.114958 0.437844
O O12 0.979128 0.106334 0.733047
O O13 0.309003 0.092384 0.184412
O O14 0.600584 0.986743 0.222989
O O15 0.000000 0.500000 0.000000
O O16 0.500000 0.000000 0.000000
#
# Coordination Sequence:
#
# PCOD9049358 Si02
#       8
#     2   2   2   2   2   2   2   1
#     4  11  23  44  67 103 136 184 225 281 350 404
#     4  11  24  45  70  96 141 182 231 280 330 419
#     4  11  24  40  66  98 142 175 225 277 346 407
#     4  12  24  42  70 104 136 184 224 286 356 393
#     4  11  23  39  59 102 142 176 215 284 346 407
#     4  10  24  46  72  94 134 188 235 275 333 414
#     4  12  22  38  66  98 140 175 226 285 344 412
#     4  12  22  36  64  98 138 164 222 284 338 404
#
# _framework density 24.391808999999999
#
# number of rings (size 3 to 8) (size 9 to 14) (size 15 to 20)
#    0.000    0.800    5.333    2.000    3.733    1.600 
#    0.000    0.000    5.867    4.800    0.000    0.000 
#    0.000    0.000    0.000    0.000    0.000    0.000 
#
# Total GULP energy -83679.961125 kJ/mol
# GULP energy per Si atom -5578.664075 kJ/mol
# Density = 2.433629 g / cm^3
# Si number density = 24.391809 Si / 1000 Ang^3
#
#
#
# Elastic Constant Matrix: (Units=GPa)
#
#
# Indices 1 2 3 4 5 6 
#
# 1 84.2214 24.4089 39.1870 -6.6127 -42.2812 16.3966
# 2 24.4089 110.1683 52.4283 4.6063 -17.2405 6.2228
# 3 39.1870 52.4283 131.2504 5.2703 -36.3603 9.0085
# 4 -6.6127 4.6063 5.2703 44.6086 -1.6816 -8.4982
# 5 -42.2812 -17.2405 -36.3603 -1.6816 40.6933 -11.0043
# 6 16.3966 6.2228 9.0085 -8.4982 -11.0043 39.8868
#
#
#
# Elastic Compliance Matrix: (Units=1/GPa)
#
#
# Indices 1 2 3 4 5 6 
#
# 1 0.026362 -0.001848 0.000121 0.004629 0.026274 -0.002341
# 2 -0.001848 0.011405 -0.004212 -0.001108 -0.001058 -0.000596
# 3 0.000121 -0.004212 0.011726 -0.000542 0.008875 0.000292
# 4 0.004629 -0.001108 -0.000542 0.024542 0.006321 0.005365
# 5 0.026274 -0.001058 0.008875 0.006321 0.061122 0.005570
# 6 -0.002341 -0.000596 0.000292 0.005365 0.005570 0.028740
#
#
# Mechanical properties :
#
#
# Convention : Reuss Voigt Hill
#
# Bulk Modulus (GPa) = 26.58507 61.96539 44.27523
# Shear Modulus (GPa) = 26.55141 39.01216 32.78178
#
# Velocity S-wave (km/s) = 3.30288 4.00358 3.66999
# Velocity P-wave (km/s) = 5.04660 6.84331 6.01245
#
# Compressibility (1/GPa) = 0.03761510
#
# Stress axis : x y z
#
# Youngs Moduli (GPa) = 37.93304 87.67902 85.28235
#
# Poissons Ratio (x) = 0.16202 -0.01030
# Poissons Ratio (y) = 0.07010 0.35921
# Poissons Ratio (z) = -0.00458 0.36930
#
# Static dielectric constant tensor:
#      x y z
#    x 2.306650 -0.081930 -0.014650 
#    y -0.081930 1.938910 0.047550 
#    z -0.014650 0.047550 2.007430 
# 
# From -- ./inp_files/402951.got.cif
#   From: 2010.05.17/outbox.cif.g08.bks.cpg/sg2_202_cif.got.tgz:402951.got - 2010.06.03 11:33:40.
