data_PCOD9049823
_publ_section_title
;
Structure prediction by ZEFSAII (Michael W. Deem and Ramdas Pophale) SiO2 
 PCOD9049823
Probable space group: P -1
;
_chemical_formula_sum "Si O2"
_cell_formula_units_Z 12
_cell_length_a 16.096370
_cell_length_b 8.485043
_cell_length_c 6.092779
_cell_angle_alpha 102.736098
_cell_angle_beta 129.270719
_cell_angle_gamma 55.360550
_cell_volume 517.186663
_symmetry_space_group_name_H-M "P -1"
_symmetry_group_IT_number 2
_symmetry_cell_setting 'triclinic'
loop_
_space_group_symop_operation_xyz
x,y,z
-x,-y,-z
loop_
_atom_site_type_symbol
_atom_site_label
_atom_site_fract_x
_atom_site_fract_y
_atom_site_fract_z
Si Si1 0.935918 0.556909 0.662184
Si Si2 0.509410 0.849740 0.642564
Si Si3 0.748454 0.486057 0.126045
Si Si4 0.280371 0.993042 0.620135
Si Si5 0.665228 0.213207 0.927281
Si Si6 0.855849 0.146991 0.891247
O O1 0.843441 0.477606 0.463368
O O2 0.845868 0.792619 0.570674
O O3 0.000000 0.500000 0.500000
O O4 0.000000 0.500000 0.000000
O O5 0.460629 0.725328 0.406192
O O6 0.500000 0.000000 0.500000
O O7 0.397983 0.965738 0.672138
O O8 0.649330 0.703672 0.938160
O O9 0.665888 0.401850 0.044486
O O10 0.828253 0.346777 0.006472
O O11 0.243032 0.839277 0.448329
O O12 0.325604 0.931182 0.921872
O O13 0.804473 0.081850 0.989985
O O14 0.000000 0.000000 0.000000
#
# Coordination Sequence:
#
# PCOD9049823 Si02
#       6
#     2   2   2   2   2   2
#     4  12  30  50  75 112 157 204 263 315 387 466
#     4  11  24  46  73 108 154 194 256 312 389 458
#     4  10  24  47  75 109 147 200 254 318 383 450
#     4  11  25  46  72 107 150 201 249 323 378 459
#     4   9  23  42  71 109 143 187 255 306 378 454
#     4   9  21  43  70 105 146 193 249 307 380 447
#
# _framework density 23.202452999999998
#
# number of rings (size 3 to 8) (size 9 to 14) (size 15 to 20)
#    1.000    0.667    0.000    2.500    7.000    6.667 
#    0.000    0.000    0.000    0.000    0.000    0.000 
#    0.000    0.000    0.000    0.000    0.000    0.000 
#
# Total GULP energy -66844.844852 kJ/mol
# GULP energy per Si atom -5570.403738 kJ/mol
# Density = 2.314964 g / cm^3
# Si number density = 23.202453 Si / 1000 Ang^3
#
#
#
# Elastic Constant Matrix: (Units=GPa)
#
#
# Indices 1 2 3 4 5 6 
#
# 1 102.3523 17.2535 44.4806 -3.6801 -8.6686 -2.4582
# 2 17.2535 94.8000 57.3661 2.8320 -3.6650 -0.2682
# 3 44.4806 57.3661 156.6217 6.5537 3.0697 2.3847
# 4 -3.6801 2.8320 6.5537 36.7911 18.0285 11.0306
# 5 -8.6686 -3.6650 3.0697 18.0285 41.4570 3.4973
# 6 -2.4582 -0.2682 2.3847 11.0306 3.4973 39.0675
#
#
#
# Elastic Compliance Matrix: (Units=1/GPa)
#
#
# Indices 1 2 3 4 5 6 
#
# 1 0.011448 0.000016 -0.003329 0.000364 0.002432 0.000603
# 2 0.000016 0.013708 -0.005019 -0.001389 0.002140 0.000602
# 3 -0.003329 -0.005019 0.009235 -0.000733 -0.001465 -0.000470
# 4 0.000364 -0.001389 -0.000733 0.037920 -0.015703 -0.009243
# 5 0.002432 0.002140 -0.001465 -0.015703 0.031599 0.001862
# 6 0.000603 0.000602 -0.000470 -0.009243 0.001862 0.028110
#
#
# Mechanical properties :
#
#
# Convention : Reuss Voigt Hill
#
# Bulk Modulus (GPa) = 56.40866 65.77493 61.09180
# Shear Modulus (GPa) = 32.34274 39.10805 35.72539
#
# Velocity S-wave (km/s) = 3.73760 4.10995 3.92819
# Velocity P-wave (km/s) = 6.55671 7.13667 6.85283
#
# Compressibility (1/GPa) = 0.01772777
#
# Stress axis : x y z
#
# Youngs Moduli (GPa) = 87.35254 72.94796 108.28410
#
# Poissons Ratio (x) = -0.00116 0.36049
# Poissons Ratio (y) = -0.00139 0.54343
# Poissons Ratio (z) = 0.29081 0.36609
#
# Static dielectric constant tensor:
#      x y z
#    x 1.896100 -0.031250 -0.007360 
#    y -0.031250 1.867950 0.119010 
#    z -0.007360 0.119010 1.937140 
# 
# From -- ./inp_files/87868.got.cif
#   From: 2010.05.17/outbox.cif.g08.bks.cpg/sg2_44_cif.got.tgz:87868.got - 2010.06.03 11:33:40.
