data_PCOD9049552
_publ_section_title
;
Structure prediction by ZEFSAII (Michael W. Deem and Ramdas Pophale) SiO2 
 PCOD9049552
Probable space group: P -1
;
_chemical_formula_sum "Si O2"
_cell_formula_units_Z 14
_cell_length_a 7.565419
_cell_length_b 8.089064
_cell_length_c 13.479983
_cell_angle_alpha 59.958104
_cell_angle_beta 58.950618
_cell_angle_gamma 97.863520
_cell_volume 517.787006
_symmetry_space_group_name_H-M "P -1"
_symmetry_group_IT_number 2
_symmetry_cell_setting 'triclinic'
loop_
_space_group_symop_operation_xyz
x,y,z
-x,-y,-z
loop_
_atom_site_type_symbol
_atom_site_label
_atom_site_fract_x
_atom_site_fract_y
_atom_site_fract_z
Si Si1 0.862990 0.627502 0.172105
Si Si2 0.477123 0.737808 0.462867
Si Si3 0.807534 0.771527 0.680855
Si Si4 0.268245 0.596568 0.349084
Si Si5 0.633618 0.201567 0.228402
Si Si6 0.697340 0.941517 0.025914
Si Si7 0.010245 0.913374 0.784485
O O1 0.716799 0.469397 0.354964
O O2 0.781124 0.434733 0.173059
O O3 0.771791 0.791476 0.115942
O O4 0.142105 0.797332 0.069759
O O5 0.417547 0.665018 0.388450
O O6 0.466354 0.964223 0.408233
O O7 0.758733 0.835477 0.382476
O O8 0.742480 0.580487 0.674987
O O9 0.567385 0.776864 0.777980
O O10 0.924803 0.767690 0.752892
O O11 0.000000 0.000000 0.500000
O O12 0.416206 0.826547 0.171485
O O13 0.000000 0.500000 0.500000
O O14 0.851098 0.158451 0.155723
O O15 0.791898 0.911108 0.902211
#
# Coordination Sequence:
#
# PCOD9049552 Si02
#       7
#     2   2   2   2   2   2   2
#     4  11  22  45  79 115 155 208 266 327 392 486
#     4  10  24  47  81 114 154 213 269 320 398 472
#     4  12  26  48  80 117 161 207 270 333 389 471
#     4  12  28  50  76 112 160 209 270 334 389 483
#     4  10  24  46  78 119 156 207 270 321 393 474
#     4  11  26  48  73 119 160 207 268 324 412 474
#     4  10  27  48  81 120 158 207 267 326 403 473
#
# _framework density 27.038146000000001
#
# number of rings (size 3 to 8) (size 9 to 14) (size 15 to 20)
#    0.857    0.286    1.429    3.857    6.000    2.286 
#    0.000    2.143    0.000    0.000    0.000    0.000 
#    0.000    0.000    0.000    0.000    0.000    0.000 
#
# Total GULP energy -78191.159008 kJ/mol
# GULP energy per Si atom -5585.082786 kJ/mol
# Density = 2.697661 g / cm^3
# Si number density = 27.038146 Si / 1000 Ang^3
#
#
#
# Elastic Constant Matrix: (Units=GPa)
#
#
# Indices 1 2 3 4 5 6 
#
# 1 122.7344 34.6295 48.7169 9.2340 -13.7468 0.7610
# 2 34.6295 120.6083 80.3833 -33.2713 -10.9284 23.7134
# 3 48.7169 80.3833 164.4563 -14.3749 -36.3473 17.7401
# 4 9.2340 -33.2713 -14.3749 54.5998 -0.5839 -0.3161
# 5 -13.7468 -10.9284 -36.3473 -0.5839 31.2144 6.3789
# 6 0.7610 23.7134 17.7401 -0.3161 6.3789 51.7038
#
#
#
# Elastic Compliance Matrix: (Units=1/GPa)
#
#
# Indices 1 2 3 4 5 6 
#
# 1 0.010137 -0.003049 -0.001892 -0.004052 0.000754 0.001781
# 2 -0.003049 0.016705 -0.006250 0.009003 -0.001536 -0.005227
# 3 -0.001892 -0.006250 0.012781 -0.000008 0.012480 -0.003030
# 4 -0.004052 0.009003 -0.000008 0.024488 0.002684 -0.004248
# 5 0.000754 -0.001536 0.012480 0.002684 0.048362 -0.009539
# 6 0.001781 -0.005227 -0.003030 -0.004248 -0.009539 0.023903
#
#
# Mechanical properties :
#
#
# Convention : Reuss Voigt Hill
#
# Bulk Modulus (GPa) = 58.00799 81.69537 69.85168
# Shear Modulus (GPa) = 30.39399 43.77490 37.08444
#
# Velocity S-wave (km/s) = 3.35642 4.02805 3.70748
# Velocity P-wave (km/s) = 6.04330 7.20514 6.64964
#
# Compressibility (1/GPa) = 0.01723901
#
# Stress axis : x y z
#
# Youngs Moduli (GPa) = 98.64475 59.86348 78.24316
#
# Poissons Ratio (x) = 0.18254 0.14806
# Poissons Ratio (y) = 0.30079 0.48905
# Poissons Ratio (z) = 0.18667 0.37417
#
# Static dielectric constant tensor:
#      x y z
#    x 2.234450 -0.076230 -0.030320 
#    y -0.076230 2.060280 0.017660 
#    z -0.030320 0.017660 2.212890 
# 
# From -- ./inp_files/494464.got.cif
#   From: 2010.05.17/outbox.cif.g08.bks.cpg/sg2_248_cif.got.tgz:494464.got - 2010.06.03 11:33:40.
