data_PCOD9049072
_publ_section_title
;
Structure prediction by ZEFSAII (Michael W. Deem and Ramdas Pophale) SiO2 
 PCOD9049072
Probable space group: P -1
;
_chemical_formula_sum "Si O2"
_cell_formula_units_Z 12
_cell_length_a 7.783272
_cell_length_b 12.465956
_cell_length_c 12.319598
_cell_angle_alpha 43.912868
_cell_angle_beta 106.104345
_cell_angle_gamma 70.043865
_cell_volume 464.789495
_symmetry_space_group_name_H-M "P -1"
_symmetry_group_IT_number 2
_symmetry_cell_setting 'triclinic'
loop_
_space_group_symop_operation_xyz
x,y,z
-x,-y,-z
loop_
_atom_site_type_symbol
_atom_site_label
_atom_site_fract_x
_atom_site_fract_y
_atom_site_fract_z
Si Si1 0.298239 0.402807 0.627792
Si Si2 0.438604 0.109511 0.181574
Si Si3 0.932103 0.815693 0.088021
Si Si4 0.075881 0.748397 0.524729
Si Si5 0.149151 0.035683 0.256291
Si Si6 0.754628 0.453475 0.065350
O O1 0.000000 0.500000 0.500000
O O2 0.294689 0.493496 0.674933
O O3 0.616360 0.094199 0.884622
O O4 0.207392 0.590103 0.381266
O O5 0.159724 0.276134 0.927214
O O6 0.451112 0.927650 0.367174
O O7 0.728978 0.960839 0.272620
O O8 0.372551 0.285584 0.131126
O O9 0.990458 0.889815 0.942972
O O10 0.053341 0.712149 0.671419
O O11 0.174985 0.855814 0.451852
O O12 0.933827 0.294589 0.103239
O O13 0.500000 0.500000 0.000000
#
# Coordination Sequence:
#
# PCOD9049072 Si02
#       6
#     2   2   2   2   2   2
#     4  12  23  45  76 105 148 189 245 297 362 437
#     4  10  24  46  68 105 138 189 239 290 373 418
#     4  10  26  44  72 109 141 195 238 295 369 424
#     4  12  26  44  73 102 142 192 238 302 362 430
#     4  10  25  47  67 108 141 186 243 300 355 440
#     4  12  25  45  73 103 142 189 243 298 367 430
#
# _framework density 25.818137
#
# number of rings (size 3 to 8) (size 9 to 14) (size 15 to 20)
#    1.000    0.000    3.333    2.500    2.333    3.333 
#    3.000    0.000    0.000    0.000    0.000    0.000 
#    0.000    0.000    0.000    0.000    0.000    0.000 
#
# Total GULP energy -67155.773202 kJ/mol
# GULP energy per Si atom -5596.314434 kJ/mol
# Density = 2.575937 g / cm^3
# Si number density = 25.818137 Si / 1000 Ang^3
#
#
#
# Elastic Constant Matrix: (Units=GPa)
#
#
# Indices 1 2 3 4 5 6 
#
# 1 125.4693 61.3974 18.3486 -11.9958 -0.1727 22.9081
# 2 61.3974 65.2612 30.0753 -47.7565 -2.2122 -41.2108
# 3 18.3486 30.0753 67.7289 -0.7079 1.9990 -7.1718
# 4 -11.9958 -47.7565 -0.7079 30.0115 -2.0494 -17.5781
# 5 -0.1727 -2.2122 1.9990 -2.0494 27.0534 4.5515
# 6 22.9081 -41.2108 -7.1718 -17.5781 4.5515 28.2799
#
#
#
# Elastic Compliance Matrix: (Units=1/GPa)
#
#
# Indices 1 2 3 4 5 6 
#
# 1 0.007375 0.002775 -0.002857 0.009001 0.000691 0.002829
# 2 0.002775 -0.002540 -0.001141 -0.010453 0.001280 -0.012942
# 3 -0.002857 -0.001141 0.016711 0.000563 -0.002246 0.005600
# 4 0.009001 -0.010453 0.000563 0.011197 0.002676 -0.015851
# 5 0.000691 0.001280 -0.002246 0.002676 0.038069 -0.003728
# 6 0.002829 -0.012942 0.005600 -0.015851 -0.003728 0.006376
#
#
# Mechanical properties :
#
#
# Convention : Reuss Voigt Hill
#
# Bulk Modulus (GPa) = 52.35830 53.12245 52.74038
# Shear Modulus (GPa) = 58.13939 26.97817 42.55878
#
# Velocity S-wave (km/s) = 4.75055 3.23605 4.06446
# Velocity P-wave (km/s) = 7.10028 5.88073 6.51908
#
# Compressibility (1/GPa) = 0.01909917
#
# Stress axis : x y z
#
# Youngs Moduli (GPa) = 135.59765 -393.68592 59.84177
#
# Poissons Ratio (x) = 1.09259 0.17097
# Poissons Ratio (y) = -0.37632 0.06830
# Poissons Ratio (z) = 0.38740 -0.44934
#
# Static dielectric constant tensor:
#      x y z
#    x 2.093470 -0.008270 -0.013690 
#    y -0.008270 2.025870 0.112870 
#    z -0.013690 0.112870 2.228590 
# 
# From -- ./inp_files/103321.got.cif
#   From: 2010.05.17/outbox.cif.g08.bks.cpg/sg2_52_cif.got.tgz:103321.got - 2010.06.03 11:33:40.
