data_PCOD9049612
_publ_section_title
;
Structure prediction by ZEFSAII (Michael W. Deem and Ramdas Pophale) SiO2 
 PCOD9049612
Probable space group: P -1
;
_chemical_formula_sum "Si O2"
_cell_formula_units_Z 13
_cell_length_a 5.977532
_cell_length_b 5.070799
_cell_length_c 19.602447
_cell_angle_alpha 92.909908
_cell_angle_beta 64.103744
_cell_angle_gamma 98.595060
_cell_volume 528.431428
_symmetry_space_group_name_H-M "P -1"
_symmetry_group_IT_number 2
_symmetry_cell_setting 'triclinic'
loop_
_space_group_symop_operation_xyz
x,y,z
-x,-y,-z
loop_
_atom_site_type_symbol
_atom_site_label
_atom_site_fract_x
_atom_site_fract_y
_atom_site_fract_z
Si Si1 0.982958 0.706815 0.564930
Si Si2 0.556280 0.021420 0.913365
Si Si3 0.500000 0.000000 0.500000
Si Si4 0.887906 0.411806 0.697588
Si Si5 0.097466 0.114785 0.791021
Si Si6 0.549880 0.487763 0.155555
Si Si7 0.474312 0.022376 0.346792
O O1 0.068685 0.585323 0.623210
O O2 0.000000 0.500000 0.500000
O O3 0.191709 0.959777 0.528259
O O4 0.696714 0.747281 0.615034
O O5 0.392927 0.783570 0.889693
O O6 0.845458 0.986041 0.860001
O O7 0.515606 0.305884 0.891311
O O8 0.500000 0.000000 0.000000
O O9 0.462125 0.069764 0.587382
O O10 0.019592 0.259843 0.735285
O O11 0.696511 0.576177 0.764696
O O12 0.712977 0.200100 0.671447
O O13 0.240242 0.339315 0.824605
O O14 0.287971 0.921682 0.734545
#
# Coordination Sequence:
#
# PCOD9049612 Si02
#       7
#     2   2   1   2   2   2   2
#     4  12  27  46  67 100 140 183 247 309 362 434
#     4  11  25  49  77 115 155 189 240 304 365 448
#     4  12  26  42  70  92 134 184 236 300 372 412
#     4  10  24  47  68  99 142 187 243 303 359 436
#     4  10  25  48  73 106 144 198 240 300 373 435
#     4  10  25  44  75 111 147 194 247 295 366 447
#     4  11  25  46  67 101 139 184 249 304 362 441
#
# _framework density 24.601113000000002
#
# number of rings (size 3 to 8) (size 9 to 14) (size 15 to 20)
#    0.000    1.231    1.538    1.846   10.769    6.769 
#    2.769    0.000    0.000    0.000    0.000    0.000 
#    0.000    0.000    0.000    0.000    0.000    0.000 
#
# Total GULP energy -72564.678222 kJ/mol
# GULP energy per Si atom -5581.898325 kJ/mol
# Density = 2.454512 g / cm^3
# Si number density = 24.601113 Si / 1000 Ang^3
#
#
#
# Elastic Constant Matrix: (Units=GPa)
#
#
# Indices 1 2 3 4 5 6 
#
# 1 104.9275 5.0100 41.9852 7.8723 -3.9366 16.4194
# 2 5.0100 60.1433 33.5407 10.7428 -5.5154 -1.1577
# 3 41.9852 33.5407 190.4658 1.4130 4.4820 5.5067
# 4 7.8723 10.7428 1.4130 38.1625 3.4257 4.3751
# 5 -3.9366 -5.5154 4.4820 3.4257 33.5943 2.8950
# 6 16.4194 -1.1577 5.5067 4.3751 2.8950 27.3183
#
#
#
# Elastic Compliance Matrix: (Units=1/GPa)
#
#
# Indices 1 2 3 4 5 6 
#
# 1 0.011810 0.000985 -0.002637 -0.002114 0.002670 -0.006469
# 2 0.000985 0.020294 -0.003895 -0.006357 0.004477 0.001597
# 3 -0.002637 -0.003895 0.006551 0.001570 -0.001988 0.000058
# 4 -0.002114 -0.006357 0.001570 0.029151 -0.004168 -0.003542
# 5 0.002670 0.004477 -0.001988 -0.004168 0.031826 -0.003720
# 6 -0.006469 0.001597 0.000058 -0.003542 -0.003720 0.041511
#
#
# Mechanical properties :
#
#
# Convention : Reuss Voigt Hill
#
# Bulk Modulus (GPa) = 36.28477 57.40092 46.84284
# Shear Modulus (GPa) = 30.97440 38.14839 34.56140
#
# Velocity S-wave (km/s) = 3.55218 3.94214 3.75223
# Velocity P-wave (km/s) = 5.62185 6.64108 6.15261
#
# Compressibility (1/GPa) = 0.02755977
#
# Stress axis : x y z
#
# Youngs Moduli (GPa) = 84.67754 49.27587 152.65144
#
# Poissons Ratio (x) = -0.04852 0.40250
# Poissons Ratio (y) = -0.08337 0.59460
# Poissons Ratio (z) = 0.22327 0.19194
#
# Static dielectric constant tensor:
#      x y z
#    x 1.999170 -0.003990 -0.010190 
#    y -0.003990 2.050130 -0.038020 
#    z -0.010190 -0.038020 1.907460 
# 
# From -- ./inp_files/102524.got.cif
#   From: 2010.05.17/outbox.cif.g08.bks.cpg/sg2_52_cif.got.tgz:102524.got - 2010.06.03 11:33:40.
