data_PCOD9049570
_publ_section_title
;
Structure prediction by ZEFSAII (Michael W. Deem and Ramdas Pophale) SiO2 
 PCOD9049570
Probable space group: P -1
;
_chemical_formula_sum "Si O2"
_cell_formula_units_Z 15
_cell_length_a 5.704840
_cell_length_b 7.364589
_cell_length_c 14.395341
_cell_angle_alpha 83.484983
_cell_angle_beta 71.571690
_cell_angle_gamma 104.144260
_cell_volume 544.306588
_symmetry_space_group_name_H-M "P -1"
_symmetry_group_IT_number 2
_symmetry_cell_setting 'triclinic'
loop_
_space_group_symop_operation_xyz
x,y,z
-x,-y,-z
loop_
_atom_site_type_symbol
_atom_site_label
_atom_site_fract_x
_atom_site_fract_y
_atom_site_fract_z
Si Si1 0.570685 0.959264 0.675340
Si Si2 0.266324 0.700435 0.896978
Si Si3 0.149445 0.823585 0.203930
Si Si4 0.500000 0.000000 0.000000
Si Si5 0.143850 0.759797 0.641829
Si Si6 0.245266 0.440186 0.147264
Si Si7 0.807086 0.694273 0.540156
Si Si8 0.657558 0.609897 0.353164
O O1 0.750667 0.122201 0.706977
O O2 0.733058 0.860902 0.595473
O O3 0.396606 0.819213 0.782780
O O4 0.339436 0.962964 0.633990
O O5 0.467832 0.578736 0.901882
O O6 0.970131 0.600459 0.906253
O O7 0.285229 0.847488 0.969990
O O8 0.276675 0.994189 0.108133
O O9 0.266116 0.655120 0.165556
O O10 0.838864 0.751730 0.248847
O O11 0.254599 0.582316 0.657328
O O12 0.893325 0.705970 0.743614
O O13 0.094709 0.739022 0.539248
O O14 0.732414 0.679734 0.444154
O O15 0.647295 0.485097 0.613778
#
# Coordination Sequence:
#
# PCOD9049570 Si02
#       8
#     2   2   2   1   2   2   2   2
#     4   9  19  36  56  89 130 165 215 255 331 374
#     4  10  21  42  67  98 126 173 213 275 319 396
#     4  10  22  42  59  94 126 170 212 277 314 395
#     4  10  24  44  70  90 134 170 216 264 342 376
#     4   9  17  33  58  85 124 169 206 261 314 394
#     4  10  21  39  68  96 132 164 223 265 325 381
#     4  10  17  34  60  89 122 171 202 265 320 391
#     4   9  20  33  58  91 124 158 219 262 319 384
#
# _framework density 27.557994000000001
#
# number of rings (size 3 to 8) (size 9 to 14) (size 15 to 20)
#    0.000    2.400    1.333    1.200    0.000    2.133 
#    2.400    2.000    0.000    0.000    0.000    0.000 
#    0.000    0.000    0.000    0.000    0.000    0.000 
#
# Total GULP energy -83593.074057 kJ/mol
# GULP energy per Si atom -5572.871604 kJ/mol
# Density = 2.749527 g / cm^3
# Si number density = 27.557994 Si / 1000 Ang^3
#
#
#
# Elastic Constant Matrix: (Units=GPa)
#
#
# Indices 1 2 3 4 5 6 
#
# 1 114.4436 54.0062 30.3605 14.3897 6.0908 25.6365
# 2 54.0062 93.8074 44.9149 46.2303 10.4896 25.5149
# 3 30.3605 44.9149 106.3563 24.6189 -2.2642 15.7182
# 4 14.3897 46.2303 24.6189 68.9578 19.7630 10.0891
# 5 6.0908 10.4896 -2.2642 19.7630 40.4887 10.2957
# 6 25.6365 25.5149 15.7182 10.0891 10.2957 48.5706
#
#
#
# Elastic Compliance Matrix: (Units=1/GPa)
#
#
# Indices 1 2 3 4 5 6 
#
# 1 0.012957 -0.007967 -0.000751 0.003607 -0.000934 -0.002961
# 2 -0.007967 0.025225 -0.004397 -0.013591 0.002401 -0.005309
# 3 -0.000751 -0.004397 0.012230 -0.001981 0.003294 -0.001538
# 4 0.003607 -0.013591 -0.001981 0.026216 -0.010610 0.002680
# 5 -0.000934 0.002401 0.003294 -0.010610 0.031166 -0.006236
# 6 -0.002961 -0.005309 -0.001538 0.002680 -0.006236 0.026204
#
#
# Mechanical properties :
#
#
# Convention : Reuss Voigt Hill
#
# Bulk Modulus (GPa) = 41.35456 63.68559 52.52007
# Shear Modulus (GPa) = 29.71097 43.95847 36.83472
#
# Velocity S-wave (km/s) = 3.28704 3.99824 3.65996
# Velocity P-wave (km/s) = 5.42634 6.66891 6.07945
#
# Compressibility (1/GPa) = 0.02418113
#
# Stress axis : x y z
#
# Youngs Moduli (GPa) = 77.18110 39.64248 81.76928
#
# Poissons Ratio (x) = 0.31584 0.06142
# Poissons Ratio (y) = 0.61491 0.35953
# Poissons Ratio (z) = 0.05797 0.17430
#
# Static dielectric constant tensor:
#      x y z
#    x 2.404290 0.009440 0.031340 
#    y 0.009440 2.234390 -0.094220 
#    z 0.031340 -0.094220 2.243640 
# 
# From -- ./inp_files/479799.got.cif
#   From: 2010.05.17/outbox.cif.g08.bks.cpg/sg2_240_cif.got.tgz:479799.got - 2010.06.03 11:33:40.
