data_PCOD9049950
_publ_section_title
;
Structure prediction by ZEFSAII (Michael W. Deem and Ramdas Pophale) SiO2 
 PCOD9049950
Probable space group: P -1
;
_chemical_formula_sum "Si O2"
_cell_formula_units_Z 12
_cell_length_a 10.798791
_cell_length_b 9.140216
_cell_length_c 8.361608
_cell_angle_alpha 94.356819
_cell_angle_beta 137.850072
_cell_angle_gamma 70.425420
_cell_volume 502.061884
_symmetry_space_group_name_H-M "P -1"
_symmetry_group_IT_number 2
_symmetry_cell_setting 'triclinic'
loop_
_space_group_symop_operation_xyz
x,y,z
-x,-y,-z
loop_
_atom_site_type_symbol
_atom_site_label
_atom_site_fract_x
_atom_site_fract_y
_atom_site_fract_z
Si Si1 0.513614 0.168255 0.499762
Si Si2 0.968607 0.174929 0.433506
Si Si3 0.790987 0.481580 0.703969
Si Si4 0.129042 0.387985 0.756747
Si Si5 0.573371 0.329133 0.270549
Si Si6 0.116523 0.825536 0.010316
O O1 0.309114 0.333120 0.320879
O O2 0.605885 0.182877 0.415159
O O3 0.657416 0.182899 0.778117
O O4 0.500000 0.000000 0.500000
O O5 0.743870 0.284978 0.294846
O O6 0.132834 0.217980 0.689251
O O7 0.973232 0.184238 0.248196
O O8 0.000000 0.000000 0.500000
O O9 0.615658 0.456632 0.431486
O O10 0.861886 0.331127 0.881276
O O11 0.983991 0.447573 0.775270
O O12 0.000000 0.500000 0.500000
O O13 0.347955 0.385343 0.992282
O O14 0.000000 0.000000 0.000000
#
# Coordination Sequence:
#
# PCOD9049950 Si02
#       6
#     2   2   2   2   2   2
#     4  11  26  45  73 105 140 191 245 298 359 427
#     4  11  26  47  71 104 150 189 232 299 368 430
#     4  10  25  49  73 102 147 192 241 299 365 421
#     4  11  27  43  72 109 139 189 245 291 362 440
#     4  10  24  48  70 104 144 187 243 294 365 435
#     4  11  24  47  75 102 146 191 236 299 363 427
#
# _framework density 23.901437999999999
#
# number of rings (size 3 to 8) (size 9 to 14) (size 15 to 20)
#    0.000    1.333    0.000    5.000   11.667    5.333 
#    0.000    0.000    0.000    0.000    0.000    0.000 
#    0.000    0.000    0.000    0.000    0.000    0.000 
#
# Total GULP energy -67161.199602 kJ/mol
# GULP energy per Si atom -5596.766633 kJ/mol
# Density = 2.384704 g / cm^3
# Si number density = 23.901438 Si / 1000 Ang^3
#
#
#
# Elastic Constant Matrix: (Units=GPa)
#
#
# Indices 1 2 3 4 5 6 
#
# 1 93.2812 52.4411 44.4602 1.5963 -3.3695 -8.5650
# 2 52.4411 177.8966 54.5263 -13.6258 -2.8873 8.1855
# 3 44.4602 54.5263 145.1593 11.8040 23.0279 0.8403
# 4 1.5963 -13.6258 11.8040 41.5160 16.5867 1.1939
# 5 -3.3695 -2.8873 23.0279 16.5867 38.5552 7.2675
# 6 -8.5650 8.1855 0.8403 1.1939 7.2675 41.8571
#
#
#
# Elastic Compliance Matrix: (Units=1/GPa)
#
#
# Indices 1 2 3 4 5 6 
#
# 1 0.014912 -0.003543 -0.003638 -0.002213 0.003548 0.003264
# 2 -0.003543 0.007677 -0.002141 0.003063 0.000677 -0.002388
# 3 -0.003638 -0.002141 0.009842 -0.000961 -0.006048 0.000554
# 4 -0.002213 0.003063 -0.000961 0.030454 -0.012544 0.000277
# 5 0.003548 0.000677 -0.006048 -0.012544 0.036292 -0.005228
# 6 0.003264 -0.002388 0.000554 0.000277 -0.005228 0.025915
#
#
# Mechanical properties :
#
#
# Convention : Reuss Voigt Hill
#
# Bulk Modulus (GPa) = 72.53480 79.91028 76.22254
# Shear Modulus (GPa) = 33.70813 42.04630 37.87721
#
# Velocity S-wave (km/s) = 3.75947 4.19878 3.98518
# Velocity P-wave (km/s) = 7.01841 7.55064 7.28938
#
# Compressibility (1/GPa) = 0.01378649
#
# Stress axis : x y z
#
# Youngs Moduli (GPa) = 67.06120 130.25198 101.60495
#
# Poissons Ratio (x) = 0.46145 0.36966
# Poissons Ratio (y) = 0.23758 0.21758
# Poissons Ratio (z) = 0.24398 0.27892
#
# Static dielectric constant tensor:
#      x y z
#    x 1.946240 -0.008410 0.024380 
#    y -0.008410 1.914540 -0.003610 
#    z 0.024380 -0.003610 1.947820 
# 
# From -- ./inp_files/244269.got.cif
#   From: 2010.05.17/outbox.cif.g08.bks.cpg/sg2_123_cif.got.tgz:244269.got - 2010.06.03 11:33:40.
