data_PCOD9049334
_publ_section_title
;
Structure prediction by ZEFSAII (Michael W. Deem and Ramdas Pophale) SiO2 
 PCOD9049334
Probable space group: P -1
;
_chemical_formula_sum "Si O2"
_cell_formula_units_Z 14
_cell_length_a 12.141904
_cell_length_b 13.998140
_cell_length_c 5.259605
_cell_angle_alpha 126.891316
_cell_angle_beta 55.434266
_cell_angle_gamma 127.631076
_cell_volume 537.000385
_symmetry_space_group_name_H-M "P -1"
_symmetry_group_IT_number 2
_symmetry_cell_setting 'triclinic'
loop_
_space_group_symop_operation_xyz
x,y,z
-x,-y,-z
loop_
_atom_site_type_symbol
_atom_site_label
_atom_site_fract_x
_atom_site_fract_y
_atom_site_fract_z
Si Si1 0.554267 0.388734 0.843244
Si Si2 0.566612 0.116811 0.789790
Si Si3 0.165039 0.889383 0.308185
Si Si4 0.800573 0.315912 0.439554
Si Si5 0.676640 0.821869 0.517232
Si Si6 0.048322 0.336178 0.448780
Si Si7 0.760279 0.601910 0.214153
O O1 0.701917 0.376438 0.511023
O O2 0.412411 0.256053 0.743651
O O3 0.500000 0.500000 0.000000
O O4 0.627029 0.460327 0.128092
O O5 0.669565 0.084319 0.793516
O O6 0.674056 0.231766 0.661321
O O7 0.500000 0.000000 0.500000
O O8 0.444502 0.148953 0.128997
O O9 0.053244 0.812455 0.557609
O O10 0.183109 0.037921 0.474273
O O11 0.142124 0.779173 0.943963
O O12 0.933856 0.392981 0.582327
O O13 0.710573 0.720528 0.487417
O O14 0.140126 0.396164 0.676440
O O15 0.154178 0.356962 0.103371
#
# Coordination Sequence:
#
# PCOD9049334 Si02
#       7
#     2   2   2   2   2   2   2
#     4  10  24  46  72 106 143 189 237 294 367 423
#     4  11  21  35  70 109 143 181 232 297 370 428
#     4  11  22  43  71 107 142 183 241 297 364 420
#     4  11  22  43  73 104 143 188 238 302 351 428
#     4  11  23  43  72 109 149 185 232 305 366 426
#     4  11  26  49  71 105 142 194 251 285 353 422
#     4  11  27  49  70 104 149 196 242 291 345 432
#
# _framework density 26.070744000000001
#
# number of rings (size 3 to 8) (size 9 to 14) (size 15 to 20)
#    0.000    1.143    4.286    1.286    0.000    6.857 
#    0.000    5.000    0.000    0.000    0.000    0.000 
#    0.000    0.000    0.000    0.000    0.000    0.000 
#
# Total GULP energy -78117.597572 kJ/mol
# GULP energy per Si atom -5579.828398 kJ/mol
# Density = 2.601141 g / cm^3
# Si number density = 26.070744 Si / 1000 Ang^3
#
#
#
# Elastic Constant Matrix: (Units=GPa)
#
#
# Indices 1 2 3 4 5 6 
#
# 1 169.2434 34.8143 40.7998 20.8850 36.1669 18.0065
# 2 34.8143 138.8607 57.2115 5.8524 -4.6580 -17.1489
# 3 40.7998 57.2115 112.2327 5.6607 15.3250 -2.9176
# 4 20.8850 5.8524 5.6607 53.0512 0.7275 -0.4114
# 5 36.1669 -4.6580 15.3250 0.7275 30.7772 -0.5515
# 6 18.0065 -17.1489 -2.9176 -0.4114 -0.5515 19.4717
#
#
#
# Elastic Compliance Matrix: (Units=1/GPa)
#
#
# Indices 1 2 3 4 5 6 
#
# 1 0.013066 -0.005994 0.000337 -0.004429 -0.016644 -0.017876
# 2 -0.005994 0.013693 -0.006130 0.001465 0.012439 0.017067
# 3 0.000337 -0.006130 0.012912 -0.000758 -0.007807 -0.004013
# 4 -0.004429 0.001465 -0.000758 0.020484 0.005424 0.005859
# 5 -0.016644 0.012439 -0.007807 0.005424 0.058175 0.026940
# 6 -0.017876 0.017067 -0.004013 0.005859 0.026940 0.083204
#
#
# Mechanical properties :
#
#
# Convention : Reuss Voigt Hill
#
# Bulk Modulus (GPa) = 62.12162 76.22090 69.17126
# Shear Modulus (GPa) = 21.69451 39.82744 30.76097
#
# Velocity S-wave (km/s) = 2.88781 3.91278 3.43870
# Velocity P-wave (km/s) = 5.91600 7.05073 6.50814
#
# Compressibility (1/GPa) = 0.01609746
#
# Stress axis : x y z
#
# Youngs Moduli (GPa) = 76.53706 73.02950 77.44543
#
# Poissons Ratio (x) = 0.43773 -0.02611
# Poissons Ratio (y) = 0.45875 0.47474
# Poissons Ratio (z) = -0.02580 0.44767
#
# Static dielectric constant tensor:
#      x y z
#    x 2.183300 -0.081550 -0.029560 
#    y -0.081550 2.104680 0.038870 
#    z -0.029560 0.038870 2.063570 
# 
# From -- ./inp_files/76859.got.cif
#   From: 2010.05.17/outbox.cif.g08.bks.cpg/sg2_39_cif.got.tgz:76859.got - 2010.06.03 11:33:40.
