data_PCOD9049196
_publ_section_title
;
Structure prediction by ZEFSAII (Michael W. Deem and Ramdas Pophale) SiO2 
 PCOD9049196
Probable space group: P -1
;
_chemical_formula_sum "Si O2"
_cell_formula_units_Z 16
_cell_length_a 5.319306
_cell_length_b 11.771546
_cell_length_c 14.299252
_cell_angle_alpha 54.159198
_cell_angle_beta 88.120768
_cell_angle_gamma 65.585559
_cell_volume 633.818111
_symmetry_space_group_name_H-M "P -1"
_symmetry_group_IT_number 2
_symmetry_cell_setting 'triclinic'
loop_
_space_group_symop_operation_xyz
x,y,z
-x,-y,-z
loop_
_atom_site_type_symbol
_atom_site_label
_atom_site_fract_x
_atom_site_fract_y
_atom_site_fract_z
Si Si1 0.643102 0.009566 0.397832
Si Si2 0.254334 0.237469 0.132439
Si Si3 0.994017 0.528016 0.271626
Si Si4 0.305689 0.474003 0.905475
Si Si5 0.436031 0.694202 0.678513
Si Si6 0.550506 0.032227 0.877551
Si Si7 0.852800 0.333677 0.492393
Si Si8 0.116816 0.768166 0.254305
O O1 0.414435 0.111917 0.272576
O O2 0.768525 0.129473 0.364752
O O3 0.500000 0.000000 0.500000
O O4 0.856616 0.835746 0.441233
O O5 0.961654 0.381722 0.106544
O O6 0.237043 0.131188 0.100003
O O7 0.428378 0.324287 0.046071
O O8 0.234182 0.352508 0.318346
O O9 0.783515 0.586948 0.158111
O O10 0.881503 0.488466 0.387760
O O11 0.127751 0.641114 0.239240
O O12 0.466572 0.561781 0.816821
O O13 0.337149 0.674868 0.586443
O O14 0.229924 0.110390 0.797528
O O15 0.696650 0.145929 0.814223
O O16 0.500000 0.000000 0.000000
O O17 0.769065 0.324819 0.603811
#
# Coordination Sequence:
#
# PCOD9049196 Si02
#       8
#     2   2   2   2   2   2   2   2
#     4  12  22  43  69 106 148 185 239 306 380 446
#     4  11  24  46  75 103 150 184 253 304 378 443
#     4  11  24  47  70 105 147 194 246 309 370 443
#     4  10  24  46  70 109 136 193 243 310 373 447
#     4  11  24  41  74  99 148 192 239 313 371 443
#     4  12  29  52  75 110 149 204 250 314 369 444
#     4  11  25  43  69 107 145 193 250 302 375 447
#     4  12  29  47  78 105 153 199 259 304 370 448
#
# _framework density 25.243835000000001
#
# number of rings (size 3 to 8) (size 9 to 14) (size 15 to 20)
#    0.000    0.750    3.750    2.625   10.500    1.000 
#    0.000    0.000    0.000    0.000    0.000    0.000 
#    0.000    0.000    0.000    0.000    0.000    0.000 
#
# Total GULP energy -89480.840501 kJ/mol
# GULP energy per Si atom -5592.552531 kJ/mol
# Density = 2.518638 g / cm^3
# Si number density = 25.243835 Si / 1000 Ang^3
#
#
#
# Elastic Constant Matrix: (Units=GPa)
#
#
# Indices 1 2 3 4 5 6 
#
# 1 76.8417 21.6543 43.0108 6.9334 -26.3569 9.7752
# 2 21.6543 124.1468 38.8231 10.0368 -21.2924 10.6899
# 3 43.0108 38.8231 151.1903 18.8556 -29.1609 13.1333
# 4 6.9334 10.0368 18.8556 47.8327 -0.5656 3.9092
# 5 -26.3569 -21.2924 -29.1609 -0.5656 33.8404 -6.2331
# 6 9.7752 10.6899 13.1333 3.9092 -6.2331 39.9583
#
#
#
# Elastic Compliance Matrix: (Units=1/GPa)
#
#
# Indices 1 2 3 4 5 6 
#
# 1 0.019066 -0.000142 -0.002742 -0.001371 0.012060 -0.001710
# 2 -0.000142 0.009458 -0.001244 -0.001318 0.004515 -0.001253
# 3 -0.002742 -0.001244 0.009040 -0.002771 0.004646 -0.000972
# 4 -0.001371 -0.001318 -0.002771 0.022527 -0.004138 -0.001251
# 5 0.012060 0.004515 0.004646 -0.004138 0.046070 0.001906
# 6 -0.001710 -0.001253 -0.000972 -0.001251 0.001906 0.026519
#
#
# Mechanical properties :
#
#
# Convention : Reuss Voigt Hill
#
# Bulk Modulus (GPa) = 34.12031 62.12837 48.12434
# Shear Modulus (GPa) = 33.17746 40.90564 37.04155
#
# Velocity S-wave (km/s) = 3.62923 4.02981 3.83476
# Velocity P-wave (km/s) = 5.57740 6.80568 6.22192
#
# Compressibility (1/GPa) = 0.02930806
#
# Stress axis : x y z
#
# Youngs Moduli (GPa) = 52.44833 105.73451 110.62253
#
# Poissons Ratio (x) = 0.01498 0.30333
# Poissons Ratio (y) = 0.00743 0.13763
# Poissons Ratio (z) = 0.14382 0.13155
#
# Static dielectric constant tensor:
#      x y z
#    x 2.091400 -0.004460 0.001990 
#    y -0.004460 2.042860 -0.016660 
#    z 0.001990 -0.016660 1.995620 
# 
# From -- ./inp_files/364146.got.cif
#   From: 2010.05.17/outbox.cif.g08.bks.cpg/sg2_183_cif.got.tgz:364146.got - 2010.06.03 11:33:40.
