data_PCOD9049433
_publ_section_title
;
Structure prediction by ZEFSAII (Michael W. Deem and Ramdas Pophale) SiO2 
 PCOD9049433
Probable space group: P -1
;
_chemical_formula_sum "Si O2"
_cell_formula_units_Z 16
_cell_length_a 12.593363
_cell_length_b 6.664708
_cell_length_c 23.491559
_cell_angle_alpha 54.845302
_cell_angle_beta 153.249572
_cell_angle_gamma 125.206379
_cell_volume 715.093925
_symmetry_space_group_name_H-M "P -1"
_symmetry_group_IT_number 2
_symmetry_cell_setting 'triclinic'
loop_
_space_group_symop_operation_xyz
x,y,z
-x,-y,-z
loop_
_atom_site_type_symbol
_atom_site_label
_atom_site_fract_x
_atom_site_fract_y
_atom_site_fract_z
Si Si1 0.572379 0.615906 0.377166
Si Si2 0.320557 0.670431 0.362206
Si Si3 0.011427 0.475823 0.678676
Si Si4 0.337957 0.002034 0.734914
Si Si5 0.214552 0.184590 0.236073
Si Si6 0.883548 0.937931 0.016052
Si Si7 0.208083 0.654913 0.922870
Si Si8 0.683764 0.878442 0.173541
O O1 0.389681 0.686177 0.326313
O O2 0.773660 0.491510 0.525612
O O3 0.692569 0.856231 0.360925
O O4 0.418175 0.425986 0.290568
O O5 0.500000 0.500000 0.500000
O O6 0.069426 0.543803 0.290709
O O7 0.343153 0.950374 0.350854
O O8 0.134011 0.245109 0.757115
O O9 0.198387 0.722413 0.714580
O O10 0.250938 0.132887 0.727495
O O11 0.620114 0.007329 0.878069
O O12 0.029597 0.252959 0.183059
O O13 0.056426 0.093168 0.120012
O O14 0.842968 0.642436 0.058251
O O15 0.000000 0.000000 0.000000
O O16 0.305492 0.834550 0.887392
O O17 0.419982 0.729765 0.058261
#
# Coordination Sequence:
#
# PCOD9049433 Si02
#       8
#     2   2   2   2   2   2   2   2
#     4  11  28  47  71 107 142 193 241 293 355 425
#     4  10  24  46  74 104 139 190 238 299 347 422
#     4  11  25  48  75 102 143 188 243 297 353 419
#     4  12  26  45  72 104 147 185 240 296 357 419
#     4  12  24  44  72 101 144 181 237 287 358 417
#     4  12  27  44  72 104 148 189 230 294 355 429
#     4  11  24  44  68 106 141 180 239 287 355 426
#     4  11  25  43  73 104 143 186 233 296 362 421
#
# _framework density 22.374680999999999
#
# number of rings (size 3 to 8) (size 9 to 14) (size 15 to 20)
#    0.000    0.750    3.750    2.625    5.250    7.000 
#    0.000    0.000    0.000    0.000    0.000    0.000 
#    0.000    0.000    0.000    0.000    0.000    0.000 
#
# Total GULP energy -89459.094824 kJ/mol
# GULP energy per Si atom -5591.193426 kJ/mol
# Density = 2.232376 g / cm^3
# Si number density = 22.374681 Si / 1000 Ang^3
#
#
#
# Elastic Constant Matrix: (Units=GPa)
#
#
# Indices 1 2 3 4 5 6 
#
# 1 78.0276 21.2043 7.1739 4.3346 -7.0001 19.8347
# 2 21.2043 97.3186 17.8242 7.3468 -4.0362 17.5810
# 3 7.1739 17.8242 57.6819 -4.7551 11.7189 -3.7941
# 4 4.3346 7.3468 -4.7551 40.1753 -2.2660 1.8319
# 5 -7.0001 -4.0362 11.7189 -2.2660 35.6868 -8.7317
# 6 19.8347 17.5810 -3.7941 1.8319 -8.7317 32.1198
#
#
#
# Elastic Compliance Matrix: (Units=1/GPa)
#
#
# Indices 1 2 3 4 5 6 
#
# 1 0.015871 -0.001197 -0.002618 -0.001307 0.001564 -0.008955
# 2 -0.001197 0.012757 -0.004616 -0.002402 0.001011 -0.006377
# 3 -0.002618 -0.004616 0.020984 0.003026 -0.006595 0.004657
# 4 -0.001307 -0.002402 0.003026 0.025801 0.000389 0.001114
# 5 0.001564 0.001011 -0.006595 0.000389 0.032208 0.006435
# 6 -0.008955 -0.006377 0.004657 0.001114 0.006435 0.042390
#
#
# Mechanical properties :
#
#
# Convention : Reuss Voigt Hill
#
# Bulk Modulus (GPa) = 30.53503 36.15920 33.34711
# Shear Modulus (GPa) = 28.12301 34.05142 31.08721
#
# Velocity S-wave (km/s) = 3.54914 3.90535 3.73150
# Velocity P-wave (km/s) = 5.52014 6.04413 5.78807
#
# Compressibility (1/GPa) = 0.03274928
#
# Stress axis : x y z
#
# Youngs Moduli (GPa) = 63.00647 78.38774 47.65513
#
# Poissons Ratio (x) = 0.09385 0.12478
# Poissons Ratio (y) = 0.07544 0.21998
# Poissons Ratio (z) = 0.16497 0.36184
#
# Static dielectric constant tensor:
#      x y z
#    x 1.823180 0.001190 -0.022790 
#    y 0.001190 1.806550 0.015100 
#    z -0.022790 0.015100 1.838520 
# 
# From -- ./inp_files/72315.got.cif
#   From: 2010.05.17/outbox.cif.g08.bks.cpg/sg2_37_cif.got.tgz:72315.got - 2010.06.03 11:33:40.
