data_PCOD9049557
_publ_section_title
;
Structure prediction by ZEFSAII (Michael W. Deem and Ramdas Pophale) SiO2 
 PCOD9049557
Probable space group: P -1
;
_chemical_formula_sum "Si O2"
_cell_formula_units_Z 14
_cell_length_a 9.432292
_cell_length_b 14.939176
_cell_length_c 5.138503
_cell_angle_alpha 110.477864
_cell_angle_beta 67.834905
_cell_angle_gamma 86.221392
_cell_volume 611.627389
_symmetry_space_group_name_H-M "P -1"
_symmetry_group_IT_number 2
_symmetry_cell_setting 'triclinic'
loop_
_space_group_symop_operation_xyz
x,y,z
-x,-y,-z
loop_
_atom_site_type_symbol
_atom_site_label
_atom_site_fract_x
_atom_site_fract_y
_atom_site_fract_z
Si Si1 0.403781 0.713727 0.778350
Si Si2 0.280588 0.352532 0.829372
Si Si3 0.368498 0.883165 0.378809
Si Si4 0.343430 0.556345 0.025595
Si Si5 0.618953 0.926415 0.661324
Si Si6 0.848308 0.245727 0.370894
Si Si7 0.187098 0.252520 0.316956
O O1 0.539008 0.691505 0.441409
O O2 0.411246 0.609534 0.797550
O O3 0.219809 0.746705 0.864307
O O4 0.431260 0.803103 0.027248
O O5 0.253192 0.469934 0.964803
O O6 0.170901 0.325016 0.650114
O O7 0.256195 0.305106 0.078566
O O8 0.512568 0.887905 0.479141
O O9 0.232461 0.838176 0.549848
O O10 0.298119 0.995612 0.457508
O O11 0.721659 0.846229 0.697267
O O12 0.500000 0.500000 0.000000
O O13 0.238015 0.648369 0.343958
O O14 0.500000 0.000000 0.000000
O O15 0.029261 0.230756 0.286138
#
# Coordination Sequence:
#
# PCOD9049557 Si02
#       7
#     2   2   2   2   2   2   2
#     4  11  24  46  77 109 144 193 253 305 360 440
#     4  12  27  47  73 107 150 199 250 300 359 441
#     4  10  24  46  79 110 143 191 247 309 363 440
#     4  11  24  43  76 110 140 196 257 300 359 430
#     4  11  25  46  78 112 142 191 251 302 368 440
#     4  11  26  47  72 107 155 191 242 307 371 437
#     4  12  31  46  72 110 154 196 238 308 378 429
#
# _framework density 22.889751
#
# number of rings (size 3 to 8) (size 9 to 14) (size 15 to 20)
#    0.000    0.857    1.429    3.857   18.000    1.714 
#    0.000    2.857    0.000    0.000    0.000    0.000 
#    0.000    0.000    0.000    0.000    0.000    0.000 
#
# Total GULP energy -78160.217673 kJ/mol
# GULP energy per Si atom -5582.872691 kJ/mol
# Density = 2.283765 g / cm^3
# Si number density = 22.889751 Si / 1000 Ang^3
#
#
#
# Elastic Constant Matrix: (Units=GPa)
#
#
# Indices 1 2 3 4 5 6 
#
# 1 151.6950 81.7765 29.1466 -13.6367 26.6667 10.8870
# 2 81.7765 245.0759 66.0263 -20.9683 18.9111 6.4738
# 3 29.1466 66.0263 70.3705 -3.1229 29.5112 -5.4115
# 4 -13.6367 -20.9683 -3.1229 45.8484 2.9181 17.0594
# 5 26.6667 18.9111 29.5112 2.9181 29.3838 0.0646
# 6 10.8870 6.4738 -5.4115 17.0594 0.0646 27.6820
#
#
#
# Elastic Compliance Matrix: (Units=1/GPa)
#
#
# Indices 1 2 3 4 5 6 
#
# 1 0.010295 -0.002715 0.002466 0.004854 -0.010541 -0.005898
# 2 -0.002715 0.007099 -0.008136 0.003029 0.005774 -0.004063
# 3 0.002466 -0.008136 0.034722 -0.001953 -0.031700 0.008998
# 4 0.004854 0.003029 -0.001953 0.033874 -0.007705 -0.023857
# 5 -0.010541 0.005774 -0.031700 -0.007705 0.072483 0.001177
# 6 -0.005898 -0.004063 0.008998 -0.023857 0.001177 0.055853
#
#
# Mechanical properties :
#
#
# Convention : Reuss Voigt Hill
#
# Bulk Modulus (GPa) = 28.29186 91.22669 59.75928
# Shear Modulus (GPa) = 20.58641 39.92898 30.25769
#
# Velocity S-wave (km/s) = 3.00221 4.18114 3.63972
# Velocity P-wave (km/s) = 4.94010 7.95302 6.62024
#
# Compressibility (1/GPa) = 0.03534585
#
# Stress axis : x y z
#
# Youngs Moduli (GPa) = 97.13762 140.86098 28.79984
#
# Poissons Ratio (x) = 0.38243 -0.07101
# Poissons Ratio (y) = 0.26372 0.23432
# Poissons Ratio (z) = -0.23952 1.14605
#
# Static dielectric constant tensor:
#      x y z
#    x 1.901900 0.039380 0.041230 
#    y 0.039380 1.982300 -0.074260 
#    z 0.041230 -0.074260 1.987230 
# 
# From -- ./inp_files/44934.got.cif
#   From: 2010.05.17/outbox.cif.g08.bks.cpg/sg2_23_cif.got.tgz:44934.got - 2010.06.03 11:33:40.
