data_PCOD9049824
_publ_section_title
;
Structure prediction by ZEFSAII (Michael W. Deem and Ramdas Pophale) SiO2 
 PCOD9049824
Probable space group: P -1
;
_chemical_formula_sum "Si O2"
_cell_formula_units_Z 14
_cell_length_a 7.654923
_cell_length_b 14.724219
_cell_length_c 9.021874
_cell_angle_alpha 56.956256
_cell_angle_beta 139.869806
_cell_angle_gamma 114.624996
_cell_volume 549.397377
_symmetry_space_group_name_H-M "P -1"
_symmetry_group_IT_number 2
_symmetry_cell_setting 'triclinic'
loop_
_space_group_symop_operation_xyz
x,y,z
-x,-y,-z
loop_
_atom_site_type_symbol
_atom_site_label
_atom_site_fract_x
_atom_site_fract_y
_atom_site_fract_z
Si Si1 0.532021 0.724315 0.870695
Si Si2 0.972177 0.646708 0.693429
Si Si3 0.613619 0.835343 0.201139
Si Si4 0.239553 0.059023 0.198435
Si Si5 0.116111 0.943574 0.768410
Si Si6 0.966430 0.436010 0.690307
Si Si7 0.527746 0.723554 0.533286
O O1 0.285323 0.676408 0.846656
O O2 0.651628 0.836225 0.911500
O O3 0.441964 0.750347 0.620317
O O4 0.766574 0.637650 0.071441
O O5 0.801818 0.730675 0.401296
O O6 0.943127 0.525670 0.723186
O O7 0.180589 0.331950 0.268526
O O8 0.537871 0.826315 0.338339
O O9 0.751366 0.950788 0.162478
O O10 0.316156 0.849802 0.931547
O O11 0.087565 0.104776 0.203817
O O12 0.500000 0.000000 0.500000
O O13 0.000000 0.000000 0.000000
O O14 0.000000 0.000000 0.500000
O O15 0.701914 0.360813 0.592058
O O16 0.000000 0.500000 0.500000
#
# Coordination Sequence:
#
# PCOD9049824 Si02
#       7
#     2   2   2   2   2   2   2
#     4  12  26  50  78 107 160 201 267 334 405 475
#     4  10  24  48  72 113 147 207 264 322 394 481
#     4   9  23  43  69 103 153 190 266 318 391 465
#     4  12  31  50  82 119 162 213 272 336 413 493
#     4  11  23  46  74 107 150 207 261 328 397 472
#     4  12  25  46  75 110 158 201 260 336 403 474
#     4  10  24  47  75 109 150 207 257 325 405 473
#
# _framework density 25.482464
#
# number of rings (size 3 to 8) (size 9 to 14) (size 15 to 20)
#    0.857    0.286    1.429    3.429    8.000    1.714 
#    5.143    0.000    0.000    0.000    0.000    0.000 
#    0.000    0.000    0.000    0.000    0.000    0.000 
#
# Total GULP energy -78225.012704 kJ/mol
# GULP energy per Si atom -5587.500907 kJ/mol
# Density = 2.542446 g / cm^3
# Si number density = 25.482464 Si / 1000 Ang^3
#
#
#
# Elastic Constant Matrix: (Units=GPa)
#
#
# Indices 1 2 3 4 5 6 
#
# 1 130.1896 22.7456 11.0891 16.1260 26.5375 8.8574
# 2 22.7456 152.5651 23.5189 16.0641 23.6599 3.1376
# 3 11.0891 23.5189 111.0130 -12.8182 35.9425 -6.5585
# 4 16.1260 16.0641 -12.8182 38.5864 3.9560 2.5302
# 5 26.5375 23.6599 35.9425 3.9560 48.0781 1.2411
# 6 8.8574 3.1376 -6.5585 2.5302 1.2411 51.9593
#
#
#
# Elastic Compliance Matrix: (Units=1/GPa)
#
#
# Indices 1 2 3 4 5 6 
#
# 1 0.009156 -0.000317 0.000298 -0.003018 -0.004840 -0.001242
# 2 -0.000317 0.007483 -0.001163 -0.003104 -0.002374 -0.000337
# 3 0.000298 -0.001163 0.013204 0.005660 -0.009971 0.001649
# 4 -0.003018 -0.003104 0.005660 0.030715 -0.003566 0.000006
# 5 -0.004840 -0.002374 -0.009971 -0.003566 0.032410 -0.000891
# 6 -0.001242 -0.000337 0.001649 0.000006 -0.000891 0.019707
#
#
# Mechanical properties :
#
#
# Convention : Reuss Voigt Hill
#
# Bulk Modulus (GPa) = 36.39310 56.49721 46.44516
# Shear Modulus (GPa) = 40.25783 50.15237 45.20510
#
# Velocity S-wave (km/s) = 3.97901 4.44116 4.21642
# Velocity P-wave (km/s) = 5.95170 6.96546 6.47844
#
# Compressibility (1/GPa) = 0.02747774
#
# Stress axis : x y z
#
# Youngs Moduli (GPa) = 109.21807 133.63546 75.73420
#
# Poissons Ratio (x) = 0.04237 -0.02256
# Poissons Ratio (y) = 0.03463 0.08811
# Poissons Ratio (z) = -0.03253 0.15548
#
# Static dielectric constant tensor:
#      x y z
#    x 2.065780 -0.035180 -0.039650 
#    y -0.035180 2.110970 0.184520 
#    z -0.039650 0.184520 2.183430 
# 
# From -- ./inp_files/360872.got.cif
#   From: 2010.05.17/outbox.cif.g08.bks.cpg/sg2_181_cif.got.tgz:360872.got - 2010.06.03 11:33:40.
