data_PCOD9049835
_publ_section_title
;
Structure prediction by ZEFSAII (Michael W. Deem and Ramdas Pophale) SiO2 
 PCOD9049835
Probable space group: P -1
;
_chemical_formula_sum "Si O2"
_cell_formula_units_Z 16
_cell_length_a 5.009431
_cell_length_b 15.388981
_cell_length_c 15.545878
_cell_angle_alpha 34.869696
_cell_angle_beta 66.017893
_cell_angle_gamma 70.978396
_cell_volume 625.944728
_symmetry_space_group_name_H-M "P -1"
_symmetry_group_IT_number 2
_symmetry_cell_setting 'triclinic'
loop_
_space_group_symop_operation_xyz
x,y,z
-x,-y,-z
loop_
_atom_site_type_symbol
_atom_site_label
_atom_site_fract_x
_atom_site_fract_y
_atom_site_fract_z
Si Si1 0.442453 0.734345 0.147145
Si Si2 0.811912 0.933517 0.816974
Si Si3 0.301905 0.813815 0.498376
Si Si4 0.166979 0.678455 0.912347
Si Si5 0.704565 0.452302 0.429264
Si Si6 0.168388 0.159144 0.842596
Si Si7 0.879795 0.779072 0.391596
Si Si8 0.184166 0.336331 0.201216
O O1 0.615629 0.580394 0.267156
O O2 0.563520 0.826323 0.139877
O O3 0.092959 0.723154 0.198151
O O4 0.552030 0.832219 0.972402
O O5 0.076964 0.817209 0.870489
O O6 0.745748 0.016651 0.668439
O O7 0.903635 0.075713 0.748511
O O8 0.279000 0.690836 0.524026
O O9 0.647631 0.799092 0.483337
O O10 0.057672 0.765104 0.637188
O O11 0.479678 0.710132 0.801601
O O12 0.914323 0.663910 0.885383
O O13 0.179587 0.512754 0.089290
O O14 0.500000 0.500000 0.500000
O O15 0.992854 0.389346 0.491439
O O16 0.261644 0.192534 0.706555
O O17 0.000000 0.000000 0.000000
#
# Coordination Sequence:
#
# PCOD9049835 Si02
#       8
#     2   2   2   2   2   2   2   2
#     4  12  26  42  70  98 131 188 236 285 340 401
#     4  11  26  44  66 106 138 183 232 283 347 417
#     4  11  26  44  69 101 144 184 228 286 347 413
#     4  10  24  47  76 104 138 175 230 284 346 417
#     4  11  24  44  67 100 137 184 241 289 338 406
#     4  12  24  42  67  94 139 183 231 284 339 401
#     4  11  25  43  66  97 146 184 231 287 343 406
#     4  10  24  48  75 104 137 179 224 287 347 410
#
# _framework density 25.561364000000001
#
# number of rings (size 3 to 8) (size 9 to 14) (size 15 to 20)
#    0.000    1.000    2.500    2.625    8.750    2.000 
#    2.250    0.000    0.000    0.000    0.000    0.000 
#    0.000    0.000    0.000    0.000    0.000    0.000 
#
# Total GULP energy -89343.813991 kJ/mol
# GULP energy per Si atom -5583.988374 kJ/mol
# Density = 2.550318 g / cm^3
# Si number density = 25.561364 Si / 1000 Ang^3
#
#
#
# Elastic Constant Matrix: (Units=GPa)
#
#
# Indices 1 2 3 4 5 6 
#
# 1 70.0406 17.8139 -5.2553 -3.0919 5.6387 -23.6409
# 2 17.8139 81.7778 37.1683 -20.4914 -4.0369 -31.6733
# 3 -5.2553 37.1683 121.8469 0.6539 6.1705 -27.8767
# 4 -3.0919 -20.4914 0.6539 43.5789 -12.8393 -5.6361
# 5 5.6387 -4.0369 6.1705 -12.8393 22.1215 4.3038
# 6 -23.6409 -31.6733 -27.8767 -5.6361 4.3038 42.6449
#
#
#
# Elastic Compliance Matrix: (Units=1/GPa)
#
#
# Indices 1 2 3 4 5 6 
#
# 1 0.020936 -0.002119 0.005410 -0.000816 -0.010532 0.014524
# 2 -0.002119 0.027056 -0.005457 0.019174 0.014942 0.016380
# 3 0.005410 -0.005457 0.012317 -0.004276 -0.009735 0.007415
# 4 -0.000816 0.019174 -0.004276 0.041506 0.026300 0.013825
# 5 -0.010532 0.014942 -0.009735 0.026300 0.069500 -0.004643
# 6 0.014524 0.016380 0.007415 0.013825 -0.004643 0.050810
#
#
# Mechanical properties :
#
#
# Convention : Reuss Voigt Hill
#
# Bulk Modulus (GPa) = 17.86372 41.45767 29.66069
# Shear Modulus (GPa) = 20.39852 36.59828 28.49840
#
# Velocity S-wave (km/s) = 2.82799 3.78799 3.34264
# Velocity P-wave (km/s) = 4.20323 5.94861 5.15039
#
# Compressibility (1/GPa) = 0.05597938
#
# Stress axis : x y z
#
# Youngs Moduli (GPa) = 47.76359 36.96021 81.18633
#
# Poissons Ratio (x) = 0.07830 -0.43921
# Poissons Ratio (y) = 0.10119 0.44301
# Poissons Ratio (z) = -0.25840 0.20168
#
# Static dielectric constant tensor:
#      x y z
#    x 2.687010 -0.163260 0.001160 
#    y -0.163260 2.093240 -0.046260 
#    z 0.001160 -0.046260 2.039520 
# 
# From -- ./inp_files/550518.got.cif
#   From: 2010.05.17/outbox.cif.g08.bks.cpg/sg2_276_cif.got.tgz:550518.got - 2010.06.03 11:33:40.
