data_PCOD9049987
_publ_section_title
;
Structure prediction by ZEFSAII (Michael W. Deem and Ramdas Pophale) SiO2 
 PCOD9049987
Probable space group: P -1
;
_chemical_formula_sum "Si O2"
_cell_formula_units_Z 14
_cell_length_a 22.238832
_cell_length_b 22.635674
_cell_length_c 12.676578
_cell_angle_alpha 153.010357
_cell_angle_beta 160.920791
_cell_angle_gamma 17.343737
_cell_volume 617.826034
_symmetry_space_group_name_H-M "P -1"
_symmetry_group_IT_number 2
_symmetry_cell_setting 'triclinic'
loop_
_space_group_symop_operation_xyz
x,y,z
-x,-y,-z
loop_
_atom_site_type_symbol
_atom_site_label
_atom_site_fract_x
_atom_site_fract_y
_atom_site_fract_z
Si Si1 0.037987 0.237515 0.179376
Si Si2 0.659981 0.543803 0.372372
Si Si3 0.605538 0.060514 0.891378
Si Si4 0.368663 0.439127 0.144686
Si Si5 0.850196 0.696998 0.849013
Si Si6 0.865303 0.097645 0.815857
Si Si7 0.832802 0.832663 0.262400
O O1 0.278436 0.214214 0.563996
O O2 0.185391 0.071412 0.068870
O O3 0.770787 0.452763 0.027778
O O4 0.973894 0.173502 0.065949
O O5 0.683006 0.650648 0.499445
O O6 0.468517 0.703098 0.402533
O O7 0.973436 0.338849 0.600949
O O8 0.500000 0.500000 0.000000
O O9 0.674856 0.907525 0.841836
O O10 0.610746 0.202030 0.167640
O O11 0.500000 0.500000 0.500000
O O12 0.124989 0.531355 0.969776
O O13 0.904810 0.719515 0.093455
O O14 0.910206 0.944986 0.576396
O O15 0.000000 0.000000 0.000000
O O16 0.500000 0.000000 0.000000
#
# Coordination Sequence:
#
# PCOD9049987 Si02
#       7
#     2   2   2   2   2   2   2
#     4  10  25  44  71 102 140 187 244 291 358 429
#     4  12  27  46  71 109 145 192 249 296 363 444
#     4  10  24  48  71  99 142 189 239 299 359 428
#     4  11  27  44  72 105 141 188 240 298 364 424
#     4  11  27  45  72 105 142 190 239 302 368 435
#     4  12  26  46  73 110 144 195 241 299 368 438
#     4  12  28  45  71 104 150 191 239 302 369 436
#
# _framework density 22.6601
#
# number of rings (size 3 to 8) (size 9 to 14) (size 15 to 20)
#    0.000    0.857    2.857    1.714   10.000    1.143 
#    0.000    0.000    0.000    0.000    0.000    0.000 
#    0.000    0.000    0.000    0.000    0.000    0.000 
#
# Total GULP energy -78323.135226 kJ/mol
# GULP energy per Si atom -5594.509659 kJ/mol
# Density = 2.260852 g / cm^3
# Si number density = 22.660100 Si / 1000 Ang^3
#
#
#
# Elastic Constant Matrix: (Units=GPa)
#
#
# Indices 1 2 3 4 5 6 
#
# 1 95.9349 32.2625 24.1521 9.6705 14.5825 25.1661
# 2 32.2625 114.0379 28.9210 12.1880 6.9669 8.2278
# 3 24.1521 28.9210 56.0558 10.9529 2.1560 4.8079
# 4 9.6705 12.1880 10.9529 52.5991 3.8139 -6.7449
# 5 14.5825 6.9669 2.1560 3.8139 34.3292 4.3572
# 6 25.1661 8.2278 4.8079 -6.7449 4.3572 22.9836
#
#
#
# Elastic Compliance Matrix: (Units=1/GPa)
#
#
# Indices 1 2 3 4 5 6 
#
# 1 0.018087 -0.002019 -0.004201 -0.004064 -0.004197 -0.018600
# 2 -0.002019 0.010677 -0.004279 -0.001276 -0.000779 -0.000944
# 3 -0.004201 -0.004279 0.022352 -0.002965 0.001541 0.000293
# 4 -0.004064 -0.001276 -0.002965 0.022408 -0.001900 0.012463
# 5 -0.004197 -0.000779 0.001541 -0.001900 0.031434 -0.001964
# 6 -0.018600 -0.000944 0.000293 0.012463 -0.001964 0.068182
#
#
# Mechanical properties :
#
#
# Convention : Reuss Voigt Hill
#
# Bulk Modulus (GPa) = 33.20090 48.52223 40.86156
# Shear Modulus (GPa) = 24.48866 34.02858 29.25862
#
# Velocity S-wave (km/s) = 3.29096 3.87938 3.59722
# Velocity P-wave (km/s) = 5.39667 6.44404 5.94347
#
# Compressibility (1/GPa) = 0.03011967
#
# Stress axis : x y z
#
# Youngs Moduli (GPa) = 55.28808 93.65573 44.73956
#
# Poissons Ratio (x) = 0.18909 0.18793
# Poissons Ratio (y) = 0.11163 0.19142
# Poissons Ratio (z) = 0.23224 0.40072
#
# Static dielectric constant tensor:
#      x y z
#    x 1.868310 -0.008270 -0.008280 
#    y -0.008270 1.873500 -0.002880 
#    z -0.008280 -0.002880 1.860490 
# 
# From -- ./inp_files/416012.got.cif
#   From: 2010.05.17/outbox.cif.g08.bks.cpg/sg2_209_cif.got.tgz:416012.got - 2010.06.03 11:33:40.
