data_PCOD9049892
_publ_section_title
;
Structure prediction by ZEFSAII (Michael W. Deem and Ramdas Pophale) SiO2 
 PCOD9049892
Probable space group: P -1
;
_chemical_formula_sum "Si O2"
_cell_formula_units_Z 10
_cell_length_a 13.418352
_cell_length_b 8.098655
_cell_length_c 8.627268
_cell_angle_alpha 57.210278
_cell_angle_beta 150.298150
_cell_angle_gamma 127.119970
_cell_volume 370.049311
_symmetry_space_group_name_H-M "P -1"
_symmetry_group_IT_number 2
_symmetry_cell_setting 'triclinic'
loop_
_space_group_symop_operation_xyz
x,y,z
-x,-y,-z
loop_
_atom_site_type_symbol
_atom_site_label
_atom_site_fract_x
_atom_site_fract_y
_atom_site_fract_z
Si Si1 0.787468 0.948532 0.846605
Si Si2 0.067852 0.673604 0.633729
Si Si3 0.564145 0.458033 0.835357
Si Si4 0.925964 0.692883 0.753651
Si Si5 0.627837 0.111822 0.264721
O O1 0.665593 0.707635 0.847428
O O2 0.629540 0.023129 0.480868
O O3 0.000000 0.000000 0.000000
O O4 0.880323 0.110110 0.027801
O O5 0.145054 0.863167 0.524258
O O6 0.000000 0.500000 0.500000
O O7 0.921291 0.697363 0.558502
O O8 0.727831 0.378193 0.992756
O O9 0.320768 0.362774 0.499710
O O10 0.582266 0.332652 0.083120
O O11 0.000000 0.500000 0.000000
O O12 0.500000 0.000000 0.000000
#
# Coordination Sequence:
#
# PCOD9049892 Si02
#       5
#     2   2   2   2   2
#     4  12  26  49  82 116 158 208 261 329 394 466
#     4  10  24  51  77 111 160 200 263 327 383 472
#     4  10  27  51  82 108 163 205 260 328 395 459
#     4  12  27  48  82 118 154 210 268 317 400 473
#     4  10  24  47  80 109 155 207 259 320 395 459
#
# _framework density 27.023426000000001
#
# number of rings (size 3 to 8) (size 9 to 14) (size 15 to 20)
#    1.200    0.000    0.000    4.800    2.800    4.000 
#    3.600    7.000    8.800    0.000    0.000    0.000 
#    0.000    0.000    0.000    0.000    0.000    0.000 
#
# Total GULP energy -55676.652253 kJ/mol
# GULP energy per Si atom -5567.665225 kJ/mol
# Density = 2.696192 g / cm^3
# Si number density = 27.023426 Si / 1000 Ang^3
#
#
#
# Elastic Constant Matrix: (Units=GPa)
#
#
# Indices 1 2 3 4 5 6 
#
# 1 90.9397 23.4515 42.9143 9.5156 -12.8155 4.8082
# 2 23.4515 230.3083 99.6421 0.4560 -28.6796 21.9157
# 3 42.9143 99.6421 167.6291 -1.1346 -7.6694 9.7617
# 4 9.5156 0.4560 -1.1346 71.2458 1.7103 -8.6404
# 5 -12.8155 -28.6796 -7.6694 1.7103 52.0626 -0.6089
# 6 4.8082 21.9157 9.7617 -8.6404 -0.6089 27.9129
#
#
#
# Elastic Compliance Matrix: (Units=1/GPa)
#
#
# Indices 1 2 3 4 5 6 
#
# 1 0.013306 0.000849 -0.003644 -0.002197 0.003252 -0.002294
# 2 0.000849 0.006733 -0.003824 -0.000816 0.003332 -0.004275
# 3 -0.003644 -0.003824 0.009061 0.000777 -0.001686 0.000665
# 4 -0.002197 -0.000816 0.000777 0.015030 -0.001307 0.005371
# 5 0.003252 0.003332 -0.001686 -0.001307 0.021608 -0.002519
# 6 -0.002294 -0.004275 0.000665 0.005371 -0.002519 0.040953
#
#
# Mechanical properties :
#
#
# Convention : Reuss Voigt Hill
#
# Bulk Modulus (GPa) = 63.03933 91.21032 77.12483
# Shear Modulus (GPa) = 39.93100 51.76887 45.84993
#
# Velocity S-wave (km/s) = 3.84818 4.38162 4.12354
# Velocity P-wave (km/s) = 6.56681 7.70868 7.16054
#
# Compressibility (1/GPa) = 0.01586311
#
# Stress axis : x y z
#
# Youngs Moduli (GPa) = 75.15313 148.51626 110.36640
#
# Poissons Ratio (x) = -0.12609 0.40214
# Poissons Ratio (y) = -0.06381 0.42203
# Poissons Ratio (z) = 0.27384 0.56791
#
# Static dielectric constant tensor:
#      x y z
#    x 2.191550 0.007240 0.043600 
#    y 0.007240 2.397540 0.147000 
#    z 0.043600 0.147000 2.439700 
# 
# From -- ./inp_files/294630.got.cif
#   From: 2010.05.17/outbox.cif.g08.bks.cpg/sg2_148_cif.got.tgz:294630.got - 2010.06.03 11:33:40.
