data_PCOD9049244
_publ_section_title
;
Structure prediction by ZEFSAII (Michael W. Deem and Ramdas Pophale) SiO2 
 PCOD9049244
Probable space group: P -1
;
_chemical_formula_sum "Si O2"
_cell_formula_units_Z 12
_cell_length_a 8.958222
_cell_length_b 11.575923
_cell_length_c 9.136332
_cell_angle_alpha 138.064847
_cell_angle_beta 64.428573
_cell_angle_gamma 86.200594
_cell_volume 437.624726
_symmetry_space_group_name_H-M "P -1"
_symmetry_group_IT_number 2
_symmetry_cell_setting 'triclinic'
loop_
_space_group_symop_operation_xyz
x,y,z
-x,-y,-z
loop_
_atom_site_type_symbol
_atom_site_label
_atom_site_fract_x
_atom_site_fract_y
_atom_site_fract_z
Si Si1 0.236698 0.384251 0.728412
Si Si2 0.247973 0.065367 0.223336
Si Si3 0.361640 0.767511 0.428160
Si Si4 0.868469 0.775912 0.910505
Si Si5 0.656802 0.585291 0.729550
Si Si6 0.845207 0.249561 0.754488
O O1 0.315053 0.202130 0.400395
O O2 0.421071 0.270923 0.667691
O O3 0.211230 0.607063 0.941011
O O4 0.000000 0.500000 0.000000
O O5 0.209334 0.101945 0.101364
O O6 0.002324 0.224198 0.540274
O O7 0.431250 0.804591 0.955907
O O8 0.341331 0.614345 0.399859
O O9 0.345694 0.711072 0.216668
O O10 0.179317 0.033255 0.782794
O O11 0.729304 0.693214 0.911123
O O12 0.122737 0.561334 0.601058
O O13 0.000000 0.000000 0.500000
#
# Coordination Sequence:
#
# PCOD9049244 Si02
#       6
#     2   2   2   2   2   2
#     4  10  24  46  71 102 145 192 240 300 351 434
#     4  11  23  48  70 108 151 185 242 298 366 433
#     4  12  24  48  74 107 148 187 247 302 361 437
#     4  11  25  46  71 114 149 184 239 302 368 437
#     4  11  24  42  72 108 146 193 225 297 371 429
#     4  11  25  46  71 104 144 194 252 297 356 430
#
# _framework density 27.420752
#
# number of rings (size 3 to 8) (size 9 to 14) (size 15 to 20)
#    0.000    1.000    3.333    2.500    0.000    3.333 
#    3.000    2.500    0.000    0.000    0.000    0.000 
#    0.000    0.000    0.000    0.000    0.000    0.000 
#
# Total GULP energy -66945.991491 kJ/mol
# GULP energy per Si atom -5578.832624 kJ/mol
# Density = 2.735834 g / cm^3
# Si number density = 27.420752 Si / 1000 Ang^3
#
#
#
# Elastic Constant Matrix: (Units=GPa)
#
#
# Indices 1 2 3 4 5 6 
#
# 1 136.0452 26.1036 44.0312 7.3994 -7.3713 -13.4022
# 2 26.1036 57.7012 16.3565 16.2414 3.6920 -12.0898
# 3 44.0312 16.3565 163.0606 45.8174 -5.6533 -10.2939
# 4 7.3994 16.2414 45.8174 43.6866 -0.0261 -10.4059
# 5 -7.3713 3.6920 -5.6533 -0.0261 59.7468 5.7183
# 6 -13.4022 -12.0898 -10.2939 -10.4059 5.7183 46.5675
#
#
#
# Elastic Compliance Matrix: (Units=1/GPa)
#
#
# Indices 1 2 3 4 5 6 
#
# 1 0.009055 -0.003947 -0.002841 0.003289 0.000943 0.001572
# 2 -0.003947 0.021824 0.001256 -0.007984 -0.002033 0.003273
# 3 -0.002841 0.001256 0.009629 -0.010256 0.000548 -0.000722
# 4 0.003289 -0.007984 -0.010256 0.037247 -0.000533 0.004995
# 5 0.000943 -0.002033 0.000548 -0.000533 0.017258 -0.002374
# 6 0.001572 0.003273 -0.000722 0.004995 -0.002374 0.024025
#
#
# Mechanical properties :
#
#
# Convention : Reuss Voigt Hill
#
# Bulk Modulus (GPa) = 33.96446 58.86551 46.41499
# Shear Modulus (GPa) = 35.73571 48.02124 41.87848
#
# Velocity S-wave (km/s) = 3.61395 4.18936 3.91225
# Velocity P-wave (km/s) = 5.46146 6.70187 6.11321
#
# Compressibility (1/GPa) = 0.02944254
#
# Stress axis : x y z
#
# Youngs Moduli (GPa) = 110.44150 45.82210 103.85185
#
# Poissons Ratio (x) = 0.18088 0.29506
# Poissons Ratio (y) = 0.43597 -0.13047
# Poissons Ratio (z) = 0.31378 -0.05757
#
# Static dielectric constant tensor:
#      x y z
#    x 2.453240 0.195470 -0.027650 
#    y 0.195470 2.281300 -0.063390 
#    z -0.027650 -0.063390 2.356660 
# 
# From -- ./inp_files/397952.got.cif
#   From: 2010.05.17/outbox.cif.g08.bks.cpg/sg2_199_cif.got.tgz:397952.got - 2010.06.03 11:33:40.
