data_PCOD9049766
_publ_section_title
;
Structure prediction by ZEFSAII (Michael W. Deem and Ramdas Pophale) SiO2 
 PCOD9049766
Probable space group: P -1
;
_chemical_formula_sum "Si O2"
_cell_formula_units_Z 12
_cell_length_a 9.315496
_cell_length_b 11.361656
_cell_length_c 5.164551
_cell_angle_alpha 89.415210
_cell_angle_beta 115.567910
_cell_angle_gamma 102.793776
_cell_volume 478.574865
_symmetry_space_group_name_H-M "P -1"
_symmetry_group_IT_number 2
_symmetry_cell_setting 'triclinic'
loop_
_space_group_symop_operation_xyz
x,y,z
-x,-y,-z
loop_
_atom_site_type_symbol
_atom_site_label
_atom_site_fract_x
_atom_site_fract_y
_atom_site_fract_z
Si Si1 0.555340 0.830833 0.916338
Si Si2 0.925067 0.924487 0.195361
Si Si3 0.402776 0.869876 0.305862
Si Si4 0.790922 0.503088 0.706935
Si Si5 0.936641 0.297808 0.798279
Si Si6 0.512837 0.600491 0.219926
O O1 0.732984 0.917455 0.030493
O O2 0.434515 0.874285 0.023514
O O3 0.579271 0.721512 0.112301
O O4 0.488979 0.792491 0.578211
O O5 0.957295 0.788773 0.243440
O O6 0.000000 0.000000 0.500000
O O7 0.000000 0.000000 0.000000
O O8 0.213337 0.807923 0.207541
O O9 0.500000 0.000000 0.500000
O O10 0.856954 0.401139 0.595869
O O11 0.655186 0.573581 0.510836
O O12 0.675378 0.417282 0.831737
O O13 0.942960 0.610365 0.914601
O O14 0.500000 0.500000 0.000000
#
# Coordination Sequence:
#
# PCOD9049766 Si02
#       6
#     2   2   2   2   2   2
#     4  12  26  47  76 104 148 202 249 306 387 457
#     4  12  28  50  76 110 151 203 258 321 381 455
#     4  12  26  49  75 109 149 201 259 315 375 453
#     4  10  24  47  73 113 158 198 253 326 385 461
#     4  11  24  47  76 113 154 196 262 321 386 447
#     4  11  23  44  74 109 150 204 251 303 400 462
#
# _framework density 25.074448
#
# number of rings (size 3 to 8) (size 9 to 14) (size 15 to 20)
#    0.000    0.667    1.667    5.500    7.000    1.333 
#    6.000    3.333    0.000    0.000    0.000    0.000 
#    0.000    0.000    0.000    0.000    0.000    0.000 
#
# Total GULP energy -66884.281695 kJ/mol
# GULP energy per Si atom -5573.690141 kJ/mol
# Density = 2.501738 g / cm^3
# Si number density = 25.074448 Si / 1000 Ang^3
#
#
#
# Elastic Constant Matrix: (Units=GPa)
#
#
# Indices 1 2 3 4 5 6 
#
# 1 107.2325 43.0938 33.5355 8.0982 21.4698 11.6428
# 2 43.0938 134.0527 20.8262 17.6775 8.5068 -6.3203
# 3 33.5355 20.8262 90.2136 15.1510 8.8276 26.7256
# 4 8.0982 17.6775 15.1510 50.1808 7.3478 6.4527
# 5 21.4698 8.5068 8.8276 7.3478 47.6462 7.0916
# 6 11.6428 -6.3203 26.7256 6.4527 7.0916 71.9802
#
#
#
# Elastic Compliance Matrix: (Units=1/GPa)
#
#
# Indices 1 2 3 4 5 6 
#
# 1 0.012680 -0.003416 -0.003430 0.000945 -0.004507 -0.000718
# 2 -0.003416 0.009139 -0.000990 -0.002650 0.000211 0.001939
# 3 -0.003430 -0.000990 0.014432 -0.002884 0.000185 -0.004650
# 4 0.000945 -0.002650 -0.002884 0.022104 -0.002673 -0.001033
# 5 -0.004507 0.000211 0.000185 -0.002673 0.023568 -0.001404
# 6 -0.000718 0.001939 -0.004650 -0.001033 -0.001404 0.016137
#
#
# Mechanical properties :
#
#
# Convention : Reuss Voigt Hill
#
# Bulk Modulus (GPa) = 48.59201 58.48998 53.54099
# Shear Modulus (GPa) = 41.46212 49.56433 45.51323
#
# Velocity S-wave (km/s) = 4.07081 4.45082 4.26505
# Velocity P-wave (km/s) = 6.44333 7.05622 6.75673
#
# Compressibility (1/GPa) = 0.02057952
#
# Stress axis : x y z
#
# Youngs Moduli (GPa) = 78.86481 109.41989 69.28854
#
# Poissons Ratio (x) = 0.37375 0.23766
# Poissons Ratio (y) = 0.26938 0.06861
# Poissons Ratio (z) = 0.27050 0.10835
#
# Static dielectric constant tensor:
#      x y z
#    x 2.051520 -0.115340 0.159980 
#    y -0.115340 2.147710 -0.271790 
#    z 0.159980 -0.271790 2.493690 
# 
# From -- ./inp_files/25371.got.cif
#   From: 2010.05.17/outbox.cif.g08.bks.cpg/sg2_13_cif.got.tgz:25371.got - 2010.06.03 11:33:40.
