data_PCOD9049844
_publ_section_title
;
Structure prediction by ZEFSAII (Michael W. Deem and Ramdas Pophale) SiO2 
 PCOD9049844
Probable space group: P -1
;
_chemical_formula_sum "Si O2"
_cell_formula_units_Z 10
_cell_length_a 9.558159
_cell_length_b 8.242897
_cell_length_c 11.760597
_cell_angle_alpha 74.062651
_cell_angle_beta 154.276032
_cell_angle_gamma 116.271935
_cell_volume 341.778335
_symmetry_space_group_name_H-M "P -1"
_symmetry_group_IT_number 2
_symmetry_cell_setting 'triclinic'
loop_
_space_group_symop_operation_xyz
x,y,z
-x,-y,-z
loop_
_atom_site_type_symbol
_atom_site_label
_atom_site_fract_x
_atom_site_fract_y
_atom_site_fract_z
Si Si1 0.582734 0.434411 0.454430
Si Si2 0.335731 0.397744 0.738234
Si Si3 0.162086 0.814130 0.176419
Si Si4 0.222031 0.183348 0.910506
Si Si5 0.428605 0.085992 0.770762
O O1 0.500000 0.500000 0.500000
O O2 0.816962 0.585389 0.499772
O O3 0.756569 0.303710 0.644720
O O4 0.192215 0.321778 0.128994
O O5 0.104846 0.258158 0.697926
O O6 0.585575 0.297366 0.901479
O O7 0.499016 0.610980 0.868699
O O8 0.480515 0.891684 0.302158
O O9 0.046846 0.931273 0.159064
O O10 0.401658 0.048206 0.036541
O O11 0.000000 0.000000 0.500000
#
# Coordination Sequence:
#
# PCOD9049844 Si02
#       5
#     2   2   2   2   2
#     4  11  23  45  81 114 153 201 260 318 393 458
#     4  10  24  47  76 108 157 198 260 312 396 453
#     4  11  26  48  79 116 155 206 260 324 387 467
#     4  10  25  48  78 116 153 204 261 326 389 461
#     4  12  27  47  76 115 159 211 257 323 387 469
#
# _framework density 29.25873
#
# number of rings (size 3 to 8) (size 9 to 14) (size 15 to 20)
#    0.000    1.200    2.000    1.800    2.800   12.800 
#    0.000    6.000    0.000    0.000    0.000    0.000 
#    0.000    0.000    0.000    0.000    0.000    0.000 
#
# Total GULP energy -55981.747838 kJ/mol
# GULP energy per Si atom -5598.174784 kJ/mol
# Density = 2.919214 g / cm^3
# Si number density = 29.258730 Si / 1000 Ang^3
#
#
#
# Elastic Constant Matrix: (Units=GPa)
#
#
# Indices 1 2 3 4 5 6 
#
# 1 288.5456 61.5543 70.7681 -5.2025 -7.9455 15.4378
# 2 61.5543 177.4646 50.9349 -20.3200 -3.0926 -8.3035
# 3 70.7681 50.9349 138.0625 -14.4256 -14.8945 13.2467
# 4 -5.2025 -20.3200 -14.4256 40.1557 2.4940 -3.0263
# 5 -7.9455 -3.0926 -14.8945 2.4940 72.2092 -16.4556
# 6 15.4378 -8.3035 13.2467 -3.0263 -16.4556 72.9102
#
#
#
# Elastic Compliance Matrix: (Units=1/GPa)
#
#
# Indices 1 2 3 4 5 6 
#
# 1 0.004142 -0.001048 -0.001747 -0.000670 -0.000092 -0.000728
# 2 -0.001048 0.006924 -0.001861 0.002808 0.000036 0.001473
# 3 -0.001747 -0.001861 0.009286 0.002000 0.001312 -0.001150
# 4 -0.000670 0.002808 0.002000 0.027057 -0.000208 0.001175
# 5 -0.000092 0.000036 0.001312 -0.000208 0.014830 0.003124
# 6 -0.000728 0.001473 -0.001150 0.001175 0.003124 0.015000
#
#
# Mechanical properties :
#
#
# Convention : Reuss Voigt Hill
#
# Bulk Modulus (GPa) = 90.57943 107.84305 99.21124
# Shear Modulus (GPa) = 55.41427 65.10939 60.26183
#
# Velocity S-wave (km/s) = 4.35666 4.72242 4.54323
# Velocity P-wave (km/s) = 7.50551 8.16538 7.84239
#
# Compressibility (1/GPa) = 0.01104003
#
# Stress axis : x y z
#
# Youngs Moduli (GPa) = 241.43843 144.43300 107.68960
#
# Poissons Ratio (x) = 0.15132 0.18810
# Poissons Ratio (y) = 0.25295 0.20045
# Poissons Ratio (z) = 0.42171 0.26884
#
# Static dielectric constant tensor:
#      x y z
#    x 2.309040 -0.029030 0.157540 
#    y -0.029030 2.449820 0.005950 
#    z 0.157540 0.005950 2.458680 
# 
# From -- ./inp_files/378520.got.cif
#   From: 2010.05.17/outbox.cif.g08.bks.cpg/sg2_190_cif.got.tgz:378520.got - 2010.06.03 11:33:40.
