data_PCOD9049319
_publ_section_title
;
Structure prediction by ZEFSAII (Michael W. Deem and Ramdas Pophale) SiO2 
 PCOD9049319
Probable space group: P -1
;
_chemical_formula_sum "Si O2"
_cell_formula_units_Z 15
_cell_length_a 6.132260
_cell_length_b 9.485235
_cell_length_c 19.224617
_cell_angle_alpha 141.844265
_cell_angle_beta 63.320540
_cell_angle_gamma 108.026317
_cell_volume 615.355240
_symmetry_space_group_name_H-M "P -1"
_symmetry_group_IT_number 2
_symmetry_cell_setting 'triclinic'
loop_
_space_group_symop_operation_xyz
x,y,z
-x,-y,-z
loop_
_atom_site_type_symbol
_atom_site_label
_atom_site_fract_x
_atom_site_fract_y
_atom_site_fract_z
Si Si1 0.655987 0.180321 0.086579
Si Si2 0.178186 0.222122 0.001893
Si Si3 0.665507 0.437942 0.771590
Si Si4 0.292173 0.692866 0.628713
Si Si5 0.968274 0.057686 0.363254
Si Si6 0.874443 0.702505 0.427451
Si Si7 0.500000 0.000000 0.500000
Si Si8 0.523598 0.164286 0.809185
O O1 0.489608 0.415695 0.207097
O O2 0.747753 0.039286 0.086029
O O3 0.893694 0.231889 0.028105
O O4 0.500000 0.000000 0.000000
O O5 0.361947 0.282938 0.939329
O O6 0.208920 0.387632 0.127512
O O7 0.501998 0.299016 0.792063
O O8 0.869940 0.274684 0.640598
O O9 0.500000 0.500000 0.500000
O O10 0.115612 0.773379 0.621712
O O11 0.151459 0.566045 0.659980
O O12 0.416336 0.918096 0.721519
O O13 0.732626 0.963551 0.396778
O O14 0.090135 0.190348 0.460395
O O15 0.184280 0.875304 0.234928
O O16 0.648236 0.820528 0.464022
#
# Coordination Sequence:
#
# PCOD9049319 Si02
#       8
#     2   2   2   2   2   2   1   2
#     4   9  22  44  71 101 138 187 240 296 359 431
#     4  10  24  46  72 104 146 188 243 300 365 435
#     4  11  26  45  72 107 142 192 245 296 371 432
#     4  12  27  45  70 108 146 195 248 300 372 434
#     4  12  26  46  71 105 147 191 244 301 367 439
#     4  12  27  46  74 107 147 192 242 305 366 444
#     4  12  24  46  76 104 152 182 246 298 372 436
#     4  12  27  45  71 107 146 190 243 305 368 432
#
# _framework density 24.376162000000001
#
# number of rings (size 3 to 8) (size 9 to 14) (size 15 to 20)
#    0.000    0.800    4.000    1.200    9.333    3.733 
#    0.000    0.000    0.000    0.000    0.000    0.000 
#    0.000    0.000    0.000    0.000    0.000    0.000 
#
# Total GULP energy -83751.558504 kJ/mol
# GULP energy per Si atom -5583.437234 kJ/mol
# Density = 2.432068 g / cm^3
# Si number density = 24.376162 Si / 1000 Ang^3
#
#
#
# Elastic Constant Matrix: (Units=GPa)
#
#
# Indices 1 2 3 4 5 6 
#
# 1 86.9724 36.5787 39.9452 -2.4487 -24.7152 -12.8299
# 2 36.5787 124.7773 6.5616 -6.1420 -7.3077 -1.3669
# 3 39.9452 6.5616 80.9430 -18.3337 -9.8436 2.2668
# 4 -2.4487 -6.1420 -18.3337 41.0349 3.7888 -14.9081
# 5 -24.7152 -7.3077 -9.8436 3.7888 34.5124 1.4722
# 6 -12.8299 -1.3669 2.2668 -14.9081 1.4722 50.8281
#
#
#
# Elastic Compliance Matrix: (Units=1/GPa)
#
#
# Indices 1 2 3 4 5 6 
#
# 1 0.022488 -0.005463 -0.010071 -0.003429 0.012255 0.004618
# 2 -0.005463 0.009506 0.002219 0.002009 -0.001462 -0.000591
# 3 -0.010071 0.002219 0.018700 0.007960 -0.002243 -0.000917
# 4 -0.003429 0.002009 0.007960 0.031298 -0.003542 0.008116
# 5 0.012255 -0.001462 -0.002243 -0.003542 0.037146 0.001039
# 6 0.004618 -0.000591 -0.000917 0.008116 0.001039 0.023215
#
#
# Mechanical properties :
#
#
# Convention : Reuss Voigt Hill
#
# Bulk Modulus (GPa) = 41.55443 50.98486 46.26965
# Shear Modulus (GPa) = 28.24798 39.24890 33.74844
#
# Velocity S-wave (km/s) = 3.40786 4.01700 3.72490
# Velocity P-wave (km/s) = 5.70691 6.51739 6.12557
#
# Compressibility (1/GPa) = 0.02406482
#
# Stress axis : x y z
#
# Youngs Moduli (GPa) = 44.46814 105.19740 53.47537
#
# Poissons Ratio (x) = 0.57473 0.53853
# Poissons Ratio (y) = 0.24294 -0.11868
# Poissons Ratio (z) = 0.44782 -0.23346
#
# Static dielectric constant tensor:
#      x y z
#    x 2.004960 0.070300 0.013400 
#    y 0.070300 1.975810 -0.004050 
#    z 0.013400 -0.004050 1.935820 
# 
# From -- ./inp_files/548380.got.cif
#   From: 2010.05.17/outbox.cif.g08.bks.cpg/sg2_275_cif.got.tgz:548380.got - 2010.06.03 11:33:40.
