data_PCOD9049252
_publ_section_title
;
Structure prediction by ZEFSAII (Michael W. Deem and Ramdas Pophale) SiO2 
 PCOD9049252
Probable space group: P -1
;
_chemical_formula_sum "Si O2"
_cell_formula_units_Z 14
_cell_length_a 13.161880
_cell_length_b 9.609583
_cell_length_c 11.285404
_cell_angle_alpha 56.128947
_cell_angle_beta 44.078698
_cell_angle_gamma 36.055610
_cell_volume 583.461914
_symmetry_space_group_name_H-M "P -1"
_symmetry_group_IT_number 2
_symmetry_cell_setting 'triclinic'
loop_
_space_group_symop_operation_xyz
x,y,z
-x,-y,-z
loop_
_atom_site_type_symbol
_atom_site_label
_atom_site_fract_x
_atom_site_fract_y
_atom_site_fract_z
Si Si1 0.168998 0.670837 0.335111
Si Si2 0.320943 0.020040 0.182342
Si Si3 0.886325 0.334591 0.344619
Si Si4 0.552975 0.873212 0.390078
Si Si5 0.693477 0.709296 0.752392
Si Si6 0.572670 0.525771 0.125675
Si Si7 0.221298 0.841533 0.673551
O O1 0.116759 0.736005 0.486147
O O2 0.183867 0.467491 0.375876
O O3 0.402162 0.552406 0.189643
O O4 0.004069 0.897025 0.283596
O O5 0.225225 0.194041 0.292455
O O6 0.127071 0.153962 0.194766
O O7 0.440123 0.749100 0.222530
O O8 0.500000 0.000000 0.000000
O O9 0.772070 0.605362 0.321289
O O10 0.769002 0.308822 0.364544
O O11 0.388213 0.855571 0.518095
O O12 0.500000 0.000000 0.500000
O O13 0.518160 0.045680 0.240450
O O14 0.670461 0.577406 0.927456
O O15 0.731938 0.286350 0.180100
#
# Coordination Sequence:
#
# PCOD9049252 Si02
#       7
#     2   2   2   2   2   2   2
#     4  12  25  43  75 106 143 194 245 296 371 422
#     4  10  24  46  71 103 146 189 238 302 364 423
#     4  12  24  45  75 109 143 190 250 298 360 435
#     4  12  25  44  72 112 145 186 242 302 364 424
#     4  11  25  46  68 101 155 185 236 311 359 425
#     4  11  24  50  68 104 145 194 242 299 359 440
#     4  12  26  43  77 105 145 193 246 295 354 441
#
# _framework density 23.994710000000001
#
# number of rings (size 3 to 8) (size 9 to 14) (size 15 to 20)
#    0.000    0.571    4.286    3.000    4.000    1.714 
#    5.143    4.286    0.000    0.000    0.000    0.000 
#    0.000    0.000    0.000    0.000    0.000    0.000 
#
# Total GULP energy -78279.375724 kJ/mol
# GULP energy per Si atom -5591.383980 kJ/mol
# Density = 2.394010 g / cm^3
# Si number density = 23.994710 Si / 1000 Ang^3
#
#
#
# Elastic Constant Matrix: (Units=GPa)
#
#
# Indices 1 2 3 4 5 6 
#
# 1 111.2429 38.4734 21.9149 3.4542 -1.8215 0.5622
# 2 38.4734 150.8640 8.6462 -18.9604 19.2513 -21.1249
# 3 21.9149 8.6462 73.7356 -16.5630 8.1263 -21.6219
# 4 3.4542 -18.9604 -16.5630 36.2097 -4.0235 17.1804
# 5 -1.8215 19.2513 8.1263 -4.0235 28.2766 -2.9525
# 6 0.5622 -21.1249 -21.6219 17.1804 -2.9525 65.9082
#
#
#
# Elastic Compliance Matrix: (Units=1/GPa)
#
#
# Indices 1 2 3 4 5 6 
#
# 1 0.011498 -0.003923 -0.004819 -0.004107 0.004036 -0.001685
# 2 -0.003923 0.009189 0.002485 0.004511 -0.006337 0.002334
# 3 -0.004819 0.002485 0.018351 0.007286 -0.005748 0.004701
# 4 -0.004107 0.004511 0.007286 0.036276 -0.000855 -0.005624
# 5 0.004036 -0.006337 -0.005748 -0.000855 0.041274 -0.001880
# 6 -0.001685 0.002334 0.004701 -0.005624 -0.001880 0.018859
#
#
# Mechanical properties :
#
#
# Convention : Reuss Voigt Hill
#
# Bulk Modulus (GPa) = 37.70231 52.65684 45.17957
# Shear Modulus (GPa) = 31.88725 43.86611 37.87668
#
# Velocity S-wave (km/s) = 3.64940 4.28033 3.97740
# Velocity P-wave (km/s) = 5.78830 6.81331 6.32161
#
# Compressibility (1/GPa) = 0.02652358
#
# Stress axis : x y z
#
# Youngs Moduli (GPa) = 86.97501 108.82613 54.49184
#
# Poissons Ratio (x) = 0.42694 0.26258
# Poissons Ratio (y) = 0.34121 -0.13539
# Poissons Ratio (z) = 0.41910 -0.27039
#
# Static dielectric constant tensor:
#      x y z
#    x 1.967700 0.009020 0.018460 
#    y 0.009020 1.925380 0.039230 
#    z 0.018460 0.039230 1.944430 
# 
# From -- ./inp_files/419077.got.cif
#   From: 2010.05.17/outbox.cif.g08.bks.cpg/sg2_210_cif.got.tgz:419077.got - 2010.06.03 11:33:40.
