data_PCOD9049514
_publ_section_title
;
Structure prediction by ZEFSAII (Michael W. Deem and Ramdas Pophale) SiO2 
 PCOD9049514
Probable space group: P -1
;
_chemical_formula_sum "Si O2"
_cell_formula_units_Z 13
_cell_length_a 6.650748
_cell_length_b 8.928293
_cell_length_c 15.707340
_cell_angle_alpha 146.899817
_cell_angle_beta 107.160257
_cell_angle_gamma 79.557218
_cell_volume 482.778391
_symmetry_space_group_name_H-M "P -1"
_symmetry_group_IT_number 2
_symmetry_cell_setting 'triclinic'
loop_
_space_group_symop_operation_xyz
x,y,z
-x,-y,-z
loop_
_atom_site_type_symbol
_atom_site_label
_atom_site_fract_x
_atom_site_fract_y
_atom_site_fract_z
Si Si1 0.505140 0.806449 0.182819
Si Si2 0.500000 0.500000 0.500000
Si Si3 0.794296 0.072599 0.223930
Si Si4 0.794990 0.926149 0.628855
Si Si5 0.639747 0.744778 0.902655
Si Si6 0.276625 0.234598 0.635062
Si Si7 0.913495 0.571615 0.705793
O O1 0.570295 0.058804 0.242311
O O2 0.659482 0.853089 0.305469
O O3 0.277957 0.846705 0.209339
O O4 0.500000 0.500000 0.000000
O O5 0.661593 0.646956 0.513963
O O6 0.709264 0.484618 0.581570
O O7 0.751782 0.790697 0.030019
O O8 0.961979 0.080107 0.323737
O O9 0.909455 0.272676 0.262099
O O10 0.737199 0.967564 0.543896
O O11 0.467227 0.477730 0.753828
O O12 0.815279 0.740179 0.849576
O O13 0.500000 0.000000 0.000000
O O14 0.049785 0.350876 0.660204
#
# Coordination Sequence:
#
# PCOD9049514 Si02
#       7
#     2   1   2   2   2   2   2
#     4  12  29  50  74 108 158 200 250 305 374 453
#     4  10  24  46  76 108 148 182 246 320 358 434
#     4  11  27  44  78 107 147 197 250 308 368 444
#     4  11  28  47  76 111 147 200 251 309 376 441
#     4  12  25  44  75 114 152 191 251 317 373 441
#     4  12  27  48  76 108 153 201 245 311 377 443
#     4  11  26  44  79 111 150 190 255 307 382 433
#
# _framework density 26.927465000000002
#
# number of rings (size 3 to 8) (size 9 to 14) (size 15 to 20)
#    0.000    0.615    4.615    0.923   10.769    3.692 
#    0.000    0.000    0.000    0.000    0.000    0.000 
#    0.000    0.000    0.000    0.000    0.000    0.000 
#
# Total GULP energy -72600.749218 kJ/mol
# GULP energy per Si atom -5584.673017 kJ/mol
# Density = 2.686618 g / cm^3
# Si number density = 26.927465 Si / 1000 Ang^3
#
#
#
# Elastic Constant Matrix: (Units=GPa)
#
#
# Indices 1 2 3 4 5 6 
#
# 1 173.6522 42.8938 33.7540 -3.5567 -7.5119 17.2110
# 2 42.8938 129.9803 27.1551 -5.3383 -0.1285 23.8199
# 3 33.7540 27.1551 95.8366 -18.2246 6.7597 18.0575
# 4 -3.5567 -5.3383 -18.2246 49.3028 -5.4969 0.6344
# 5 -7.5119 -0.1285 6.7597 -5.4969 58.9872 -13.3028
# 6 17.2110 23.8199 18.0575 0.6344 -13.3028 56.1605
#
#
#
# Elastic Compliance Matrix: (Units=1/GPa)
#
#
# Indices 1 2 3 4 5 6 
#
# 1 0.006630 -0.001719 -0.001879 -0.000294 0.000921 -0.000477
# 2 -0.001719 0.009109 -0.001274 0.000351 -0.000720 -0.003102
# 3 -0.001879 -0.001274 0.013136 0.004388 -0.002166 -0.003670
# 4 -0.000294 0.000351 0.004388 0.022073 0.001194 -0.001436
# 5 0.000921 -0.000720 -0.002166 0.001194 0.018580 0.005107
# 6 -0.000477 -0.003102 -0.003670 -0.001436 0.005107 0.021674
#
#
# Mechanical properties :
#
#
# Convention : Reuss Voigt Hill
#
# Bulk Modulus (GPa) = 52.26973 67.45277 59.86125
# Shear Modulus (GPa) = 46.58921 52.60118 49.59520
#
# Velocity S-wave (km/s) = 4.16405 4.42457 4.29628
# Velocity P-wave (km/s) = 6.52476 7.15588 6.84759
#
# Compressibility (1/GPa) = 0.01913153
#
# Stress axis : x y z
#
# Youngs Moduli (GPa) = 150.84017 109.78243 76.12802
#
# Poissons Ratio (x) = 0.18871 0.14303
# Poissons Ratio (y) = 0.25929 0.09696
# Poissons Ratio (z) = 0.28339 0.13982
#
# Static dielectric constant tensor:
#      x y z
#    x 2.102910 -0.030750 -0.054230 
#    y -0.030750 2.152020 0.042790 
#    z -0.054230 0.042790 2.010790 
# 
# From -- ./inp_files/90771.got.cif
#   From: 2010.05.17/outbox.cif.g08.bks.cpg/sg2_46_cif.got.tgz:90771.got - 2010.06.03 11:33:40.
