data_PCOD9049184
_publ_section_title
;
Structure prediction by ZEFSAII (Michael W. Deem and Ramdas Pophale) SiO2 
 PCOD9049184
Probable space group: P -1
;
_chemical_formula_sum "Si O2"
_cell_formula_units_Z 14
_cell_length_a 5.268998
_cell_length_b 18.861471
_cell_length_c 8.685539
_cell_angle_alpha 57.000031
_cell_angle_beta 124.299239
_cell_angle_gamma 98.882383
_cell_volume 583.368289
_symmetry_space_group_name_H-M "P -1"
_symmetry_group_IT_number 2
_symmetry_cell_setting 'triclinic'
loop_
_space_group_symop_operation_xyz
x,y,z
-x,-y,-z
loop_
_atom_site_type_symbol
_atom_site_label
_atom_site_fract_x
_atom_site_fract_y
_atom_site_fract_z
Si Si1 0.297290 0.454555 0.873241
Si Si2 0.817091 0.736594 0.442461
Si Si3 0.432530 0.285081 0.277812
Si Si4 0.393546 0.019347 0.682814
Si Si5 0.667439 0.101272 0.930058
Si Si6 0.663037 0.576941 0.409903
Si Si7 0.757407 0.865551 0.778715
O O1 0.439196 0.408390 0.819307
O O2 0.024262 0.530001 0.624367
O O3 0.500000 0.500000 0.000000
O O4 0.225984 0.377250 0.042076
O O5 0.709758 0.734668 0.585149
O O6 0.666642 0.834850 0.222045
O O7 0.646232 0.668121 0.380042
O O8 0.196227 0.713617 0.582873
O O9 0.393283 0.213668 0.223697
O O10 0.651134 0.065698 0.794594
O O11 0.184922 0.090473 0.417629
O O12 0.534289 0.939091 0.716348
O O13 0.256717 0.980515 0.831407
O O14 0.924831 0.156472 0.988554
O O15 0.500000 0.500000 0.500000
#
# Coordination Sequence:
#
# PCOD9049184 Si02
#       7
#     2   2   2   2   2   2   2
#     4  11  25  50  76 108 149 196 244 300 368 436
#     4  12  29  49  74 115 155 193 248 305 370 438
#     4  12  29  48  77 111 156 195 247 306 368 439
#     4  10  24  46  70 106 145 190 253 303 374 435
#     4  11  25  44  75 103 149 192 248 307 371 433
#     4  11  27  46  80 109 148 196 250 299 368 443
#     4  11  25  44  75 105 145 194 252 300 374 435
#
# _framework density 23.998563000000001
#
# number of rings (size 3 to 8) (size 9 to 14) (size 15 to 20)
#    0.000    0.857    2.857    1.714   12.000    5.714 
#    0.000    0.000    0.000    0.000    0.000    0.000 
#    0.000    0.000    0.000    0.000    0.000    0.000 
#
# Total GULP energy -78221.815791 kJ/mol
# GULP energy per Si atom -5587.272557 kJ/mol
# Density = 2.394394 g / cm^3
# Si number density = 23.998563 Si / 1000 Ang^3
#
#
#
# Elastic Constant Matrix: (Units=GPa)
#
#
# Indices 1 2 3 4 5 6 
#
# 1 61.6017 11.0168 9.9912 14.9648 -1.1817 3.0852
# 2 11.0168 192.9966 47.1505 29.7814 0.0659 -1.9954
# 3 9.9912 47.1505 74.6418 19.5054 -9.7515 7.5015
# 4 14.9648 29.7814 19.5054 57.7402 1.0604 1.7090
# 5 -1.1817 0.0659 -9.7515 1.0604 30.5709 0.7786
# 6 3.0852 -1.9954 7.5015 1.7090 0.7786 24.3599
#
#
#
# Elastic Compliance Matrix: (Units=1/GPa)
#
#
# Indices 1 2 3 4 5 6 
#
# 1 0.017503 -0.000156 -0.000930 -0.004102 0.000565 -0.001673
# 2 -0.000156 0.006474 -0.003898 -0.002016 -0.001243 0.001932
# 3 -0.000930 -0.003898 0.018384 -0.003900 0.006119 -0.005785
# 4 -0.004102 -0.002016 -0.003900 0.020774 -0.002123 0.000166
# 5 0.000565 -0.001243 0.006119 -0.002123 0.034838 -0.003022
# 6 -0.001673 0.001932 -0.005785 0.000166 -0.003022 0.043288
#
#
# Mechanical properties :
#
#
# Convention : Reuss Voigt Hill
#
# Bulk Modulus (GPa) = 30.87157 51.72855 41.30006
# Shear Modulus (GPa) = 30.85876 39.93964 35.39920
#
# Velocity S-wave (km/s) = 3.58978 4.08395 3.84481
# Velocity P-wave (km/s) = 5.48396 6.62117 6.07921
#
# Compressibility (1/GPa) = 0.03239227
#
# Stress axis : x y z
#
# Youngs Moduli (GPa) = 57.13177 154.45667 54.39402
#
# Poissons Ratio (x) = 0.02415 0.05059
# Poissons Ratio (y) = 0.00893 0.21205
# Poissons Ratio (z) = 0.05314 0.60214
#
# Static dielectric constant tensor:
#      x y z
#    x 1.937470 -0.054980 -0.008750 
#    y -0.054980 1.861480 -0.047430 
#    z -0.008750 -0.047430 1.943430 
# 
# From -- ./inp_files/8088.got.cif
#   From: 2010.05.17/outbox.cif.g08.bks.cpg/sg2_5_cif.got.tgz:8088.got - 2010.06.03 11:33:40.
