data_PCOD9049906
_publ_section_title
;
Structure prediction by ZEFSAII (Michael W. Deem and Ramdas Pophale) SiO2 
 PCOD9049906
Probable space group: P -1
;
_chemical_formula_sum "Si O2"
_cell_formula_units_Z 16
_cell_length_a 11.896376
_cell_length_b 11.382268
_cell_length_c 6.955361
_cell_angle_alpha 116.020029
_cell_angle_beta 62.867823
_cell_angle_gamma 111.470415
_cell_volume 736.817591
_symmetry_space_group_name_H-M "P -1"
_symmetry_group_IT_number 2
_symmetry_cell_setting 'triclinic'
loop_
_space_group_symop_operation_xyz
x,y,z
-x,-y,-z
loop_
_atom_site_type_symbol
_atom_site_label
_atom_site_fract_x
_atom_site_fract_y
_atom_site_fract_z
Si Si1 0.848583 0.925976 0.299024
Si Si2 0.382835 0.918811 0.412646
Si Si3 0.579408 0.224050 0.096321
Si Si4 0.803958 0.564598 0.598024
Si Si5 0.674082 0.714232 0.500293
Si Si6 0.978454 0.821255 0.777490
Si Si7 0.779390 0.266707 0.307307
Si Si8 0.621500 0.506735 0.050121
O O1 0.807761 0.815359 0.414644
O O2 0.726276 0.994727 0.438552
O O3 0.870600 0.854897 0.029647
O O4 0.970249 0.050000 0.303754
O O5 0.318037 0.782008 0.474630
O O6 0.500000 0.000000 0.500000
O O7 0.424817 0.883445 0.144468
O O8 0.441588 0.214317 0.299331
O O9 0.694426 0.220000 0.152492
O O10 0.609434 0.369884 0.077980
O O11 0.702606 0.620539 0.583584
O O12 0.927637 0.684370 0.606885
O O13 0.824315 0.426454 0.393523
O O14 0.745400 0.534855 0.834844
O O15 0.630034 0.624535 0.283030
O O16 0.098057 0.800096 0.802314
O O17 0.500000 0.500000 0.000000
#
# Coordination Sequence:
#
# PCOD9049906 Si02
#       8
#     2   2   2   2   2   2   2   2
#     4  10  24  48  65  98 134 184 236 271 338 405
#     4  11  26  44  70 100 140 182 224 284 347 406
#     4  12  25  43  69 107 141 174 225 287 343 412
#     4  12  23  43  73 103 135 179 228 287 347 397
#     4  12  25  41  73 108 135 177 228 282 348 413
#     4  10  24  48  72  93 140 188 228 286 334 402
#     4  11  24  46  69 103 138 177 235 279 343 408
#     4  12  23  41  68 104 143 178 218 281 353 408
#
# _framework density 21.715009999999999
#
# number of rings (size 3 to 8) (size 9 to 14) (size 15 to 20)
#    0.000    0.750    5.000    2.250    3.500    2.500 
#    9.000    1.250    0.000    0.000    0.000    0.000 
#    0.000    0.000    0.000    0.000    0.000    0.000 
#
# Total GULP energy -89502.883845 kJ/mol
# GULP energy per Si atom -5593.930240 kJ/mol
# Density = 2.166559 g / cm^3
# Si number density = 21.715010 Si / 1000 Ang^3
#
#
#
# Elastic Constant Matrix: (Units=GPa)
#
#
# Indices 1 2 3 4 5 6 
#
# 1 60.4151 12.3049 43.8511 7.7399 11.5233 -6.4574
# 2 12.3049 112.4423 38.2205 -1.9526 -1.4945 12.4120
# 3 43.8511 38.2205 139.2568 12.5766 -1.6150 5.5497
# 4 7.7399 -1.9526 12.5766 40.1360 -0.4393 -1.7081
# 5 11.5233 -1.4945 -1.6150 -0.4393 31.3633 -0.6492
# 6 -6.4574 12.4120 5.5497 -1.7081 -0.6492 25.9657
#
#
#
# Elastic Compliance Matrix: (Units=1/GPa)
#
#
# Indices 1 2 3 4 5 6 
#
# 1 0.025610 -0.001168 -0.007982 -0.002250 -0.009737 0.008242
# 2 -0.001168 0.010383 -0.002406 0.001295 0.000722 -0.004636
# 3 -0.007982 -0.002406 0.010703 -0.002031 0.003275 -0.003174
# 4 -0.002250 0.001295 -0.002031 0.026104 0.001170 0.001002
# 5 -0.009737 0.000722 0.003275 0.001170 0.035630 -0.002499
# 6 0.008242 -0.004636 -0.003174 0.001002 -0.002499 0.043460
#
#
# Mechanical properties :
#
#
# Convention : Reuss Voigt Hill
#
# Bulk Modulus (GPa) = 42.40083 55.65190 49.02636
# Shear Modulus (GPa) = 27.34310 34.00886 30.67598
#
# Velocity S-wave (km/s) = 3.55234 3.96175 3.76262
# Velocity P-wave (km/s) = 6.03274 6.82724 6.44225
#
# Compressibility (1/GPa) = 0.02358445
#
# Stress axis : x y z
#
# Youngs Moduli (GPa) = 39.04723 96.31296 93.43456
#
# Poissons Ratio (x) = 0.11245 0.74581
# Poissons Ratio (y) = 0.04559 0.22479
# Poissons Ratio (z) = 0.31168 0.23171
#
# Static dielectric constant tensor:
#      x y z
#    x 1.760410 0.014680 -0.000300 
#    y 0.014680 1.843040 -0.020730 
#    z -0.000300 -0.020730 1.756550 
# 
# From -- ./inp_files/71713.got.cif
#   From: 2010.05.17/outbox.cif.g08.bks.cpg/sg2_36_cif.got.tgz:71713.got - 2010.06.03 11:33:40.
