data_PCOD9049522
_publ_section_title
;
Structure prediction by ZEFSAII (Michael W. Deem and Ramdas Pophale) SiO2 
 PCOD9049522
Probable space group: P -1
;
_chemical_formula_sum "Si O2"
_cell_formula_units_Z 12
_cell_length_a 7.621439
_cell_length_b 12.401693
_cell_length_c 6.855594
_cell_angle_alpha 94.906381
_cell_angle_beta 90.706971
_cell_angle_gamma 135.736474
_cell_volume 448.078033
_symmetry_space_group_name_H-M "P -1"
_symmetry_group_IT_number 2
_symmetry_cell_setting 'triclinic'
loop_
_space_group_symop_operation_xyz
x,y,z
-x,-y,-z
loop_
_atom_site_type_symbol
_atom_site_label
_atom_site_fract_x
_atom_site_fract_y
_atom_site_fract_z
Si Si1 0.522038 0.811505 0.184497
Si Si2 0.775715 0.926528 0.833874
Si Si3 0.722682 0.505271 0.949341
Si Si4 0.998547 0.458692 0.713187
Si Si5 0.709437 0.660134 0.647981
Si Si6 0.216991 0.922771 0.493915
O O1 0.504171 0.673433 0.152813
O O2 0.256053 0.720631 0.269119
O O3 0.740982 0.957299 0.339397
O O4 0.552116 0.861620 0.969822
O O5 0.691667 0.782616 0.688162
O O6 0.843559 0.053809 0.712373
O O7 0.000000 0.000000 0.000000
O O8 0.708463 0.612663 0.861568
O O9 0.960417 0.551386 0.853133
O O10 0.779978 0.510805 0.177548
O O11 0.020517 0.243655 0.439830
O O12 0.000000 0.500000 0.500000
O O13 0.500000 0.500000 0.500000
O O14 0.500000 0.000000 0.500000
#
# Coordination Sequence:
#
# PCOD9049522 Si02
#       6
#     2   2   2   2   2   2
#     4  10  24  46  76 109 158 200 259 318 405 455
#     4  12  28  53  78 109 167 212 257 325 404 481
#     4   9  23  42  72 111 151 194 264 310 395 453
#     4   9  21  41  72 109 155 195 249 323 393 455
#     4  12  28  52  81 115 160 211 269 322 401 476
#     4  12  30  49  82 115 158 208 271 328 393 473
#
# _framework density 26.78105
#
# number of rings (size 3 to 8) (size 9 to 14) (size 15 to 20)
#    1.000    0.333    1.667    1.500    9.333    2.667 
#    3.000    0.833    0.000    0.000    0.000    0.000 
#    0.000    0.000    0.000    0.000    0.000    0.000 
#
# Total GULP energy -67123.943969 kJ/mol
# GULP energy per Si atom -5593.661997 kJ/mol
# Density = 2.672009 g / cm^3
# Si number density = 26.781050 Si / 1000 Ang^3
#
#
#
# Elastic Constant Matrix: (Units=GPa)
#
#
# Indices 1 2 3 4 5 6 
#
# 1 120.6611 49.7389 52.2695 -3.2562 14.7526 13.0227
# 2 49.7389 152.4592 59.8707 -4.2221 24.4486 23.8724
# 3 52.2695 59.8707 162.5474 -13.1433 10.3315 6.2349
# 4 -3.2562 -4.2221 -13.1433 29.2902 -0.9740 13.3651
# 5 14.7526 24.4486 10.3315 -0.9740 40.1459 -4.2108
# 6 13.0227 23.8724 6.2349 13.3651 -4.2108 52.0216
#
#
#
# Elastic Compliance Matrix: (Units=1/GPa)
#
#
# Indices 1 2 3 4 5 6 
#
# 1 0.010609 -0.001802 -0.002480 0.000583 -0.002345 -0.001871
# 2 -0.001802 0.009650 -0.002304 0.002112 -0.005059 -0.004653
# 3 -0.002480 -0.002304 0.008023 0.003018 0.000320 -0.000033
# 4 0.000583 0.002112 0.003018 0.041401 -0.002565 -0.012321
# 5 -0.002345 -0.005059 0.000320 -0.002565 0.029326 0.005903
# 6 -0.001871 -0.004653 -0.000033 -0.012321 0.005903 0.025474
#
#
# Mechanical properties :
#
#
# Convention : Reuss Voigt Hill
#
# Bulk Modulus (GPa) = 66.18038 84.38067 75.28052
# Shear Modulus (GPa) = 35.04035 42.54411 38.79223
#
# Velocity S-wave (km/s) = 3.62111 3.99004 3.81004
# Velocity P-wave (km/s) = 6.49989 7.26658 6.89390
#
# Compressibility (1/GPa) = 0.01511022
#
# Stress axis : x y z
#
# Youngs Moduli (GPa) = 94.25790 103.62488 124.63936
#
# Poissons Ratio (x) = 0.18675 0.30908
# Poissons Ratio (y) = 0.16987 0.28719
# Poissons Ratio (z) = 0.23374 0.23877
#
# Static dielectric constant tensor:
#      x y z
#    x 2.289400 0.034890 -0.135770 
#    y 0.034890 2.067480 0.021650 
#    z -0.135770 0.021650 2.112830 
# 
# From -- ./inp_files/28729.got.cif
#   From: 2010.05.17/outbox.cif.g08.bks.cpg/sg2_15_cif.got.tgz:28729.got - 2010.06.03 11:33:40.
