data_PCOD9049730
_publ_section_title
;
Structure prediction by ZEFSAII (Michael W. Deem and Ramdas Pophale) SiO2 
 PCOD9049730
Probable space group: P -1
;
_chemical_formula_sum "Si O2"
_cell_formula_units_Z 13
_cell_length_a 13.641869
_cell_length_b 8.394919
_cell_length_c 6.839993
_cell_angle_alpha 79.238918
_cell_angle_beta 63.392463
_cell_angle_gamma 47.528556
_cell_volume 508.592939
_symmetry_space_group_name_H-M "P -1"
_symmetry_group_IT_number 2
_symmetry_cell_setting 'triclinic'
loop_
_space_group_symop_operation_xyz
x,y,z
-x,-y,-z
loop_
_atom_site_type_symbol
_atom_site_label
_atom_site_fract_x
_atom_site_fract_y
_atom_site_fract_z
Si Si1 0.500000 0.000000 0.500000
Si Si2 0.847433 0.205428 0.999325
Si Si3 0.104660 0.424271 0.736183
Si Si4 0.647040 0.665872 0.218854
Si Si5 0.300804 0.761458 0.220636
Si Si6 0.436841 0.286848 0.123390
Si Si7 0.041863 0.207720 0.537066
O O1 0.507594 0.171361 0.572210
O O2 0.489247 0.104318 0.270859
O O3 0.755772 0.165327 0.971506
O O4 0.908109 0.261509 0.761384
O O5 0.742108 0.407681 0.192848
O O6 0.000000 0.000000 0.000000
O O7 0.269471 0.294559 0.707652
O O8 0.106714 0.277076 0.612366
O O9 0.028382 0.643554 0.629229
O O10 0.000000 0.500000 0.000000
O O11 0.654297 0.706059 0.975049
O O12 0.357139 0.520323 0.244919
O O13 0.166090 0.953352 0.429897
O O14 0.437786 0.746570 0.107688
#
# Coordination Sequence:
#
# PCOD9049730 Si02
#       7
#     1   2   2   2   2   2   2
#     4  12  28  42  80  98 140 196 242 290 356 416
#     4  11  24  44  73 106 143 185 231 305 359 428
#     4  11  25  44  70 107 143 183 233 304 360 427
#     4  11  26  45  69 103 146 179 245 290 358 423
#     4  10  24  47  72  98 153 179 243 288 362 433
#     4  10  26  50  68 107 138 196 236 305 343 431
#     4  11  25  42  75 106 139 192 235 292 372 427
#
# _framework density 25.560717
#
# number of rings (size 3 to 8) (size 9 to 14) (size 15 to 20)
#    0.000    1.231    1.538    1.846   10.769    0.000 
#    0.000    2.308    0.000    0.000    0.000    0.000 
#    0.000    0.000    0.000    0.000    0.000    0.000 
#
# Total GULP energy -72486.246151 kJ/mol
# GULP energy per Si atom -5575.865089 kJ/mol
# Density = 2.550254 g / cm^3
# Si number density = 25.560717 Si / 1000 Ang^3
#
#
#
# Elastic Constant Matrix: (Units=GPa)
#
#
# Indices 1 2 3 4 5 6 
#
# 1 57.4083 5.9037 16.3538 -9.8102 24.2254 3.6825
# 2 5.9037 134.5237 68.5114 19.3905 24.3768 -1.2256
# 3 16.3538 68.5114 127.3452 5.5277 29.4002 7.8662
# 4 -9.8102 19.3905 5.5277 68.8787 -3.2497 16.8611
# 5 24.2254 24.3768 29.4002 -3.2497 45.4605 1.1965
# 6 3.6825 -1.2256 7.8662 16.8611 1.1965 20.8561
#
#
#
# Elastic Compliance Matrix: (Units=1/GPa)
#
#
# Indices 1 2 3 4 5 6 
#
# 1 0.023837 0.000683 -0.000341 0.004317 -0.012360 -0.006821
# 2 0.000683 0.011678 -0.005805 -0.004494 -0.003366 0.006581
# 3 -0.000341 -0.005805 0.012332 0.001914 -0.004381 -0.006228
# 4 0.004317 -0.004494 0.001914 0.020851 0.000854 -0.018654
# 5 -0.012360 -0.003366 -0.004381 0.000854 0.033255 0.001039
# 6 -0.006821 0.006581 -0.006228 -0.018654 0.001039 0.066909
#
#
# Mechanical properties :
#
#
# Convention : Reuss Voigt Hill
#
# Bulk Modulus (GPa) = 27.08447 55.64612 41.36530
# Shear Modulus (GPa) = 26.02875 42.27294 34.15084
#
# Velocity S-wave (km/s) = 3.19456 4.07114 3.65919
# Velocity P-wave (km/s) = 4.92200 6.62694 5.83705
#
# Compressibility (1/GPa) = 0.03692152
#
# Stress axis : x y z
#
# Youngs Moduli (GPa) = 41.95178 85.63401 81.08813
#
# Poissons Ratio (x) = -0.05849 0.02766
# Poissons Ratio (y) = -0.02865 0.47068
# Poissons Ratio (z) = 0.01431 0.49706
#
# Static dielectric constant tensor:
#      x y z
#    x 1.861300 0.175680 0.144720 
#    y 0.175680 1.723230 -0.188420 
#    z 0.144720 -0.188420 1.832170 
# 
# From -- ./inp_files/88729.got.cif
#   From: 2010.05.17/outbox.cif.g08.bks.cpg/sg2_45_cif.got.tgz:88729.got - 2010.06.03 11:33:40.
