data_PCOD9049344
_publ_section_title
;
Structure prediction by ZEFSAII (Michael W. Deem and Ramdas Pophale) SiO2 
 PCOD9049344
Probable space group: P -1
;
_chemical_formula_sum "Si O2"
_cell_formula_units_Z 12
_cell_length_a 7.231811
_cell_length_b 13.030492
_cell_length_c 9.297512
_cell_angle_alpha 133.650127
_cell_angle_beta 108.675996
_cell_angle_gamma 104.002281
_cell_volume 442.869444
_symmetry_space_group_name_H-M "P -1"
_symmetry_group_IT_number 2
_symmetry_cell_setting 'triclinic'
loop_
_space_group_symop_operation_xyz
x,y,z
-x,-y,-z
loop_
_atom_site_type_symbol
_atom_site_label
_atom_site_fract_x
_atom_site_fract_y
_atom_site_fract_z
Si Si1 0.186222 0.452278 0.028399
Si Si2 0.548229 0.717981 0.634139
Si Si3 0.078030 0.960374 0.332395
Si Si4 0.423383 0.998555 0.244253
Si Si5 0.002021 0.225605 0.496830
Si Si6 0.920193 0.640609 0.667227
O O1 0.573199 0.386187 0.652649
O O2 0.215953 0.397325 0.825550
O O3 0.000000 0.500000 0.000000
O O4 0.072046 0.262109 0.905841
O O5 0.630597 0.918798 0.821315
O O6 0.304520 0.578076 0.548136
O O7 0.022762 0.068061 0.320024
O O8 0.000000 0.000000 0.500000
O O9 0.361481 0.045321 0.425678
O O10 0.776126 0.721670 0.739062
O O11 0.723963 0.105237 0.396502
O O12 0.200141 0.770008 0.943961
O O13 0.024726 0.326449 0.456015
#
# Coordination Sequence:
#
# PCOD9049344 Si02
#       6
#     2   2   2   2   2   2
#     4  11  23  48  70 108 146 191 244 306 366 427
#     4  11  24  45  75 102 148 198 240 306 360 438
#     4  10  24  46  72 108 145 194 245 295 371 436
#     4  12  23  47  76 104 154 192 241 307 370 438
#     4  11  25  44  78 111 145 194 250 300 372 445
#     4  11  25  46  72 111 147 198 246 299 374 440
#
# _framework density 27.096022000000001
#
# number of rings (size 3 to 8) (size 9 to 14) (size 15 to 20)
#    0.000    1.000    5.000    1.000    0.000    4.000 
#    0.000    1.667    0.000    0.000    0.000    0.000 
#    0.000    0.000    0.000    0.000    0.000    0.000 
#
# Total GULP energy -67079.696398 kJ/mol
# GULP energy per Si atom -5589.974700 kJ/mol
# Density = 2.703435 g / cm^3
# Si number density = 27.096022 Si / 1000 Ang^3
#
#
#
# Elastic Constant Matrix: (Units=GPa)
#
#
# Indices 1 2 3 4 5 6 
#
# 1 173.3308 41.0257 40.9019 8.1364 -1.7203 7.5592
# 2 41.0257 116.7590 38.0717 1.1552 -13.9627 27.6256
# 3 40.9019 38.0717 104.4273 -12.7705 -0.6033 14.4087
# 4 8.1364 1.1552 -12.7705 56.1836 -5.5953 -4.9876
# 5 -1.7203 -13.9627 -0.6033 -5.5953 38.1415 8.8753
# 6 7.5592 27.6256 14.4087 -4.9876 8.8753 70.5632
#
#
#
# Elastic Compliance Matrix: (Units=1/GPa)
#
#
# Indices 1 2 3 4 5 6 
#
# 1 0.006772 -0.001824 -0.002232 -0.001484 -0.000715 0.000430
# 2 -0.001824 0.011895 -0.003034 -0.000555 0.005198 -0.004535
# 3 -0.002232 -0.003034 0.012028 0.003012 -0.000401 -0.000766
# 4 -0.001484 -0.000555 0.003012 0.019018 0.002380 0.000806
# 5 -0.000715 0.005198 -0.000401 0.002380 0.029698 -0.005444
# 6 0.000430 -0.004535 -0.000766 0.000806 -0.005444 0.016799
#
#
# Mechanical properties :
#
#
# Convention : Reuss Voigt Hill
#
# Bulk Modulus (GPa) = 60.55511 70.50175 65.52843
# Shear Modulus (GPa) = 43.14211 51.27884 47.21048
#
# Velocity S-wave (km/s) = 3.99456 4.35499 4.17866
# Velocity P-wave (km/s) = 6.60849 7.16684 6.89332
#
# Compressibility (1/GPa) = 0.01651388
#
# Stress axis : x y z
#
# Youngs Moduli (GPa) = 147.67623 84.06846 83.13797
#
# Poissons Ratio (x) = 0.15334 0.18557
# Poissons Ratio (y) = 0.26936 0.25227
# Poissons Ratio (z) = 0.32963 0.25509
#
# Static dielectric constant tensor:
#      x y z
#    x 2.122390 -0.019470 -0.016350 
#    y -0.019470 2.142860 -0.035050 
#    z -0.016350 -0.035050 2.137000 
# 
# From -- ./inp_files/204288.got.cif
#   From: 2010.05.17/outbox.cif.g08.bks.cpg/sg2_103_cif.got.tgz:204288.got - 2010.06.03 11:33:40.
