data_PCOD9049838
_publ_section_title
;
Structure prediction by ZEFSAII (Michael W. Deem and Ramdas Pophale) SiO2 
 PCOD9049838
Probable space group: P -1
;
_chemical_formula_sum "Si O2"
_cell_formula_units_Z 16
_cell_length_a 11.719261
_cell_length_b 11.606556
_cell_length_c 5.593168
_cell_angle_alpha 105.723088
_cell_angle_beta 90.129954
_cell_angle_gamma 120.108054
_cell_volume 624.727732
_symmetry_space_group_name_H-M "P -1"
_symmetry_group_IT_number 2
_symmetry_cell_setting 'triclinic'
loop_
_space_group_symop_operation_xyz
x,y,z
-x,-y,-z
loop_
_atom_site_type_symbol
_atom_site_label
_atom_site_fract_x
_atom_site_fract_y
_atom_site_fract_z
Si Si1 0.891096 0.534271 0.921636
Si Si2 0.619921 0.760101 0.094735
Si Si3 0.810861 0.693470 0.361234
Si Si4 0.578530 0.429695 0.367655
Si Si5 0.228567 0.881931 0.385772
Si Si6 0.837961 0.931097 0.779747
Si Si7 0.080141 0.794668 0.845990
Si Si8 0.603187 0.248641 0.655066
O O1 0.743020 0.394806 0.819923
O O2 0.961256 0.633613 0.748616
O O3 0.886959 0.650491 0.155023
O O4 0.000000 0.500000 0.000000
O O5 0.699539 0.711748 0.233338
O O6 0.535422 0.823554 0.237590
O O7 0.487507 0.622286 0.917437
O O8 0.722847 0.843812 0.926948
O O9 0.728762 0.555273 0.439906
O O10 0.883706 0.834536 0.595937
O O11 0.500000 0.500000 0.500000
O O12 0.565450 0.301801 0.445905
O O13 0.144914 0.828560 0.603027
O O14 0.350957 0.862036 0.428827
O O15 0.228073 0.022434 0.402242
O O16 0.175282 0.806628 0.079008
O O17 0.941511 0.080399 0.986286
#
# Coordination Sequence:
#
# PCOD9049838 Si02
#       8
#     2   2   2   2   2   2   2   2
#     4  12  26  48  74 111 149 199 250 316 380 454
#     4  12  23  45  72 112 149 192 250 310 383 449
#     4  12  25  44  75 110 152 193 252 311 382 455
#     4  12  23  40  69 112 149 191 245 310 386 450
#     4  10  25  49  75 107 153 199 256 307 372 442
#     4  10  24  47  76 106 150 201 254 308 374 448
#     4  10  25  50  72 106 153 201 256 307 364 453
#     4  12  26  43  77 111 152 197 246 318 383 452
#
# _framework density 25.611159000000001
#
# number of rings (size 3 to 8) (size 9 to 14) (size 15 to 20)
#    0.750    0.000    5.000    1.875    3.500    2.500 
#    0.000    4.375    0.000    0.000    0.000    0.000 
#    0.000    0.000    0.000    0.000    0.000    0.000 
#
# Total GULP energy -89267.742265 kJ/mol
# GULP energy per Si atom -5579.233892 kJ/mol
# Density = 2.555287 g / cm^3
# Si number density = 25.611159 Si / 1000 Ang^3
#
#
#
# Elastic Constant Matrix: (Units=GPa)
#
#
# Indices 1 2 3 4 5 6 
#
# 1 121.5438 27.6379 51.0835 11.9929 -0.2035 -19.6194
# 2 27.6379 114.4549 33.8087 -1.2871 -6.8169 -11.5724
# 3 51.0835 33.8087 95.1266 5.1908 10.5371 -9.9133
# 4 11.9929 -1.2871 5.1908 44.6543 12.8506 -4.3662
# 5 -0.2035 -6.8169 10.5371 12.8506 50.8069 2.5841
# 6 -19.6194 -11.5724 -9.9133 -4.3662 2.5841 36.6803
#
#
#
# Elastic Compliance Matrix: (Units=1/GPa)
#
#
# Indices 1 2 3 4 5 6 
#
# 1 0.011661 -0.000675 -0.005630 -0.002546 0.001560 0.004090
# 2 -0.000675 0.010176 -0.003286 0.000519 0.001817 0.001895
# 3 -0.005630 -0.003286 0.015126 0.000799 -0.003823 0.000404
# 4 -0.002546 0.000519 0.000799 0.025139 -0.006590 0.002475
# 5 0.001560 0.001817 -0.003823 -0.006590 0.022494 -0.001995
# 6 0.004090 0.001895 0.000404 0.002475 -0.001995 0.030592
#
#
# Mechanical properties :
#
#
# Convention : Reuss Voigt Hill
#
# Bulk Modulus (GPa) = 56.24065 61.79838 59.01951
# Shear Modulus (GPa) = 35.63866 41.00131 38.31999
#
# Velocity S-wave (km/s) = 3.73437 4.00549 3.87230
# Velocity P-wave (km/s) = 6.37190 6.75083 6.56410
#
# Compressibility (1/GPa) = 0.01778073
#
# Stress axis : x y z
#
# Youngs Moduli (GPa) = 85.75508 98.26586 66.11341
#
# Poissons Ratio (x) = 0.06634 0.37220
# Poissons Ratio (y) = 0.05789 0.21727
# Poissons Ratio (z) = 0.48278 0.32293
#
# Static dielectric constant tensor:
#      x y z
#    x 2.141890 0.007440 -0.080850 
#    y 0.007440 1.940000 -0.027100 
#    z -0.080850 -0.027100 2.170780 
# 
# From -- ./inp_files/71848.got.cif
#   From: 2010.05.17/outbox.cif.g08.bks.cpg/sg2_36_cif.got.tgz:71848.got - 2010.06.03 11:33:40.
