data_PCOD9049023
_publ_section_title
;
Structure prediction by ZEFSAII (Michael W. Deem and Ramdas Pophale) SiO2 
 PCOD9049023
Probable space group: P -1
;
_chemical_formula_sum "Si O2"
_cell_formula_units_Z 16
_cell_length_a 27.847545
_cell_length_b 12.698831
_cell_length_c 6.475078
_cell_angle_alpha 135.590932
_cell_angle_beta 127.465020
_cell_angle_gamma 25.241640
_cell_volume 677.770822
_symmetry_space_group_name_H-M "P -1"
_symmetry_group_IT_number 2
_symmetry_cell_setting 'triclinic'
loop_
_space_group_symop_operation_xyz
x,y,z
-x,-y,-z
loop_
_atom_site_type_symbol
_atom_site_label
_atom_site_fract_x
_atom_site_fract_y
_atom_site_fract_z
Si Si1 0.419971 0.196135 0.259943
Si Si2 0.925748 0.254372 0.819973
Si Si3 0.275919 0.757303 0.215061
Si Si4 0.247412 0.239521 0.246940
Si Si5 0.938274 0.745061 0.884867
Si Si6 0.859749 0.843816 0.227082
Si Si7 0.494548 0.764744 0.137389
Si Si8 0.216171 0.566286 0.953330
O O1 0.448052 0.291727 0.583320
O O2 0.445708 0.011278 0.231132
O O3 0.299279 0.432059 0.171778
O O4 0.500000 0.000000 0.000000
O O5 0.815654 0.545504 0.810185
O O6 0.999547 0.247367 0.049454
O O7 0.895131 0.235749 0.926537
O O8 0.000000 0.000000 0.500000
O O9 0.247729 0.873416 0.532101
O O10 0.402180 0.515086 0.122524
O O11 0.238705 0.659219 0.987403
O O12 0.182156 0.038267 0.226019
O O13 0.244497 0.359046 0.601237
O O14 0.378861 0.920034 0.099172
O O15 0.175239 0.239940 0.086711
O O16 0.903683 0.862801 0.194019
O O17 0.033880 0.417026 0.710264
#
# Coordination Sequence:
#
# PCOD9049023 Si02
#       8
#     2   2   2   2   2   2   2   2
#     4  11  20  39  64  96 134 176 204 255 334 390
#     4  11  24  39  67  99 133 165 219 280 317 379
#     4  12  25  39  70 101 128 173 218 268 322 390
#     4  11  24  44  64  99 131 173 219 264 325 387
#     4  10  24  46  66  90 131 176 225 261 325 387
#     4  10  25  47  68  88 133 180 217 268 326 381
#     4  11  23  38  67  99 131 168 215 265 320 395
#     4  12  24  39  70 100 133 168 214 267 330 382
#
# _framework density 23.6068
#
# number of rings (size 3 to 8) (size 9 to 14) (size 15 to 20)
#    0.000    1.000    3.750    2.625    3.500    7.500 
#    0.000    0.625    0.000    0.000    0.000    0.000 
#    0.000    0.000    0.000    0.000    0.000    0.000 
#
# Total GULP energy -89374.061322 kJ/mol
# GULP energy per Si atom -5585.878833 kJ/mol
# Density = 2.355307 g / cm^3
# Si number density = 23.606800 Si / 1000 Ang^3
#
#
#
# Elastic Constant Matrix: (Units=GPa)
#
#
# Indices 1 2 3 4 5 6 
#
# 1 91.9344 24.3784 17.0791 8.9759 -11.8735 -22.7025
# 2 24.3784 131.5721 26.7091 -13.3823 -8.3043 -29.2986
# 3 17.0791 26.7091 90.0336 18.2398 -2.3725 -19.0694
# 4 8.9759 -13.3823 18.2398 30.1165 -16.7410 -11.0159
# 5 -11.8735 -8.3043 -2.3725 -16.7410 31.7828 7.0692
# 6 -22.7025 -29.2986 -19.0694 -11.0159 7.0692 35.1229
#
#
#
# Elastic Compliance Matrix: (Units=1/GPa)
#
#
# Indices 1 2 3 4 5 6 
#
# 1 0.013365 -0.000114 -0.001120 0.001710 0.004079 0.007651
# 2 -0.000114 0.014599 -0.005435 0.021132 0.011502 0.013466
# 3 -0.001120 -0.005435 0.016191 -0.017278 -0.009748 0.000076
# 4 0.001710 0.021132 -0.017278 0.087657 0.044855 0.027817
# 5 0.004079 0.011502 -0.009748 0.044855 0.056760 0.009583
# 6 0.007651 0.013466 0.000076 0.027817 0.009583 0.051487
#
#
# Mechanical properties :
#
#
# Convention : Reuss Voigt Hill
#
# Bulk Modulus (GPa) = 32.44933 49.98592 41.21763
# Shear Modulus (GPa) = 18.96314 35.76268 27.36291
#
# Velocity S-wave (km/s) = 2.83731 3.89643 3.40827
# Velocity P-wave (km/s) = 4.95070 6.43920 5.74337
#
# Compressibility (1/GPa) = 0.03081727
#
# Stress axis : x y z
#
# Youngs Moduli (GPa) = 74.82380 68.49929 61.76161
#
# Poissons Ratio (x) = 0.00779 0.06917
# Poissons Ratio (y) = 0.00851 0.33567
# Poissons Ratio (z) = 0.08380 0.37229
#
# Static dielectric constant tensor:
#      x y z
#    x 1.932910 -0.012950 -0.025920 
#    y -0.012950 1.890390 0.034410 
#    z -0.025920 0.034410 1.898810 
# 
# From -- ./inp_files/126952.got.cif
#   From: 2010.05.17/outbox.cif.g08.bks.cpg/sg2_64_cif.got.tgz:126952.got - 2010.06.03 11:33:40.
