data_PCOD9049276
_publ_section_title
;
Structure prediction by ZEFSAII (Michael W. Deem and Ramdas Pophale) SiO2 
 PCOD9049276
Probable space group: P -1
;
_chemical_formula_sum "Si O2"
_cell_formula_units_Z 16
_cell_length_a 11.258465
_cell_length_b 13.590771
_cell_length_c 14.033247
_cell_angle_alpha 133.036295
_cell_angle_beta 32.352082
_cell_angle_gamma 112.969106
_cell_volume 738.473265
_symmetry_space_group_name_H-M "P -1"
_symmetry_group_IT_number 2
_symmetry_cell_setting 'triclinic'
loop_
_space_group_symop_operation_xyz
x,y,z
-x,-y,-z
loop_
_atom_site_type_symbol
_atom_site_label
_atom_site_fract_x
_atom_site_fract_y
_atom_site_fract_z
Si Si1 0.960866 0.898466 0.748582
Si Si2 0.807645 0.095437 0.609724
Si Si3 0.765162 0.731175 0.640154
Si Si4 0.103853 0.318796 0.817008
Si Si5 0.563545 0.909571 0.713439
Si Si6 0.545933 0.441348 0.320683
Si Si7 0.544912 0.307147 0.602435
Si Si8 0.308898 0.568736 0.089164
O O1 0.832422 0.792570 0.731878
O O2 0.070633 0.927444 0.593693
O O3 0.192287 0.811061 0.606410
O O4 0.729943 0.044493 0.050871
O O5 0.703631 0.271423 0.823413
O O6 0.597924 0.040883 0.723111
O O7 0.000000 0.000000 0.500000
O O8 0.656264 0.875500 0.737029
O O9 0.591293 0.651048 0.690815
O O10 0.035019 0.607418 0.336178
O O11 0.232837 0.240992 0.579002
O O12 0.343918 0.246752 0.677159
O O13 0.000000 0.500000 0.000000
O O14 0.844763 0.322312 0.023867
O O15 0.500000 0.500000 0.500000
O O16 0.443247 0.601449 0.438103
O O17 0.404091 0.446371 0.862216
O O18 0.500000 0.500000 0.000000
#
# Coordination Sequence:
#
# PCOD9049276 Si02
#       8
#     2   2   2   2   2   2   2   2
#     4  11  26  43  68 109 144 186 234 302 370 426
#     4  11  24  42  69 105 146 194 230 287 367 427
#     4  11  22  40  68 105 142 184 234 299 353 425
#     4  10  24  46  71  96 133 195 241 292 356 426
#     4  12  25  43  70 102 147 189 245 294 353 441
#     4  11  24  42  73 102 137 187 246 297 352 427
#     4  11  23  46  69 101 146 185 243 299 357 427
#     4  11  21  42  70 102 147 183 229 296 362 424
#
# _framework density 21.666322000000001
#
# number of rings (size 3 to 8) (size 9 to 14) (size 15 to 20)
#    0.000    1.000    5.000    4.125    3.500    2.000 
#    2.250    0.625    0.000    0.000    0.000    0.000 
#    0.000    0.000    0.000    0.000    0.000    0.000 
#
# Total GULP energy -89296.467416 kJ/mol
# GULP energy per Si atom -5581.029214 kJ/mol
# Density = 2.161701 g / cm^3
# Si number density = 21.666322 Si / 1000 Ang^3
#
#
#
# Elastic Constant Matrix: (Units=GPa)
#
#
# Indices 1 2 3 4 5 6 
#
# 1 130.3022 30.1724 56.3020 -10.7959 -28.1668 -15.7523
# 2 30.1724 66.2952 20.8042 -20.5013 -25.5296 0.0964
# 3 56.3020 20.8042 154.0984 -16.1250 -14.8833 -8.5781
# 4 -10.7959 -20.5013 -16.1250 27.0390 0.3815 -4.5033
# 5 -28.1668 -25.5296 -14.8833 0.3815 48.0952 -2.5898
# 6 -15.7523 0.0964 -8.5781 -4.5033 -2.5898 36.3554
#
#
#
# Elastic Compliance Matrix: (Units=1/GPa)
#
#
# Indices 1 2 3 4 5 6 
#
# 1 0.011129 -0.001499 -0.002863 0.002327 0.005076 0.004800
# 2 -0.001499 0.027308 0.000523 0.020715 0.013774 0.002949
# 3 -0.002863 0.000523 0.008094 0.004277 0.001141 0.001279
# 4 0.002327 0.020715 0.004277 0.057656 0.013768 0.010085
# 5 0.005076 0.013774 0.001141 0.013768 0.031664 0.006393
# 6 0.004800 0.002949 0.001279 0.010085 0.006393 0.031585
#
#
# Mechanical properties :
#
#
# Convention : Reuss Voigt Hill
#
# Bulk Modulus (GPa) = 25.73790 62.80589 44.27189
# Shear Modulus (GPa) = 26.58666 38.52575 32.55620
#
# Velocity S-wave (km/s) = 3.50679 4.22137 3.88057
# Velocity P-wave (km/s) = 5.31994 7.26710 6.36838
#
# Compressibility (1/GPa) = 0.03885321
#
# Stress axis : x y z
#
# Youngs Moduli (GPa) = 89.85562 36.61904 123.55430
#
# Poissons Ratio (x) = 0.05490 0.35370
# Poissons Ratio (y) = 0.13471 -0.06464
# Poissons Ratio (z) = 0.25723 -0.01916
#
# Static dielectric constant tensor:
#      x y z
#    x 1.798470 0.088320 -0.040890 
#    y 0.088320 1.826110 -0.005590 
#    z -0.040890 -0.005590 1.782650 
# 
# From -- ./inp_files/522405.got.cif
#   From: 2010.05.17/outbox.cif.g08.bks.cpg/sg2_262_cif.got.tgz:522405.got - 2010.06.03 11:33:40.
