data_PCOD9049575
_publ_section_title
;
Structure prediction by ZEFSAII (Michael W. Deem and Ramdas Pophale) SiO2 
 PCOD9049575
Probable space group: P -1
;
_chemical_formula_sum "Si O2"
_cell_formula_units_Z 16
_cell_length_a 5.957236
_cell_length_b 11.345896
_cell_length_c 11.225241
_cell_angle_alpha 63.372438
_cell_angle_beta 106.864128
_cell_angle_gamma 100.951949
_cell_volume 647.481542
_symmetry_space_group_name_H-M "P -1"
_symmetry_group_IT_number 2
_symmetry_cell_setting 'triclinic'
loop_
_space_group_symop_operation_xyz
x,y,z
-x,-y,-z
loop_
_atom_site_type_symbol
_atom_site_label
_atom_site_fract_x
_atom_site_fract_y
_atom_site_fract_z
Si Si1 0.463974 0.807594 0.992194
Si Si2 0.708924 0.402262 0.591391
Si Si3 0.402791 0.515104 0.111027
Si Si4 0.715408 0.937041 0.759783
Si Si5 0.830561 0.938909 0.155678
Si Si6 0.128342 0.271190 0.295238
Si Si7 0.595026 0.836359 0.395234
Si Si8 0.142287 0.569537 0.662231
O O1 0.332361 0.664237 0.047923
O O2 0.695437 0.831025 0.099908
O O3 0.560531 0.832428 0.862236
O O4 0.300687 0.926218 0.939737
O O5 0.500000 0.500000 0.500000
O O6 0.582840 0.261180 0.664587
O O7 0.832851 0.383696 0.491006
O O8 0.909093 0.469623 0.675788
O O9 0.216395 0.396960 0.172130
O O10 0.626595 0.499845 0.237222
O O11 0.500000 0.500000 0.000000
O O12 0.865066 0.858592 0.724867
O O13 0.543425 0.041520 0.634940
O O14 0.895954 0.021389 0.835656
O O15 0.792070 0.888988 0.308427
O O16 0.304808 0.244895 0.443848
O O17 0.894279 0.310694 0.307489
#
# Coordination Sequence:
#
# PCOD9049575 Si02
#       8
#     2   2   2   2   2   2   2   2
#     4  10  24  47  65  99 132 182 235 288 336 403
#     4  11  23  46  68 104 145 173 233 288 351 417
#     4  12  26  45  71  97 145 184 233 290 347 411
#     4  11  25  45  70  96 138 188 232 279 341 418
#     4  10  25  43  71  96 134 182 233 285 341 406
#     4  12  26  46  67 107 141 177 233 289 351 418
#     4  11  25  42  70 102 139 178 223 294 350 411
#     4  11  26  40  73 102 137 190 220 291 353 417
#
# _framework density 24.711127999999999
#
# number of rings (size 3 to 8) (size 9 to 14) (size 15 to 20)
#    0.000    1.000    3.750    0.750    8.750    2.000 
#    0.000    0.000    0.000    0.000    0.000    0.000 
#    0.000    0.000    0.000    0.000    0.000    0.000 
#
# Total GULP energy -89610.544316 kJ/mol
# GULP energy per Si atom -5600.659020 kJ/mol
# Density = 2.465488 g / cm^3
# Si number density = 24.711128 Si / 1000 Ang^3
#
#
#
# Elastic Constant Matrix: (Units=GPa)
#
#
# Indices 1 2 3 4 5 6 
#
# 1 47.4878 8.5944 1.5328 -8.0863 -10.6214 3.4217
# 2 8.5944 108.9712 24.3004 -14.5581 -14.5717 -9.6338
# 3 1.5328 24.3004 65.5450 -9.4228 -15.4519 1.8172
# 4 -8.0863 -14.5581 -9.4228 38.6202 4.1304 -1.2911
# 5 -10.6214 -14.5717 -15.4519 4.1304 32.1023 4.9612
# 6 3.4217 -9.6338 1.8172 -1.2911 4.9612 44.7357
#
#
#
# Elastic Compliance Matrix: (Units=1/GPa)
#
#
# Indices 1 2 3 4 5 6 
#
# 1 0.024027 -0.001004 0.002539 0.004249 0.008632 -0.002992
# 2 -0.001004 0.010865 -0.003087 0.002958 0.002368 0.002365
# 3 0.002539 -0.003087 0.018844 0.002973 0.008510 -0.002482
# 4 0.004249 0.002958 0.002973 0.028619 0.000346 0.000979
# 5 0.008632 0.002368 0.008510 0.000346 0.039892 -0.004910
# 6 -0.002992 0.002365 -0.002482 0.000979 -0.004910 0.023765
#
#
# Mechanical properties :
#
#
# Convention : Reuss Voigt Hill
#
# Bulk Modulus (GPa) = 19.74982 32.31771 26.03376
# Shear Modulus (GPa) = 30.12162 35.59676 32.85919
#
# Velocity S-wave (km/s) = 3.49513 3.79953 3.65051
# Velocity P-wave (km/s) = 4.92926 5.68816 5.32225
#
# Compressibility (1/GPa) = 0.05063337
#
# Stress axis : x y z
#
# Youngs Moduli (GPa) = 41.61904 92.03741 53.06689
#
# Poissons Ratio (x) = 0.09239 -0.13473
# Poissons Ratio (y) = 0.04178 0.16381
# Poissons Ratio (z) = -0.10567 0.28410
#
# Static dielectric constant tensor:
#      x y z
#    x 1.944650 0.009610 -0.003400 
#    y 0.009610 1.961050 0.033130 
#    z -0.003400 0.033130 1.972630 
# 
# From -- ./inp_files/69869.got.cif
#   From: 2010.05.17/outbox.cif.g08.bks.cpg/sg2_35_cif.got.tgz:69869.got - 2010.06.03 11:33:40.
