data_PCOD9049834
_publ_section_title
;
Structure prediction by ZEFSAII (Michael W. Deem and Ramdas Pophale) SiO2 
 PCOD9049834
Probable space group: P -1
;
_chemical_formula_sum "Si O2"
_cell_formula_units_Z 16
_cell_length_a 13.738697
_cell_length_b 15.383065
_cell_length_c 5.491020
_cell_angle_alpha 113.283428
_cell_angle_beta 97.428801
_cell_angle_gamma 40.183381
_cell_volume 657.964980
_symmetry_space_group_name_H-M "P -1"
_symmetry_group_IT_number 2
_symmetry_cell_setting 'triclinic'
loop_
_space_group_symop_operation_xyz
x,y,z
-x,-y,-z
loop_
_atom_site_type_symbol
_atom_site_label
_atom_site_fract_x
_atom_site_fract_y
_atom_site_fract_z
Si Si1 0.855255 0.036759 0.019850
Si Si2 0.043163 0.078410 0.573882
Si Si3 0.847424 0.577706 0.682437
Si Si4 0.445025 0.138053 0.403125
Si Si5 0.909271 0.359441 0.773232
Si Si6 0.482770 0.625096 0.630627
Si Si7 0.246862 0.182483 0.763850
Si Si8 0.400821 0.366787 0.821787
O O1 0.699140 0.209744 0.226347
O O2 0.895323 0.941683 0.159282
O O3 0.841348 0.001666 0.709424
O O4 0.000000 0.000000 0.000000
O O5 0.896022 0.256090 0.650907
O O6 0.000000 0.000000 0.500000
O O7 0.676288 0.723040 0.669101
O O8 0.874963 0.449272 0.627319
O O9 0.000000 0.500000 0.500000
O O10 0.826960 0.662756 0.000453
O O11 0.342317 0.134189 0.495889
O O12 0.471156 0.207769 0.668775
O O13 0.614103 0.968448 0.193985
O O14 0.093849 0.234594 0.744973
O O15 0.790033 0.490651 0.079100
O O16 0.500000 0.500000 0.500000
O O17 0.543402 0.621214 0.388759
O O18 0.558973 0.611978 0.886419
#
# Coordination Sequence:
#
# PCOD9049834 Si02
#       8
#     2   2   2   2   2   2   2   2
#     4  10  24  47  76 102 148 194 256 311 389 455
#     4  10  25  45  75 109 150 197 259 321 379 461
#     4  12  23  46  74 109 151 207 257 322 390 474
#     4  11  25  48  71 106 157 193 257 321 394 459
#     4  12  26  47  77 109 153 206 269 311 400 466
#     4  12  29  49  78 111 154 201 257 325 396 458
#     4  11  25  46  73 108 150 202 254 323 392 467
#     4  12  28  48  77 112 155 200 262 319 391 469
#
# _framework density 24.317405000000001
#
# number of rings (size 3 to 8) (size 9 to 14) (size 15 to 20)
#    0.000    0.750    2.500    3.375   10.500    2.000 
#    0.000    0.000    0.000    0.000    0.000    0.000 
#    0.000    0.000    0.000    0.000    0.000    0.000 
#
# Total GULP energy -89435.728127 kJ/mol
# GULP energy per Si atom -5589.733008 kJ/mol
# Density = 2.426206 g / cm^3
# Si number density = 24.317405 Si / 1000 Ang^3
#
#
#
# Elastic Constant Matrix: (Units=GPa)
#
#
# Indices 1 2 3 4 5 6 
#
# 1 94.6001 60.8468 43.0514 1.0015 -17.3303 1.2354
# 2 60.8468 183.2097 51.3622 10.7764 -20.9391 15.6946
# 3 43.0514 51.3622 122.4888 -9.6465 -29.6678 7.6773
# 4 1.0015 10.7764 -9.6465 52.8556 -0.3613 -1.1514
# 5 -17.3303 -20.9391 -29.6678 -0.3613 46.7459 10.4751
# 6 1.2354 15.6946 7.6773 -1.1514 10.4751 51.7383
#
#
#
# Elastic Compliance Matrix: (Units=1/GPa)
#
#
# Indices 1 2 3 4 5 6 
#
# 1 0.014845 -0.003931 -0.003295 -0.000049 0.001419 0.001038
# 2 -0.003931 0.007656 -0.001439 -0.001790 0.001577 -0.002374
# 3 -0.003295 -0.001439 0.011767 0.002493 0.006164 -0.002423
# 4 -0.000049 -0.001790 0.002493 0.019756 0.000814 0.000449
# 5 0.001419 0.001577 0.006164 0.000814 0.028135 -0.007105
# 6 0.001038 -0.002374 -0.002423 0.000449 -0.007105 0.021832
#
#
# Mechanical properties :
#
#
# Convention : Reuss Voigt Hill
#
# Bulk Modulus (GPa) = 59.03501 78.97992 69.00747
# Shear Modulus (GPa) = 39.38078 46.60382 42.99230
#
# Velocity S-wave (km/s) = 4.02860 4.38251 4.20928
# Velocity P-wave (km/s) = 6.78005 7.62613 7.21550
#
# Compressibility (1/GPa) = 0.01693910
#
# Stress axis : x y z
#
# Youngs Moduli (GPa) = 67.36155 130.61701 84.98606
#
# Poissons Ratio (x) = 0.51340 0.28001
# Poissons Ratio (y) = 0.26477 0.12230
# Poissons Ratio (z) = 0.22194 0.18796
#
# Static dielectric constant tensor:
#      x y z
#    x 2.026950 -0.012940 0.100330 
#    y -0.012940 2.030630 -0.047190 
#    z 0.100330 -0.047190 1.999410 
# 
# From -- ./inp_files/98451.got.cif
#   From: 2010.05.17/outbox.cif.g08.bks.cpg/sg2_50_cif.got.tgz:98451.got - 2010.06.03 11:33:40.
