data_PCOD9049320
_publ_section_title
;
Structure prediction by ZEFSAII (Michael W. Deem and Ramdas Pophale) SiO2 
 PCOD9049320
Probable space group: P -1
;
_chemical_formula_sum "Si O2"
_cell_formula_units_Z 13
_cell_length_a 7.724394
_cell_length_b 5.479207
_cell_length_c 14.997907
_cell_angle_alpha 72.045845
_cell_angle_beta 59.544846
_cell_angle_gamma 61.115840
_cell_volume 477.418821
_symmetry_space_group_name_H-M "P -1"
_symmetry_group_IT_number 2
_symmetry_cell_setting 'triclinic'
loop_
_space_group_symop_operation_xyz
x,y,z
-x,-y,-z
loop_
_atom_site_type_symbol
_atom_site_label
_atom_site_fract_x
_atom_site_fract_y
_atom_site_fract_z
Si Si1 0.159868 0.689296 0.612922
Si Si2 0.713323 0.231646 0.996896
Si Si3 0.980918 0.068949 0.776380
Si Si4 0.462658 0.883856 0.399018
Si Si5 0.701101 0.793349 0.186425
Si Si6 0.000000 0.500000 0.000000
Si Si7 0.827826 0.559471 0.619842
O O1 0.264786 0.857517 0.507158
O O2 0.323651 0.366059 0.587955
O O3 0.920166 0.735965 0.639492
O O4 0.121367 0.800961 0.710987
O O5 0.816454 0.049286 0.899906
O O6 0.894618 0.328033 0.980677
O O7 0.500000 0.500000 0.000000
O O8 0.642438 0.053772 0.105548
O O9 0.855853 0.302403 0.707107
O O10 0.141828 0.166941 0.781908
O O11 0.499690 0.793117 0.296415
O O12 0.407832 0.215316 0.376281
O O13 0.810053 0.542674 0.118279
O O14 0.000000 0.500000 0.500000
#
# Coordination Sequence:
#
# PCOD9049320 Si02
#       7
#     2   2   2   2   2   1   2
#     4  11  26  46  67 106 145 192 240 309 372 441
#     4  11  26  47  75 112 146 196 255 306 373 452
#     4  11  24  45  74 101 149 190 241 309 377 439
#     4  11  25  44  70 103 140 188 242 293 372 446
#     4  11  25  45  73 106 141 197 241 304 374 444
#     4  10  24  46  72 104 146 192 242 306 368 430
#     4  12  25  45  69 106 144 189 244 307 368 448
#
# _framework density 27.229759999999999
#
# number of rings (size 3 to 8) (size 9 to 14) (size 15 to 20)
#    0.000    0.923    3.077    3.231    4.308    5.538 
#    0.000    0.000    0.000    0.000    0.000    0.000 
#    0.000    0.000    0.000    0.000    0.000    0.000 
#
# Total GULP energy -72461.462078 kJ/mol
# GULP energy per Si atom -5573.958621 kJ/mol
# Density = 2.716778 g / cm^3
# Si number density = 27.229760 Si / 1000 Ang^3
#
#
#
# Elastic Constant Matrix: (Units=GPa)
#
#
# Indices 1 2 3 4 5 6 
#
# 1 56.6930 25.0759 7.4992 13.2336 26.2445 -4.3255
# 2 25.0759 122.3583 37.6293 8.8636 27.3933 -38.5811
# 3 7.4992 37.6293 191.5258 11.6882 18.4333 8.3801
# 4 13.2336 8.8636 11.6882 75.0898 -2.2005 7.8102
# 5 26.2445 27.3933 18.4333 -2.2005 24.4562 3.2417
# 6 -4.3255 -38.5811 8.3801 7.8102 3.2417 39.4101
#
#
#
# Elastic Compliance Matrix: (Units=1/GPa)
#
#
# Indices 1 2 3 4 5 6 
#
# 1 0.065883 0.027464 0.002100 -0.023383 -0.111442 0.047472
# 2 0.027464 0.037672 -0.002139 -0.016449 -0.078169 0.050038
# 3 0.002100 -0.002139 0.006137 -0.000922 -0.004216 -0.002639
# 4 -0.023383 -0.016449 -0.000922 0.023828 0.049976 -0.027307
# 5 -0.111442 -0.078169 -0.004216 0.049976 0.271632 -0.120107
# 6 0.047472 0.050038 -0.002639 -0.027307 -0.120107 0.095423
#
#
# Mechanical properties :
#
#
# Convention : Reuss Voigt Hill
#
# Bulk Modulus (GPa) = 6.07752 56.77619 31.42686
# Shear Modulus (GPa) = 9.98859 47.81605 28.90232
#
# Velocity S-wave (km/s) = 1.91735 4.19504 3.26148
# Velocity P-wave (km/s) = 2.67178 6.66037 5.07439
#
# Compressibility (1/GPa) = 0.16454080
#
# Stress axis : x y z
#
# Youngs Moduli (GPa) = 15.17853 26.54517 162.95197
#
# Poissons Ratio (x) = -0.72903 -0.34221
# Poissons Ratio (y) = -0.41686 0.34855
# Poissons Ratio (z) = -0.03188 0.05678
#
# Static dielectric constant tensor:
#      x y z
#    x 2.091320 -0.072700 0.014270 
#    y -0.072700 2.184940 -0.033970 
#    z 0.014270 -0.033970 2.076500 
# 
# From -- ./inp_files/88456.got.cif
#   From: 2010.05.17/outbox.cif.g08.bks.cpg/sg2_45_cif.got.tgz:88456.got - 2010.06.03 11:33:40.
