data_PCOD9049776
_publ_section_title
;
Structure prediction by ZEFSAII (Michael W. Deem and Ramdas Pophale) SiO2 
 PCOD9049776
Probable space group: P -1
;
_chemical_formula_sum "Si O2"
_cell_formula_units_Z 16
_cell_length_a 8.786850
_cell_length_b 5.577870
_cell_length_c 24.202870
_cell_angle_alpha 90.193401
_cell_angle_beta 130.870919
_cell_angle_gamma 57.493536
_cell_volume 633.701868
_symmetry_space_group_name_H-M "P -1"
_symmetry_group_IT_number 2
_symmetry_cell_setting 'triclinic'
loop_
_space_group_symop_operation_xyz
x,y,z
-x,-y,-z
loop_
_atom_site_type_symbol
_atom_site_label
_atom_site_fract_x
_atom_site_fract_y
_atom_site_fract_z
Si Si1 0.798764 0.854912 0.813657
Si Si2 0.617257 0.518209 0.084884
Si Si3 0.868633 0.741432 0.022343
Si Si4 0.408992 0.791187 0.697843
Si Si5 0.723833 0.782011 0.471379
Si Si6 0.201540 0.608818 0.420264
Si Si7 0.423943 0.539321 0.370375
Si Si8 0.375721 0.620878 0.144703
O O1 0.562477 0.913769 0.722655
O O2 0.041277 0.782699 0.835865
O O3 0.018364 0.493976 0.898142
O O4 0.623157 0.133641 0.820792
O O5 0.510600 0.489721 0.116690
O O6 0.500000 0.500000 0.000000
O O7 0.461420 0.910917 0.054321
O O8 0.040428 0.845579 0.063619
O O9 0.000000 0.500000 0.000000
O O10 0.561767 0.484243 0.692022
O O11 0.484335 0.677218 0.778903
O O12 0.071188 0.057893 0.612517
O O13 0.783274 0.671825 0.550627
O O14 0.518980 0.728473 0.408451
O O15 0.000000 0.500000 0.500000
O O16 0.621286 0.137464 0.433918
O O17 0.500000 0.500000 0.500000
O O18 0.155442 0.688331 0.344065
#
# Coordination Sequence:
#
# PCOD9049776 Si02
#       8
#     2   2   2   2   2   2   2   2
#     4  11  25  44  65 103 140 187 229 292 367 430
#     4  12  23  43  76 102 134 187 246 293 351 434
#     4  11  21  43  72  98 138 180 233 296 351 419
#     4  11  27  47  67  98 150 190 230 297 371 438
#     4  11  22  43  76 107 140 179 243 309 365 425
#     4  10  24  47  74 105 137 189 250 303 363 436
#     4  11  25  46  72 105 143 188 244 301 368 438
#     4  11  25  44  66 101 148 181 230 296 367 425
#
# _framework density 25.248467000000002
#
# number of rings (size 3 to 8) (size 9 to 14) (size 15 to 20)
#    0.000    1.000    3.750    2.250    3.500    2.000 
#    6.750    0.000    0.000    0.000    0.000    0.000 
#    0.000    0.000    0.000    0.000    0.000    0.000 
#
# Total GULP energy -89250.731184 kJ/mol
# GULP energy per Si atom -5578.170699 kJ/mol
# Density = 2.519100 g / cm^3
# Si number density = 25.248467 Si / 1000 Ang^3
#
#
#
# Elastic Constant Matrix: (Units=GPa)
#
#
# Indices 1 2 3 4 5 6 
#
# 1 153.5998 26.9360 41.1730 -11.9401 -8.1281 -37.9940
# 2 26.9360 114.6558 26.6860 2.2896 14.4673 -21.4690
# 3 41.1730 26.6860 62.5481 -6.4658 19.1427 -12.0632
# 4 -11.9401 2.2896 -6.4658 45.9833 -1.7011 -7.9732
# 5 -8.1281 14.4673 19.1427 -1.7011 40.7084 -2.1837
# 6 -37.9940 -21.4690 -12.0632 -7.9732 -2.1837 50.6164
#
#
#
# Elastic Compliance Matrix: (Units=1/GPa)
#
#
# Indices 1 2 3 4 5 6 
#
# 1 0.010815 -0.000408 -0.007143 0.003271 0.006177 0.007025
# 2 -0.000408 0.010395 -0.002912 -0.000557 -0.002257 0.003224
# 3 -0.007143 -0.002912 0.025733 0.001309 -0.012480 -0.000796
# 4 0.003271 -0.000557 0.001309 0.023972 0.001579 0.006375
# 5 0.006177 -0.002257 -0.012480 0.001579 0.032662 0.002363
# 6 0.007025 0.003224 -0.000796 0.006375 0.002363 0.027313
#
#
# Mechanical properties :
#
#
# Convention : Reuss Voigt Hill
#
# Bulk Modulus (GPa) = 38.43375 57.82152 48.12763
# Shear Modulus (GPa) = 31.15514 43.19553 37.17534
#
# Velocity S-wave (km/s) = 3.51656 4.14069 3.84132
# Velocity P-wave (km/s) = 5.63414 6.76839 6.22715
#
# Compressibility (1/GPa) = 0.02601880
#
# Stress axis : x y z
#
# Youngs Moduli (GPa) = 92.46184 96.20221 38.86046
#
# Poissons Ratio (x) = 0.03922 0.27757
# Poissons Ratio (y) = 0.03770 0.11315
# Poissons Ratio (z) = 0.66043 0.28011
#
# Static dielectric constant tensor:
#      x y z
#    x 2.089240 0.016750 -0.101370 
#    y 0.016750 2.051140 0.059330 
#    z -0.101370 0.059330 2.100710 
# 
# From -- ./inp_files/616265.got.cif
#   From: 2010.05.17/outbox.cif.g08.bks.cpg/sg2_309_cif.got.tgz:616265.got - 2010.06.03 11:33:40.
