data_PCOD9049530
_publ_section_title
;
Structure prediction by ZEFSAII (Michael W. Deem and Ramdas Pophale) SiO2 
 PCOD9049530
Probable space group: P -1
;
_chemical_formula_sum "Si O2"
_cell_formula_units_Z 16
_cell_length_a 14.756099
_cell_length_b 8.070603
_cell_length_c 11.205855
_cell_angle_alpha 44.917723
_cell_angle_beta 104.038700
_cell_angle_gamma 122.423160
_cell_volume 774.067365
_symmetry_space_group_name_H-M "P -1"
_symmetry_group_IT_number 2
_symmetry_cell_setting 'triclinic'
loop_
_space_group_symop_operation_xyz
x,y,z
-x,-y,-z
loop_
_atom_site_type_symbol
_atom_site_label
_atom_site_fract_x
_atom_site_fract_y
_atom_site_fract_z
Si Si1 0.186185 0.464124 0.511927
Si Si2 0.038417 0.080018 0.306849
Si Si3 0.396347 0.990518 0.912444
Si Si4 0.003373 0.230967 0.965027
Si Si5 0.614255 0.079532 0.340956
Si Si6 0.598540 0.446694 0.341346
Si Si7 0.149078 0.738593 0.583932
Si Si8 0.180048 0.663270 0.160200
O O1 0.295972 0.486573 0.580725
O O2 0.140415 0.557097 0.559160
O O3 0.211646 0.669970 0.304688
O O4 0.091064 0.151633 0.608088
O O5 0.087642 0.343155 0.272246
O O6 0.104294 0.929885 0.431329
O O7 0.053761 0.212921 0.113799
O O8 0.390640 0.933117 0.797712
O O9 0.407980 0.282496 0.796791
O O10 0.283343 0.761564 0.057509
O O11 0.500000 0.000000 0.000000
O O12 0.076203 0.524061 0.773471
O O13 0.880775 0.173222 0.968964
O O14 0.000000 0.000000 0.000000
O O15 0.612258 0.334408 0.274397
O O16 0.725357 0.100690 0.412032
O O17 0.509547 0.804077 0.502319
#
# Coordination Sequence:
#
# PCOD9049530 Si02
#       8
#     2   2   2   2   2   2   2   2
#     4  11  22  44  68  97 138 188 234 284 357 422
#     4  12  24  41  67 100 142 182 232 292 348 426
#     4  12  27  46  71 105 145 184 235 298 361 426
#     4  12  24  43  68  97 142 183 235 288 349 424
#     4  10  24  47  72 105 137 185 245 290 357 423
#     4  10  24  46  76  98 137 190 239 298 354 423
#     4  11  24  43  71 103 139 189 233 291 356 423
#     4  12  27  42  65 105 141 183 237 296 359 423
#
# _framework density 20.670034999999999
#
# number of rings (size 3 to 8) (size 9 to 14) (size 15 to 20)
#    0.000    0.750    2.500    4.500    5.250    0.500 
#    2.250    0.000    0.000    0.000    0.000    0.000 
#    0.000    0.000    0.000    0.000    0.000    0.000 
#
# Total GULP energy -89502.256429 kJ/mol
# GULP energy per Si atom -5593.891027 kJ/mol
# Density = 2.062299 g / cm^3
# Si number density = 20.670035 Si / 1000 Ang^3
#
#
#
# Elastic Constant Matrix: (Units=GPa)
#
#
# Indices 1 2 3 4 5 6 
#
# 1 145.6235 60.4255 68.8654 1.1505 11.9476 21.2885
# 2 60.4255 113.1100 55.1160 6.3933 5.3741 8.0468
# 3 68.8654 55.1160 127.5451 24.3164 7.1013 -4.4681
# 4 1.1505 6.3933 24.3164 39.9295 0.0524 -6.3755
# 5 11.9476 5.3741 7.1013 0.0524 48.1786 -0.4469
# 6 21.2885 8.0468 -4.4681 -6.3755 -0.4469 24.1337
#
#
#
# Elastic Compliance Matrix: (Units=1/GPa)
#
#
# Indices 1 2 3 4 5 6 
#
# 1 0.012876 -0.003042 -0.006333 0.002225 -0.002024 -0.010966
# 2 -0.003042 0.012493 -0.003842 0.000080 -0.000093 -0.002174
# 3 -0.006333 -0.003842 0.014489 -0.006787 -0.000057 0.007756
# 4 0.002225 0.000080 -0.006787 0.029842 0.000450 0.004646
# 5 -0.002024 -0.000093 -0.000057 0.000450 0.021298 0.002320
# 6 -0.010966 -0.002174 0.007756 0.004646 0.002320 0.054540
#
#
# Mechanical properties :
#
#
# Convention : Reuss Voigt Hill
#
# Bulk Modulus (GPa) = 74.49920 83.89915 79.19917
# Shear Modulus (GPa) = 28.33720 35.90647 32.12183
#
# Velocity S-wave (km/s) = 3.70663 4.17241 3.94639
# Velocity P-wave (km/s) = 7.37829 7.99311 7.69185
#
# Compressibility (1/GPa) = 0.01342296
#
# Stress axis : x y z
#
# Youngs Moduli (GPa) = 77.66542 80.04563 69.01744
#
# Poissons Ratio (x) = 0.24349 0.43709
# Poissons Ratio (y) = 0.23625 0.26519
# Poissons Ratio (z) = 0.49186 0.30757
#
# Static dielectric constant tensor:
#      x y z
#    x 1.731150 -0.025760 -0.027560 
#    y -0.025760 1.820590 0.094410 
#    z -0.027560 0.094410 1.845320 
# 
# From -- ./inp_files/390543.got.cif
#   From: 2010.05.17/outbox.cif.g08.bks.cpg/sg2_196_cif.got.tgz:390543.got - 2010.06.03 11:33:40.
