data_PCOD9049440
_publ_section_title
;
Structure prediction by ZEFSAII (Michael W. Deem and Ramdas Pophale) SiO2 
 PCOD9049440
Probable space group: P -1
;
_chemical_formula_sum "Si O2"
_cell_formula_units_Z 11
_cell_length_a 7.979543
_cell_length_b 9.598673
_cell_length_c 7.372263
_cell_angle_alpha 88.718554
_cell_angle_beta 70.025564
_cell_angle_gamma 58.593323
_cell_volume 444.335606
_symmetry_space_group_name_H-M "P -1"
_symmetry_group_IT_number 2
_symmetry_cell_setting 'triclinic'
loop_
_space_group_symop_operation_xyz
x,y,z
-x,-y,-z
loop_
_atom_site_type_symbol
_atom_site_label
_atom_site_fract_x
_atom_site_fract_y
_atom_site_fract_z
Si Si1 0.168236 0.498023 0.301420
Si Si2 0.745431 0.107315 0.572444
Si Si3 0.661155 0.654351 0.137230
Si Si4 0.356761 0.655388 0.732629
Si Si5 0.825329 0.838088 0.306650
Si Si6 0.000000 0.000000 0.000000
O O1 0.400925 0.416094 0.301939
O O2 0.000000 0.500000 0.500000
O O3 0.057682 0.692846 0.296329
O O4 0.210086 0.401192 0.097187
O O5 0.590402 0.200822 0.795702
O O6 0.689347 0.254028 0.447315
O O7 0.705750 0.968545 0.511072
O O8 0.000000 0.000000 0.500000
O O9 0.681397 0.492483 0.221194
O O10 0.262258 0.264027 0.749159
O O11 0.184389 0.803291 0.916182
O O12 0.840594 0.950889 0.148823
#
# Coordination Sequence:
#
# PCOD9049440 Si02
#       6
#     2   2   2   2   2   1
#     4  12  27  48  80 116 157 205 263 315 383 464
#     4  11  26  48  78 116 157 200 258 322 396 464
#     4  12  25  48  81 113 156 208 258 318 390 457
#     4  11  25  47  80 111 156 202 260 319 386 464
#     4  11  25  49  75 112 161 193 265 318 385 466
#     4  10  24  46  74 104 154 198 250 312 384 442
#
# _framework density 24.756062
#
# number of rings (size 3 to 8) (size 9 to 14) (size 15 to 20)
#    0.000    0.727    1.818    4.364    5.091    2.909 
#    6.545    4.545    0.000    0.000    0.000    0.000 
#    0.000    0.000    0.000    0.000    0.000    0.000 
#
# Total GULP energy -61301.327799 kJ/mol
# GULP energy per Si atom -5572.847982 kJ/mol
# Density = 2.469972 g / cm^3
# Si number density = 24.756062 Si / 1000 Ang^3
#
#
#
# Elastic Constant Matrix: (Units=GPa)
#
#
# Indices 1 2 3 4 5 6 
#
# 1 76.6694 45.9367 35.8253 26.5849 13.3544 19.8887
# 2 45.9367 154.6003 73.7446 46.8112 8.5821 28.6111
# 3 35.8253 73.7446 163.4632 42.0047 -6.7543 8.3725
# 4 26.5849 46.8112 42.0047 53.0461 -7.1067 -6.7709
# 5 13.3544 8.5821 -6.7543 -7.1067 29.9883 0.9015
# 6 19.8887 28.6111 8.3725 -6.7709 0.9015 46.2856
#
#
#
# Elastic Compliance Matrix: (Units=1/GPa)
#
#
# Indices 1 2 3 4 5 6 
#
# 1 0.024658 0.001906 -0.002047 -0.016204 -0.015422 -0.013473
# 2 0.001906 0.013724 -0.003045 -0.013101 -0.008251 -0.010507
# 3 -0.002047 -0.003045 0.008720 -0.002684 0.003089 0.000732
# 4 -0.016204 -0.013101 -0.002684 0.046223 0.020656 0.021907
# 5 -0.015422 -0.008251 0.003089 0.020656 0.047768 0.013260
# 6 -0.013473 -0.010507 0.000732 0.021907 0.013260 0.036703
#
#
# Mechanical properties :
#
#
# Convention : Reuss Voigt Hill
#
# Bulk Modulus (GPa) = 24.55253 78.41624 51.48439
# Shear Modulus (GPa) = 25.28495 41.81242 33.54869
#
# Velocity S-wave (km/s) = 3.19935 4.11417 3.68526
# Velocity P-wave (km/s) = 4.85665 7.36973 6.24099
#
# Compressibility (1/GPa) = 0.04072899
#
# Stress axis : x y z
#
# Youngs Moduli (GPa) = 40.55513 72.86416 114.67797
#
# Poissons Ratio (x) = -0.13887 0.23476
# Poissons Ratio (y) = -0.07729 0.34923
# Poissons Ratio (z) = 0.08302 0.22190
#
# Static dielectric constant tensor:
#      x y z
#    x 2.064170 -0.108220 0.057680 
#    y -0.108220 1.918690 0.002140 
#    z 0.057680 0.002140 2.027460 
# 
# From -- ./inp_files/163873.got.cif
#   From: 2010.05.17/outbox.cif.g08.bks.cpg/sg2_82_cif.got.tgz:163873.got - 2010.06.03 11:33:40.
