data_PCOD9049181
_publ_section_title
;
Structure prediction by ZEFSAII (Michael W. Deem and Ramdas Pophale) SiO2 
 PCOD9049181
Probable space group: P -1
;
_chemical_formula_sum "Si O2"
_cell_formula_units_Z 16
_cell_length_a 11.589861
_cell_length_b 9.251240
_cell_length_c 10.419896
_cell_angle_alpha 60.278708
_cell_angle_beta 54.490562
_cell_angle_gamma 48.890309
_cell_volume 673.308227
_symmetry_space_group_name_H-M "P -1"
_symmetry_group_IT_number 2
_symmetry_cell_setting 'triclinic'
loop_
_space_group_symop_operation_xyz
x,y,z
-x,-y,-z
loop_
_atom_site_type_symbol
_atom_site_label
_atom_site_fract_x
_atom_site_fract_y
_atom_site_fract_z
Si Si1 0.111357 0.726007 0.107718
Si Si2 0.766536 0.291703 0.471101
Si Si3 0.746786 0.009722 0.182357
Si Si4 0.531705 0.650851 0.636665
Si Si5 0.342053 0.125087 0.953873
Si Si6 0.296800 0.534101 0.834617
Si Si7 0.185564 0.389654 0.375566
Si Si8 0.153064 0.122596 0.313192
O O1 0.206844 0.557260 0.222170
O O2 0.180540 0.869457 0.989619
O O3 0.147618 0.623051 0.991758
O O4 0.915388 0.832389 0.210339
O O5 0.624966 0.501625 0.524117
O O6 0.747808 0.318459 0.319138
O O7 0.954090 0.230717 0.412763
O O8 0.759029 0.106228 0.606859
O O9 0.625345 0.135771 0.320137
O O10 0.660701 0.957557 0.147681
O O11 0.455262 0.525289 0.803997
O O12 0.676829 0.685002 0.573169
O O13 0.327951 0.331009 0.855933
O O14 0.193168 0.146168 0.130256
O O15 0.500000 0.000000 0.000000
O O16 0.212398 0.230930 0.322828
O O17 0.000000 0.500000 0.500000
#
# Coordination Sequence:
#
# PCOD9049181 Si02
#       8
#     2   2   2   2   2   2   2   2
#     4  10  24  46  70 106 139 187 240 291 357 419
#     4  11  25  47  72 103 143 191 237 292 360 423
#     4  10  25  43  72 103 143 186 234 301 351 419
#     4  11  25  46  68 106 141 190 231 297 357 422
#     4  12  25  42  71 108 142 185 243 296 350 427
#     4  11  25  45  75 100 146 186 239 298 354 420
#     4  12  25  44  73 102 146 183 237 289 358 433
#     4  11  25  45  72 104 139 189 241 292 353 424
#
# _framework density 23.763262999999998
#
# number of rings (size 3 to 8) (size 9 to 14) (size 15 to 20)
#    0.000    1.000    2.500    2.625    5.250    5.000 
#    0.000    4.375    0.000    0.000    0.000    0.000 
#    0.000    0.000    0.000    0.000    0.000    0.000 
#
# Total GULP energy -89330.703536 kJ/mol
# GULP energy per Si atom -5583.168971 kJ/mol
# Density = 2.370918 g / cm^3
# Si number density = 23.763263 Si / 1000 Ang^3
#
#
#
# Elastic Constant Matrix: (Units=GPa)
#
#
# Indices 1 2 3 4 5 6 
#
# 1 86.9542 49.0933 -9.2683 1.5296 -15.8762 15.4778
# 2 49.0933 98.8882 23.4836 19.5453 -5.0010 14.4541
# 3 -9.2683 23.4836 57.4994 3.7884 -9.2631 -11.6074
# 4 1.5296 19.5453 3.7884 52.2021 3.2917 -12.0045
# 5 -15.8762 -5.0010 -9.2631 3.2917 23.6184 12.1112
# 6 15.4778 14.4541 -11.6074 -12.0045 12.1112 21.9889
#
#
#
# Elastic Compliance Matrix: (Units=1/GPa)
#
#
# Indices 1 2 3 4 5 6 
#
# 1 0.038971 -0.002122 0.004839 -0.021728 0.068005 -0.072801
# 2 -0.002122 0.031963 -0.018848 -0.027196 0.034092 -0.063091
# 3 0.004839 -0.018848 0.031105 0.014292 -0.010533 0.039007
# 4 -0.021728 -0.027196 0.014292 0.062499 -0.086187 0.122307
# 5 0.068005 0.034092 -0.010533 -0.086187 0.231575 -0.250440
# 6 -0.072801 -0.063091 0.039007 0.122307 -0.250440 0.363496
#
#
# Mechanical properties :
#
#
# Convention : Reuss Voigt Hill
#
# Bulk Modulus (GPa) = 14.33125 41.10656 27.71890
# Shear Modulus (GPa) = 6.13399 31.56408 18.84903
#
# Velocity S-wave (km/s) = 1.60838 3.64850 2.81944
# Velocity P-wave (km/s) = 3.08109 5.92323 4.72111
#
# Compressibility (1/GPa) = 0.06977760
#
# Stress axis : x y z
#
# Youngs Moduli (GPa) = 25.65991 31.28637 32.14894
#
# Poissons Ratio (x) = 0.06638 -0.15557
# Poissons Ratio (y) = 0.05444 0.60595
# Poissons Ratio (z) = -0.12417 0.58969
#
# Static dielectric constant tensor:
#      x y z
#    x 1.968290 -0.035120 -0.035170 
#    y -0.035120 1.907340 0.019310 
#    z -0.035170 0.019310 1.906370 
# 
# From -- ./inp_files/419098.got.cif
#   From: 2010.05.17/outbox.cif.g08.bks.cpg/sg2_210_cif.got.tgz:419098.got - 2010.06.03 11:33:40.
