data_PCOD9049845
_publ_section_title
;
Structure prediction by ZEFSAII (Michael W. Deem and Ramdas Pophale) SiO2 
 PCOD9049845
Probable space group: P -1
;
_chemical_formula_sum "Si O2"
_cell_formula_units_Z 14
_cell_length_a 9.328525
_cell_length_b 13.719045
_cell_length_c 9.258858
_cell_angle_alpha 67.618103
_cell_angle_beta 131.136582
_cell_angle_gamma 136.626061
_cell_volume 601.912580
_symmetry_space_group_name_H-M "P -1"
_symmetry_group_IT_number 2
_symmetry_cell_setting 'triclinic'
loop_
_space_group_symop_operation_xyz
x,y,z
-x,-y,-z
loop_
_atom_site_type_symbol
_atom_site_label
_atom_site_fract_x
_atom_site_fract_y
_atom_site_fract_z
Si Si1 0.253185 0.242735 0.347313
Si Si2 0.304665 0.643637 0.629291
Si Si3 0.523150 0.713830 0.213019
Si Si4 0.708067 0.148942 0.967932
Si Si5 0.309165 0.504813 0.956538
Si Si6 0.788421 0.190686 0.684610
Si Si7 0.995782 0.047959 0.806834
O O1 0.509529 0.355746 0.351990
O O2 0.343575 0.269682 0.557141
O O3 0.157985 0.092364 0.314827
O O4 0.001378 0.220629 0.161169
O O5 0.357068 0.633789 0.833339
O O6 0.337472 0.776401 0.529467
O O7 0.000000 0.500000 0.500000
O O8 0.336566 0.743759 0.096288
O O9 0.741308 0.834292 0.175996
O O10 0.375033 0.557795 0.133514
O O11 0.638433 0.103469 0.778893
O O12 0.500000 0.000000 0.000000
O O13 0.028915 0.348820 0.825014
O O14 0.500000 0.500000 0.000000
O O15 0.880088 0.120396 0.708173
O O16 0.000000 0.000000 0.000000
#
# Coordination Sequence:
#
# PCOD9049845 Si02
#       7
#     2   2   2   2   2   2   2
#     4  12  25  46  76 110 153 195 250 312 379 443
#     4  10  24  47  76 109 147 196 258 306 374 451
#     4  12  26  46  72 112 153 194 250 313 381 446
#     4  12  25  46  74 111 156 197 246 309 385 445
#     4  11  23  47  77 101 145 197 256 311 368 447
#     4  11  23  46  74 107 147 197 258 312 368 443
#     4  12  23  43  79 107 147 202 252 307 372 448
#
# _framework density 23.259191000000001
#
# number of rings (size 3 to 8) (size 9 to 14) (size 15 to 20)
#    0.000    0.571    5.714    2.143    0.000    2.286 
#    2.571    1.429    0.000    0.000    0.000    0.000 
#    0.000    0.000    0.000    0.000    0.000    0.000 
#
# Total GULP energy -78255.910088 kJ/mol
# GULP energy per Si atom -5589.707863 kJ/mol
# Density = 2.320625 g / cm^3
# Si number density = 23.259191 Si / 1000 Ang^3
#
#
#
# Elastic Constant Matrix: (Units=GPa)
#
#
# Indices 1 2 3 4 5 6 
#
# 1 119.1938 36.9496 14.1135 -9.9069 14.7973 -15.9486
# 2 36.9496 80.6139 50.2643 -4.8365 1.3411 -7.0857
# 3 14.1135 50.2643 121.4353 -13.0359 -13.1319 -20.8134
# 4 -9.9069 -4.8365 -13.0359 47.7717 -10.2274 -3.4243
# 5 14.7973 1.3411 -13.1319 -10.2274 44.3127 -5.3369
# 6 -15.9486 -7.0857 -20.8134 -3.4243 -5.3369 62.1897
#
#
#
# Elastic Compliance Matrix: (Units=1/GPa)
#
#
# Indices 1 2 3 4 5 6 
#
# 1 0.010651 -0.005357 0.001337 0.001714 -0.002306 0.002465
# 2 -0.005357 0.019810 -0.008387 -0.001984 -0.002020 -0.002206
# 3 0.001337 -0.008387 0.013411 0.004571 0.005389 0.004590
# 4 0.001714 -0.001984 0.004571 0.024060 0.006835 0.003655
# 5 -0.002306 -0.002020 0.005389 0.006835 0.027016 0.003677
# 6 0.002465 -0.002206 0.004590 0.003655 0.003677 0.018513
#
#
# Mechanical properties :
#
#
# Convention : Reuss Voigt Hill
#
# Bulk Modulus (GPa) = 52.47340 58.21086 55.34213
# Shear Modulus (GPa) = 34.57137 45.51587 40.04362
#
# Velocity S-wave (km/s) = 3.85951 4.42848 4.15375
# Velocity P-wave (km/s) = 6.51693 7.15751 6.84472
#
# Compressibility (1/GPa) = 0.01905727
#
# Stress axis : x y z
#
# Youngs Moduli (GPa) = 93.89022 50.47867 74.56553
#
# Poissons Ratio (x) = 0.27044 -0.09968
# Poissons Ratio (y) = 0.50301 0.62537
# Poissons Ratio (z) = -0.12552 0.42335
#
# Static dielectric constant tensor:
#      x y z
#    x 1.706650 -0.113910 0.067960 
#    y -0.113910 1.772890 -0.005300 
#    z 0.067960 -0.005300 1.910710 
# 
# From -- ./inp_files/186992.got.cif
#   From: 2010.05.17/outbox.cif.g08.bks.cpg/sg2_94_cif.got.tgz:186992.got - 2010.06.03 11:33:40.
