data_PCOD9049092
_publ_section_title
;
Structure prediction by ZEFSAII (Michael W. Deem and Ramdas Pophale) SiO2 
 PCOD9049092
Probable space group: P -1
;
_chemical_formula_sum "Si O2"
_cell_formula_units_Z 16
_cell_length_a 15.811245
_cell_length_b 9.347226
_cell_length_c 20.135858
_cell_angle_alpha 139.455343
_cell_angle_beta 26.060221
_cell_angle_gamma 142.235475
_cell_volume 786.851193
_symmetry_space_group_name_H-M "P -1"
_symmetry_group_IT_number 2
_symmetry_cell_setting 'triclinic'
loop_
_space_group_symop_operation_xyz
x,y,z
-x,-y,-z
loop_
_atom_site_type_symbol
_atom_site_label
_atom_site_fract_x
_atom_site_fract_y
_atom_site_fract_z
Si Si1 0.537579 0.091972 0.676869
Si Si2 0.513241 0.648018 0.608983
Si Si3 0.372527 0.455199 0.140926
Si Si4 0.991540 0.903404 0.397238
Si Si5 0.341846 0.733493 0.040068
Si Si6 0.821878 0.793108 0.094274
Si Si7 0.875962 0.669802 0.156743
Si Si8 0.031554 0.923888 0.666361
O O1 0.616248 0.304665 0.748463
O O2 0.381262 0.147485 0.757582
O O3 0.737571 0.074741 0.493810
O O4 0.443045 0.857849 0.706613
O O5 0.500000 0.500000 0.500000
O O6 0.750211 0.743184 0.498882
O O7 0.361443 0.493556 0.717452
O O8 0.133443 0.283773 0.248620
O O9 0.500000 0.500000 0.000000
O O10 0.499060 0.339299 0.055119
O O11 0.153988 0.775014 0.225871
O O12 0.034171 0.085281 0.368162
O O13 0.000000 0.000000 0.500000
O O14 0.233201 0.488362 0.985781
O O15 0.500000 0.000000 0.000000
O O16 0.884833 0.814888 0.134638
O O17 0.000000 0.000000 0.000000
O O18 0.960922 0.834692 0.219400
O O19 0.000000 0.500000 0.000000
#
# Coordination Sequence:
#
# PCOD9049092 Si02
#       8
#     2   2   2   2   2   2   2   2
#     4  10  24  46  68  96 148 177 229 294 350 427
#     4  11  24  47  71 104 140 185 235 292 354 423
#     4  11  26  42  69  99 138 186 224 287 354 414
#     4  11  25  42  73 104 137 181 235 297 348 413
#     4  11  25  46  70 100 140 179 240 292 339 425
#     4  11  27  45  70 105 143 185 232 296 357 417
#     4  12  26  42  77 102 137 187 234 293 349 425
#     4  11  24  46  67 102 138 183 233 282 353 424
#
# _framework density 20.334212999999998
#
# number of rings (size 3 to 8) (size 9 to 14) (size 15 to 20)
#    0.000    1.000    3.750    1.875   12.250    0.500 
#    2.250    0.000    0.000    0.000    0.000    0.000 
#    0.000    0.000    0.000    0.000    0.000    0.000 
#
# Total GULP energy -89254.370670 kJ/mol
# GULP energy per Si atom -5578.398167 kJ/mol
# Density = 2.028793 g / cm^3
# Si number density = 20.334213 Si / 1000 Ang^3
#
#
#
# Elastic Constant Matrix: (Units=GPa)
#
#
# Indices 1 2 3 4 5 6 
#
# 1 77.0460 33.4481 40.9859 1.9461 14.6903 8.0342
# 2 33.4481 104.5051 30.9031 -1.2775 16.4442 -12.3470
# 3 40.9859 30.9031 114.9460 8.0830 10.5238 -3.5595
# 4 1.9461 -1.2775 8.0830 47.3368 -8.9940 3.3442
# 5 14.6903 16.4442 10.5238 -8.9940 24.5641 -1.6344
# 6 8.0342 -12.3470 -3.5595 3.3442 -1.6344 27.4023
#
#
#
# Elastic Compliance Matrix: (Units=1/GPa)
#
#
# Indices 1 2 3 4 5 6 
#
# 1 0.020432 -0.004820 -0.005529 -0.000805 -0.007533 -0.009232
# 2 -0.004820 0.013053 -0.001045 -0.000754 -0.005222 0.006939
# 3 -0.005529 -0.001045 0.011329 -0.002213 -0.001471 0.002804
# 4 -0.000805 -0.000754 -0.002213 0.023685 0.010429 -0.002660
# 5 -0.007533 -0.005222 -0.001471 0.010429 0.053264 0.001568
# 6 -0.009232 0.006939 0.002804 -0.002660 0.001568 0.043109
#
#
# Mechanical properties :
#
#
# Convention : Reuss Voigt Hill
#
# Bulk Modulus (GPa) = 45.39861 56.35235 50.87548
# Shear Modulus (GPa) = 25.64063 32.60466 29.12265
#
# Velocity S-wave (km/s) = 3.55485 4.00864 3.78855
# Velocity P-wave (km/s) = 6.26291 7.01419 6.64917
#
# Compressibility (1/GPa) = 0.02202711
#
# Stress axis : x y z
#
# Youngs Moduli (GPa) = 48.94194 76.61165 88.26647
#
# Poissons Ratio (x) = 0.36925 0.48805
# Poissons Ratio (y) = 0.23589 0.09221
# Poissons Ratio (z) = 0.27061 0.08003
#
# Static dielectric constant tensor:
#      x y z
#    x 1.645310 0.012450 0.007620 
#    y 0.012450 1.749420 0.010930 
#    z 0.007620 0.010930 1.705640 
# 
# From -- ./inp_files/572926.got.cif
#   From: 2010.05.17/outbox.cif.g08.bks.cpg/sg2_287_cif.got.tgz:572926.got - 2010.06.03 11:33:40.
