data_PCOD9049873
_publ_section_title
;
Structure prediction by ZEFSAII (Michael W. Deem and Ramdas Pophale) SiO2 
 PCOD9049873
Probable space group: P -1
;
_chemical_formula_sum "Si O2"
_cell_formula_units_Z 12
_cell_length_a 5.405033
_cell_length_b 8.641062
_cell_length_c 16.980480
_cell_angle_alpha 47.565707
_cell_angle_beta 92.060437
_cell_angle_gamma 67.114592
_cell_volume 484.572132
_symmetry_space_group_name_H-M "P -1"
_symmetry_group_IT_number 2
_symmetry_cell_setting 'triclinic'
loop_
_space_group_symop_operation_xyz
x,y,z
-x,-y,-z
loop_
_atom_site_type_symbol
_atom_site_label
_atom_site_fract_x
_atom_site_fract_y
_atom_site_fract_z
Si Si1 0.219888 0.588666 0.191861
Si Si2 0.245362 0.045908 0.055417
Si Si3 0.784589 0.433784 0.474846
Si Si4 0.779197 0.806642 0.244420
Si Si5 0.784133 0.105220 0.294206
Si Si6 0.150826 0.646296 0.924835
O O1 0.481350 0.309794 0.264733
O O2 0.094325 0.625196 0.266195
O O3 0.318434 0.783382 0.112382
O O4 0.934704 0.718812 0.085583
O O5 0.024181 0.110908 0.103822
O O6 0.541126 0.999987 0.111749
O O7 0.500000 0.500000 0.500000
O O8 0.687110 0.614797 0.336440
O O9 0.000000 0.500000 0.500000
O O10 0.980886 0.131813 0.568309
O O11 0.743334 0.969527 0.264829
O O12 0.900464 0.258009 0.198219
O O13 0.500000 0.500000 0.000000
O O14 0.000000 0.500000 0.000000
#
# Coordination Sequence:
#
# PCOD9049873 Si02
#       6
#     2   2   2   2   2   2
#     4  11  25  43  68 107 145 186 243 297 364 429
#     4  11  24  43  66 102 154 184 240 298 364 424
#     4  10  24  47  78 105 140 192 244 300 360 426
#     4  11  24  46  74  99 148 194 237 301 364 424
#     4  11  24  48  71 108 141 189 249 293 360 439
#     4  12  24  41  72 101 138 190 235 286 359 424
#
# _framework density 24.764116000000001
#
# number of rings (size 3 to 8) (size 9 to 14) (size 15 to 20)
#    0.000    1.000    3.333    2.500    2.333    3.333 
#    6.000    0.833    0.000    0.000    0.000    0.000 
#    0.000    0.000    0.000    0.000    0.000    0.000 
#
# Total GULP energy -67103.164544 kJ/mol
# GULP energy per Si atom -5591.930379 kJ/mol
# Density = 2.470775 g / cm^3
# Si number density = 24.764116 Si / 1000 Ang^3
#
#
#
# Elastic Constant Matrix: (Units=GPa)
#
#
# Indices 1 2 3 4 5 6 
#
# 1 133.0297 52.2173 40.8068 -15.6597 -13.5965 -20.1251
# 2 52.2173 171.0475 45.0459 -37.3576 -0.6750 -42.3847
# 3 40.8068 45.0459 109.7309 -39.3664 -14.0096 -5.8051
# 4 -15.6597 -37.3576 -39.3664 36.4384 -4.2669 6.8216
# 5 -13.5965 -0.6750 -14.0096 -4.2669 41.9071 0.1587
# 6 -20.1251 -42.3847 -5.8051 6.8216 0.1587 50.4287
#
#
#
# Elastic Compliance Matrix: (Units=1/GPa)
#
#
# Indices 1 2 3 4 5 6 
#
# 1 0.009494 -0.001874 -0.002727 -0.000927 0.002036 0.002018
# 2 -0.001874 0.009755 -0.000076 0.007958 0.000310 0.006365
# 3 -0.002727 -0.000076 0.017845 0.019174 0.007039 -0.001714
# 4 -0.000927 0.007958 0.019174 0.057190 0.012057 0.000751
# 5 0.002036 0.000310 0.007039 0.012057 0.028108 0.000164
# 6 0.002018 0.006365 -0.001714 0.000751 0.000164 0.025685
#
#
# Mechanical properties :
#
#
# Convention : Reuss Voigt Hill
#
# Bulk Modulus (GPa) = 36.05066 76.66090 56.35578
# Shear Modulus (GPa) = 29.99776 44.13737 37.06757
#
# Velocity S-wave (km/s) = 3.48421 4.22632 3.87308
# Velocity P-wave (km/s) = 5.54757 7.40536 6.54274
#
# Compressibility (1/GPa) = 0.02773874
#
# Stress axis : x y z
#
# Youngs Moduli (GPa) = 105.33326 102.51116 56.03679
#
# Poissons Ratio (x) = 0.19214 0.15281
# Poissons Ratio (y) = 0.19743 0.00428
# Poissons Ratio (z) = 0.28723 0.00783
#
# Static dielectric constant tensor:
#      x y z
#    x 2.045110 0.071910 0.022980 
#    y 0.071910 2.050870 0.069160 
#    z 0.022980 0.069160 2.130210 
# 
# From -- ./inp_files/546884.got.cif
#   From: 2010.05.17/outbox.cif.g08.bks.cpg/sg2_274_cif.got.tgz:546884.got - 2010.06.03 11:33:40.
