data_PCOD9049186
_publ_section_title
;
Structure prediction by ZEFSAII (Michael W. Deem and Ramdas Pophale) SiO2 
 PCOD9049186
Probable space group: P -1
;
_chemical_formula_sum "Si O2"
_cell_formula_units_Z 15
_cell_length_a 5.161707
_cell_length_b 18.448936
_cell_length_c 8.288686
_cell_angle_alpha 109.184461
_cell_angle_beta 117.108555
_cell_angle_gamma 55.991862
_cell_volume 579.513868
_symmetry_space_group_name_H-M "P -1"
_symmetry_group_IT_number 2
_symmetry_cell_setting 'triclinic'
loop_
_space_group_symop_operation_xyz
x,y,z
-x,-y,-z
loop_
_atom_site_type_symbol
_atom_site_label
_atom_site_fract_x
_atom_site_fract_y
_atom_site_fract_z
Si Si1 0.314820 0.906687 0.176049
Si Si2 0.786915 0.314385 0.985011
Si Si3 0.700599 0.724630 0.328629
Si Si4 0.709608 0.313326 0.329681
Si Si5 0.809770 0.445474 0.873316
Si Si6 0.716907 0.006376 0.302409
Si Si7 0.500000 0.500000 0.500000
Si Si8 0.474823 0.826849 0.820482
O O1 0.573115 0.819612 0.283602
O O2 0.472414 0.971693 0.270241
O O3 0.950244 0.945430 0.179057
O O4 0.289326 0.881653 0.966964
O O5 0.627627 0.285264 0.774851
O O6 0.737805 0.407833 0.986692
O O7 0.640830 0.315950 0.121645
O O8 0.165487 0.242749 0.063572
O O9 0.915504 0.706141 0.537355
O O10 0.941710 0.642897 0.222410
O O11 0.478453 0.407414 0.412340
O O12 0.684013 0.231189 0.331346
O O13 0.513820 0.493816 0.696984
O O14 0.000000 0.500000 0.000000
O O15 0.521420 0.105883 0.257862
O O16 0.000000 0.000000 0.500000
#
# Coordination Sequence:
#
# PCOD9049186 Si02
#       8
#     2   2   2   2   2   2   1   2
#     4  12  25  48  75 114 155 209 258 324 392 467
#     4  12  24  45  74 108 147 199 254 317 391 462
#     4  11  25  44  71 106 151 195 252 314 393 456
#     4  11  26  46  74 108 152 199 257 318 389 470
#     4  11  24  45  71 103 147 193 248 316 388 465
#     4  12  29  47  78 114 159 203 269 325 393 470
#     4  10  24  46  70 106 148 192 252 316 384 462
#     4  12  26  47  74 110 153 204 258 319 391 467
#
# _framework density 25.883765
#
# number of rings (size 3 to 8) (size 9 to 14) (size 15 to 20)
#    0.000    0.533    2.667    4.400    3.733    5.333 
#    0.000    4.667    0.000    0.000    0.000    0.000 
#    0.000    0.000    0.000    0.000    0.000    0.000 
#
# Total GULP energy -83822.435286 kJ/mol
# GULP energy per Si atom -5588.162352 kJ/mol
# Density = 2.582485 g / cm^3
# Si number density = 25.883765 Si / 1000 Ang^3
#
#
#
# Elastic Constant Matrix: (Units=GPa)
#
#
# Indices 1 2 3 4 5 6 
#
# 1 65.7793 12.9813 15.0068 6.6347 13.3164 19.4756
# 2 12.9813 139.2615 21.8174 1.6738 8.6973 42.8856
# 3 15.0068 21.8174 112.9713 -0.8220 22.2802 12.1095
# 4 6.6347 1.6738 -0.8220 45.6537 -3.6682 3.8871
# 5 13.3164 8.6973 22.2802 -3.6682 39.6127 5.0257
# 6 19.4756 42.8856 12.1095 3.8871 5.0257 50.0605
#
#
#
# Elastic Compliance Matrix: (Units=1/GPa)
#
#
# Indices 1 2 3 4 5 6 
#
# 1 0.018664 0.000957 -0.000867 -0.002584 -0.005331 -0.007136
# 2 0.000957 0.009934 -0.000955 0.000140 -0.000865 -0.008576
# 3 -0.000867 -0.000955 0.010257 -0.000001 -0.005165 -0.000807
# 4 -0.002584 0.000140 -0.000001 0.022623 0.003083 -0.001181
# 5 -0.005331 -0.000865 -0.005165 0.003083 0.030318 0.000781
# 6 -0.007136 -0.008576 -0.000807 -0.001181 0.000781 0.030307
#
#
# Mechanical properties :
#
#
# Convention : Reuss Voigt Hill
#
# Bulk Modulus (GPa) = 26.93502 46.40255 36.66879
# Shear Modulus (GPa) = 36.70901 44.94583 40.82742
#
# Velocity S-wave (km/s) = 3.77002 4.17159 3.97588
# Velocity P-wave (km/s) = 5.42028 6.41632 5.93922
#
# Compressibility (1/GPa) = 0.03712639
#
# Stress axis : x y z
#
# Youngs Moduli (GPa) = 53.58019 100.65998 97.49820
#
# Poissons Ratio (x) = -0.09638 0.08450
# Poissons Ratio (y) = -0.05130 0.09310
# Poissons Ratio (z) = 0.04644 0.09612
#
# Static dielectric constant tensor:
#      x y z
#    x 2.116350 -0.073010 -0.064340 
#    y -0.073010 2.060070 0.029480 
#    z -0.064340 0.029480 2.039230 
# 
# From -- ./inp_files/89711.got.cif
#   From: 2010.05.17/outbox.cif.g08.bks.cpg/sg2_45_cif.got.tgz:89711.got - 2010.06.03 11:33:40.
