data_PCOD9049202
_publ_section_title
;
Structure prediction by ZEFSAII (Michael W. Deem and Ramdas Pophale) SiO2 
 PCOD9049202
Probable space group: P -1
;
_chemical_formula_sum "Si O2"
_cell_formula_units_Z 14
_cell_length_a 10.631303
_cell_length_b 17.427316
_cell_length_c 10.631303
_cell_angle_alpha 140.040587
_cell_angle_beta 26.070760
_cell_angle_gamma 140.040598
_cell_volume 534.316111
_symmetry_space_group_name_H-M "P -1"
_symmetry_group_IT_number 2
_symmetry_cell_setting 'triclinic'
loop_
_space_group_symop_operation_xyz
x,y,z
-x,-y,-z
loop_
_atom_site_type_symbol
_atom_site_label
_atom_site_fract_x
_atom_site_fract_y
_atom_site_fract_z
Si Si1 0.000000 0.500000 0.000000
Si Si2 0.681550 0.055085 0.548788
Si Si3 0.373818 0.228291 0.740851
Si Si4 0.259150 0.271709 0.626181
Si Si5 0.988606 0.629480 0.610764
Si Si6 0.548789 0.555085 0.681549
Si Si7 0.000000 0.000000 0.000000
Si Si8 0.389235 0.870520 0.011395
O O1 0.302328 0.616168 0.925637
O O2 0.210433 0.468118 0.660039
O O3 0.750062 0.918121 0.304397
O O4 0.925638 0.116168 0.302327
O O5 0.692691 0.100399 0.737414
O O6 0.339962 0.031882 0.789566
O O7 0.431315 0.250000 0.568685
O O8 0.672810 0.296563 0.631418
O O9 0.122453 0.290779 0.085074
O O10 0.304398 0.418121 0.750061
O O11 0.914927 0.209221 0.877545
O O12 0.368583 0.203437 0.327188
O O13 0.737415 0.600399 0.692691
O O14 0.000000 0.500000 0.500000
O O15 0.500000 0.000000 0.000000
#
# Coordination Sequence:
#
# PCOD9049202 Si02
#       8
#     1   2   2   2   2   2   1   2
#     4  10  24  46  70  90 136 198 218 282 338 404
#     4  11  24  47  68  97 141 177 235 280 342 414
#     4  12  25  41  70 106 137 177 224 288 356 414
#     4  12  25  41  70 106 137 177 224 288 356 414
#     4  12  25  42  69 107 137 176 224 288 355 412
#     4  11  24  47  68  97 141 177 235 280 342 414
#     4  10  24  46  70  90 136 198 218 282 338 404
#     4  12  25  42  69 107 137 176 224 288 355 412
#
# _framework density 26.201716999999999
#
# number of rings (size 3 to 8) (size 9 to 14) (size 15 to 20)
#    0.000    0.571    2.857    5.143    4.000    0.000 
#    0.000   28.571    0.000    0.000    0.000    0.000 
#    0.000    0.000    0.000    0.000    0.000    0.000 
#
# Total GULP energy -77997.996616 kJ/mol
# GULP energy per Si atom -5571.285473 kJ/mol
# Density = 2.614208 g / cm^3
# Si number density = 26.201717 Si / 1000 Ang^3
#
#
#
# Elastic Constant Matrix: (Units=GPa)
#
#
# Indices 1 2 3 4 5 6 
#
# 1 80.1248 14.5895 31.3610 4.1306 54.9026 20.4348
# 2 14.5895 100.3541 20.0603 -10.4270 -6.0703 -7.0949
# 3 31.3610 20.0603 175.4353 -16.3537 -52.7367 37.2693
# 4 4.1306 -10.4270 -16.3537 52.5330 11.5999 -13.7495
# 5 54.9026 -6.0703 -52.7367 11.5999 -65.3754 41.7801
# 6 20.4348 -7.0949 37.2693 -13.7495 41.7801 39.4054
#
#
#
# Elastic Compliance Matrix: (Units=1/GPa)
#
#
# Indices 1 2 3 4 5 6 
#
# 1 0.015033 -0.003799 0.000867 -0.005821 0.002387 -0.013861
# 2 -0.003799 0.011565 -0.001231 0.003462 0.000864 0.005509
# 3 0.000867 -0.001231 0.005004 0.001757 -0.003544 -0.001034
# 4 -0.005821 0.003462 0.001757 0.022225 0.002109 0.007499
# 5 0.002387 0.000864 -0.003544 0.002109 -0.004899 0.008199
# 6 -0.013861 0.005509 -0.001034 0.007499 0.008199 0.028458
#
#
# Mechanical properties :
#
#
# Convention : Reuss Voigt Hill
#
# Bulk Modulus (GPa) = 42.96590 54.21511 48.59051
# Shear Modulus (GPa) = 53.49263 24.63948 39.06606
#
# Velocity S-wave (km/s) = 4.52328 3.06988 3.86550
# Velocity P-wave (km/s) = 6.61164 5.77078 6.20547
#
# Compressibility (1/GPa) = 0.02327427
#
# Stress axis : x y z
#
# Youngs Moduli (GPa) = 66.52105 86.47095 199.83261
#
# Poissons Ratio (x) = 0.32852 -0.17319
# Poissons Ratio (y) = 0.25272 0.24603
# Poissons Ratio (z) = -0.05765 0.10646
#
# Static dielectric constant tensor:
#      x y z
#    x 1.786630 0.200040 0.092010 
#    y 0.200040 1.942130 0.135160 
#    z 0.092010 0.135160 1.696590 
# 
# From -- ./inp_files/439158.got.cif
#   From: 2010.05.17/outbox.cif.g08.bks.cpg/sg2_220_cif.got.tgz:439158.got - 2010.06.03 11:33:40.
