data_PCOD9049933
_publ_section_title
;
Structure prediction by ZEFSAII (Michael W. Deem and Ramdas Pophale) SiO2 
 PCOD9049933
Probable space group: P -1
;
_chemical_formula_sum "Si O2"
_cell_formula_units_Z 14
_cell_length_a 8.893013
_cell_length_b 8.657352
_cell_length_c 25.145061
_cell_angle_alpha 145.982530
_cell_angle_beta 34.135094
_cell_angle_gamma 135.156207
_cell_volume 606.115518
_symmetry_space_group_name_H-M "P -1"
_symmetry_group_IT_number 2
_symmetry_cell_setting 'triclinic'
loop_
_space_group_symop_operation_xyz
x,y,z
-x,-y,-z
loop_
_atom_site_type_symbol
_atom_site_label
_atom_site_fract_x
_atom_site_fract_y
_atom_site_fract_z
Si Si1 0.537881 0.097399 0.955243
Si Si2 0.338936 0.592205 0.800190
Si Si3 0.166348 0.547805 0.166846
Si Si4 0.163918 0.178068 0.344346
Si Si5 0.787207 0.477170 0.474902
Si Si6 0.188186 0.635086 0.683328
Si Si7 0.887043 0.752246 0.141348
O O1 0.855804 0.127365 0.866062
O O2 0.375144 0.874253 0.903250
O O3 0.428448 0.382979 0.050294
O O4 0.500000 0.000000 0.000000
O O5 0.594535 0.617346 0.692857
O O6 0.328348 0.366273 0.786152
O O7 0.059826 0.559776 0.840401
O O8 0.019859 0.493881 0.250600
O O9 0.241283 0.868835 0.228311
O O10 0.115049 0.259873 0.442844
O O11 0.892791 0.224534 0.405131
O O12 0.470633 0.503828 0.571716
O O13 0.895927 0.446219 0.375142
O O14 0.208995 0.972105 0.780419
O O15 0.000000 0.500000 0.000000
#
# Coordination Sequence:
#
# PCOD9049933 Si02
#       7
#     2   2   2   2   2   2   2
#     4  12  25  44  70 107 141 182 233 286 354 421
#     4  12  25  47  70 101 149 186 231 290 352 422
#     4  12  26  44  74 104 143 184 236 290 352 421
#     4  11  26  47  70 104 138 186 238 287 359 408
#     4  10  24  48  69 101 144 182 241 291 341 424
#     4  11  23  47  72 105 140 185 237 289 354 407
#     4  12  26  46  75 106 143 184 235 293 352 418
#
# _framework density 23.097908
#
# number of rings (size 3 to 8) (size 9 to 14) (size 15 to 20)
#    0.000    0.571    4.286    3.000    2.000    4.571 
#   10.286    0.000    0.000    0.000    0.000    0.000 
#    0.000    0.000    0.000    0.000    0.000    0.000 
#
# Total GULP energy -78258.595028 kJ/mol
# GULP energy per Si atom -5589.899645 kJ/mol
# Density = 2.304534 g / cm^3
# Si number density = 23.097908 Si / 1000 Ang^3
#
#
#
# Elastic Constant Matrix: (Units=GPa)
#
#
# Indices 1 2 3 4 5 6 
#
# 1 100.3347 5.5277 30.6910 0.8482 11.9312 -7.1158
# 2 5.5277 108.0009 20.7230 5.4351 -3.0162 -9.2923
# 3 30.6910 20.7230 73.9244 -0.1685 -2.1067 1.2446
# 4 0.8482 5.4351 -0.1685 11.4039 -3.0681 1.7865
# 5 11.9312 -3.0162 -2.1067 -3.0681 52.5236 -7.2999
# 6 -7.1158 -9.2923 1.2446 1.7865 -7.2999 22.7328
#
#
#
# Elastic Compliance Matrix: (Units=1/GPa)
#
#
# Indices 1 2 3 4 5 6 
#
# 1 0.012181 0.000810 -0.005428 -0.002661 -0.002562 0.003827
# 2 0.000810 0.010659 -0.003409 -0.005858 0.000712 0.005486
# 3 -0.005428 -0.003409 0.016847 0.003246 0.001370 -0.003830
# 4 -0.002661 -0.005858 0.003246 0.093409 0.004565 -0.009280
# 5 -0.002562 0.000712 0.001370 0.004565 0.020780 0.005728
# 6 0.003827 0.005486 -0.003830 -0.009280 0.005728 0.050208
#
#
# Mechanical properties :
#
#
# Convention : Reuss Voigt Hill
#
# Bulk Modulus (GPa) = 42.31533 44.01592 43.16562
# Shear Modulus (GPa) = 21.92832 32.35329 27.14081
#
# Velocity S-wave (km/s) = 3.08452 3.74666 3.43159
# Velocity P-wave (km/s) = 5.57184 6.14932 5.86769
#
# Compressibility (1/GPa) = 0.02363210
#
# Stress axis : x y z
#
# Youngs Moduli (GPa) = 82.09641 93.82058 59.35649
#
# Poissons Ratio (x) = -0.07596 0.32216
# Poissons Ratio (y) = -0.06647 0.20237
# Poissons Ratio (z) = 0.44558 0.31988
#
# Static dielectric constant tensor:
#      x y z
#    x 1.872720 -0.027460 0.044130 
#    y -0.027460 1.884140 0.013910 
#    z 0.044130 0.013910 1.904620 
# 
# From -- ./inp_files/616741.got.cif
#   From: 2010.05.17/outbox.cif.g08.bks.cpg/sg2_309_cif.got.tgz:616741.got - 2010.06.03 11:33:40.
