data_PCOD9049154
_publ_section_title
;
Structure prediction by ZEFSAII (Michael W. Deem and Ramdas Pophale) SiO2 
 PCOD9049154
Probable space group: P -1
;
_chemical_formula_sum "Si O2"
_cell_formula_units_Z 16
_cell_length_a 17.768821
_cell_length_b 6.551429
_cell_length_c 15.335317
_cell_angle_alpha 64.709544
_cell_angle_beta 152.628153
_cell_angle_gamma 115.290472
_cell_volume 737.174381
_symmetry_space_group_name_H-M "P -1"
_symmetry_group_IT_number 2
_symmetry_cell_setting 'triclinic'
loop_
_space_group_symop_operation_xyz
x,y,z
-x,-y,-z
loop_
_atom_site_type_symbol
_atom_site_label
_atom_site_fract_x
_atom_site_fract_y
_atom_site_fract_z
Si Si1 0.021965 0.240803 0.099193
Si Si2 0.050493 0.146657 0.344220
Si Si3 0.550492 0.734111 0.256766
Si Si4 0.625759 0.571168 0.191793
Si Si5 0.874241 0.296763 0.440276
Si Si6 0.249999 0.921942 0.828057
Si Si7 0.750000 0.011694 0.738306
Si Si8 0.478035 0.604742 0.555263
O O1 0.013759 0.238286 0.195230
O O2 0.178662 0.117825 0.247857
O O3 0.000000 0.500000 0.000000
O O4 0.881543 0.074175 0.937820
O O5 0.250001 0.195740 0.554260
O O6 0.913525 0.190902 0.267751
O O7 0.026397 0.875978 0.375063
O O8 0.526396 0.573313 0.177730
O O9 0.513758 0.601226 0.332288
O O10 0.413523 0.899354 0.059298
O O11 0.750000 0.387222 0.362779
O O12 0.727919 0.811565 0.225038
O O13 0.500000 0.500000 0.000000
O O14 0.772081 0.194196 0.269201
O O15 0.000000 0.500000 0.500000
O O16 0.618457 0.813270 0.674735
O O17 0.678662 0.256213 0.609468
O O18 0.500000 0.500000 0.500000
#
# Coordination Sequence:
#
# PCOD9049154 Si02
#       8
#     2   2   2   2   2   2   2   2
#     4  11  25  47  72 105 143 186 235 304 358 427
#     4  12  26  45  75 103 141 191 240 289 363 428
#     4  12  26  45  75 103 141 191 240 289 363 428
#     4  12  24  45  70 100 143 186 233 294 353 420
#     4  12  24  45  70 100 143 186 233 294 353 420
#     4  12  26  48  68 104 146 184 234 298 348 432
#     4  10  24  46  70 100 148 178 236 296 360 426
#     4  11  25  47  72 105 143 186 235 304 358 427
#
# _framework density 21.704498999999998
#
# number of rings (size 3 to 8) (size 9 to 14) (size 15 to 20)
#    0.000    0.500    3.750    4.500    5.250    2.000 
#    4.500    0.000    0.000    0.000    0.000    0.000 
#    0.000    0.000    0.000    0.000    0.000    0.000 
#
# Total GULP energy -89107.015072 kJ/mol
# GULP energy per Si atom -5569.188442 kJ/mol
# Density = 2.165510 g / cm^3
# Si number density = 21.704499 Si / 1000 Ang^3
#
#
#
# Elastic Constant Matrix: (Units=GPa)
#
#
# Indices 1 2 3 4 5 6 
#
# 1 113.3260 30.4401 30.1487 -23.8503 -25.7457 -1.5162
# 2 30.4401 83.3253 26.1849 -3.5869 -12.7164 -1.5713
# 3 30.1487 26.1849 61.0264 -8.1173 -12.0012 7.2526
# 4 -23.8503 -3.5869 -8.1173 48.5109 4.4548 7.1166
# 5 -25.7457 -12.7164 -12.0012 4.4548 37.9065 -10.5518
# 6 -1.5162 -1.5713 7.2526 7.1166 -10.5518 31.4084
#
#
#
# Elastic Compliance Matrix: (Units=1/GPa)
#
#
# Indices 1 2 3 4 5 6 
#
# 1 0.013057 -0.002234 -0.003810 0.004554 0.007148 0.002768
# 2 -0.002234 0.014923 -0.005329 -0.001622 0.002885 0.003206
# 3 -0.003810 -0.005329 0.021643 0.002135 0.000634 -0.005719
# 4 0.004554 -0.001622 0.002135 0.024137 -0.001359 -0.006280
# 5 0.007148 0.002885 0.000634 -0.001359 0.036123 0.012787
# 6 0.002768 0.003206 -0.005719 -0.006280 0.012787 0.039172
#
#
# Mechanical properties :
#
#
# Convention : Reuss Voigt Hill
#
# Bulk Modulus (GPa) = 37.20401 47.91390 42.55896
# Shear Modulus (GPa) = 27.66131 34.95877 31.31004
#
# Velocity S-wave (km/s) = 3.57382 4.01767 3.80223
# Velocity P-wave (km/s) = 5.84875 6.60649 6.23914
#
# Compressibility (1/GPa) = 0.02687883
#
# Stress axis : x y z
#
# Youngs Moduli (GPa) = 76.58749 67.01233 46.20385
#
# Poissons Ratio (x) = 0.14968 0.17601
# Poissons Ratio (y) = 0.17107 0.24621
# Poissons Ratio (z) = 0.29176 0.35710
#
# Static dielectric constant tensor:
#      x y z
#    x 1.826440 -0.040690 0.121850 
#    y -0.040690 1.793590 -0.018230 
#    z 0.121850 -0.018230 1.889410 
# 
# From -- ./inp_files/536292.got.cif
#   From: 2010.05.17/outbox.cif.g08.bks.cpg/sg2_269_cif.got.tgz:536292.got - 2010.06.03 11:33:40.
