data_PCOD9049956
_publ_section_title
;
Structure prediction by ZEFSAII (Michael W. Deem and Ramdas Pophale) SiO2 
 PCOD9049956
Probable space group: P -1
;
_chemical_formula_sum "Si O2"
_cell_formula_units_Z 15
_cell_length_a 5.124713
_cell_length_b 23.558841
_cell_length_c 6.588256
_cell_angle_alpha 47.005076
_cell_angle_beta 76.611881
_cell_angle_gamma 69.222394
_cell_volume 543.879222
_symmetry_space_group_name_H-M "P -1"
_symmetry_group_IT_number 2
_symmetry_cell_setting 'triclinic'
loop_
_space_group_symop_operation_xyz
x,y,z
-x,-y,-z
loop_
_atom_site_type_symbol
_atom_site_label
_atom_site_fract_x
_atom_site_fract_y
_atom_site_fract_z
Si Si1 0.274988 0.954749 0.438736
Si Si2 0.125584 0.744864 0.030173
Si Si3 0.673128 0.183605 0.531063
Si Si4 0.925602 0.623590 0.134061
Si Si5 0.285008 0.447567 0.981602
Si Si6 0.500000 0.500000 0.500000
Si Si7 0.650161 0.881014 0.927633
Si Si8 0.233911 0.681009 0.595581
O O1 0.226071 0.903563 0.379874
O O2 0.479389 0.899279 0.702731
O O3 0.388667 0.031466 0.178441
O O4 0.000000 0.000000 0.500000
O O5 0.901587 0.706562 0.053341
O O6 0.237367 0.691850 0.332038
O O7 0.359308 0.755750 0.803756
O O8 0.959284 0.833048 0.922206
O O9 0.859891 0.226670 0.525723
O O10 0.447438 0.175309 0.756066
O O11 0.173279 0.565007 0.356406
O O12 0.695154 0.579109 0.208479
O O13 0.026917 0.638601 0.850298
O O14 0.463519 0.509348 0.744233
O O15 0.462171 0.369028 0.257479
O O16 0.000000 0.500000 0.000000
#
# Coordination Sequence:
#
# PCOD9049956 Si02
#       8
#     2   2   2   2   2   1   2   2
#     4  11  24  48  70 105 144 186 238 300 351 423
#     4  11  25  49  71 102 151 182 242 299 350 427
#     4  11  24  46  73 102 144 187 241 292 353 424
#     4  10  25  45  73 107 140 193 234 292 362 421
#     4  11  26  47  75 106 144 189 236 293 360 422
#     4  10  24  48  70 106 140 180 242 288 350 420
#     4  11  26  44  73 105 137 196 236 290 365 415
#     4  10  26  46  69 110 143 187 241 298 349 425
#
# _framework density 27.579654000000001
#
# number of rings (size 3 to 8) (size 9 to 14) (size 15 to 20)
#    0.000    1.333    1.333    1.600    7.467    2.667 
#    4.800    0.000    0.000    0.000    0.000    0.000 
#    0.000    0.000    0.000    0.000    0.000    0.000 
#
# Total GULP energy -83687.315818 kJ/mol
# GULP energy per Si atom -5579.154388 kJ/mol
# Density = 2.751688 g / cm^3
# Si number density = 27.579654 Si / 1000 Ang^3
#
#
#
# Elastic Constant Matrix: (Units=GPa)
#
#
# Indices 1 2 3 4 5 6 
#
# 1 84.0496 19.8259 44.9634 -10.4929 19.1565 5.0369
# 2 19.8259 163.7644 34.5365 -14.5111 7.6454 28.7881
# 3 44.9634 34.5365 200.1605 12.1964 -5.3167 -3.0199
# 4 -10.4929 -14.5111 12.1964 39.9293 -8.6939 -9.1003
# 5 19.1565 7.6454 -5.3167 -8.6939 50.1637 2.2274
# 6 5.0369 28.7881 -3.0199 -9.1003 2.2274 55.3344
#
#
#
# Elastic Compliance Matrix: (Units=1/GPa)
#
#
# Indices 1 2 3 4 5 6 
#
# 1 0.015898 -0.000390 -0.003899 0.003844 -0.005732 -0.000594
# 2 -0.000390 0.007255 -0.001356 0.002031 -0.000595 -0.003455
# 3 -0.003899 -0.001356 0.006342 -0.002859 0.001834 0.000863
# 4 0.003844 0.002031 -0.002859 0.028981 0.002805 0.003091
# 5 -0.005732 -0.000595 0.001834 0.002805 0.022874 0.000472
# 6 -0.000594 -0.003455 0.000863 0.003091 0.000472 0.020460
#
#
# Mechanical properties :
#
#
# Convention : Reuss Voigt Hill
#
# Bulk Modulus (GPa) = 54.93252 71.84736 63.38994
# Shear Modulus (GPa) = 41.95810 52.32874 47.14342
#
# Velocity S-wave (km/s) = 3.90467 4.36060 4.13892
# Velocity P-wave (km/s) = 6.34741 7.17360 6.77312
#
# Compressibility (1/GPa) = 0.01820415
#
# Stress axis : x y z
#
# Youngs Moduli (GPa) = 62.90243 137.84487 157.68364
#
# Poissons Ratio (x) = 0.05370 0.61487
# Poissons Ratio (y) = 0.02451 0.21380
# Poissons Ratio (z) = 0.24528 0.18691
#
# Static dielectric constant tensor:
#      x y z
#    x 2.627110 0.251080 -0.244250 
#    y 0.251080 2.301760 -0.063520 
#    z -0.244250 -0.063520 2.247730 
# 
# From -- ./inp_files/8011.got.cif
#   From: 2010.05.17/outbox.cif.g08.bks.cpg/sg2_5_cif.got.tgz:8011.got - 2010.06.03 11:33:40.
