data_PCOD9049733
_publ_section_title
;
Structure prediction by ZEFSAII (Michael W. Deem and Ramdas Pophale) SiO2 
 PCOD9049733
Probable space group: P -1
;
_chemical_formula_sum "Si O2"
_cell_formula_units_Z 16
_cell_length_a 9.086307
_cell_length_b 14.215183
_cell_length_c 8.584615
_cell_angle_alpha 77.298939
_cell_angle_beta 45.133439
_cell_angle_gamma 63.699134
_cell_volume 696.982435
_symmetry_space_group_name_H-M "P -1"
_symmetry_group_IT_number 2
_symmetry_cell_setting 'triclinic'
loop_
_space_group_symop_operation_xyz
x,y,z
-x,-y,-z
loop_
_atom_site_type_symbol
_atom_site_label
_atom_site_fract_x
_atom_site_fract_y
_atom_site_fract_z
Si Si1 0.892137 0.605724 0.829650
Si Si2 0.657236 0.839058 0.472851
Si Si3 0.279947 0.972807 0.184102
Si Si4 0.811194 0.453294 0.624431
Si Si5 0.177641 0.990579 0.619821
Si Si6 0.906077 0.640358 0.141263
Si Si7 0.671657 0.365119 0.072551
Si Si8 0.510811 0.229300 0.084038
O O1 0.658524 0.653224 0.888950
O O2 0.073227 0.626098 0.576642
O O3 0.024567 0.480745 0.813940
O O4 0.800810 0.660217 0.042801
O O5 0.810249 0.906891 0.340861
O O6 0.774872 0.728026 0.334626
O O7 0.620796 0.818477 0.688080
O O8 0.409615 0.900854 0.552799
O O9 0.065393 0.021270 0.202278
O O10 0.209750 0.996768 0.407386
O O11 0.372217 0.848856 0.114525
O O12 0.500000 0.000000 0.000000
O O13 0.571764 0.547580 0.725659
O O14 0.000000 0.500000 0.500000
O O15 0.759517 0.402207 0.836117
O O16 0.147840 0.644639 0.928922
O O17 0.675303 0.253206 0.068995
#
# Coordination Sequence:
#
# PCOD9049733 Si02
#       8
#     2   2   2   2   2   2   2   2
#     4  11  23  40  66  94 141 177 220 281 337 397
#     4  11  23  45  71 101 138 183 236 282 345 413
#     4  11  23  46  71 103 137 173 227 291 355 410
#     4  11  19  40  64  90 130 179 223 275 324 403
#     4  10  24  47  72  99 138 180 226 295 346 410
#     4  11  23  41  64 100 137 178 225 285 333 410
#     4  11  22  37  65  94 128 177 229 270 334 401
#     4  12  23  41  69 101 132 184 226 282 344 415
#
# _framework density 22.956098999999998
#
# number of rings (size 3 to 8) (size 9 to 14) (size 15 to 20)
#    0.000    1.000    3.750    3.750    0.000    1.000 
#    4.500    1.250    0.000    0.000    0.000    0.000 
#    0.000    0.000    0.000    0.000    0.000    0.000 
#
# Total GULP energy -89153.221255 kJ/mol
# GULP energy per Si atom -5572.076328 kJ/mol
# Density = 2.290385 g / cm^3
# Si number density = 22.956099 Si / 1000 Ang^3
#
#
#
# Elastic Constant Matrix: (Units=GPa)
#
#
# Indices 1 2 3 4 5 6 
#
# 1 105.8979 19.4220 17.6016 3.0263 -13.7819 -16.3121
# 2 19.4220 50.1998 3.2677 20.3517 -12.8168 -2.6627
# 3 17.6016 3.2677 61.9822 12.6597 -9.6851 0.9063
# 4 3.0263 20.3517 12.6597 33.8066 8.7200 -5.6535
# 5 -13.7819 -12.8168 -9.6851 8.7200 44.7983 6.8743
# 6 -16.3121 -2.6627 0.9063 -5.6535 6.8743 27.7044
#
#
#
# Elastic Compliance Matrix: (Units=1/GPa)
#
#
# Indices 1 2 3 4 5 6 
#
# 1 0.012583 -0.007701 -0.005198 0.007546 -0.002298 0.008949
# 2 -0.007701 0.041331 0.010776 -0.035836 0.020816 -0.013392
# 3 -0.005198 0.010776 0.022928 -0.019216 0.011652 -0.009588
# 4 0.007546 -0.035836 -0.019216 0.068993 -0.029031 0.022910
# 5 -0.002298 0.020816 0.011652 -0.029031 0.038058 -0.015101
# 6 0.008949 -0.013392 -0.009588 0.022910 -0.015101 0.048813
#
#
# Mechanical properties :
#
#
# Convention : Reuss Voigt Hill
#
# Bulk Modulus (GPa) = 13.77511 33.18472 23.47992
# Shear Modulus (GPa) = 19.14595 33.11443 26.13019
#
# Velocity S-wave (km/s) = 2.89108 3.80216 3.37748
# Velocity P-wave (km/s) = 4.14224 5.81054 5.04581
#
# Compressibility (1/GPa) = 0.07259468
#
# Stress axis : x y z
#
# Youngs Moduli (GPa) = 79.47074 24.19478 43.61552
#
# Poissons Ratio (x) = 0.18633 0.22673
# Poissons Ratio (y) = 0.61201 -0.46999
# Poissons Ratio (z) = 0.41312 -0.26072
#
# Static dielectric constant tensor:
#      x y z
#    x 1.911910 0.011030 -0.004140 
#    y 0.011030 1.907200 -0.006440 
#    z -0.004140 -0.006440 1.924570 
# 
# From -- ./inp_files/206648.got.cif
#   From: 2010.05.17/outbox.cif.g08.bks.cpg/sg2_104_cif.got.tgz:206648.got - 2010.06.03 11:33:40.
