data_PCOD9049060
_publ_section_title
;
Structure prediction by ZEFSAII (Michael W. Deem and Ramdas Pophale) SiO2 
 PCOD9049060
Probable space group: P -1
;
_chemical_formula_sum "Si O2"
_cell_formula_units_Z 14
_cell_length_a 8.101410
_cell_length_b 16.096010
_cell_length_c 4.878162
_cell_angle_alpha 105.857788
_cell_angle_beta 117.589541
_cell_angle_gamma 66.913691
_cell_volume 515.343176
_symmetry_space_group_name_H-M "P -1"
_symmetry_group_IT_number 2
_symmetry_cell_setting 'triclinic'
loop_
_space_group_symop_operation_xyz
x,y,z
-x,-y,-z
loop_
_atom_site_type_symbol
_atom_site_label
_atom_site_fract_x
_atom_site_fract_y
_atom_site_fract_z
Si Si1 0.209383 0.890975 0.799580
Si Si2 0.751122 0.818711 0.618282
Si Si3 0.593954 0.409333 0.680224
Si Si4 0.223668 0.069141 0.730827
Si Si5 0.239668 0.462212 0.809332
Si Si6 0.952848 0.362734 0.498796
Si Si7 0.359046 0.777327 0.315624
O O1 0.313630 0.803392 0.619964
O O2 0.984280 0.922148 0.564472
O O3 0.294518 0.970560 0.836149
O O4 0.236009 0.860746 0.106902
O O5 0.671387 0.901390 0.417335
O O6 0.582871 0.771952 0.451524
O O7 0.943415 0.741752 0.589668
O O8 0.790448 0.858177 0.973876
O O9 0.364300 0.423771 0.595484
O O10 0.758830 0.379091 0.542982
O O11 0.675108 0.317988 0.852598
O O12 0.607332 0.510031 0.852061
O O13 0.098058 0.563602 0.721426
O O14 0.125253 0.398968 0.795474
#
# Coordination Sequence:
#
# PCOD9049060 Si02
#       7
#     2   2   2   2   2   2   2
#     4  11  26  48  75 106 146 197 251 307 378 452
#     4  12  26  45  72 111 151 194 249 311 373 452
#     4  11  24  44  70 105 146 195 250 309 375 443
#     4  11  26  48  75 106 146 197 251 307 378 452
#     4  10  24  46  68 102 144 194 252 310 372 446
#     4  11  24  44  70 105 146 195 250 309 375 443
#     4  12  26  45  72 111 151 194 249 311 373 452
#
# _framework density 27.166363
#
# number of rings (size 3 to 8) (size 9 to 14) (size 15 to 20)
#    0.000    0.857    1.429    4.286    8.000    5.714 
#    0.000    0.000    0.000    0.000    0.000    0.000 
#    0.000    0.000    0.000    0.000    0.000    0.000 
#
# Total GULP energy -78260.585404 kJ/mol
# GULP energy per Si atom -5590.041815 kJ/mol
# Density = 2.710453 g / cm^3
# Si number density = 27.166363 Si / 1000 Ang^3
#
#
#
# Elastic Constant Matrix: (Units=GPa)
#
#
# Indices 1 2 3 4 5 6 
#
# 1 99.1262 16.1733 18.9085 -0.8273 -6.7978 -4.9876
# 2 16.1733 120.7642 11.1072 14.1196 6.4661 18.4057
# 3 18.9085 11.1072 72.8170 14.0310 -7.2622 -3.0105
# 4 -0.8273 14.1196 14.0310 32.3250 1.0074 8.5899
# 5 -6.7978 6.4661 -7.2622 1.0074 37.0318 -5.4057
# 6 -4.9876 18.4057 -3.0105 8.5899 -5.4057 49.3081
#
#
#
# Elastic Compliance Matrix: (Units=1/GPa)
#
#
# Indices 1 2 3 4 5 6 
#
# 1 0.011123 -0.001791 -0.002691 0.001763 0.002004 0.001542
# 2 -0.001791 0.009624 -0.000871 -0.002827 -0.002632 -0.003623
# 3 -0.002691 -0.000871 0.016516 -0.007708 0.003514 0.002789
# 4 0.001763 -0.002827 -0.007708 0.037239 -0.002584 -0.006008
# 5 0.002004 -0.002632 0.003514 -0.002584 0.029330 0.005065
# 6 0.001542 -0.003623 0.002789 -0.006008 0.005065 0.023561
#
#
# Mechanical properties :
#
#
# Convention : Reuss Voigt Hill
#
# Bulk Modulus (GPa) = 37.65324 42.78727 40.22025
# Shear Modulus (GPa) = 34.02504 40.16754 37.09629
#
# Velocity S-wave (km/s) = 3.54286 3.84940 3.69931
# Velocity P-wave (km/s) = 5.53409 5.96166 5.75185
#
# Compressibility (1/GPa) = 0.02655814
#
# Stress axis : x y z
#
# Youngs Moduli (GPa) = 89.90070 103.90628 60.54832
#
# Poissons Ratio (x) = 0.18605 0.16296
# Poissons Ratio (y) = 0.16097 0.05271
# Poissons Ratio (z) = 0.24196 0.09046
#
# Static dielectric constant tensor:
#      x y z
#    x 2.114080 -0.008160 0.127500 
#    y -0.008160 2.095240 -0.090350 
#    z 0.127500 -0.090350 2.617750 
# 
# From -- ./inp_files/40072.got.cif
#   From: 2010.05.17/outbox.cif.g08.bks.cpg/sg2_21_cif.got.tgz:40072.got - 2010.06.03 11:33:40.
