data_PCOD9049420
_publ_section_title
;
Structure prediction by ZEFSAII (Michael W. Deem and Ramdas Pophale) SiO2 
 PCOD9049420
Probable space group: P -1
;
_chemical_formula_sum "Si O2"
_cell_formula_units_Z 16
_cell_length_a 9.732953
_cell_length_b 5.371682
_cell_length_c 14.273899
_cell_angle_alpha 103.441282
_cell_angle_beta 74.399105
_cell_angle_gamma 70.310186
_cell_volume 632.351543
_symmetry_space_group_name_H-M "P -1"
_symmetry_group_IT_number 2
_symmetry_cell_setting 'triclinic'
loop_
_space_group_symop_operation_xyz
x,y,z
-x,-y,-z
loop_
_atom_site_type_symbol
_atom_site_label
_atom_site_fract_x
_atom_site_fract_y
_atom_site_fract_z
Si Si1 0.089675 0.575667 0.905966
Si Si2 0.232261 0.962382 0.553263
Si Si3 0.130579 0.668122 0.288477
Si Si4 0.222923 0.196439 0.092534
Si Si5 0.186596 0.413537 0.449426
Si Si6 0.641187 0.974419 0.274457
Si Si7 0.355100 0.764626 0.887206
Si Si8 0.384192 0.827804 0.206637
O O1 0.208699 0.696358 0.932357
O O2 0.950912 0.795577 0.886257
O O3 0.199367 0.303030 0.802349
O O4 0.000000 0.500000 0.000000
O O5 0.233137 0.662991 0.498795
O O6 0.350583 0.937272 0.613821
O O7 0.260124 0.142244 0.479787
O O8 0.052436 0.150127 0.639949
O O9 0.169792 0.513814 0.167355
O O10 0.205108 0.431099 0.335236
O O11 0.226378 0.856749 0.289933
O O12 0.317420 0.066095 0.968344
O O13 0.331668 0.993721 0.134271
O O14 0.000000 0.500000 0.500000
O O15 0.639797 0.210650 0.223123
O O16 0.498058 0.907906 0.258730
O O17 0.513566 0.504587 0.865105
#
# Coordination Sequence:
#
# PCOD9049420 Si02
#       8
#     2   2   2   2   2   2   2   2
#     4  11  24  43  67 105 137 185 246 301 359 422
#     4  11  25  45  81 107 146 189 242 306 382 426
#     4  11  25  42  73 105 139 181 245 301 361 441
#     4  12  25  41  72 102 138 187 244 290 364 421
#     4  10  24  46  73 115 145 181 239 319 372 431
#     4  11  25  46  69 100 147 189 238 293 370 438
#     4  11  26  45  66  99 152 190 233 300 358 440
#     4  11  28  43  67 100 149 191 239 290 363 437
#
# _framework density 25.302381
#
# number of rings (size 3 to 8) (size 9 to 14) (size 15 to 20)
#    0.000    1.000    2.500    3.000   12.250    2.000 
#    0.000    1.250    0.000    0.000    0.000    0.000 
#    0.000    0.000    0.000    0.000    0.000    0.000 
#
# Total GULP energy -89568.477225 kJ/mol
# GULP energy per Si atom -5598.029827 kJ/mol
# Density = 2.524479 g / cm^3
# Si number density = 25.302381 Si / 1000 Ang^3
#
#
#
# Elastic Constant Matrix: (Units=GPa)
#
#
# Indices 1 2 3 4 5 6 
#
# 1 103.0133 25.1121 33.3077 -10.6272 -15.3566 -13.9427
# 2 25.1121 88.2875 14.2750 -4.3679 9.1816 2.3268
# 3 33.3077 14.2750 89.3846 -9.8080 23.8169 6.7826
# 4 -10.6272 -4.3679 -9.8080 40.4346 0.6351 -5.8166
# 5 -15.3566 9.1816 23.8169 0.6351 32.8191 -6.6812
# 6 -13.9427 2.3268 6.7826 -5.8166 -6.6812 48.2173
#
#
#
# Elastic Compliance Matrix: (Units=1/GPa)
#
#
# Indices 1 2 3 4 5 6 
#
# 1 0.021511 -0.006572 -0.014138 0.002895 0.024608 0.012285
# 2 -0.006572 0.013849 0.003321 0.000096 -0.010267 -0.004447
# 3 -0.014138 0.003321 0.024248 0.001330 -0.027469 -0.011305
# 4 0.002895 0.000096 0.001330 0.026378 0.000650 0.003918
# 5 0.024608 -0.010267 -0.027469 0.000650 0.069079 0.021125
# 6 0.012285 -0.004447 -0.011305 0.003918 0.021125 0.029496
#
#
# Mechanical properties :
#
#
# Convention : Reuss Voigt Hill
#
# Bulk Modulus (GPa) = 40.27406 47.34167 43.80786
# Shear Modulus (GPa) = 21.96680 38.16025 30.06353
#
# Velocity S-wave (km/s) = 2.94967 3.88773 3.45072
# Velocity P-wave (km/s) = 5.24904 6.23727 5.76437
#
# Compressibility (1/GPa) = 0.02482988
#
# Stress axis : x y z
#
# Youngs Moduli (GPa) = 46.48849 72.20885 41.24002
#
# Poissons Ratio (x) = 0.47458 0.58303
# Poissons Ratio (y) = 0.30554 -0.13696
# Poissons Ratio (z) = 0.65724 -0.23980
#
# Static dielectric constant tensor:
#      x y z
#    x 1.977450 0.009510 0.034290 
#    y 0.009510 2.049120 0.046780 
#    z 0.034290 0.046780 1.984920 
# 
# From -- ./inp_files/50890.got.cif
#   From: 2010.05.17/outbox.cif.g08.bks.cpg/sg2_26_cif.got.tgz:50890.got - 2010.06.03 11:33:40.
