data_PCOD9049137
_publ_section_title
;
Structure prediction by ZEFSAII (Michael W. Deem and Ramdas Pophale) SiO2 
 PCOD9049137
Probable space group: P -1
;
_chemical_formula_sum "Si O2"
_cell_formula_units_Z 14
_cell_length_a 8.340451
_cell_length_b 17.294449
_cell_length_c 9.537360
_cell_angle_alpha 120.985409
_cell_angle_beta 102.812536
_cell_angle_gamma 125.441784
_cell_volume 641.025574
_symmetry_space_group_name_H-M "P -1"
_symmetry_group_IT_number 2
_symmetry_cell_setting 'triclinic'
loop_
_space_group_symop_operation_xyz
x,y,z
-x,-y,-z
loop_
_atom_site_type_symbol
_atom_site_label
_atom_site_fract_x
_atom_site_fract_y
_atom_site_fract_z
Si Si1 0.634647 0.803481 0.406543
Si Si2 0.245635 0.745141 0.470644
Si Si3 0.469194 0.954973 0.112342
Si Si4 0.780989 0.852720 0.164499
Si Si5 0.829534 0.144159 0.765260
Si Si6 0.284121 0.474260 0.004113
Si Si7 0.680396 0.308330 0.266234
O O1 0.461639 0.804833 0.449740
O O2 0.629451 0.808007 0.240678
O O3 0.476876 0.639551 0.265502
O O4 0.979194 0.962889 0.660922
O O5 0.344977 0.740370 0.626689
O O6 0.914382 0.571925 0.200266
O O7 0.263063 0.862183 0.600634
O O8 0.212587 0.872456 0.090161
O O9 0.401455 0.817531 0.961758
O O10 0.500000 0.000000 0.000000
O O11 0.990899 0.863261 0.247785
O O12 0.559251 0.732650 0.882865
O O13 0.042698 0.320658 0.916702
O O14 0.500000 0.000000 0.500000
O O15 0.500000 0.500000 0.000000
O O16 0.000000 0.500000 0.500000
#
# Coordination Sequence:
#
# PCOD9049137 Si02
#       7
#     2   2   2   2   2   2   2
#     4  11  24  42  70 106 137 178 236 292 344 414
#     4  11  24  46  68  99 140 188 227 281 351 416
#     4  10  24  46  69  95 133 187 233 275 348 419
#     4  11  25  45  70 104 139 184 235 286 353 417
#     4  12  24  46  73 104 140 185 232 289 352 417
#     4  12  25  40  72 111 144 177 236 297 347 411
#     4  11  27  45  68  96 139 180 231 286 348 415
#
# _framework density 21.840004
#
# number of rings (size 3 to 8) (size 9 to 14) (size 15 to 20)
#    0.000    0.857    4.286    1.286   10.000    0.571 
#    0.000    0.714    0.000    0.000    0.000    0.000 
#    0.000    0.000    0.000    0.000    0.000    0.000 
#
# Total GULP energy -78048.862604 kJ/mol
# GULP energy per Si atom -5574.918757 kJ/mol
# Density = 2.179029 g / cm^3
# Si number density = 21.840004 Si / 1000 Ang^3
#
#
#
# Elastic Constant Matrix: (Units=GPa)
#
#
# Indices 1 2 3 4 5 6 
#
# 1 90.7784 37.1722 45.3835 -4.1294 -3.5620 9.9167
# 2 37.1722 122.4031 54.7511 10.6804 4.7324 11.7419
# 3 45.3835 54.7511 125.6198 27.6680 17.6247 1.0113
# 4 -4.1294 10.6804 27.6680 53.8024 -7.2733 -9.7746
# 5 -3.5620 4.7324 17.6247 -7.2733 41.6112 2.6334
# 6 9.9167 11.7419 1.0113 -9.7746 2.6334 29.5439
#
#
#
# Elastic Compliance Matrix: (Units=1/GPa)
#
#
# Indices 1 2 3 4 5 6 
#
# 1 0.016140 -0.002259 -0.006806 0.005407 0.005656 -0.003002
# 2 -0.002259 0.010980 -0.003717 -0.001119 0.000181 -0.003865
# 3 -0.006806 -0.003717 0.015004 -0.008372 -0.008054 0.001196
# 4 0.005407 -0.001119 -0.008372 0.025866 0.008231 0.006741
# 5 0.005656 0.000181 -0.008054 0.008231 0.029446 -0.001597
# 6 -0.003002 -0.003865 0.001196 0.006741 -0.001597 0.038723
#
#
# Mechanical properties :
#
#
# Convention : Reuss Voigt Hill
#
# Bulk Modulus (GPa) = 60.39551 68.15720 64.27636
# Shear Modulus (GPa) = 29.89645 38.42448 34.16046
#
# Velocity S-wave (km/s) = 3.70386 4.19903 3.95919
# Velocity P-wave (km/s) = 6.78270 7.40164 7.09892
#
# Compressibility (1/GPa) = 0.01655752
#
# Stress axis : x y z
#
# Youngs Moduli (GPa) = 61.95944 91.07538 66.64963
#
# Poissons Ratio (x) = 0.20577 0.45364
# Poissons Ratio (y) = 0.13999 0.24775
# Poissons Ratio (z) = 0.42172 0.33854
#
# Static dielectric constant tensor:
#      x y z
#    x 1.857080 -0.080110 -0.017300 
#    y -0.080110 1.866380 0.018360 
#    z -0.017300 0.018360 1.808160 
# 
# From -- ./inp_files/218353.got.cif
#   From: 2010.05.17/outbox.cif.g08.bks.cpg/sg2_110_cif.got.tgz:218353.got - 2010.06.03 11:33:40.
