data_PCOD9049114
_publ_section_title
;
Structure prediction by ZEFSAII (Michael W. Deem and Ramdas Pophale) SiO2 
 PCOD9049114
Probable space group: P -1
;
_chemical_formula_sum "Si O2"
_cell_formula_units_Z 16
_cell_length_a 14.698132
_cell_length_b 9.453015
_cell_length_c 11.880533
_cell_angle_alpha 100.344607
_cell_angle_beta 149.406922
_cell_angle_gamma 67.255392
_cell_volume 732.319072
_symmetry_space_group_name_H-M "P -1"
_symmetry_group_IT_number 2
_symmetry_cell_setting 'triclinic'
loop_
_space_group_symop_operation_xyz
x,y,z
-x,-y,-z
loop_
_atom_site_type_symbol
_atom_site_label
_atom_site_fract_x
_atom_site_fract_y
_atom_site_fract_z
Si Si1 0.078052 0.991445 0.955704
Si Si2 0.319785 0.518532 0.887986
Si Si3 0.239540 0.457079 0.235718
Si Si4 0.599686 0.906862 0.706873
Si Si5 0.623543 0.817655 0.053179
Si Si6 0.385846 0.615208 0.222827
Si Si7 0.293238 0.974247 0.572134
Si Si8 0.038524 0.152256 0.532533
O O1 0.878890 0.045001 0.678432
O O2 0.257440 0.810013 0.100030
O O3 0.183048 0.101851 0.056659
O O4 0.000000 0.000000 0.000000
O O5 0.298437 0.354197 0.827393
O O6 0.144480 0.680366 0.671044
O O7 0.500000 0.500000 0.000000
O O8 0.358604 0.546414 0.063898
O O9 0.361532 0.276475 0.287629
O O10 0.270676 0.571912 0.194098
O O11 0.381842 0.445320 0.494875
O O12 0.000000 0.500000 0.000000
O O13 0.500000 0.000000 0.500000
O O14 0.439692 0.003933 0.647658
O O15 0.822376 0.824381 0.221504
O O16 0.500000 0.000000 0.000000
O O17 0.455065 0.819608 0.789676
O O18 0.169719 0.109747 0.551341
O O19 0.000000 0.000000 0.500000
#
# Coordination Sequence:
#
# PCOD9049114 Si02
#       8
#     2   2   2   2   2   2   2   2
#     4  12  23  42  74 104 143 186 241 295 357 433
#     4  12  25  47  73 106 147 195 245 301 373 438
#     4  11  25  46  69 102 147 186 236 299 363 423
#     4  12  24  41  68 107 137 187 240 286 356 434
#     4  10  24  46  69 102 138 182 245 301 355 439
#     4  11  25  46  69 105 146 185 238 298 356 439
#     4  11  24  44  70 100 144 183 236 301 361 426
#     4  11  25  47  73 104 141 193 243 305 368 431
#
# _framework density 21.848399000000001
#
# number of rings (size 3 to 8) (size 9 to 14) (size 15 to 20)
#    0.000    0.750    3.750    3.375    1.750    5.000 
#    6.750    0.000    0.000    0.000    0.000    0.000 
#    0.000    0.000    0.000    0.000    0.000    0.000 
#
# Total GULP energy -89165.898275 kJ/mol
# GULP energy per Si atom -5572.868642 kJ/mol
# Density = 2.179867 g / cm^3
# Si number density = 21.848399 Si / 1000 Ang^3
#
#
#
# Elastic Constant Matrix: (Units=GPa)
#
#
# Indices 1 2 3 4 5 6 
#
# 1 76.9891 14.8955 21.0974 -5.8185 21.7948 -10.3439
# 2 14.8955 126.5020 36.0394 -11.4723 -0.1196 14.5039
# 3 21.0974 36.0394 190.4957 -5.8783 21.7919 5.7194
# 4 -5.8185 -11.4723 -5.8783 39.4823 3.9700 4.7757
# 5 21.7948 -0.1196 21.7919 3.9700 33.2962 2.6265
# 6 -10.3439 14.5039 5.7194 4.7757 2.6265 32.9388
#
#
#
# Elastic Compliance Matrix: (Units=1/GPa)
#
#
# Indices 1 2 3 4 5 6 
#
# 1 0.018427 -0.002811 -0.000208 0.002217 -0.012813 0.007761
# 2 -0.002811 0.009540 -0.001605 0.002465 0.003057 -0.005406
# 3 -0.000208 -0.001605 0.006056 0.000825 -0.003914 -0.000218
# 4 0.002217 0.002465 0.000825 0.027489 -0.004934 -0.004124
# 5 -0.012813 0.003057 -0.003914 -0.004934 0.042160 -0.007337
# 6 0.007761 -0.005406 -0.000218 -0.004124 -0.007337 0.036398
#
#
# Mechanical properties :
#
#
# Convention : Reuss Voigt Hill
#
# Bulk Modulus (GPa) = 40.36410 59.78348 50.07379
# Shear Modulus (GPa) = 31.73088 42.60707 37.16898
#
# Velocity S-wave (km/s) = 3.81507 4.42081 4.12906
# Velocity P-wave (km/s) = 6.15801 7.31303 6.76023
#
# Compressibility (1/GPa) = 0.02477449
#
# Stress axis : x y z
#
# Youngs Moduli (GPa) = 54.26777 104.82727 165.12984
#
# Poissons Ratio (x) = 0.29471 0.03432
# Poissons Ratio (y) = 0.15257 0.26499
# Poissons Ratio (z) = 0.01128 0.16822
#
# Static dielectric constant tensor:
#      x y z
#    x 1.815900 0.078360 0.000520 
#    y 0.078360 1.397970 -0.220510 
#    z 0.000520 -0.220510 1.866770 
# 
# From -- ./inp_files/447696.got.cif
#   From: 2010.05.17/outbox.cif.g08.bks.cpg/sg2_224_cif.got.tgz:447696.got - 2010.06.03 11:33:40.
