data_PCOD9049484
_publ_section_title
;
Structure prediction by ZEFSAII (Michael W. Deem and Ramdas Pophale) SiO2 
 PCOD9049484
Probable space group: P -1
;
_chemical_formula_sum "Si O2"
_cell_formula_units_Z 12
_cell_length_a 9.331820
_cell_length_b 8.815303
_cell_length_c 16.172792
_cell_angle_alpha 113.865733
_cell_angle_beta 142.317014
_cell_angle_gamma 96.773332
_cell_volume 461.909120
_symmetry_space_group_name_H-M "P -1"
_symmetry_group_IT_number 2
_symmetry_cell_setting 'triclinic'
loop_
_space_group_symop_operation_xyz
x,y,z
-x,-y,-z
loop_
_atom_site_type_symbol
_atom_site_label
_atom_site_fract_x
_atom_site_fract_y
_atom_site_fract_z
Si Si1 0.807733 0.518990 0.654902
Si Si2 0.973305 0.679830 0.039625
Si Si3 0.772528 0.206556 0.246243
Si Si4 0.727523 0.995638 0.898450
Si Si5 0.948710 0.714279 0.227978
Si Si6 0.153452 0.142140 0.511766
O O1 0.500000 0.500000 0.500000
O O2 0.892479 0.541099 0.600835
O O3 0.873030 0.365012 0.683123
O O4 0.068388 0.756421 0.894341
O O5 0.539195 0.459620 0.763350
O O6 0.983197 0.747042 0.152248
O O7 0.000000 0.500000 0.000000
O O8 0.301725 0.933781 0.187791
O O9 0.869182 0.101504 0.322630
O O10 0.597271 0.236342 0.237649
O O11 0.500000 0.000000 0.000000
O O12 0.000000 0.000000 0.000000
O O13 0.500000 0.500000 0.000000
O O14 0.181573 0.991495 0.437358
O O15 0.000000 0.000000 0.500000
#
# Coordination Sequence:
#
# PCOD9049484 Si02
#       6
#     2   2   2   2   2   2
#     4  11  25  48  72 114 153 197 262 317 396 471
#     4  12  26  48  74 112 158 195 270 323 382 475
#     4  10  24  46  75 105 158 203 254 324 390 466
#     4  11  25  45  71 106 152 204 252 319 386 459
#     4  12  26  49  83 112 157 208 258 332 395 462
#     4  12  26  47  80 114 149 207 267 321 398 467
#
# _framework density 25.979137000000001
#
# number of rings (size 3 to 8) (size 9 to 14) (size 15 to 20)
#    0.000    0.667    3.333    4.000    7.000    3.333 
#    0.000    2.500    0.000    0.000    0.000    0.000 
#    0.000    0.000    0.000    0.000    0.000    0.000 
#
# Total GULP energy -66990.087605 kJ/mol
# GULP energy per Si atom -5582.507300 kJ/mol
# Density = 2.592001 g / cm^3
# Si number density = 25.979137 Si / 1000 Ang^3
#
#
#
# Elastic Constant Matrix: (Units=GPa)
#
#
# Indices 1 2 3 4 5 6 
#
# 1 265.9379 75.6738 56.0344 -3.9322 -17.0265 30.9469
# 2 75.6738 127.5799 48.0399 -22.3416 1.4293 -5.5711
# 3 56.0344 48.0399 128.9818 -20.9467 -11.3804 2.0118
# 4 -3.9322 -22.3416 -20.9467 46.1642 -0.0949 -3.6640
# 5 -17.0265 1.4293 -11.3804 -0.0949 53.8496 -3.4224
# 6 30.9469 -5.5711 2.0118 -3.6640 -3.4224 71.9730
#
#
#
# Elastic Compliance Matrix: (Units=1/GPa)
#
#
# Indices 1 2 3 4 5 6 
#
# 1 0.005251 -0.003076 -0.001276 -0.001815 0.001311 -0.002490
# 2 -0.003076 0.011458 -0.002401 0.004383 -0.001622 0.002422
# 3 -0.001276 -0.002401 0.009880 0.003243 0.001775 0.000336
# 4 -0.001815 0.004383 0.003243 0.025285 0.000187 0.002325
# 5 0.001311 -0.001622 0.001775 0.000187 0.019416 0.000194
# 6 -0.002490 0.002422 0.000336 0.002325 0.000194 0.015271
#
#
# Mechanical properties :
#
#
# Convention : Reuss Voigt Hill
#
# Bulk Modulus (GPa) = 76.42791 97.99954 87.21373
# Shear Modulus (GPa) = 47.88119 57.24744 52.56432
#
# Velocity S-wave (km/s) = 4.29775 4.69934 4.50302
# Velocity P-wave (km/s) = 7.35597 8.20057 7.78973
#
# Compressibility (1/GPa) = 0.01308423
#
# Stress axis : x y z
#
# Youngs Moduli (GPa) = 190.43276 87.27625 101.21961
#
# Poissons Ratio (x) = 0.26842 0.12917
# Poissons Ratio (y) = 0.58568 0.24298
# Poissons Ratio (z) = 0.24301 0.20951
#
# Static dielectric constant tensor:
#      x y z
#    x 1.115110 -3.496680 -2.236940 
#    y -3.496680 -11.151240 -9.185220 
#    z -2.236940 -9.185220 -4.103070 
# 
# From -- ./inp_files/380927.got.cif
#   From: 2010.05.17/outbox.cif.g08.bks.cpg/sg2_191_cif.got.tgz:380927.got - 2010.06.03 11:33:40.
