data_PCOD9049155
_publ_section_title
;
Structure prediction by ZEFSAII (Michael W. Deem and Ramdas Pophale) SiO2 
 PCOD9049155
Probable space group: P -1
;
_chemical_formula_sum "Si O2"
_cell_formula_units_Z 16
_cell_length_a 16.292106
_cell_length_b 9.767989
_cell_length_c 20.331675
_cell_angle_alpha 28.592010
_cell_angle_beta 153.286001
_cell_angle_gamma 141.070801
_cell_volume 695.782694
_symmetry_space_group_name_H-M "P -1"
_symmetry_group_IT_number 2
_symmetry_cell_setting 'triclinic'
loop_
_space_group_symop_operation_xyz
x,y,z
-x,-y,-z
loop_
_atom_site_type_symbol
_atom_site_label
_atom_site_fract_x
_atom_site_fract_y
_atom_site_fract_z
Si Si1 0.823941 0.804864 0.962778
Si Si2 0.963495 0.664408 0.763254
Si Si3 0.673233 0.989957 0.321483
Si Si4 0.204198 0.416458 0.819682
Si Si5 0.441283 0.818383 0.473828
Si Si6 0.366931 0.587672 0.307076
Si Si7 0.135461 0.219228 0.713802
Si Si8 0.209820 0.324045 0.582338
O O1 0.662552 0.981367 0.737315
O O2 0.779460 0.748224 0.030536
O O3 0.877930 0.510990 0.087502
O O4 0.000000 0.000000 0.000000
O O5 0.821945 0.814659 0.546842
O O6 0.841217 0.429485 0.811970
O O7 0.037875 0.920715 0.753489
O O8 0.476822 0.851466 0.246427
O O9 0.746672 0.949530 0.316796
O O10 0.666894 0.313750 0.203700
O O11 0.215395 0.233693 0.838002
O O12 0.001933 0.575304 0.611529
O O13 0.609976 0.660636 0.625765
O O14 0.312545 0.575436 0.512760
O O15 0.500000 0.000000 0.500000
O O16 0.500000 0.500000 0.500000
O O17 0.261047 0.270461 0.717780
O O18 0.000000 0.500000 0.500000
#
# Coordination Sequence:
#
# PCOD9049155 Si02
#       8
#     2   2   2   2   2   2   2   2
#     4  12  23  41  67  99 132 172 225 277 319 388
#     4  11  20  37  65  95 134 169 220 271 324 388
#     4  10  17  34  59  97 125 173 215 268 322 403
#     4  11  20  34  64  94 132 164 225 266 327 378
#     4  11  25  42  66  92 133 178 215 266 338 396
#     4   9  21  37  62  93 129 170 214 260 329 396
#     4  10  21  33  61 101 127 166 214 272 321 384
#     4  10  18  35  61  92 122 170 220 259 314 390
#
# _framework density 22.995685999999999
#
# number of rings (size 3 to 8) (size 9 to 14) (size 15 to 20)
#    0.000    1.500    5.000    2.625    3.500    0.000 
#    0.000    3.750    0.000   20.250    0.000    0.000 
#    0.000    0.000    0.000    0.000    0.000    0.250 
#
# Total GULP energy -89462.618547 kJ/mol
# GULP energy per Si atom -5591.413659 kJ/mol
# Density = 2.294335 g / cm^3
# Si number density = 22.995686 Si / 1000 Ang^3
#
#
#
# Elastic Constant Matrix: (Units=GPa)
#
#
# Indices 1 2 3 4 5 6 
#
# 1 154.3343 59.0835 45.8970 -2.2349 -13.7650 -28.5168
# 2 59.0835 128.6581 40.3534 -28.9690 -11.7971 -38.9640
# 3 45.8970 40.3534 47.4624 7.3291 2.2131 13.9955
# 4 -2.2349 -28.9690 7.3291 14.8398 -12.0719 -11.8226
# 5 -13.7650 -11.7971 2.2131 -12.0719 32.2392 -11.2560
# 6 -28.5168 -38.9640 13.9955 -11.8226 -11.2560 34.3678
#
#
#
# Elastic Compliance Matrix: (Units=1/GPa)
#
#
# Indices 1 2 3 4 5 6 
#
# 1 0.009158 -0.005217 -0.003067 -0.008164 -0.000905 -0.000172
# 2 -0.005217 0.003672 0.005695 -0.008019 -0.006897 -0.007503
# 3 -0.003067 0.005695 0.012861 0.020291 0.010686 0.009155
# 4 -0.008164 -0.008019 0.020291 0.012394 -0.011413 -0.023603
# 5 -0.000905 -0.006897 0.010686 -0.011413 0.019441 -0.010481
# 6 -0.000172 -0.007503 0.009155 -0.023603 -0.010481 0.005168
#
#
# Mechanical properties :
#
#
# Convention : Reuss Voigt Hill
#
# Bulk Modulus (GPa) = 48.74592 69.01363 58.87978
# Shear Modulus (GPa) = 66.92657 28.63076 47.77867
#
# Velocity S-wave (km/s) = 5.40066 3.53235 4.56315
# Velocity P-wave (km/s) = 7.75457 6.83472 7.30913
#
# Compressibility (1/GPa) = 0.02051454
#
# Stress axis : x y z
#
# Youngs Moduli (GPa) = 109.19512 272.35134 77.75187
#
# Poissons Ratio (x) = 1.42085 0.23844
# Poissons Ratio (y) = 0.56967 -0.44283
# Poissons Ratio (z) = 0.33487 -1.55116
#
# Static dielectric constant tensor:
#      x y z
#    x 1.823480 -0.017020 -0.009510 
#    y -0.017020 1.886860 -0.025180 
#    z -0.009510 -0.025180 1.864770 
# 
# From -- ./inp_files/599330.got.cif
#   From: 2010.05.17/outbox.cif.g08.bks.cpg/sg2_300_cif.got.tgz:599330.got - 2010.06.03 11:33:40.
