data_PCOD9049457
_publ_section_title
;
Structure prediction by ZEFSAII (Michael W. Deem and Ramdas Pophale) SiO2 
 PCOD9049457
Probable space group: P -1
;
_chemical_formula_sum "Si O2"
_cell_formula_units_Z 14
_cell_length_a 12.333584
_cell_length_b 11.606998
_cell_length_c 5.016041
_cell_angle_alpha 122.734753
_cell_angle_beta 60.764454
_cell_angle_gamma 124.746497
_cell_volume 479.158080
_symmetry_space_group_name_H-M "P -1"
_symmetry_group_IT_number 2
_symmetry_cell_setting 'triclinic'
loop_
_space_group_symop_operation_xyz
x,y,z
-x,-y,-z
loop_
_atom_site_type_symbol
_atom_site_label
_atom_site_fract_x
_atom_site_fract_y
_atom_site_fract_z
Si Si1 0.714379 0.497006 0.501685
Si Si2 0.000000 0.000000 0.500000
Si Si3 0.462093 0.208205 0.650454
Si Si4 0.234663 0.223359 0.562965
Si Si5 0.163654 0.850607 0.428856
Si Si6 0.357417 0.968569 0.852955
Si Si7 0.000000 0.500000 0.000000
Si Si8 0.050783 0.326932 0.196310
O O1 0.579353 0.367291 0.620695
O O2 0.697963 0.621578 0.485205
O O3 0.823941 0.453220 0.163667
O O4 0.797487 0.583512 0.771047
O O5 0.159943 0.084617 0.282067
O O6 0.932358 0.065949 0.414729
O O7 0.329785 0.200749 0.641790
O O8 0.522186 0.088650 0.344862
O O9 0.426095 0.149522 0.927360
O O10 0.076850 0.196352 0.835443
O O11 0.255573 0.890138 0.630373
O O12 0.039420 0.686181 0.441072
O O13 0.267180 0.891344 0.117831
O O14 0.986114 0.393906 0.145050
#
# Coordination Sequence:
#
# PCOD9049457 Si02
#       8
#     2   1   2   2   2   2   1   2
#     4  11  24  46  74 113 148 212 251 333 389 481
#     4  12  24  46  82 108 154 202 254 338 382 466
#     4  11  26  50  74 108 163 208 263 315 401 473
#     4  11  25  49  72 116 154 204 264 323 402 470
#     4  12  26  49  81 114 157 198 275 326 400 461
#     4  11  28  51  76 116 155 215 262 330 390 475
#     4  10  24  46  74 108 154 196 264 310 398 456
#     4  11  25  45  76 116 151 199 265 330 392 469
#
# _framework density 29.217917
#
# number of rings (size 3 to 8) (size 9 to 14) (size 15 to 20)
#    0.000    0.857    2.857    2.571    6.000    4.000 
#   10.286    0.000    0.000    0.000    0.000    0.000 
#    0.000    0.000    0.000    0.000    0.000    0.000 
#
# Total GULP energy -78101.684219 kJ/mol
# GULP energy per Si atom -5578.691730 kJ/mol
# Density = 2.915142 g / cm^3
# Si number density = 29.217917 Si / 1000 Ang^3
#
#
#
# Elastic Constant Matrix: (Units=GPa)
#
#
# Indices 1 2 3 4 5 6 
#
# 1 221.4741 89.3696 67.8669 -16.5637 3.8472 -31.8508
# 2 89.3696 215.2773 57.3726 -57.7480 -17.1288 -14.5654
# 3 67.8669 57.3726 160.3373 -46.8822 17.6991 -0.7754
# 4 -16.5637 -57.7480 -46.8822 61.8102 -6.6912 -5.1852
# 5 3.8472 -17.1288 17.6991 -6.6912 51.4534 -8.9297
# 6 -31.8508 -14.5654 -0.7754 -5.1852 -8.9297 77.9852
#
#
#
# Elastic Compliance Matrix: (Units=1/GPa)
#
#
# Indices 1 2 3 4 5 6 
#
# 1 0.006397 -0.002567 -0.002436 -0.002425 -0.000482 0.001892
# 2 -0.002567 0.008162 -0.000117 0.007421 0.004165 0.001445
# 3 -0.002436 -0.000117 0.009322 0.005978 -0.002425 -0.000804
# 4 -0.002425 0.007421 0.005978 0.027743 0.004696 0.002837
# 5 -0.000482 0.004165 -0.002425 0.004696 0.022909 0.003492
# 6 0.001892 0.001445 -0.000804 0.002837 0.003492 0.014446
#
#
# Mechanical properties :
#
#
# Convention : Reuss Voigt Hill
#
# Bulk Modulus (GPa) = 73.31000 114.03410 93.67205
# Shear Modulus (GPa) = 48.18613 63.74839 55.96726
#
# Velocity S-wave (km/s) = 4.06544 4.67607 4.38140
# Velocity P-wave (km/s) = 6.86894 8.26243 7.59770
#
# Compressibility (1/GPa) = 0.01364070
#
# Stress axis : x y z
#
# Youngs Moduli (GPa) = 156.33143 122.51994 107.27861
#
# Poissons Ratio (x) = 0.31454 0.26130
# Poissons Ratio (y) = 0.40134 0.01252
# Poissons Ratio (z) = 0.38078 0.01430
#
# Static dielectric constant tensor:
#      x y z
#    x 2.108770 0.095970 -0.044500 
#    y 0.095970 2.451920 0.042780 
#    z -0.044500 0.042780 2.511010 
# 
# From -- ./inp_files/71049.got.cif
#   From: 2010.05.17/outbox.cif.g08.bks.cpg/sg2_36_cif.got.tgz:71049.got - 2010.06.03 11:33:40.
