data_PCOD9049261
_publ_section_title
;
Structure prediction by ZEFSAII (Michael W. Deem and Ramdas Pophale) SiO2 
 PCOD9049261
Probable space group: P -1
;
_chemical_formula_sum "Si O2"
_cell_formula_units_Z 12
_cell_length_a 5.166910
_cell_length_b 8.928182
_cell_length_c 16.030692
_cell_angle_alpha 56.531533
_cell_angle_beta 59.219527
_cell_angle_gamma 95.026575
_cell_volume 453.974796
_symmetry_space_group_name_H-M "P -1"
_symmetry_group_IT_number 2
_symmetry_cell_setting 'triclinic'
loop_
_space_group_symop_operation_xyz
x,y,z
-x,-y,-z
loop_
_atom_site_type_symbol
_atom_site_label
_atom_site_fract_x
_atom_site_fract_y
_atom_site_fract_z
Si Si1 0.253204 0.655726 0.180441
Si Si2 0.427546 0.903588 0.748137
Si Si3 0.005801 0.637371 0.533642
Si Si4 0.250888 0.923876 0.950646
Si Si5 0.604620 0.849230 0.574295
Si Si6 0.599578 0.453456 0.086388
O O1 0.007824 0.469420 0.342534
O O2 0.322549 0.322246 0.426068
O O3 0.517084 0.576234 0.132064
O O4 0.183524 0.731296 0.079640
O O5 0.212447 0.900877 0.864366
O O6 0.645110 0.139094 0.608461
O O7 0.325575 0.765891 0.722542
O O8 0.638206 0.800408 0.786260
O O9 0.621720 0.133503 0.849442
O O10 0.000000 0.500000 0.500000
O O11 0.000000 0.000000 0.000000
O O12 0.500000 0.000000 0.500000
O O13 0.000000 0.000000 0.500000
O O14 0.500000 0.500000 0.000000
O O15 0.000000 0.500000 0.000000
#
# Coordination Sequence:
#
# PCOD9049261 Si02
#       6
#     2   2   2   2   2   2
#     4  11  24  45  71 104 147 195 250 310 374 448
#     4  11  23  46  73 107 147 193 250 310 372 444
#     4  11  23  46  73 109 149 197 252 310 381 443
#     4  11  24  45  70 105 146 196 249 310 373 450
#     4  10  24  46  71 105 149 191 239 303 370 437
#     4  12  26  46  77 111 145 195 250 305 373 445
#
# _framework density 26.433185000000002
#
# number of rings (size 3 to 8) (size 9 to 14) (size 15 to 20)
#    0.000    1.000    5.000    1.000    0.000    4.000 
#    9.000    4.167    0.000    0.000    0.000    0.000 
#    0.000    0.000    0.000    0.000    0.000    0.000 
#
# Total GULP energy -66898.876666 kJ/mol
# GULP energy per Si atom -5574.906389 kJ/mol
# Density = 2.637302 g / cm^3
# Si number density = 26.433185 Si / 1000 Ang^3
#
#
#
# Elastic Constant Matrix: (Units=GPa)
#
#
# Indices 1 2 3 4 5 6 
#
# 1 77.9324 34.5437 32.8811 -1.9053 10.8465 -25.4732
# 2 34.5437 235.5767 75.7485 21.0347 13.8228 0.6532
# 3 32.8811 75.7485 248.3170 -1.7934 24.8907 -10.5648
# 4 -1.9053 21.0347 -1.7934 70.7843 6.3854 6.3260
# 5 10.8465 13.8228 24.8907 6.3854 35.3087 -12.3345
# 6 -25.4732 0.6532 -10.5648 6.3260 -12.3345 42.4373
#
#
#
# Elastic Compliance Matrix: (Units=1/GPa)
#
#
# Indices 1 2 3 4 5 6 
#
# 1 0.017732 -0.002250 -0.001206 0.000209 -0.000155 0.010302
# 2 -0.002250 0.005164 -0.001283 -0.001398 -0.000792 -0.001771
# 3 -0.001206 -0.001283 0.004850 0.000767 -0.002837 -0.000436
# 4 0.000209 -0.001398 0.000767 0.015190 -0.003870 -0.003052
# 5 -0.000155 -0.000792 -0.002837 -0.003870 0.034843 0.009917
# 6 0.010302 -0.001771 -0.000436 -0.003052 0.009917 0.033004
#
#
# Mechanical properties :
#
#
# Convention : Reuss Voigt Hill
#
# Bulk Modulus (GPa) = 54.74787 94.24140 74.49464
# Shear Modulus (GPa) = 39.57240 57.61623 48.59431
#
# Velocity S-wave (km/s) = 3.87340 4.67378 4.29229
# Velocity P-wave (km/s) = 6.38444 8.05331 7.26694
#
# Compressibility (1/GPa) = 0.01826555
#
# Stress axis : x y z
#
# Youngs Moduli (GPa) = 56.39515 193.65950 206.20094
#
# Poissons Ratio (x) = 0.43581 0.24872
# Poissons Ratio (y) = 0.12691 0.26462
# Poissons Ratio (z) = 0.06802 0.24852
#
# Static dielectric constant tensor:
#      x y z
#    x 2.374580 0.134390 -0.152250 
#    y 0.134390 2.102920 -0.041730 
#    z -0.152250 -0.041730 2.385440 
# 
# From -- ./inp_files/582929.got.cif
#   From: 2010.05.17/outbox.cif.g08.bks.cpg/sg2_292_cif.got.tgz:582929.got - 2010.06.03 11:33:40.
