data_PCOD9049305
_publ_section_title
;
Structure prediction by ZEFSAII (Michael W. Deem and Ramdas Pophale) SiO2 
 PCOD9049305
Probable space group: P -1
;
_chemical_formula_sum "Si O2"
_cell_formula_units_Z 13
_cell_length_a 12.507392
_cell_length_b 13.981047
_cell_length_c 13.780528
_cell_angle_alpha 20.316241
_cell_angle_beta 38.485760
_cell_angle_gamma 39.043069
_cell_volume 510.453782
_symmetry_space_group_name_H-M "P -1"
_symmetry_group_IT_number 2
_symmetry_cell_setting 'triclinic'
loop_
_space_group_symop_operation_xyz
x,y,z
-x,-y,-z
loop_
_atom_site_type_symbol
_atom_site_label
_atom_site_fract_x
_atom_site_fract_y
_atom_site_fract_z
Si Si1 0.693812 0.907201 0.993024
Si Si2 0.914192 0.307806 0.421012
Si Si3 0.000000 0.000000 0.500000
Si Si4 0.165626 0.573302 0.255253
Si Si5 0.414870 0.731536 0.090945
Si Si6 0.822495 0.963559 0.346239
Si Si7 0.654601 0.163164 0.467743
O O1 0.765877 0.582042 0.268801
O O2 0.500000 0.000000 0.000000
O O3 0.836469 0.026425 0.712276
O O4 0.692762 0.083876 0.923778
O O5 0.032415 0.292708 0.258218
O O6 0.026224 0.228412 0.513018
O O7 0.825600 0.171512 0.399122
O O8 0.292478 0.687331 0.131068
O O9 0.000000 0.500000 0.500000
O O10 0.256072 0.274427 0.427805
O O11 0.112642 0.820887 0.978332
O O12 0.505358 0.425574 0.354168
O O13 0.568047 0.892738 0.801483
O O14 0.701234 0.156163 0.327048
#
# Coordination Sequence:
#
# PCOD9049305 Si02
#       7
#     2   2   1   2   2   2   2
#     4  12  24  42  66  98 137 179 225 285 349 411
#     4  11  24  42  68  98 135 178 232 282 340 413
#     4  10  24  46  72 102 140 184 230 284 348 420
#     4  12  26  46  70 101 141 186 235 290 354 419
#     4  12  26  44  69 102 140 182 235 289 347 417
#     4  11  25  44  70 101 136 183 235 291 347 414
#     4  11  25  45  71 104 140 183 232 287 351 416
#
# _framework density 25.467535999999999
#
# number of rings (size 3 to 8) (size 9 to 14) (size 15 to 20)
#    0.000    0.615    0.000    7.385    0.000   11.077 
#    0.000    0.000    0.000    0.000    0.000    0.000 
#    0.000    0.000    0.000    0.000    0.000    0.000 
#
# Total GULP energy -72638.510143 kJ/mol
# GULP energy per Si atom -5587.577703 kJ/mol
# Density = 2.540957 g / cm^3
# Si number density = 25.467536 Si / 1000 Ang^3
#
#
#
# Elastic Constant Matrix: (Units=GPa)
#
#
# Indices 1 2 3 4 5 6 
#
# 1 144.6145 56.5204 61.1828 -12.5047 -12.7451 12.6262
# 2 56.5204 115.5729 29.0065 -31.1813 6.1851 5.2517
# 3 61.1828 29.0065 144.6311 -5.8476 -2.9737 -1.1648
# 4 -12.5047 -31.1813 -5.8476 41.5752 -8.4839 1.3722
# 5 -12.7451 6.1851 -2.9737 -8.4839 33.8394 4.2112
# 6 12.6262 5.2517 -1.1648 1.3722 4.2112 47.6317
#
#
#
# Elastic Compliance Matrix: (Units=1/GPa)
#
#
# Indices 1 2 3 4 5 6 
#
# 1 0.010944 -0.004412 -0.003638 0.000617 0.005134 -0.002975
# 2 -0.004412 0.013260 -0.000509 0.008141 -0.002044 -0.000359
# 3 -0.003638 -0.000509 0.008529 -0.000485 -0.000813 0.001315
# 4 0.000617 0.008141 -0.000485 0.031789 0.006996 -0.002607
# 5 0.005134 -0.002044 -0.000813 0.006996 0.034085 -0.004370
# 6 -0.002975 -0.000359 0.001315 -0.002607 -0.004370 0.022316
#
#
# Mechanical properties :
#
#
# Convention : Reuss Voigt Hill
#
# Bulk Modulus (GPa) = 64.03905 77.58199 70.81052
# Shear Modulus (GPa) = 34.90451 41.81650 38.36051
#
# Velocity S-wave (km/s) = 3.70611 4.05650 3.88526
# Velocity P-wave (km/s) = 6.59649 7.24358 6.92759
#
# Compressibility (1/GPa) = 0.01561547
#
# Stress axis : x y z
#
# Youngs Moduli (GPa) = 91.37298 75.41379 117.24042
#
# Poissons Ratio (x) = 0.33274 0.42655
# Poissons Ratio (y) = 0.40316 0.05964
# Poissons Ratio (z) = 0.33244 0.03836
#
# Static dielectric constant tensor:
#      x y z
#    x 1.824130 -0.346990 -0.263830 
#    y -0.346990 1.121670 -0.683070 
#    z -0.263830 -0.683070 1.488290 
# 
# From -- ./inp_files/521184.got.cif
#   From: 2010.05.17/outbox.cif.g08.bks.cpg/sg2_261_cif.got.tgz:521184.got - 2010.06.03 11:33:40.
