data_PCOD9049365
_publ_section_title
;
Structure prediction by ZEFSAII (Michael W. Deem and Ramdas Pophale) SiO2 
 PCOD9049365
Probable space group: P -1
;
_chemical_formula_sum "Si O2"
_cell_formula_units_Z 16
_cell_length_a 8.237035
_cell_length_b 15.118039
_cell_length_c 12.340579
_cell_angle_alpha 45.849037
_cell_angle_beta 79.800427
_cell_angle_gamma 113.624595
_cell_volume 727.332914
_symmetry_space_group_name_H-M "P -1"
_symmetry_group_IT_number 2
_symmetry_cell_setting 'triclinic'
loop_
_space_group_symop_operation_xyz
x,y,z
-x,-y,-z
loop_
_atom_site_type_symbol
_atom_site_label
_atom_site_fract_x
_atom_site_fract_y
_atom_site_fract_z
Si Si1 0.884290 0.400943 0.270666
Si Si2 0.147094 0.530803 0.353516
Si Si3 0.603519 0.920199 0.054775
Si Si4 0.157989 0.108134 0.100458
Si Si5 0.394327 0.166029 0.622910
Si Si6 0.227201 0.467985 0.005136
Si Si7 0.749656 0.811504 0.745968
Si Si8 0.529945 0.510469 0.616848
O O1 0.602674 0.210115 0.493870
O O2 0.879847 0.520201 0.095456
O O3 0.007895 0.487505 0.298543
O O4 0.047013 0.394870 0.189851
O O5 0.222521 0.429362 0.436558
O O6 0.000000 0.500000 0.500000
O O7 0.405997 0.740558 0.157399
O O8 0.844789 0.004893 0.891284
O O9 0.605984 0.875482 0.215918
O O10 0.500000 0.000000 0.000000
O O11 0.271829 0.135406 0.179780
O O12 0.304298 0.305357 0.864986
O O13 0.879322 0.995412 0.251058
O O14 0.465442 0.350077 0.456225
O O15 0.496903 0.676341 0.821854
O O16 0.238449 0.328138 0.109788
O O17 0.000000 0.000000 0.500000
O O18 0.500000 0.500000 0.500000
#
# Coordination Sequence:
#
# PCOD9049365 Si02
#       8
#     2   2   2   2   2   2   2   2
#     4  11  23  44  69 100 136 182 224 280 349 404
#     4  11  22  40  64  96 132 173 221 270 339 408
#     4  11  25  40  60  96 138 178 222 278 336 409
#     4  11  25  43  66 100 136 178 231 288 338 413
#     4  12  24  42  66  98 137 184 226 271 343 411
#     4  10  24  46  72  98 137 174 233 291 335 409
#     4  11  24  46  73 102 129 177 236 287 349 399
#     4  11  22  41  68  94 132 183 228 275 334 406
#
# _framework density 21.998179
#
# number of rings (size 3 to 8) (size 9 to 14) (size 15 to 20)
#    0.000    1.000    3.750    3.375    1.750    6.000 
#    0.000    6.875    0.000    0.000    0.000    0.000 
#    0.000    0.000    0.000    0.000    0.000    0.000 
#
# Total GULP energy -89409.932322 kJ/mol
# GULP energy per Si atom -5588.120770 kJ/mol
# Density = 2.194811 g / cm^3
# Si number density = 21.998179 Si / 1000 Ang^3
#
#
#
# Elastic Constant Matrix: (Units=GPa)
#
#
# Indices 1 2 3 4 5 6 
#
# 1 83.1164 27.1782 0.6291 -0.6185 1.9199 9.8055
# 2 27.1782 66.9488 33.4028 19.2657 7.2318 8.7192
# 3 0.6291 33.4028 84.4830 1.6486 -12.2824 3.6878
# 4 -0.6185 19.2657 1.6486 44.8710 -0.8999 0.3915
# 5 1.9199 7.2318 -12.2824 -0.8999 40.2000 4.3506
# 6 9.8055 8.7192 3.6878 0.3915 4.3506 39.5978
#
#
#
# Elastic Compliance Matrix: (Units=1/GPa)
#
#
# Indices 1 2 3 4 5 6 
#
# 1 0.015318 -0.009354 0.003975 0.004153 0.002521 -0.002422
# 2 -0.009354 0.029960 -0.012736 -0.012686 -0.008902 -0.001991
# 3 0.003975 -0.012736 0.017906 0.005027 0.007766 -0.000751
# 4 0.004153 -0.012686 0.005027 0.027684 0.004178 0.000564
# 5 0.002521 -0.008902 0.007766 0.004178 0.029107 -0.002627
# 6 -0.002422 -0.001991 -0.000751 0.000564 -0.002627 0.026645
#
#
# Mechanical properties :
#
#
# Convention : Reuss Voigt Hill
#
# Bulk Modulus (GPa) = 37.09760 39.66315 38.38037
# Shear Modulus (GPa) = 26.06421 36.48963 31.27692
#
# Velocity S-wave (km/s) = 3.44588 4.07720 3.77476
# Velocity P-wave (km/s) = 5.72125 6.34304 6.04015
#
# Compressibility (1/GPa) = 0.02695592
#
# Stress axis : x y z
#
# Youngs Moduli (GPa) = 65.28157 33.37819 55.84673
#
# Poissons Ratio (x) = 0.31222 -0.22202
# Poissons Ratio (y) = 0.61064 0.71124
# Poissons Ratio (z) = -0.25952 0.42509
#
# Static dielectric constant tensor:
#      x y z
#    x 1.959530 -0.017820 -0.077280 
#    y -0.017820 1.798530 0.086270 
#    z -0.077280 0.086270 1.993720 
# 
# From -- ./inp_files/398578.got.cif
#   From: 2010.05.17/outbox.cif.g08.bks.cpg/sg2_200_cif.got.tgz:398578.got - 2010.06.03 11:33:40.
