data_PCOD9049680
_publ_section_title
;
Structure prediction by ZEFSAII (Michael W. Deem and Ramdas Pophale) SiO2 
 PCOD9049680
Probable space group: P -1
;
_chemical_formula_sum "Si O2"
_cell_formula_units_Z 12
_cell_length_a 9.246385
_cell_length_b 13.303225
_cell_length_c 5.293660
_cell_angle_alpha 52.872707
_cell_angle_beta 75.622402
_cell_angle_gamma 98.383960
_cell_volume 464.588518
_symmetry_space_group_name_H-M "P -1"
_symmetry_group_IT_number 2
_symmetry_cell_setting 'triclinic'
loop_
_space_group_symop_operation_xyz
x,y,z
-x,-y,-z
loop_
_atom_site_type_symbol
_atom_site_label
_atom_site_fract_x
_atom_site_fract_y
_atom_site_fract_z
Si Si1 0.326016 0.469565 0.001328
Si Si2 0.417642 0.070265 0.621078
Si Si3 0.290435 0.754970 0.489801
Si Si4 0.998380 0.415011 0.387950
Si Si5 0.228708 0.201006 0.212636
Si Si6 0.133645 0.943143 0.286767
O O1 0.317618 0.617477 0.752180
O O2 0.500000 0.500000 0.000000
O O3 0.164108 0.389797 0.357426
O O4 0.285008 0.365812 0.934566
O O5 0.530797 0.134311 0.716238
O O6 0.379115 0.184916 0.312849
O O7 0.500000 0.000000 0.500000
O O8 0.243859 0.973731 0.945186
O O9 0.187541 0.829126 0.576609
O O10 0.175367 0.706566 0.369686
O O11 0.000000 0.500000 0.500000
O O12 0.000000 0.500000 0.000000
O O13 0.057668 0.130721 0.541369
O O14 0.186524 0.092523 0.164943
#
# Coordination Sequence:
#
# PCOD9049680 Si02
#       6
#     2   2   2   2   2   2
#     4  11  23  45  72 107 146 186 247 309 374 439
#     4  12  25  44  73 106 144 193 248 303 368 448
#     4  11  23  44  73 104 142 194 247 302 376 443
#     4  10  24  47  71 104 147 196 245 302 376 451
#     4  11  24  47  68 106 147 185 247 302 376 439
#     4  11  25  45  73 101 144 193 243 303 368 450
#
# _framework density 25.829305999999999
#
# number of rings (size 3 to 8) (size 9 to 14) (size 15 to 20)
#    0.000    1.000    5.000    1.000    0.000    4.000 
#    6.000    4.167    0.000    0.000    0.000    0.000 
#    0.000    0.000    0.000    0.000    0.000    0.000 
#
# Total GULP energy -66848.307652 kJ/mol
# GULP energy per Si atom -5570.692304 kJ/mol
# Density = 2.577052 g / cm^3
# Si number density = 25.829306 Si / 1000 Ang^3
#
#
#
# Elastic Constant Matrix: (Units=GPa)
#
#
# Indices 1 2 3 4 5 6 
#
# 1 190.7308 56.0646 19.3577 -1.8893 -19.0149 -4.1423
# 2 56.0646 208.4353 63.9265 -20.8499 -4.8598 6.8053
# 3 19.3577 63.9265 50.1115 -1.1710 0.8282 -5.8609
# 4 -1.8893 -20.8499 -1.1710 43.9633 -6.1104 -2.6328
# 5 -19.0149 -4.8598 0.8282 -6.1104 18.7231 0.8727
# 6 -4.1423 6.8053 -5.8609 -2.6328 0.8727 56.8006
#
#
#
# Elastic Compliance Matrix: (Units=1/GPa)
#
#
# Indices 1 2 3 4 5 6 
#
# 1 0.006345 -0.001237 -0.000912 0.000568 0.006328 0.000446
# 2 -0.001237 0.009248 -0.011532 0.004332 0.003172 -0.002236
# 3 -0.000912 -0.011532 0.035586 -0.005305 -0.007451 0.004856
# 4 0.000568 0.004332 -0.005305 0.026140 0.010466 0.000026
# 5 0.006328 0.003172 -0.007451 0.010466 0.064461 -0.001193
# 6 0.000446 -0.002236 0.004856 0.000026 -0.001193 0.018426
#
#
# Mechanical properties :
#
#
# Convention : Reuss Voigt Hill
#
# Bulk Modulus (GPa) = 41.98728 80.88613 61.43670
# Shear Modulus (GPa) = 25.57464 44.55933 35.06699
#
# Velocity S-wave (km/s) = 3.15006 4.15799 3.68862
# Velocity P-wave (km/s) = 5.43337 7.37804 6.47908
#
# Compressibility (1/GPa) = 0.02381674
#
# Stress axis : x y z
#
# Youngs Moduli (GPa) = 157.59369 108.13732 28.10133
#
# Poissons Ratio (x) = 0.13380 0.02563
# Poissons Ratio (y) = 0.19499 0.32405
# Poissons Ratio (z) = 0.14371 1.24700
#
# Static dielectric constant tensor:
#      x y z
#    x 2.069970 -0.057850 0.143400 
#    y -0.057850 2.090300 -0.092130 
#    z 0.143400 -0.092130 2.334230 
# 
# From -- ./inp_files/26131.got.cif
#   From: 2010.05.17/outbox.cif.g08.bks.cpg/sg2_14_cif.got.tgz:26131.got - 2010.06.03 11:33:40.
