data_PCOD9049091
_publ_section_title
;
Structure prediction by ZEFSAII (Michael W. Deem and Ramdas Pophale) SiO2 
 PCOD9049091
Probable space group: P -1
;
_chemical_formula_sum "Si O2"
_cell_formula_units_Z 14
_cell_length_a 10.120312
_cell_length_b 13.900941
_cell_length_c 9.215813
_cell_angle_alpha 49.007525
_cell_angle_beta 120.401580
_cell_angle_gamma 143.777219
_cell_volume 577.497759
_symmetry_space_group_name_H-M "P -1"
_symmetry_group_IT_number 2
_symmetry_cell_setting 'triclinic'
loop_
_space_group_symop_operation_xyz
x,y,z
-x,-y,-z
loop_
_atom_site_type_symbol
_atom_site_label
_atom_site_fract_x
_atom_site_fract_y
_atom_site_fract_z
Si Si1 0.038414 0.773811 0.566762
Si Si2 0.887045 0.899314 0.184560
Si Si3 0.804575 0.519263 0.069299
Si Si4 0.660267 0.205555 0.459753
Si Si5 0.677675 0.201663 0.821392
Si Si6 0.387653 0.599295 0.218251
Si Si7 0.986507 0.122052 0.274614
O O1 0.112410 0.697637 0.593559
O O2 0.135786 0.858207 0.697026
O O3 0.062047 0.908350 0.344993
O O4 0.774504 0.611415 0.613229
O O5 0.633387 0.703651 0.210307
O O6 0.867982 0.004978 0.179523
O O7 0.000000 0.000000 0.000000
O O8 0.647564 0.347018 0.265963
O O9 0.063127 0.666443 0.118873
O O10 0.736185 0.416953 0.976484
O O11 0.799364 0.667779 0.876406
O O12 0.666702 0.192281 0.648859
O O13 0.500000 0.000000 0.500000
O O14 0.616750 0.302759 0.751642
O O15 0.500000 0.000000 0.000000
O O16 0.000000 0.000000 0.500000
#
# Coordination Sequence:
#
# PCOD9049091 Si02
#       7
#     2   2   2   2   2   2   2
#     4  10  24  46  68  96 147 183 238 291 356 429
#     4  11  25  43  70 100 136 188 247 294 347 421
#     4  11  24  46  72 105 147 183 239 296 359 432
#     4  12  28  43  72 113 145 186 241 301 363 427
#     4  12  26  42  72 107 145 188 232 298 370 437
#     4  11  24  43  70 100 140 188 235 288 363 423
#     4   9  22  44  70  97 139 191 231 288 354 423
#
# _framework density 24.242518
#
# number of rings (size 3 to 8) (size 9 to 14) (size 15 to 20)
#    0.000    1.143    1.429    3.000   14.000    0.000 
#    0.000    2.857    0.000    0.000    0.000    0.000 
#    0.000    0.000    0.000    0.000    0.000    0.000 
#
# Total GULP energy -78010.214711 kJ/mol
# GULP energy per Si atom -5572.158194 kJ/mol
# Density = 2.418734 g / cm^3
# Si number density = 24.242518 Si / 1000 Ang^3
#
#
#
# Elastic Constant Matrix: (Units=GPa)
#
#
# Indices 1 2 3 4 5 6 
#
# 1 42.2337 26.3612 29.4469 15.4757 -8.7697 -2.0983
# 2 26.3612 116.8612 67.2122 4.4875 -19.1440 -3.9710
# 3 29.4469 67.2122 194.0199 5.1667 -29.2439 -17.5859
# 4 15.4757 4.4875 5.1667 48.7126 -18.1662 -12.6873
# 5 -8.7697 -19.1440 -29.2439 -18.1662 35.5144 -0.9097
# 6 -2.0983 -3.9710 -17.5859 -12.6873 -0.9097 35.3148
#
#
#
# Elastic Compliance Matrix: (Units=1/GPa)
#
#
# Indices 1 2 3 4 5 6 
#
# 1 0.033485 -0.005754 -0.003961 -0.012890 -0.004826 -0.005385
# 2 -0.005754 0.011999 -0.002626 0.002845 0.004361 0.000834
# 3 -0.003961 -0.002626 0.008023 0.004496 0.006647 0.005251
# 4 -0.012890 0.002845 0.004496 0.035490 0.020592 0.015074
# 5 -0.004826 0.004361 0.006647 0.020592 0.045633 0.012087
# 6 -0.005385 0.000834 0.005251 0.015074 0.012087 0.036432
#
#
# Mechanical properties :
#
#
# Convention : Reuss Voigt Hill
#
# Bulk Modulus (GPa) = 34.69268 66.57284 50.63276
# Shear Modulus (GPa) = 24.34832 39.24799 31.79815
#
# Velocity S-wave (km/s) = 3.17261 4.02801 3.62563
# Velocity P-wave (km/s) = 5.26900 7.01099 6.20146
#
# Compressibility (1/GPa) = 0.02882453
#
# Stress axis : x y z
#
# Youngs Moduli (GPa) = 29.86451 83.33948 124.63837
#
# Poissons Ratio (x) = 0.47952 0.49371
# Poissons Ratio (y) = 0.17183 0.32734
# Poissons Ratio (z) = 0.11830 0.21887
#
# Static dielectric constant tensor:
#      x y z
#    x 2.054040 0.098030 0.123950 
#    y 0.098030 2.117750 0.042720 
#    z 0.123950 0.042720 2.088420 
# 
# From -- ./inp_files/225902.got.cif
#   From: 2010.05.17/outbox.cif.g08.bks.cpg/sg2_113_cif.got.tgz:225902.got - 2010.06.03 11:33:40.
