data_PCOD9049639
_publ_section_title
;
Structure prediction by ZEFSAII (Michael W. Deem and Ramdas Pophale) SiO2 
 PCOD9049639
Probable space group: P -1
;
_chemical_formula_sum "Si O2"
_cell_formula_units_Z 16
_cell_length_a 11.352944
_cell_length_b 7.157701
_cell_length_c 9.601006
_cell_angle_alpha 108.588957
_cell_angle_beta 104.917859
_cell_angle_gamma 67.139481
_cell_volume 673.382101
_symmetry_space_group_name_H-M "P -1"
_symmetry_group_IT_number 2
_symmetry_cell_setting 'triclinic'
loop_
_space_group_symop_operation_xyz
x,y,z
-x,-y,-z
loop_
_atom_site_type_symbol
_atom_site_label
_atom_site_fract_x
_atom_site_fract_y
_atom_site_fract_z
Si Si1 0.008126 0.684441 0.943698
Si Si2 0.145047 0.840300 0.527250
Si Si3 0.803669 0.996137 0.131129
Si Si4 0.433361 0.808462 0.584484
Si Si5 0.110165 0.414929 0.396130
Si Si6 0.720582 0.588236 0.105497
Si Si7 0.631718 0.734801 0.408618
Si Si8 0.527634 0.215043 0.084778
O O1 0.160096 0.613750 0.946314
O O2 0.940752 0.672490 0.773165
O O3 0.000000 0.500000 0.000000
O O4 0.925440 0.894484 0.045974
O O5 0.283042 0.846298 0.515951
O O6 0.141477 0.622355 0.416785
O O7 0.161517 0.874283 0.704223
O O8 0.000000 0.000000 0.500000
O O9 0.766079 0.796346 0.138918
O O10 0.673718 0.148975 0.057901
O O11 0.536734 0.675179 0.471962
O O12 0.466221 0.744961 0.739162
O O13 0.443802 0.040288 0.627028
O O14 0.242140 0.263862 0.466928
O O15 0.000000 0.500000 0.500000
O O16 0.685617 0.590785 0.257886
O O17 0.592099 0.616044 0.984846
O O18 0.500000 0.000000 0.000000
#
# Coordination Sequence:
#
# PCOD9049639 Si02
#       8
#     2   2   2   2   2   2   2   2
#     4  10  21  36  60  95 123 160 221 252 310 385
#     4  11  21  42  65  88 130 167 208 262 317 381
#     4   9  19  35  62  91 116 163 219 249 303 374
#     4  10  22  37  62  94 123 167 215 253 315 377
#     4  12  25  39  65  96 127 165 208 268 325 367
#     4  10  17  34  60  92 126 161 213 258 306 369
#     4  11  21  36  60  95 131 157 210 264 315 372
#     4   9  16  31  57  89 115 164 212 248 294 382
#
# _framework density 23.760653999999999
#
# number of rings (size 3 to 8) (size 9 to 14) (size 15 to 20)
#    0.000    1.750    5.000    2.250    5.250    0.500 
#    0.000    0.625    0.000    7.500    0.000    0.000 
#    0.000    0.000    0.000    0.000    0.000    0.000 
#
# Total GULP energy -89411.825511 kJ/mol
# GULP energy per Si atom -5588.239094 kJ/mol
# Density = 2.370657 g / cm^3
# Si number density = 23.760654 Si / 1000 Ang^3
#
#
#
# Elastic Constant Matrix: (Units=GPa)
#
#
# Indices 1 2 3 4 5 6 
#
# 1 179.7379 40.9437 71.9110 -11.8256 -21.8529 -42.0210
# 2 40.9437 77.6758 36.5447 -3.0066 3.8529 -30.4478
# 3 71.9110 36.5447 76.4463 -14.0661 -16.7635 -35.2016
# 4 -11.8256 -3.0066 -14.0661 33.5219 -13.5327 5.5383
# 5 -21.8529 3.8529 -16.7635 -13.5327 51.4999 -2.7508
# 6 -42.0210 -30.4478 -35.2016 5.5383 -2.7508 56.3195
#
#
#
# Elastic Compliance Matrix: (Units=1/GPa)
#
#
# Indices 1 2 3 4 5 6 
#
# 1 0.009277 -0.000994 -0.006488 0.000997 0.002286 0.002343
# 2 -0.000994 0.019217 -0.008274 -0.005160 -0.005657 0.004707
# 3 -0.006488 -0.008274 0.033877 0.014750 0.013360 0.011062
# 4 0.000997 -0.005160 0.014750 0.042084 0.016875 0.003859
# 5 0.002286 -0.005657 0.013360 0.016875 0.029957 0.006801
# 6 0.002343 0.004707 0.011062 0.003859 0.006801 0.028916
#
#
# Mechanical properties :
#
#
# Convention : Reuss Voigt Hill
#
# Bulk Modulus (GPa) = 32.40563 70.29542 51.35053
# Shear Modulus (GPa) = 24.37526 40.56563 32.47044
#
# Velocity S-wave (km/s) = 3.20639 4.13638 3.70072
# Velocity P-wave (km/s) = 5.23220 7.24306 6.31814
#
# Compressibility (1/GPa) = 0.03085883
#
# Stress axis : x y z
#
# Youngs Moduli (GPa) = 107.79163 52.03817 29.51854
#
# Poissons Ratio (x) = 0.05173 0.19151
# Poissons Ratio (y) = 0.10715 0.24424
# Poissons Ratio (z) = 0.69935 0.43056
#
# Static dielectric constant tensor:
#      x y z
#    x 1.966850 0.056070 -0.022800 
#    y 0.056070 2.012370 -0.009850 
#    z -0.022800 -0.009850 1.833450 
# 
# From -- ./inp_files/245084.got.cif
#   From: 2010.05.17/outbox.cif.g08.bks.cpg/sg2_123_cif.got.tgz:245084.got - 2010.06.03 11:33:40.
