data_PCOD9049338
_publ_section_title
;
Structure prediction by ZEFSAII (Michael W. Deem and Ramdas Pophale) SiO2 
 PCOD9049338
Probable space group: P -1
;
_chemical_formula_sum "Si O2"
_cell_formula_units_Z 13
_cell_length_a 9.732286
_cell_length_b 13.599139
_cell_length_c 8.101380
_cell_angle_alpha 100.243228
_cell_angle_beta 135.782781
_cell_angle_gamma 51.679847
_cell_volume 512.315899
_symmetry_space_group_name_H-M "P -1"
_symmetry_group_IT_number 2
_symmetry_cell_setting 'triclinic'
loop_
_space_group_symop_operation_xyz
x,y,z
-x,-y,-z
loop_
_atom_site_type_symbol
_atom_site_label
_atom_site_fract_x
_atom_site_fract_y
_atom_site_fract_z
Si Si1 0.395443 0.743087 0.630210
Si Si2 0.999709 0.695074 0.243888
Si Si3 0.000000 0.500000 0.000000
Si Si4 0.810323 0.852120 0.660280
Si Si5 0.203892 0.331741 0.607322
Si Si6 0.750675 0.172750 0.841847
Si Si7 0.412873 0.952178 0.769739
O O1 0.193416 0.720762 0.455096
O O2 0.396179 0.776283 0.447326
O O3 0.312526 0.875256 0.694733
O O4 0.719989 0.603314 0.909825
O O5 0.863009 0.709083 0.302483
O O6 0.135173 0.549332 0.231568
O O7 0.731020 0.819494 0.932340
O O8 0.846053 0.723684 0.607752
O O9 0.500000 0.000000 0.500000
O O10 0.804272 0.918206 0.503607
O O11 0.077927 0.788526 0.975158
O O12 0.528061 0.242227 0.819147
O O13 0.000000 0.500000 0.500000
O O14 0.000000 0.000000 0.000000
O O15 0.500000 0.000000 0.000000
#
# Coordination Sequence:
#
# PCOD9049338 Si02
#       7
#     2   2   1   2   2   2   2
#     4  11  24  45  77 111 150 207 260 323 390 478
#     4  11  25  44  75 112 153 199 261 327 394 464
#     4  10  24  46  72 106 158 204 258 310 404 472
#     4  12  24  46  78 111 154 208 260 321 398 477
#     4  12  28  49  73 114 160 203 262 330 391 470
#     4  12  25  47  80 111 154 210 260 316 401 477
#     4  11  23  43  70 110 148 190 254 326 382 459
#
# _framework density 25.374970000000001
#
# number of rings (size 3 to 8) (size 9 to 14) (size 15 to 20)
#    0.000    0.615    4.615    2.308    0.000    7.385 
#    0.000    0.000    0.000    0.000    0.000    0.000 
#    0.000    0.000    0.000    0.000    0.000    0.000 
#
# Total GULP energy -72405.923244 kJ/mol
# GULP energy per Si atom -5569.686403 kJ/mol
# Density = 2.531722 g / cm^3
# Si number density = 25.374970 Si / 1000 Ang^3
#
#
#
# Elastic Constant Matrix: (Units=GPa)
#
#
# Indices 1 2 3 4 5 6 
#
# 1 137.5125 52.3022 33.9780 7.5252 31.2724 1.5413
# 2 52.3022 202.5122 49.1110 29.6650 27.3125 -8.9739
# 3 33.9780 49.1110 110.8126 35.3838 26.8998 14.0632
# 4 7.5252 29.6650 35.3838 67.6980 5.5003 5.5192
# 5 31.2724 27.3125 26.8998 5.5003 50.7187 2.8836
# 6 1.5413 -8.9739 14.0632 5.5192 2.8836 37.5213
#
#
#
# Elastic Compliance Matrix: (Units=1/GPa)
#
#
# Indices 1 2 3 4 5 6 
#
# 1 0.009099 -0.001581 -0.001302 0.000702 -0.004142 -0.000049
# 2 -0.001581 0.006342 -0.001725 -0.001794 -0.001480 0.002606
# 3 -0.001302 -0.001725 0.013614 -0.005487 -0.004649 -0.004297
# 4 0.000702 -0.001794 -0.005487 0.018323 0.001525 -0.001214
# 5 -0.004142 -0.001480 -0.004649 0.001525 0.025403 -0.000618
# 6 -0.000049 0.002606 -0.004297 -0.001214 -0.000618 0.029113
#
#
# Mechanical properties :
#
#
# Convention : Reuss Voigt Hill
#
# Bulk Modulus (GPa) = 50.40241 80.17998 65.29120
# Shear Modulus (GPa) = 42.47269 52.21734 47.34502
#
# Velocity S-wave (km/s) = 4.09565 4.54125 4.32420
# Velocity P-wave (km/s) = 6.50169 7.69181 7.12165
#
# Compressibility (1/GPa) = 0.01984032
#
# Stress axis : x y z
#
# Youngs Moduli (GPa) = 109.90174 157.67070 73.45379
#
# Poissons Ratio (x) = 0.24922 0.09564
# Poissons Ratio (y) = 0.17371 0.12670
# Poissons Ratio (z) = 0.14310 0.27196
#
# Static dielectric constant tensor:
#      x y z
#    x 2.071990 0.013530 -0.002850 
#    y 0.013530 2.047560 0.108570 
#    z -0.002850 0.108570 1.832850 
# 
# From -- ./inp_files/188952.got.cif
#   From: 2010.05.17/outbox.cif.g08.bks.cpg/sg2_95_cif.got.tgz:188952.got - 2010.06.03 11:33:40.
