data_PCOD9049564
_publ_section_title
;
Structure prediction by ZEFSAII (Michael W. Deem and Ramdas Pophale) SiO2 
 PCOD9049564
Probable space group: P -1
;
_chemical_formula_sum "Si O2"
_cell_formula_units_Z 11
_cell_length_a 4.790134
_cell_length_b 9.700634
_cell_length_c 15.716645
_cell_angle_alpha 36.559595
_cell_angle_beta 84.782104
_cell_angle_gamma 104.559796
_cell_volume 362.673718
_symmetry_space_group_name_H-M "P -1"
_symmetry_group_IT_number 2
_symmetry_cell_setting 'triclinic'
loop_
_space_group_symop_operation_xyz
x,y,z
-x,-y,-z
loop_
_atom_site_type_symbol
_atom_site_label
_atom_site_fract_x
_atom_site_fract_y
_atom_site_fract_z
Si Si1 0.681216 0.853531 0.107512
Si Si2 0.000000 0.500000 0.000000
Si Si3 0.989054 0.654252 0.630165
Si Si4 0.197493 0.734601 0.310165
Si Si5 0.231634 0.467917 0.853545
Si Si6 0.821830 0.885814 0.745118
O O1 0.534300 0.766841 0.250430
O O2 0.927577 0.845776 0.029115
O O3 0.400352 0.511047 0.243424
O O4 0.500000 0.000000 0.000000
O O5 0.101430 0.630572 0.029318
O O6 0.933592 0.203566 0.188963
O O7 0.223511 0.694175 0.681613
O O8 0.018161 0.425076 0.689384
O O9 0.062596 0.900289 0.443646
O O10 0.000000 0.500000 0.500000
O O11 0.227369 0.987767 0.230968
O O12 0.470174 0.611790 0.860025
#
# Coordination Sequence:
#
# PCOD9049564 Si02
#       6
#     2   1   2   2   2   2
#     4  10  24  46  80 120 165 216 280 339 422 506
#     4  12  30  44  74 118 172 220 266 350 416 506
#     4   9  23  48  83 119 157 217 276 352 412 502
#     4   8  20  49  80 116 165 215 280 350 412 504
#     4  12  26  46  75 120 165 220 277 342 427 503
#     4  11  24  51  80 118 167 214 286 340 429 499
#
# _framework density 30.330293999999999
#
# number of rings (size 3 to 8) (size 9 to 14) (size 15 to 20)
#    1.091    0.727    0.000    2.182    2.545    6.545 
#    0.000    1.818    0.000    0.000    0.000    5.091 
#    0.000    0.000    0.000    0.000    0.000    0.000 
#
# Total GULP energy -61234.628865 kJ/mol
# GULP energy per Si atom -5566.784442 kJ/mol
# Density = 3.026126 g / cm^3
# Si number density = 30.330294 Si / 1000 Ang^3
#
#
#
# Elastic Constant Matrix: (Units=GPa)
#
#
# Indices 1 2 3 4 5 6 
#
# 1 151.1471 24.6197 57.8185 -7.9544 4.9166 -6.5857
# 2 24.6197 229.1718 42.6170 -18.0615 17.5975 -7.3237
# 3 57.8185 42.6170 224.1510 12.8440 6.6380 -3.8337
# 4 -7.9544 -18.0615 12.8440 54.0109 0.2359 20.4853
# 5 4.9166 17.5975 6.6380 0.2359 55.4757 0.8837
# 6 -6.5857 -7.3237 -3.8337 20.4853 0.8837 38.5054
#
#
#
# Elastic Compliance Matrix: (Units=1/GPa)
#
#
# Indices 1 2 3 4 5 6 
#
# 1 0.007503 -0.000303 -0.001939 0.001343 -0.000348 0.000326
# 2 -0.000303 0.004812 -0.000905 0.001855 -0.001396 -0.000181
# 3 -0.001939 -0.000905 0.005294 -0.002326 -0.000185 0.001265
# 4 0.001343 0.001855 -0.002326 0.024744 -0.000330 -0.012806
# 5 -0.000348 -0.001396 -0.000185 -0.000330 0.018533 -0.000593
# 6 0.000326 -0.000181 0.001265 -0.012806 -0.000593 0.032944
#
#
# Mechanical properties :
#
#
# Convention : Reuss Voigt Hill
#
# Bulk Modulus (GPa) = 88.36787 94.95338 91.66063
# Shear Modulus (GPa) = 48.12553 61.55936 54.84245
#
# Velocity S-wave (km/s) = 3.98768 4.51003 4.25688
# Velocity P-wave (km/s) = 7.09934 7.64820 7.37887
#
# Compressibility (1/GPa) = 0.01131633
#
# Stress axis : x y z
#
# Youngs Moduli (GPa) = 133.27540 207.81823 188.89831
#
# Poissons Ratio (x) = 0.06287 0.36627
# Poissons Ratio (y) = 0.04032 0.17092
# Poissons Ratio (z) = 0.25842 0.18804
#
# Static dielectric constant tensor:
#      x y z
#    x 1.457550 0.426210 0.012130 
#    y 0.426210 2.437910 -0.168550 
#    z 0.012130 -0.168550 2.347090 
# 
# From -- ./inp_files/478802.got.cif
#   From: 2010.05.17/outbox.cif.g08.bks.cpg/sg2_240_cif.got.tgz:478802.got - 2010.06.03 11:33:40.
