data_PCOD9049141
_publ_section_title
;
Structure prediction by ZEFSAII (Michael W. Deem and Ramdas Pophale) SiO2 
 PCOD9049141
Probable space group: P -1
;
_chemical_formula_sum "Si O2"
_cell_formula_units_Z 12
_cell_length_a 6.454348
_cell_length_b 9.049109
_cell_length_c 15.073132
_cell_angle_alpha 130.747861
_cell_angle_beta 128.333299
_cell_angle_gamma 52.773179
_cell_volume 492.610921
_symmetry_space_group_name_H-M "P -1"
_symmetry_group_IT_number 2
_symmetry_cell_setting 'triclinic'
loop_
_space_group_symop_operation_xyz
x,y,z
-x,-y,-z
loop_
_atom_site_type_symbol
_atom_site_label
_atom_site_fract_x
_atom_site_fract_y
_atom_site_fract_z
Si Si1 0.678469 0.475175 0.156896
Si Si2 0.212884 0.273868 0.944907
Si Si3 0.363099 0.168457 0.452555
Si Si4 0.723062 0.387854 0.334015
Si Si5 0.217694 0.206980 0.109521
Si Si6 0.492011 0.081956 0.783145
O O1 0.499692 0.325618 0.039209
O O2 0.777632 0.457285 0.276941
O O3 0.494375 0.708316 0.174876
O O4 0.941752 0.397306 0.132268
O O5 0.206924 0.141753 0.979127
O O6 0.222278 0.159486 0.809067
O O7 0.000000 0.500000 0.000000
O O8 0.397167 0.393261 0.561199
O O9 0.021880 0.234781 0.387671
O O10 0.500000 0.000000 0.500000
O O11 0.495123 0.067783 0.354523
O O12 0.484610 0.283594 0.222524
O O13 0.257308 0.040674 0.132507
#
# Coordination Sequence:
#
# PCOD9049141 Si02
#       6
#     2   2   2   2   2   2
#     4  11  23  46  70  97 139 176 219 280 332 394
#     4  11  25  45  70  99 139 176 219 279 334 394
#     4  11  23  44  72  99 133 176 226 279 326 396
#     4  10  24  46  69  97 138 174 222 279 334 388
#     4  11  25  45  68 103 134 177 221 276 335 400
#     4  12  24  42  70 102 132 177 227 269 336 399
#
# _framework density 24.359995999999999
#
# number of rings (size 3 to 8) (size 9 to 14) (size 15 to 20)
#    0.000    1.000    5.000    1.000    0.000    4.000 
#    0.000    1.667    0.000    0.000    0.000    0.000 
#    0.000    0.000    0.000    0.000    0.000    0.000 
#
# Total GULP energy -67113.052061 kJ/mol
# GULP energy per Si atom -5592.754338 kJ/mol
# Density = 2.430455 g / cm^3
# Si number density = 24.359996 Si / 1000 Ang^3
#
#
#
# Elastic Constant Matrix: (Units=GPa)
#
#
# Indices 1 2 3 4 5 6 
#
# 1 89.8144 41.8817 53.7479 1.9626 -17.7899 -11.0768
# 2 41.8817 164.2733 62.6653 -12.2069 -24.5121 -10.0032
# 3 53.7479 62.6653 134.5831 5.7582 -51.1682 -12.6961
# 4 1.9626 -12.2069 5.7582 49.5610 -7.0096 -11.4931
# 5 -17.7899 -24.5121 -51.1682 -7.0096 53.5836 4.0380
# 6 -11.0768 -10.0032 -12.6961 -11.4931 4.0380 39.9383
#
#
#
# Elastic Compliance Matrix: (Units=1/GPa)
#
#
# Indices 1 2 3 4 5 6 
#
# 1 0.015323 -0.001865 -0.005499 -0.000103 -0.001190 0.002126
# 2 -0.001865 0.007985 -0.002687 0.002769 0.000728 0.001352
# 3 -0.005499 -0.002687 0.015402 -0.000268 0.011508 0.001457
# 4 -0.000103 0.002769 -0.000268 0.022971 0.003466 0.006840
# 5 -0.001190 0.000728 0.011508 0.003466 0.029931 0.001482
# 6 0.002126 0.001352 0.001457 0.006840 0.001482 0.028248
#
#
# Mechanical properties :
#
#
# Convention : Reuss Voigt Hill
#
# Bulk Modulus (GPa) = 53.74234 78.36230 66.05232
# Shear Modulus (GPa) = 34.20813 43.97498 39.09155
#
# Velocity S-wave (km/s) = 3.75143 4.25339 4.01027
# Velocity P-wave (km/s) = 6.39327 7.50733 6.97259
#
# Compressibility (1/GPa) = 0.01860730
#
# Stress axis : x y z
#
# Youngs Moduli (GPa) = 65.26158 125.23990 64.92694
#
# Poissons Ratio (x) = 0.23354 0.35702
# Poissons Ratio (y) = 0.12170 0.17449
# Poissons Ratio (z) = 0.35886 0.33658
#
# Static dielectric constant tensor:
#      x y z
#    x 1.952110 -0.026340 -0.039150 
#    y -0.026340 1.999940 0.008130 
#    z -0.039150 0.008130 1.985850 
# 
# From -- ./inp_files/30550.got.cif
#   From: 2010.05.17/outbox.cif.g08.bks.cpg/sg2_16_cif.got.tgz:30550.got - 2010.06.03 11:33:40.
