data_PCOD9049657
_publ_section_title
;
Structure prediction by ZEFSAII (Michael W. Deem and Ramdas Pophale) SiO2 
 PCOD9049657
Probable space group: P -1
;
_chemical_formula_sum "Si O2"
_cell_formula_units_Z 16
_cell_length_a 12.006762
_cell_length_b 11.462849
_cell_length_c 19.063731
_cell_angle_alpha 31.305971
_cell_angle_beta 45.936409
_cell_angle_gamma 34.813228
_cell_volume 778.171231
_symmetry_space_group_name_H-M "P -1"
_symmetry_group_IT_number 2
_symmetry_cell_setting 'triclinic'
loop_
_space_group_symop_operation_xyz
x,y,z
-x,-y,-z
loop_
_atom_site_type_symbol
_atom_site_label
_atom_site_fract_x
_atom_site_fract_y
_atom_site_fract_z
Si Si1 0.619629 0.979524 0.313177
Si Si2 0.235829 0.232609 0.278010
Si Si3 0.569948 0.305740 0.451114
Si Si4 0.655050 0.281652 0.261758
Si Si5 0.634380 0.088228 0.991368
Si Si6 0.884348 0.871293 0.127984
Si Si7 0.055342 0.192652 0.120508
Si Si8 0.375405 0.924856 0.228546
O O1 0.605563 0.721560 0.451711
O O2 0.791554 0.921830 0.219203
O O3 0.409558 0.222493 0.244589
O O4 0.636836 0.065578 0.338591
O O5 0.033445 0.537560 0.218044
O O6 0.254174 0.977025 0.441230
O O7 0.293123 0.132461 0.224246
O O8 0.617708 0.293971 0.354454
O O9 0.508211 0.597467 0.360012
O O10 0.864919 0.208249 0.194822
O O11 0.497547 0.587120 0.139530
O O12 0.707847 0.025125 0.071150
O O13 0.505295 0.977690 0.097507
O O14 0.823745 0.922621 0.944779
O O15 0.000000 0.000000 0.000000
O O16 0.199361 0.994179 0.222023
O O17 0.000000 0.500000 0.000000
#
# Coordination Sequence:
#
# PCOD9049657 Si02
#       8
#     2   2   2   2   2   2   2   2
#     4  10  25  46  69  99 141 178 228 281 341 408
#     4  10  25  45  70  99 135 181 227 276 342 407
#     4  10  24  47  70  98 139 189 223 279 342 411
#     4  12  24  45  70 102 137 185 226 286 343 402
#     4  12  24  41  69 102 141 172 229 285 344 400
#     4  12  25  43  71 107 135 178 230 282 347 407
#     4  12  24  39  65 105 138 175 226 280 341 411
#     4  12  22  46  70 100 143 177 231 284 345 402
#
# _framework density 20.561026999999999
#
# number of rings (size 3 to 8) (size 9 to 14) (size 15 to 20)
#    0.750    0.000    3.750    4.125    1.750    2.000 
#    0.000    3.125    0.000    0.000    0.000    0.000 
#    0.000    0.000    0.000    0.000    0.000    0.000 
#
# Total GULP energy -89419.569798 kJ/mol
# GULP energy per Si atom -5588.723112 kJ/mol
# Density = 2.051423 g / cm^3
# Si number density = 20.561027 Si / 1000 Ang^3
#
#
#
# Elastic Constant Matrix: (Units=GPa)
#
#
# Indices 1 2 3 4 5 6 
#
# 1 29.0596 -3.1530 -18.7696 9.7353 5.8683 4.3277
# 2 -3.1530 62.7193 15.8112 10.8469 14.6220 -7.1230
# 3 -18.7696 15.8112 68.6253 -8.4114 9.4790 -6.8317
# 4 9.7353 10.8469 -8.4114 29.9269 -3.1592 3.2740
# 5 5.8683 14.6220 9.4790 -3.1592 29.8368 1.8936
# 6 4.3277 -7.1230 -6.8317 3.2740 1.8936 17.6421
#
#
#
# Elastic Compliance Matrix: (Units=1/GPa)
#
#
# Indices 1 2 3 4 5 6 
#
# 1 0.054573 0.007444 0.013849 -0.018834 -0.020821 0.000711
# 2 0.007444 0.024143 -0.002122 -0.014588 -0.014890 0.011405
# 3 0.013849 -0.002122 0.020539 0.000657 -0.008424 0.004481
# 4 -0.018834 -0.014588 0.000657 0.048032 0.016473 -0.011697
# 5 -0.020821 -0.014890 -0.008424 0.016473 0.050128 -0.012604
# 6 0.000711 0.011405 0.004481 -0.011697 -0.012604 0.066372
#
#
# Mechanical properties :
#
#
# Convention : Reuss Voigt Hill
#
# Bulk Modulus (GPa) = 7.26761 16.46462 11.86612
# Shear Modulus (GPa) = 18.42908 26.58221 22.50565
#
# Velocity S-wave (km/s) = 2.99709 3.59952 3.31203
# Velocity P-wave (km/s) = 3.93943 5.02995 4.51772
#
# Compressibility (1/GPa) = 0.13759683
#
# Stress axis : x y z
#
# Youngs Moduli (GPa) = 18.32403 41.42021 48.68780
#
# Poissons Ratio (x) = -0.30834 -0.67429
# Poissons Ratio (y) = -0.13641 0.10334
# Poissons Ratio (z) = -0.25377 0.08791
#
# Static dielectric constant tensor:
#      x y z
#    x 1.746940 -0.011810 -0.007000 
#    y -0.011810 1.716490 -0.016040 
#    z -0.007000 -0.016040 1.741500 
# 
# From -- ./inp_files/595045.got.cif
#   From: 2010.05.17/outbox.cif.g08.bks.cpg/sg2_298_cif.got.tgz:595045.got - 2010.06.03 11:33:40.
