data_PCOD9049690
_publ_section_title
;
Structure prediction by ZEFSAII (Michael W. Deem and Ramdas Pophale) SiO2 
 PCOD9049690
Probable space group: P -1
;
_chemical_formula_sum "Si O2"
_cell_formula_units_Z 14
_cell_length_a 12.577988
_cell_length_b 10.275317
_cell_length_c 14.107119
_cell_angle_alpha 29.738298
_cell_angle_beta 130.724900
_cell_angle_gamma 133.056560
_cell_volume 651.825053
_symmetry_space_group_name_H-M "P -1"
_symmetry_group_IT_number 2
_symmetry_cell_setting 'triclinic'
loop_
_space_group_symop_operation_xyz
x,y,z
-x,-y,-z
loop_
_atom_site_type_symbol
_atom_site_label
_atom_site_fract_x
_atom_site_fract_y
_atom_site_fract_z
Si Si1 0.074176 0.778687 0.311253
Si Si2 0.354385 0.252021 0.712874
Si Si3 0.618607 0.270651 0.437508
Si Si4 0.362264 0.839504 0.148713
Si Si5 0.057724 0.288487 0.930675
Si Si6 0.351989 0.322985 0.974265
Si Si7 0.105403 0.301439 0.396697
O O1 0.245027 0.829118 0.391346
O O2 0.000000 0.500000 0.500000
O O3 0.036629 0.758896 0.191121
O O4 0.017472 0.036625 0.140897
O O5 0.421122 0.551437 0.613609
O O6 0.201120 0.257277 0.572147
O O7 0.335119 0.016141 0.931149
O O8 0.022590 0.552473 0.777202
O O9 0.669122 0.493248 0.242425
O O10 0.500000 0.000000 0.500000
O O11 0.356723 0.033436 0.114218
O O12 0.239604 0.538447 0.272407
O O13 0.523433 0.799270 0.254871
O O14 0.220894 0.313909 0.975718
O O15 0.500000 0.500000 0.000000
O O16 0.000000 0.000000 0.500000
#
# Coordination Sequence:
#
# PCOD9049690 Si02
#       7
#     2   2   2   2   2   2   2
#     4  11  21  41  65  95 130 174 217 279 344 401
#     4  10  24  47  71  95 142 184 232 286 341 416
#     4  11  23  40  67 103 134 177 226 284 345 405
#     4  10  24  48  70  97 139 187 232 285 347 409
#     4  11  24  40  67  98 137 172 224 288 342 407
#     4  11  24  41  71 106 136 175 232 290 351 417
#     4  12  27  43  69 101 140 188 231 281 351 413
#
# _framework density 21.478156999999999
#
# number of rings (size 3 to 8) (size 9 to 14) (size 15 to 20)
#    0.000    1.143    2.857    3.000    6.000    1.714 
#    2.571    0.000    0.000    0.000    0.000    0.000 
#    0.000    0.000    0.000    0.000    0.000    0.000 
#
# Total GULP energy -78011.581854 kJ/mol
# GULP energy per Si atom -5572.255847 kJ/mol
# Density = 2.142927 g / cm^3
# Si number density = 21.478157 Si / 1000 Ang^3
#
#
#
# Elastic Constant Matrix: (Units=GPa)
#
#
# Indices 1 2 3 4 5 6 
#
# 1 104.5799 48.8835 55.3361 -15.8054 18.3323 11.3347
# 2 48.8835 128.0310 55.6812 -24.2933 9.8540 22.9453
# 3 55.3361 55.6812 182.9666 -17.8382 29.3314 -0.5386
# 4 -15.8054 -24.2933 -17.8382 42.2430 -1.2378 9.5537
# 5 18.3323 9.8540 29.3314 -1.2378 34.1433 -3.4944
# 6 11.3347 22.9453 -0.5386 9.5537 -3.4944 26.4794
#
#
#
# Elastic Compliance Matrix: (Units=1/GPa)
#
#
# Indices 1 2 3 4 5 6 
#
# 1 0.014088 -0.001788 -0.002399 0.004635 -0.005529 -0.006932
# 2 -0.001788 0.014556 -0.002583 0.010130 -0.002277 -0.015855
# 3 -0.002399 -0.002583 0.007679 0.000097 -0.004271 0.002822
# 4 0.004635 0.010130 0.000097 0.036706 -0.006712 -0.024889
# 5 -0.005529 -0.002277 -0.004271 -0.006712 0.037530 0.011628
# 6 -0.006932 -0.015855 0.002822 -0.024889 0.011628 0.065044
#
#
# Mechanical properties :
#
#
# Convention : Reuss Voigt Hill
#
# Bulk Modulus (GPa) = 43.89135 81.70880 62.80007
# Shear Modulus (GPa) = 25.41463 37.61827 31.51645
#
# Velocity S-wave (km/s) = 3.44361 4.18959 3.83479
# Velocity P-wave (km/s) = 6.02420 7.84404 6.99357
#
# Compressibility (1/GPa) = 0.02278353
#
# Stress axis : x y z
#
# Youngs Moduli (GPa) = 70.98100 68.70177 130.21861
#
# Poissons Ratio (x) = 0.12287 0.31236
# Poissons Ratio (y) = 0.12695 0.33632
# Poissons Ratio (z) = 0.17026 0.17744
#
# Static dielectric constant tensor:
#      x y z
#    x 2.171690 -0.082110 0.324640 
#    y -0.082110 1.879830 -0.124500 
#    z 0.324640 -0.124500 2.198920 
# 
# From -- ./inp_files/523759.got.cif
#   From: 2010.05.17/outbox.cif.g08.bks.cpg/sg2_262_cif.got.tgz:523759.got - 2010.06.03 11:33:40.
