data_PCOD9049110
_publ_section_title
;
Structure prediction by ZEFSAII (Michael W. Deem and Ramdas Pophale) SiO2 
 PCOD9049110
Probable space group: P -1
;
_chemical_formula_sum "Si O2"
_cell_formula_units_Z 16
_cell_length_a 11.574011
_cell_length_b 9.102745
_cell_length_c 20.142512
_cell_angle_alpha 47.241142
_cell_angle_beta 150.951274
_cell_angle_gamma 140.449002
_cell_volume 656.043081
_symmetry_space_group_name_H-M "P -1"
_symmetry_group_IT_number 2
_symmetry_cell_setting 'triclinic'
loop_
_space_group_symop_operation_xyz
x,y,z
-x,-y,-z
loop_
_atom_site_type_symbol
_atom_site_label
_atom_site_fract_x
_atom_site_fract_y
_atom_site_fract_z
Si Si1 0.478404 0.262733 0.208631
Si Si2 0.006316 0.799131 0.523138
Si Si3 0.507886 0.377610 0.473417
Si Si4 0.150698 0.827631 0.260367
Si Si5 0.759429 0.491551 0.065514
Si Si6 0.358358 0.302147 0.749353
Si Si7 0.873854 0.570665 0.833973
Si Si8 0.756710 0.936309 0.101584
O O1 0.709767 0.197872 0.328715
O O2 0.592680 0.468519 0.257364
O O3 0.228772 0.036759 0.184923
O O4 0.381961 0.356801 0.069780
O O5 0.769761 0.559745 0.507244
O O6 0.911955 0.805021 0.398812
O O7 0.000000 0.000000 0.500000
O O8 0.500000 0.500000 0.500000
O O9 0.572691 0.173155 0.581563
O O10 0.249406 0.330484 0.313990
O O11 0.952941 0.591384 0.195086
O O12 0.979108 0.854336 0.224718
O O13 0.953523 0.520060 0.091587
O O14 0.513163 0.228894 0.025718
O O15 0.617292 0.388043 0.803698
O O16 0.336950 0.127641 0.849527
O O17 0.082341 0.792549 0.912801
#
# Coordination Sequence:
#
# PCOD9049110 Si02
#       8
#     2   2   2   2   2   2   2   2
#     4  11  24  45  68 101 139 188 226 278 356 409
#     4  11  25  43  70 103 138 180 231 286 351 406
#     4  11  23  42  70 102 135 174 227 294 340 404
#     4  12  24  45  71 101 139 179 237 285 346 407
#     4  11  25  46  69  98 144 185 229 287 336 415
#     4  10  24  46  69 101 146 177 228 291 334 424
#     4  11  24  47  70 103 139 181 232 283 347 406
#     4  11  25  44  72 103 133 190 227 284 351 405
#
# _framework density 24.388643999999999
#
# number of rings (size 3 to 8) (size 9 to 14) (size 15 to 20)
#    0.000    1.000    2.500    3.750    5.250    3.500 
#    2.250    0.000    0.000    0.000    0.000    0.000 
#    0.000    0.000    0.000    0.000    0.000    0.000 
#
# Total GULP energy -89675.768399 kJ/mol
# GULP energy per Si atom -5604.735525 kJ/mol
# Density = 2.433313 g / cm^3
# Si number density = 24.388644 Si / 1000 Ang^3
#
#
#
# Elastic Constant Matrix: (Units=GPa)
#
#
# Indices 1 2 3 4 5 6 
#
# 1 86.0644 -6.3583 26.4251 2.8899 26.1867 -7.0717
# 2 -6.3583 52.2656 23.2200 8.6105 4.9366 2.7837
# 3 26.4251 23.2200 135.0934 2.8035 9.7281 -12.6725
# 4 2.8899 8.6105 2.8035 29.8612 -4.2829 10.7048
# 5 26.1867 4.9366 9.7281 -4.2829 47.8738 0.5433
# 6 -7.0717 2.7837 -12.6725 10.7048 0.5433 39.2583
#
#
#
# Elastic Compliance Matrix: (Units=1/GPa)
#
#
# Indices 1 2 3 4 5 6 
#
# 1 0.016096 0.004795 -0.002909 -0.005113 -0.009201 0.003142
# 2 0.004795 0.023386 -0.004473 -0.007421 -0.004788 -0.000149
# 3 -0.002909 -0.004473 0.008991 -0.000237 0.000173 0.002758
# 4 -0.005113 -0.007421 -0.000237 0.041474 0.007455 -0.011883
# 5 -0.009201 -0.004788 0.000173 0.007455 0.027088 -0.003670
# 6 0.003142 -0.000149 0.002758 -0.011883 -0.003670 0.030230
#
#
# Mechanical properties :
#
#
# Convention : Reuss Voigt Hill
#
# Bulk Modulus (GPa) = 23.09527 39.99966 31.54747
# Shear Modulus (GPa) = 29.96282 38.74110 34.35196
#
# Velocity S-wave (km/s) = 3.50888 3.98991 3.75710
# Velocity P-wave (km/s) = 5.08985 6.13697 5.63777
#
# Compressibility (1/GPa) = 0.04329890
#
# Stress axis : x y z
#
# Youngs Moduli (GPa) = 62.12707 42.76051 111.21930
#
# Poissons Ratio (x) = -0.20502 0.32356
# Poissons Ratio (y) = -0.29788 0.49745
# Poissons Ratio (z) = 0.18074 0.19125
#
# Static dielectric constant tensor:
#      x y z
#    x 1.913990 0.004540 -0.010580 
#    y 0.004540 1.990850 -0.091540 
#    z -0.010580 -0.091540 1.994580 
# 
# From -- ./inp_files/273563.got.cif
#   From: 2010.05.17/outbox.cif.g08.bks.cpg/sg2_137_cif.got.tgz:273563.got - 2010.06.03 11:33:40.
