data_PCOD9049422
_publ_section_title
;
Structure prediction by ZEFSAII (Michael W. Deem and Ramdas Pophale) SiO2 
 PCOD9049422
Probable space group: P -1
;
_chemical_formula_sum "Si O2"
_cell_formula_units_Z 16
_cell_length_a 6.624122
_cell_length_b 13.115273
_cell_length_c 21.564607
_cell_angle_alpha 156.543898
_cell_angle_beta 104.849465
_cell_angle_gamma 74.956814
_cell_volume 719.366948
_symmetry_space_group_name_H-M "P -1"
_symmetry_group_IT_number 2
_symmetry_cell_setting 'triclinic'
loop_
_space_group_symop_operation_xyz
x,y,z
-x,-y,-z
loop_
_atom_site_type_symbol
_atom_site_label
_atom_site_fract_x
_atom_site_fract_y
_atom_site_fract_z
Si Si1 0.030406 0.093903 0.485551
Si Si2 0.887173 0.135470 0.319285
Si Si3 0.787581 0.451505 0.186934
Si Si4 0.373065 0.691672 0.232467
Si Si5 0.720403 0.103714 0.089961
Si Si6 0.390877 0.000827 0.673632
Si Si7 0.943174 0.729047 0.999879
Si Si8 0.742023 0.549974 0.437839
O O1 0.814534 0.044654 0.408109
O O2 0.074568 0.385377 0.665749
O O3 0.000000 0.000000 0.500000
O O4 0.230089 0.935868 0.383002
O O5 0.712962 0.987200 0.259799
O O6 0.778767 0.356617 0.390798
O O7 0.052446 0.282584 0.455806
O O8 0.008321 0.927686 0.168110
O O9 0.557417 0.592985 0.239436
O O10 0.795870 0.177144 0.068270
O O11 0.875742 0.427710 0.110887
O O12 0.481754 0.778193 0.225511
O O13 0.214650 0.464648 0.091090
O O14 0.706118 0.368162 0.275427
O O15 0.834103 0.899633 0.031372
O O16 0.500000 0.000000 0.000000
O O17 0.546273 0.747940 0.543162
#
# Coordination Sequence:
#
# PCOD9049422 Si02
#       8
#     2   2   2   2   2   2   2   2
#     4  12  25  42  69 100 140 180 223 278 339 416
#     4  10  24  49  68 100 137 179 239 277 327 402
#     4  12  24  42  68  98 139 182 218 280 345 408
#     4  12  24  42  65 103 133 176 226 273 345 399
#     4  11  23  42  69 103 138 170 221 285 348 407
#     4  12  24  42  72 100 133 184 230 278 337 394
#     4  11  25  44  66  99 141 180 224 284 338 402
#     4  10  24  46  73  99 135 181 229 283 333 406
#
# _framework density 22.241779000000001
#
# number of rings (size 3 to 8) (size 9 to 14) (size 15 to 20)
#    0.000    0.750    3.750    3.375    3.500    1.500 
#    6.750    4.375    0.000    0.000    0.000    0.000 
#    0.000    0.000    0.000    0.000    0.000    0.000 
#
# Total GULP energy -89367.632119 kJ/mol
# GULP energy per Si atom -5585.477007 kJ/mol
# Density = 2.219116 g / cm^3
# Si number density = 22.241779 Si / 1000 Ang^3
#
#
#
# Elastic Constant Matrix: (Units=GPa)
#
#
# Indices 1 2 3 4 5 6 
#
# 1 111.3261 43.0526 46.8382 2.4322 1.6596 21.1388
# 2 43.0526 83.2336 28.0555 8.5819 3.2582 22.6998
# 3 46.8382 28.0555 96.9695 2.0790 6.3149 11.3909
# 4 2.4322 8.5819 2.0790 27.6530 3.8970 6.4436
# 5 1.6596 3.2582 6.3149 3.8970 36.4014 13.1975
# 6 21.1388 22.6998 11.3909 6.4436 13.1975 44.7590
#
#
#
# Elastic Compliance Matrix: (Units=1/GPa)
#
#
# Indices 1 2 3 4 5 6 
#
# 1 0.013400 -0.004520 -0.004897 0.001152 0.001782 -0.003482
# 2 -0.004520 0.016958 -0.002057 -0.003558 0.001561 -0.005890
# 3 -0.004897 -0.002057 0.013341 0.000237 -0.002134 0.000555
# 4 0.001152 -0.003558 0.000237 0.038341 -0.002591 -0.003556
# 5 0.001782 0.001561 -0.002134 -0.002591 0.031529 -0.010014
# 6 -0.003482 -0.005890 0.000555 -0.003556 -0.010014 0.030297
#
#
# Mechanical properties :
#
#
# Convention : Reuss Voigt Hill
#
# Bulk Modulus (GPa) = 48.18549 58.60243 53.39396
# Shear Modulus (GPa) = 28.78050 33.33488 31.05769
#
# Velocity S-wave (km/s) = 3.60110 3.87557 3.74085
# Velocity P-wave (km/s) = 6.24516 6.81409 6.53582
#
# Compressibility (1/GPa) = 0.02075314
#
# Stress axis : x y z
#
# Youngs Moduli (GPa) = 74.62688 58.97065 74.95504
#
# Poissons Ratio (x) = 0.26653 0.36702
# Poissons Ratio (y) = 0.33729 0.15415
# Poissons Ratio (z) = 0.36542 0.12128
#
# Static dielectric constant tensor:
#      x y z
#    x 1.834520 0.072680 0.031380 
#    y 0.072680 1.896140 0.078650 
#    z 0.031380 0.078650 1.915970 
# 
# From -- ./inp_files/69163.got.cif
#   From: 2010.05.17/outbox.cif.g08.bks.cpg/sg2_35_cif.got.tgz:69163.got - 2010.06.03 11:33:40.
