data_PCOD9049662
_publ_section_title
;
Structure prediction by ZEFSAII (Michael W. Deem and Ramdas Pophale) SiO2 
 PCOD9049662
Probable space group: P -1
;
_chemical_formula_sum "Si O2"
_cell_formula_units_Z 15
_cell_length_a 8.814101
_cell_length_b 21.501971
_cell_length_c 22.115230
_cell_angle_alpha 19.982893
_cell_angle_beta 33.202451
_cell_angle_gamma 30.483051
_cell_volume 717.832509
_symmetry_space_group_name_H-M "P -1"
_symmetry_group_IT_number 2
_symmetry_cell_setting 'triclinic'
loop_
_space_group_symop_operation_xyz
x,y,z
-x,-y,-z
loop_
_atom_site_type_symbol
_atom_site_label
_atom_site_fract_x
_atom_site_fract_y
_atom_site_fract_z
Si Si1 0.353943 0.679544 0.054839
Si Si2 0.292995 0.695356 0.646646
Si Si3 0.670246 0.791460 0.207527
Si Si4 0.399874 0.242782 0.880573
Si Si5 0.722624 0.529253 0.850784
Si Si6 0.500000 0.000000 0.500000
Si Si7 0.578538 0.958919 0.652519
Si Si8 0.326789 0.467062 0.446490
O O1 0.595378 0.523379 0.161607
O O2 0.342429 0.552003 0.116759
O O3 0.021911 0.757453 0.123501
O O4 0.430489 0.859111 0.840654
O O5 0.420566 0.668114 0.561306
O O6 0.933857 0.812501 0.662676
O O7 0.433767 0.830302 0.512368
O O8 0.600849 0.758759 0.191076
O O9 0.621359 0.641623 0.407080
O O10 0.471156 0.020153 0.080929
O O11 0.640524 0.325583 0.747142
O O12 0.070688 0.394601 0.872927
O O13 0.657389 0.758800 0.660058
O O14 0.500000 0.500000 0.000000
O O15 0.550308 0.025688 0.385782
O O16 0.000000 0.500000 0.500000
#
# Coordination Sequence:
#
# PCOD9049662 Si02
#       8
#     2   2   2   2   2   1   2   2
#     4  11  22  43  70  94 136 177 221 280 337 401
#     4  11  25  45  61 101 136 180 223 272 341 407
#     4  10  24  47  71 100 131 181 229 284 334 398
#     4  10  25  46  69 102 134 175 236 278 339 399
#     4  11  23  41  69 103 135 171 223 286 342 395
#     4  12  22  42  70 100 132 172 222 276 340 400
#     4  11  25  42  69  97 135 177 225 280 338 403
#     4  12  25  43  70  97 141 179 224 278 335 410
#
# _framework density 20.896239000000001
#
# number of rings (size 3 to 8) (size 9 to 14) (size 15 to 20)
#    0.000    1.067    4.000    1.600    1.867    3.733 
#    4.800    0.000    0.000    0.000    0.000    0.000 
#    0.000    0.000    0.000    0.000    0.000    0.000 
#
# Total GULP energy -83640.636689 kJ/mol
# GULP energy per Si atom -5576.042446 kJ/mol
# Density = 2.084868 g / cm^3
# Si number density = 20.896239 Si / 1000 Ang^3
#
#
#
# Elastic Constant Matrix: (Units=GPa)
#
#
# Indices 1 2 3 4 5 6 
#
# 1 29.3032 -0.0029 12.9346 1.6022 -2.9102 -1.4079
# 2 -0.0029 66.0100 28.1976 -6.8093 -1.4182 -2.5027
# 3 12.9346 28.1976 79.2094 -10.1865 7.5427 -3.4502
# 4 1.6022 -6.8093 -10.1865 37.3500 2.1863 5.9437
# 5 -2.9102 -1.4182 7.5427 2.1863 35.3866 1.7059
# 6 -1.4079 -2.5027 -3.4502 5.9437 1.7059 16.0315
#
#
#
# Elastic Compliance Matrix: (Units=1/GPa)
#
#
# Indices 1 2 3 4 5 6 
#
# 1 0.038744 0.003408 -0.008435 -0.004140 0.005227 0.003098
# 2 0.003408 0.018402 -0.007174 0.000948 0.002439 0.001017
# 3 -0.008435 -0.007174 0.017590 0.003989 -0.005024 0.000981
# 4 -0.004140 0.000948 0.003989 0.029983 -0.002513 -0.010206
# 5 0.005227 0.002439 -0.005024 -0.002513 0.030134 -0.002516
# 6 0.003098 0.001017 0.000981 -0.010206 -0.002516 0.067071
#
#
# Mechanical properties :
#
#
# Convention : Reuss Voigt Hill
#
# Bulk Modulus (GPa) = 19.86714 28.53126 24.19920
# Shear Modulus (GPa) = 20.56720 26.64650 23.60685
#
# Velocity S-wave (km/s) = 3.14069 3.57484 3.36477
# Velocity P-wave (km/s) = 4.76236 5.54281 5.16734
#
# Compressibility (1/GPa) = 0.05033438
#
# Stress axis : x y z
#
# Youngs Moduli (GPa) = 25.81044 54.34050 56.85018
#
# Poissons Ratio (x) = -0.18517 0.47954
# Poissons Ratio (y) = -0.08795 0.40782
# Poissons Ratio (z) = 0.21771 0.38982
#
# Static dielectric constant tensor:
#      x y z
#    x 1.803500 -0.007970 -0.006430 
#    y -0.007970 1.727250 0.010370 
#    z -0.006430 0.010370 1.712470 
# 
# From -- ./inp_files/349659.got.cif
#   From: 2010.05.17/outbox.cif.g08.bks.cpg/sg2_175_cif.got.tgz:349659.got - 2010.06.03 11:33:40.
