data_PCOD9049166
_publ_section_title
;
Structure prediction by ZEFSAII (Michael W. Deem and Ramdas Pophale) SiO2 
 PCOD9049166
Probable space group: P -1
;
_chemical_formula_sum "Si O2"
_cell_formula_units_Z 16
_cell_length_a 15.288935
_cell_length_b 10.907800
_cell_length_c 7.727763
_cell_angle_alpha 46.279276
_cell_angle_beta 133.410448
_cell_angle_gamma 132.347639
_cell_volume 626.307650
_symmetry_space_group_name_H-M "P -1"
_symmetry_group_IT_number 2
_symmetry_cell_setting 'triclinic'
loop_
_space_group_symop_operation_xyz
x,y,z
-x,-y,-z
loop_
_atom_site_type_symbol
_atom_site_label
_atom_site_fract_x
_atom_site_fract_y
_atom_site_fract_z
Si Si1 0.439502 0.142197 0.345602
Si Si2 0.237170 0.680317 0.882180
Si Si3 0.960256 0.426199 0.822357
Si Si4 0.788484 0.777490 0.148538
Si Si5 0.302786 0.598790 0.691690
Si Si6 0.614075 0.926521 0.260753
Si Si7 0.285839 0.345824 0.446077
Si Si8 0.975046 0.926158 0.734680
O O1 0.559797 0.331452 0.285897
O O2 0.500000 0.000000 0.500000
O O3 0.401101 0.124674 0.509138
O O4 0.307844 0.115418 0.092061
O O5 0.083611 0.569696 0.748135
O O6 0.306966 0.710122 0.762498
O O7 0.263981 0.881002 0.801968
O O8 0.288386 0.542398 0.194640
O O9 0.819459 0.404516 0.585294
O O10 0.000000 0.500000 0.000000
O O11 0.965737 0.227882 0.013090
O O12 0.734805 0.612463 0.102746
O O13 0.766556 0.685945 0.398341
O O14 0.938312 0.901217 0.203525
O O15 0.602665 0.738847 0.330680
O O16 0.500000 0.000000 0.000000
O O17 0.176800 0.187227 0.338877
O O18 0.000000 0.000000 0.500000
#
# Coordination Sequence:
#
# PCOD9049166 Si02
#       8
#     2   2   2   2   2   2   2   2
#     4  12  25  47  66 100 138 183 236 278 354 419
#     4  11  26  47  69 108 140 182 235 285 358 407
#     4  11  24  42  73 101 137 180 231 294 341 416
#     4  11  24  43  72 100 137 188 227 291 348 417
#     4  12  25  45  68 100 142 182 230 289 348 419
#     4  12  28  45  74 101 141 187 231 293 343 422
#     4  10  24  46  70 103 140 178 238 292 344 414
#     4   9  20  40  64 101 131 173 226 278 346 401
#
# _framework density 25.546548999999999
#
# number of rings (size 3 to 8) (size 9 to 14) (size 15 to 20)
#    0.000    1.000    1.250    5.250    8.750    0.500 
#    0.000    1.875    0.000    0.000    0.000    0.000 
#    0.000    0.000    0.000    0.000    0.000    0.000 
#
# Total GULP energy -89484.325618 kJ/mol
# GULP energy per Si atom -5592.770351 kJ/mol
# Density = 2.548840 g / cm^3
# Si number density = 25.546549 Si / 1000 Ang^3
#
#
#
# Elastic Constant Matrix: (Units=GPa)
#
#
# Indices 1 2 3 4 5 6 
#
# 1 61.7385 -5.5328 13.3843 -6.0315 -11.2326 5.6662
# 2 -5.5328 79.4097 -0.5031 -10.9552 -1.5634 12.8613
# 3 13.3843 -0.5031 111.8878 -6.3941 6.9520 5.7247
# 4 -6.0315 -10.9552 -6.3941 38.7112 -0.7087 13.3343
# 5 -11.2326 -1.5634 6.9520 -0.7087 41.9875 -7.6238
# 6 5.6662 12.8613 5.7247 13.3343 -7.6238 45.8491
#
#
#
# Elastic Compliance Matrix: (Units=1/GPa)
#
#
# Indices 1 2 3 4 5 6 
#
# 1 0.018489 0.002503 -0.002086 0.004438 0.004878 -0.003206
# 2 0.002503 0.014777 0.000490 0.006896 0.000073 -0.006509
# 3 -0.002086 0.000490 0.009567 0.002067 -0.002468 -0.002086
# 4 0.004438 0.006896 0.002067 0.033100 -0.000603 -0.012468
# 5 0.004878 0.000073 -0.002468 -0.000603 0.026291 0.004232
# 6 -0.003206 -0.006509 -0.002086 -0.012468 0.004232 0.028623
#
#
# Mechanical properties :
#
#
# Convention : Reuss Voigt Hill
#
# Bulk Modulus (GPa) = 22.39804 29.74807 26.07306
# Shear Modulus (GPa) = 34.74203 41.68873 38.21538
#
# Velocity S-wave (km/s) = 3.69175 4.04403 3.87190
# Velocity P-wave (km/s) = 5.19217 5.78580 5.49700
#
# Compressibility (1/GPa) = 0.04464676
#
# Stress axis : x y z
#
# Youngs Moduli (GPa) = 54.08605 67.67065 104.52146
#
# Poissons Ratio (x) = -0.16935 0.21802
# Poissons Ratio (y) = -0.13535 -0.05118
# Poissons Ratio (z) = 0.11281 -0.03314
#
# Static dielectric constant tensor:
#      x y z
#    x 2.065350 0.048970 0.020740 
#    y 0.048970 2.106760 0.003750 
#    z 0.020740 0.003750 2.005420 
# 
# From -- ./inp_files/332788.got.cif
#   From: 2010.05.17/outbox.cif.g08.bks.cpg/sg2_167_cif.got.tgz:332788.got - 2010.06.03 11:33:40.
