data_PCOD9049652
_publ_section_title
;
Structure prediction by ZEFSAII (Michael W. Deem and Ramdas Pophale) SiO2 
 PCOD9049652
Probable space group: P -1
;
_chemical_formula_sum "Si O2"
_cell_formula_units_Z 12
_cell_length_a 5.325118
_cell_length_b 7.473045
_cell_length_c 12.312679
_cell_angle_alpha 101.617349
_cell_angle_beta 86.212484
_cell_angle_gamma 70.519687
_cell_volume 447.737148
_symmetry_space_group_name_H-M "P -1"
_symmetry_group_IT_number 2
_symmetry_cell_setting 'triclinic'
loop_
_space_group_symop_operation_xyz
x,y,z
-x,-y,-z
loop_
_atom_site_type_symbol
_atom_site_label
_atom_site_fract_x
_atom_site_fract_y
_atom_site_fract_z
Si Si1 0.987943 0.802711 0.526295
Si Si2 0.300172 0.630666 0.712983
Si Si3 0.835120 0.912066 0.911438
Si Si4 0.086179 0.318471 0.714847
Si Si5 0.473515 0.057135 0.275364
Si Si6 0.732312 0.558396 0.943047
O O1 0.014278 0.669530 0.404181
O O2 0.702212 0.882665 0.604613
O O3 0.196324 0.690926 0.600228
O O4 0.000000 0.000000 0.500000
O O5 0.322716 0.411327 0.710461
O O6 0.510286 0.737408 0.737910
O O7 0.068579 0.744988 0.818911
O O8 0.663312 0.025667 0.826495
O O9 0.664524 0.791384 0.957365
O O10 0.000000 0.000000 0.000000
O O11 0.848013 0.429029 0.816879
O O12 0.235183 0.098516 0.725039
O O13 0.500000 0.500000 0.000000
O O14 0.000000 0.500000 0.000000
#
# Coordination Sequence:
#
# PCOD9049652 Si02
#       6
#     2   2   2   2   2   2
#     4  11  23  45  72 111 157 194 254 315 386 467
#     4  10  24  47  70 112 148 198 258 312 387 467
#     4  10  26  50  74 106 157 201 260 331 392 460
#     4  11  25  48  78 110 153 204 252 318 390 458
#     4  11  25  48  75 112 151 198 261 316 389 469
#     4  11  29  53  78 116 156 205 271 324 394 472
#
# _framework density 26.801438999999998
#
# number of rings (size 3 to 8) (size 9 to 14) (size 15 to 20)
#    0.000    1.333    1.667    1.000    7.000    4.000 
#    6.000    1.667    0.000    0.000    0.000    0.000 
#    0.000    0.000    0.000    0.000    0.000    0.000 
#
# Total GULP energy -67200.211982 kJ/mol
# GULP energy per Si atom -5600.017665 kJ/mol
# Density = 2.674044 g / cm^3
# Si number density = 26.801439 Si / 1000 Ang^3
#
#
#
# Elastic Constant Matrix: (Units=GPa)
#
#
# Indices 1 2 3 4 5 6 
#
# 1 127.2081 42.1262 74.5817 -3.0959 -9.0364 39.6231
# 2 42.1262 118.2754 35.9289 -13.4147 -0.5341 17.8370
# 3 74.5817 35.9289 220.7983 20.0781 14.0996 5.6587
# 4 -3.0959 -13.4147 20.0781 32.6251 2.1534 -3.2443
# 5 -9.0364 -0.5341 14.0996 2.1534 67.4876 -12.2753
# 6 39.6231 17.8370 5.6587 -3.2443 -12.2753 56.3994
#
#
#
# Elastic Compliance Matrix: (Units=1/GPa)
#
#
# Indices 1 2 3 4 5 6 
#
# 1 0.013839 -0.002086 -0.004406 0.002270 0.001187 -0.008232
# 2 -0.002086 0.010374 -0.001359 0.004779 -0.000334 -0.001477
# 3 -0.004406 -0.001359 0.006707 -0.004785 -0.001438 0.002264
# 4 0.002270 0.004779 -0.004785 0.035715 0.000102 -0.000550
# 5 0.001187 -0.000334 -0.001438 0.000102 0.015791 0.002859
# 6 -0.008232 -0.001477 0.002264 -0.000550 0.002859 0.024344
#
#
# Mechanical properties :
#
#
# Convention : Reuss Voigt Hill
#
# Bulk Modulus (GPa) = 65.71368 85.72840 75.72104
# Shear Modulus (GPa) = 39.20167 52.21210 45.70688
#
# Velocity S-wave (km/s) = 3.82864 4.41853 4.13412
# Velocity P-wave (km/s) = 6.64203 7.62149 7.14855
#
# Compressibility (1/GPa) = 0.01521753
#
# Stress axis : x y z
#
# Youngs Moduli (GPa) = 72.25894 96.39603 149.08955
#
# Poissons Ratio (x) = 0.20111 0.65695
# Poissons Ratio (y) = 0.15075 0.20257
# Poissons Ratio (z) = 0.31840 0.13098
#
# Static dielectric constant tensor:
#      x y z
#    x 2.180690 0.040500 0.040330 
#    y 0.040500 2.108140 -0.038320 
#    z 0.040330 -0.038320 2.207200 
# 
# From -- ./inp_files/360835.got.cif
#   From: 2010.05.17/outbox.cif.g08.bks.cpg/sg2_181_cif.got.tgz:360835.got - 2010.06.03 11:33:40.
