data_PCOD9049770
_publ_section_title
;
Structure prediction by ZEFSAII (Michael W. Deem and Ramdas Pophale) SiO2 
 PCOD9049770
Probable space group: P -1
;
_chemical_formula_sum "Si O2"
_cell_formula_units_Z 16
_cell_length_a 11.413972
_cell_length_b 17.399113
_cell_length_c 9.145787
_cell_angle_alpha 140.999194
_cell_angle_beta 37.682032
_cell_angle_gamma 137.634232
_cell_volume 661.539226
_symmetry_space_group_name_H-M "P -1"
_symmetry_group_IT_number 2
_symmetry_cell_setting 'triclinic'
loop_
_space_group_symop_operation_xyz
x,y,z
-x,-y,-z
loop_
_atom_site_type_symbol
_atom_site_label
_atom_site_fract_x
_atom_site_fract_y
_atom_site_fract_z
Si Si1 0.934667 0.778390 0.217994
Si Si2 0.924699 0.906213 0.800411
Si Si3 0.854365 0.290743 0.359802
Si Si4 0.405389 0.992575 0.744233
Si Si5 0.722969 0.536602 0.260944
Si Si6 0.239542 0.014955 0.404481
Si Si7 0.456554 0.591271 0.051953
Si Si8 0.872186 0.633751 0.544809
O O1 0.834302 0.680942 0.303476
O O2 0.768762 0.849439 0.448777
O O3 0.145945 0.893990 0.210818
O O4 0.004269 0.700148 0.906629
O O5 0.971082 0.775196 0.589130
O O6 0.058836 0.981015 0.648136
O O7 0.691818 0.892917 0.979197
O O8 0.000000 0.000000 0.000000
O O9 0.778510 0.140429 0.256795
O O10 0.645825 0.322975 0.624919
O O11 0.995338 0.383307 0.477583
O O12 0.563606 0.991135 0.713401
O O13 0.500000 0.000000 0.500000
O O14 0.500000 0.500000 0.500000
O O15 0.841205 0.533184 0.293146
O O16 0.680767 0.459983 0.034813
O O17 0.500000 0.500000 0.000000
O O18 0.672612 0.647709 0.841742
#
# Coordination Sequence:
#
# PCOD9049770 Si02
#       8
#     2   2   2   2   2   2   2   2
#     4  11  24  47  72 102 149 188 230 295 359 426
#     4  12  20  40  68 104 141 181 224 282 352 417
#     4  12  26  43  72 106 136 191 239 289 354 420
#     4  12  24  38  69 108 143 187 233 277 354 434
#     4  10  24  47  74 101 131 188 237 295 362 407
#     4  11  24  43  67 106 148 186 227 285 354 430
#     4  11  27  47  71 101 135 184 242 301 354 413
#     4  11  23  46  73  99 141 181 235 298 348 423
#
# _framework density 24.186019000000002
#
# number of rings (size 3 to 8) (size 9 to 14) (size 15 to 20)
#    0.000    0.750    5.000    1.500    3.500    3.000 
#    2.250    1.250    0.000    0.000    0.000    0.000 
#    0.000    0.000    0.000    0.000    0.000    0.000 
#
# Total GULP energy -89223.006766 kJ/mol
# GULP energy per Si atom -5576.437923 kJ/mol
# Density = 2.413097 g / cm^3
# Si number density = 24.186019 Si / 1000 Ang^3
#
#
#
# Elastic Constant Matrix: (Units=GPa)
#
#
# Indices 1 2 3 4 5 6 
#
# 1 128.6898 -1.6041 44.4113 -1.5249 17.2069 15.9631
# 2 -1.6041 54.9652 12.4933 -22.7556 11.8021 -7.9610
# 3 44.4113 12.4933 121.8914 -7.9705 10.8511 -3.4504
# 4 -1.5249 -22.7556 -7.9705 29.0539 -2.5813 5.6881
# 5 17.2069 11.8021 10.8511 -2.5813 45.6001 -5.2053
# 6 15.9631 -7.9610 -3.4504 5.6881 -5.2053 35.3062
#
#
#
# Elastic Compliance Matrix: (Units=1/GPa)
#
#
# Indices 1 2 3 4 5 6 
#
# 1 0.010282 0.001934 -0.003623 0.001768 -0.004040 -0.005447
# 2 0.001934 0.029171 -0.001663 0.021701 -0.006532 0.001081
# 3 -0.003623 -0.001663 0.009827 0.000776 -0.000262 0.002060
# 4 0.001768 0.021701 0.000776 0.052311 -0.004062 -0.004857
# 5 -0.004040 -0.006532 -0.000262 -0.004062 0.025519 0.004745
# 6 -0.005447 0.001081 0.002060 -0.004857 0.004745 0.032714
#
#
# Mechanical properties :
#
#
# Convention : Reuss Voigt Hill
#
# Bulk Modulus (GPa) = 23.48819 46.23861 34.86340
# Shear Modulus (GPa) = 27.66694 38.67509 33.17102
#
# Velocity S-wave (km/s) = 3.38586 4.00317 3.70739
# Velocity P-wave (km/s) = 5.00180 6.36605 5.72471
#
# Compressibility (1/GPa) = 0.04257459
#
# Stress axis : x y z
#
# Youngs Moduli (GPa) = 97.25714 34.28041 101.75953
#
# Poissons Ratio (x) = -0.06630 0.36872
# Poissons Ratio (y) = -0.18810 0.16928
# Poissons Ratio (z) = 0.35241 0.05702
#
# Static dielectric constant tensor:
#      x y z
#    x 2.058550 -0.036070 -0.047680 
#    y -0.036070 1.943800 0.065170 
#    z -0.047680 0.065170 1.998550 
# 
# From -- ./inp_files/280054.got.cif
#   From: 2010.05.17/outbox.cif.g08.bks.cpg/sg2_141_cif.got.tgz:280054.got - 2010.06.03 11:33:40.
