data_PCOD9049355
_publ_section_title
;
Structure prediction by ZEFSAII (Michael W. Deem and Ramdas Pophale) SiO2 
 PCOD9049355
Probable space group: P -1
;
_chemical_formula_sum "Si O2"
_cell_formula_units_Z 13
_cell_length_a 13.315870
_cell_length_b 6.641242
_cell_length_c 7.649820
_cell_angle_alpha 81.355663
_cell_angle_beta 82.203753
_cell_angle_gamma 125.383590
_cell_volume 524.061395
_symmetry_space_group_name_H-M "P -1"
_symmetry_group_IT_number 2
_symmetry_cell_setting 'triclinic'
loop_
_space_group_symop_operation_xyz
x,y,z
-x,-y,-z
loop_
_atom_site_type_symbol
_atom_site_label
_atom_site_fract_x
_atom_site_fract_y
_atom_site_fract_z
Si Si1 0.313944 0.178837 0.582510
Si Si2 0.434972 0.642940 0.714430
Si Si3 0.797636 0.385468 0.287230
Si Si4 0.500000 0.000000 0.000000
Si Si5 0.141720 0.243838 0.383445
Si Si6 0.046436 0.895944 0.145943
Si Si7 0.797780 0.312621 0.908569
O O1 0.357897 0.333726 0.736869
O O2 0.436560 0.242678 0.441399
O O3 0.249810 0.279160 0.473623
O O4 0.213500 0.869984 0.654397
O O5 0.342187 0.693329 0.634941
O O6 0.462961 0.775886 0.879668
O O7 0.917848 0.650253 0.305945
O O8 0.820267 0.451843 0.068166
O O9 0.353774 0.901785 0.043073
O O10 0.160370 0.500166 0.290748
O O11 0.149690 0.131935 0.212754
O O12 0.000000 0.000000 0.500000
O O13 0.117610 0.783084 0.080624
O O14 0.000000 0.000000 0.000000
#
# Coordination Sequence:
#
# PCOD9049355 Si02
#       7
#     2   2   2   1   2   2   2
#     4  11  25  44  75 110 156 197 248 313 386 439
#     4  10  24  46  72 110 153 199 253 308 378 453
#     4  11  24  44  75 105 148 202 248 307 373 452
#     4  10  24  48  78 108 148 200 256 308 374 452
#     4  12  27  45  70 109 148 192 248 313 376 450
#     4  12  26  45  74 104 146 198 251 307 371 447
#     4  11  26  46  71 107 148 191 251 310 371 450
#
# _framework density 24.806256000000001
#
# number of rings (size 3 to 8) (size 9 to 14) (size 15 to 20)
#    0.000    0.923    1.538    3.692    4.308   11.077 
#    0.000    5.385    0.000    0.000    0.000    0.000 
#    0.000    0.000    0.000    0.000    0.000    0.000 
#
# Total GULP energy -72367.946669 kJ/mol
# GULP energy per Si atom -5566.765128 kJ/mol
# Density = 2.474980 g / cm^3
# Si number density = 24.806256 Si / 1000 Ang^3
#
#
#
# Elastic Constant Matrix: (Units=GPa)
#
#
# Indices 1 2 3 4 5 6 
#
# 1 183.5309 57.0652 54.3794 -4.9111 -17.8081 -4.2331
# 2 57.0652 171.2107 41.9489 17.5890 24.7349 1.4971
# 3 54.3794 41.9489 75.5825 2.5909 13.3505 -12.4584
# 4 -4.9111 17.5890 2.5909 41.6394 -6.7467 8.1415
# 5 -17.8081 24.7349 13.3505 -6.7467 29.7715 4.8649
# 6 -4.2331 1.4971 -12.4584 8.1415 4.8649 35.0193
#
#
#
# Elastic Compliance Matrix: (Units=1/GPa)
#
#
# Indices 1 2 3 4 5 6 
#
# 1 0.012206 -0.005065 -0.010854 0.008765 0.019493 -0.006915
# 2 -0.005065 0.010033 0.001419 -0.007887 -0.014326 0.003287
# 3 -0.010854 0.001419 0.027273 -0.010319 -0.024550 0.014140
# 4 0.008765 -0.007887 -0.010319 0.036221 0.026992 -0.014445
# 5 0.019493 -0.014326 -0.024550 0.026992 0.078015 -0.022878
# 6 -0.006915 0.003287 0.014140 -0.014445 -0.022878 0.039146
#
#
# Mechanical properties :
#
#
# Convention : Reuss Voigt Hill
#
# Bulk Modulus (GPa) = 48.75488 81.90123 65.32806
# Shear Modulus (GPa) = 20.94397 39.74810 30.34603
#
# Velocity S-wave (km/s) = 2.90884 4.00727 3.50140
# Velocity P-wave (km/s) = 5.56585 7.38234 6.53750
#
# Compressibility (1/GPa) = 0.02051077
#
# Stress axis : x y z
#
# Youngs Moduli (GPa) = 81.92687 99.67539 36.66601
#
# Poissons Ratio (x) = 0.50486 0.39798
# Poissons Ratio (y) = 0.41496 -0.05202
# Poissons Ratio (z) = 0.88925 -0.14140
#
# Static dielectric constant tensor:
#      x y z
#    x 1.877210 -0.015500 -0.026820 
#    y -0.015500 2.027050 0.050890 
#    z -0.026820 0.050890 2.174830 
# 
# From -- ./inp_files/229575.got.cif
#   From: 2010.05.17/outbox.cif.g08.bks.cpg/sg2_115_cif.got.tgz:229575.got - 2010.06.03 11:33:40.
