data_PCOD9049185
_publ_section_title
;
Structure prediction by ZEFSAII (Michael W. Deem and Ramdas Pophale) SiO2 
 PCOD9049185
Probable space group: P -1
;
_chemical_formula_sum "Si O2"
_cell_formula_units_Z 15
_cell_length_a 11.659634
_cell_length_b 15.141510
_cell_length_c 10.650677
_cell_angle_alpha 135.915649
_cell_angle_beta 37.707798
_cell_angle_gamma 149.012325
_cell_volume 587.298844
_symmetry_space_group_name_H-M "P -1"
_symmetry_group_IT_number 2
_symmetry_cell_setting 'triclinic'
loop_
_space_group_symop_operation_xyz
x,y,z
-x,-y,-z
loop_
_atom_site_type_symbol
_atom_site_label
_atom_site_fract_x
_atom_site_fract_y
_atom_site_fract_z
Si Si1 0.235837 0.441896 0.702278
Si Si2 0.500000 0.000000 0.000000
Si Si3 0.999177 0.107850 0.715112
Si Si4 0.812310 0.791510 0.945877
Si Si5 0.231731 0.835855 0.330073
Si Si6 0.368214 0.632913 0.013875
Si Si7 0.612397 0.845622 0.387629
Si Si8 0.034067 0.631609 0.701218
O O1 0.500000 0.500000 0.500000
O O2 0.117094 0.292204 0.752848
O O3 0.045395 0.351007 0.656799
O O4 0.291956 0.592319 0.889847
O O5 0.335119 0.937551 0.211629
O O6 0.287965 0.991000 0.101025
O O7 0.191926 0.143594 0.686833
O O8 0.000000 0.000000 0.500000
O O9 0.946709 0.725596 0.812016
O O10 0.641188 0.693862 0.869121
O O11 0.591114 0.741397 0.182247
O O12 0.000000 0.000000 0.000000
O O13 0.393121 0.791365 0.190048
O O14 0.244065 0.952237 0.540702
O O15 0.139049 0.470508 0.130344
O O16 0.338391 0.759188 0.593662
O O17 0.000000 0.500000 0.500000
#
# Coordination Sequence:
#
# PCOD9049185 Si02
#       8
#     2   1   2   2   2   2   2   2
#     4  11  27  44  69 109 151 191 250 313 390 454
#     4  10  24  46  70 106 148 188 252 298 378 446
#     4  11  24  44  74 106 143 195 246 305 378 462
#     4  12  30  50  80 111 150 207 260 316 380 467
#     4  11  27  46  75 111 148 203 247 321 382 466
#     4  12  28  48  76 109 156 200 260 315 398 453
#     4  12  27  48  78 109 151 201 261 309 389 455
#     4  12  29  52  77 113 158 200 259 326 381 449
#
# _framework density 25.540659999999999
#
# number of rings (size 3 to 8) (size 9 to 14) (size 15 to 20)
#    0.000    0.533    4.000    2.400   16.800    1.067 
#    0.000    0.000    0.000    0.000    0.000    0.000 
#    0.000    0.000    0.000    0.000    0.000    0.000 
#
# Total GULP energy -83641.795498 kJ/mol
# GULP energy per Si atom -5576.119700 kJ/mol
# Density = 2.548253 g / cm^3
# Si number density = 25.540660 Si / 1000 Ang^3
#
#
#
# Elastic Constant Matrix: (Units=GPa)
#
#
# Indices 1 2 3 4 5 6 
#
# 1 92.8406 21.9675 28.4988 -1.0943 -31.1754 16.8180
# 2 21.9675 88.8386 45.8262 -2.1637 -9.7234 18.0707
# 3 28.4988 45.8262 138.8136 -3.5669 -28.8130 16.6125
# 4 -1.0943 -2.1637 -3.5669 50.3431 7.0337 -12.4543
# 5 -31.1754 -9.7234 -28.8130 7.0337 55.2829 1.2764
# 6 16.8180 18.0707 16.6125 -12.4543 1.2764 49.8076
#
#
#
# Elastic Compliance Matrix: (Units=1/GPa)
#
#
# Indices 1 2 3 4 5 6 
#
# 1 0.014973 -0.001678 -0.000209 -0.002214 0.008440 -0.005147
# 2 -0.001678 0.014427 -0.004108 -0.000494 -0.000408 -0.003411
# 3 -0.000209 -0.004108 0.009722 -0.000579 0.004345 -0.001938
# 4 -0.002214 -0.000494 -0.000579 0.022067 -0.004601 0.006756
# 5 0.008440 -0.000408 0.004345 -0.004601 0.025764 -0.005962
# 6 -0.005147 -0.003411 -0.001938 0.006756 -0.005962 0.025541
#
#
# Mechanical properties :
#
#
# Convention : Reuss Voigt Hill
#
# Bulk Modulus (GPa) = 36.85561 57.00867 46.93214
# Shear Modulus (GPa) = 37.44562 46.03342 41.73952
#
# Velocity S-wave (km/s) = 3.83315 4.25002 4.04696
# Velocity P-wave (km/s) = 5.83542 6.81563 6.34449
#
# Compressibility (1/GPa) = 0.02713291
#
# Stress axis : x y z
#
# Youngs Moduli (GPa) = 66.78825 69.31360 102.86255
#
# Poissons Ratio (x) = 0.11629 0.02152
# Poissons Ratio (y) = 0.11205 0.42251
# Poissons Ratio (z) = 0.01397 0.28471
#
# Static dielectric constant tensor:
#      x y z
#    x 2.077070 0.083960 0.050710 
#    y 0.083960 2.162710 -0.011940 
#    z 0.050710 -0.011940 2.083020 
# 
# From -- ./inp_files/437378.got.cif
#   From: 2010.05.17/outbox.cif.g08.bks.cpg/sg2_219_cif.got.tgz:437378.got - 2010.06.03 11:33:40.
