data_PCOD9049590
_publ_section_title
;
Structure prediction by ZEFSAII (Michael W. Deem and Ramdas Pophale) SiO2 
 PCOD9049590
Probable space group: P -1
;
_chemical_formula_sum "Si O2"
_cell_formula_units_Z 16
_cell_length_a 15.083966
_cell_length_b 9.057796
_cell_length_c 5.744281
_cell_angle_alpha 98.151869
_cell_angle_beta 52.564283
_cell_angle_gamma 89.176869
_cell_volume 611.814309
_symmetry_space_group_name_H-M "P -1"
_symmetry_group_IT_number 2
_symmetry_cell_setting 'triclinic'
loop_
_space_group_symop_operation_xyz
x,y,z
-x,-y,-z
loop_
_atom_site_type_symbol
_atom_site_label
_atom_site_fract_x
_atom_site_fract_y
_atom_site_fract_z
Si Si1 0.164229 0.096715 0.680614
Si Si2 0.595765 0.514116 0.538422
Si Si3 0.393882 0.034683 0.008335
Si Si4 0.699713 0.247245 0.098087
Si Si5 0.965212 0.349708 0.135858
Si Si6 0.270240 0.514092 0.292274
Si Si7 0.287339 0.252548 0.893756
Si Si8 0.072404 0.861366 0.475787
O O1 0.277469 0.092545 0.344355
O O2 0.123984 0.937072 0.640712
O O3 0.210863 0.138973 0.869186
O O4 0.054908 0.220294 0.841049
O O5 0.500000 0.500000 0.500000
O O6 0.611270 0.551730 0.791252
O O7 0.650873 0.339535 0.415719
O O8 0.668614 0.637396 0.341734
O O9 0.391908 0.155217 0.832136
O O10 0.372753 0.879787 0.888509
O O11 0.500000 0.000000 0.000000
O O12 0.698349 0.368307 0.920346
O O13 0.830383 0.185877 0.876824
O O14 0.830418 0.403694 0.372204
O O15 0.976758 0.282857 0.370779
O O16 0.000000 0.500000 0.000000
O O17 0.226558 0.373126 0.199785
O O18 0.000000 0.000000 0.500000
#
# Coordination Sequence:
#
# PCOD9049590 Si02
#       8
#     2   2   2   2   2   2   2   2
#     4  11  26  46  70 106 141 188 236 292 356 428
#     4  11  25  43  73 100 135 186 237 292 352 414
#     4  11  26  44  69 101 143 178 236 291 353 416
#     4   9  24  43  68 101 133 185 228 288 348 422
#     4  11  23  44  75 104 141 187 239 295 350 426
#     4  10  24  47  68 100 144 179 235 288 357 417
#     4  11  25  45  69 102 141 182 236 293 351 417
#     4  10  24  47  72 105 148 191 231 292 364 426
#
# _framework density 26.151727000000001
#
# number of rings (size 3 to 8) (size 9 to 14) (size 15 to 20)
#    0.000    1.500    0.000    2.625   10.500    5.000 
#    2.250    0.000    0.000    0.000    0.000    0.000 
#    0.000    0.000    0.000    0.000    0.000    0.000 
#
# Total GULP energy -89195.007485 kJ/mol
# GULP energy per Si atom -5574.687968 kJ/mol
# Density = 2.609220 g / cm^3
# Si number density = 26.151727 Si / 1000 Ang^3
#
#
#
# Elastic Constant Matrix: (Units=GPa)
#
#
# Indices 1 2 3 4 5 6 
#
# 1 113.1025 28.4776 22.9452 1.4199 10.2199 -18.1060
# 2 28.4776 127.8201 14.4826 9.9019 10.8709 -3.8755
# 3 22.9452 14.4826 41.8839 20.0913 -8.7160 14.7511
# 4 1.4199 9.9019 20.0913 31.2447 5.3088 3.7995
# 5 10.2199 10.8709 -8.7160 5.3088 38.8638 3.5108
# 6 -18.1060 -3.8755 14.7511 3.7995 3.5108 32.7233
#
#
#
# Elastic Compliance Matrix: (Units=1/GPa)
#
#
# Indices 1 2 3 4 5 6 
#
# 1 0.023046 0.000092 -0.038888 0.023838 -0.020751 0.029751
# 2 0.000092 0.008911 -0.006252 0.001441 -0.004499 0.004240
# 3 -0.038888 -0.006252 0.120729 -0.074378 0.055900 -0.074041
# 4 0.023838 0.001441 -0.074378 0.079677 -0.038005 0.041715
# 5 -0.020751 -0.004499 0.055900 -0.038005 0.053657 -0.038557
# 6 0.029751 0.004240 -0.074041 0.041715 -0.038557 0.080193
#
#
# Mechanical properties :
#
#
# Convention : Reuss Voigt Hill
#
# Bulk Modulus (GPa) = 15.97728 46.06859 31.02294
# Shear Modulus (GPa) = 10.47835 35.02644 22.75239
#
# Velocity S-wave (km/s) = 2.00386 3.66369 2.95280
# Velocity P-wave (km/s) = 3.38772 5.96246 4.84910
#
# Compressibility (1/GPa) = 0.06258886
#
# Stress axis : x y z
#
# Youngs Moduli (GPa) = 43.39100 112.22121 8.28300
#
# Poissons Ratio (x) = -0.01032 0.32211
# Poissons Ratio (y) = -0.00399 0.05179
# Poissons Ratio (z) = 1.68741 0.70164
#
# Static dielectric constant tensor:
#      x y z
#    x 2.191220 -0.061720 -0.052540 
#    y -0.061720 2.052440 0.025340 
#    z -0.052540 0.025340 2.202860 
# 
# From -- ./inp_files/90650.got.cif
#   From: 2010.05.17/outbox.cif.g08.bks.cpg/sg2_46_cif.got.tgz:90650.got - 2010.06.03 11:33:40.
