data_PCOD9049924
_publ_section_title
;
Structure prediction by ZEFSAII (Michael W. Deem and Ramdas Pophale) SiO2 
 PCOD9049924
Probable space group: P -1
;
_chemical_formula_sum "Si O2"
_cell_formula_units_Z 16
_cell_length_a 11.000571
_cell_length_b 11.780973
_cell_length_c 8.701295
_cell_angle_alpha 59.762123
_cell_angle_beta 87.624572
_cell_angle_gamma 50.546208
_cell_volume 683.518859
_symmetry_space_group_name_H-M "P -1"
_symmetry_group_IT_number 2
_symmetry_cell_setting 'triclinic'
loop_
_space_group_symop_operation_xyz
x,y,z
-x,-y,-z
loop_
_atom_site_type_symbol
_atom_site_label
_atom_site_fract_x
_atom_site_fract_y
_atom_site_fract_z
Si Si1 0.153951 0.662529 0.843339
Si Si2 0.549024 0.877782 0.228002
Si Si3 0.203223 0.135495 0.242535
Si Si4 0.232631 0.297078 0.400297
Si Si5 0.879530 0.183006 0.771125
Si Si6 0.876971 0.450429 0.405164
Si Si7 0.381648 0.473765 0.237031
Si Si8 0.786775 0.141830 0.473685
O O1 0.163651 0.577029 0.742461
O O2 0.125011 0.834122 0.673988
O O3 0.992397 0.725507 0.905081
O O4 0.322516 0.534731 0.023835
O O5 0.639263 0.878810 0.369711
O O6 0.699217 0.659154 0.321403
O O7 0.360477 0.979215 0.230385
O O8 0.500000 0.000000 0.000000
O O9 0.233665 0.243821 0.262187
O O10 0.198413 0.023946 0.446176
O O11 0.310467 0.382789 0.340823
O O12 0.038475 0.424827 0.387025
O O13 0.932182 0.287331 0.626616
O O14 0.715306 0.347220 0.772457
O O15 0.835169 0.137580 0.650045
O O16 0.000000 0.000000 0.000000
O O17 0.583643 0.329778 0.346244
#
# Coordination Sequence:
#
# PCOD9049924 Si02
#       8
#     2   2   2   2   2   2   2   2
#     4  10  25  42  72 100 136 191 236 286 358 412
#     4  12  26  41  69 105 143 182 230 284 354 421
#     4  11  24  45  69 102 141 182 232 294 344 427
#     4  11  25  44  71  99 149 187 229 289 359 414
#     4  11  24  44  73 102 138 193 239 288 355 413
#     4  10  24  48  68 106 146 182 236 298 343 430
#     4  12  24  42  71 101 143 188 230 296 358 416
#     4  11  23  45  68 100 145 180 241 294 346 416
#
# _framework density 23.408280999999999
#
# number of rings (size 3 to 8) (size 9 to 14) (size 15 to 20)
#    0.000    1.000    2.500    2.625    3.500    5.000 
#    0.000    0.000    0.000    0.000    0.000    0.000 
#    0.000    0.000    0.000    0.000    0.000    0.000 
#
# Total GULP energy -89370.722096 kJ/mol
# GULP energy per Si atom -5585.670131 kJ/mol
# Density = 2.335500 g / cm^3
# Si number density = 23.408281 Si / 1000 Ang^3
#
#
#
# Elastic Constant Matrix: (Units=GPa)
#
#
# Indices 1 2 3 4 5 6 
#
# 1 90.9117 51.6087 38.5306 4.9903 4.0585 -13.9370
# 2 51.6087 97.1104 16.5720 -14.0310 3.2454 -23.2277
# 3 38.5306 16.5720 152.4383 4.8969 10.4851 -5.4036
# 4 4.9903 -14.0310 4.8969 27.7538 -1.2504 2.0180
# 5 4.0585 3.2454 10.4851 -1.2504 36.3796 -1.0527
# 6 -13.9370 -23.2277 -5.4036 2.0180 -1.0527 32.6376
#
#
#
# Elastic Compliance Matrix: (Units=1/GPa)
#
#
# Indices 1 2 3 4 5 6 
#
# 1 0.018951 -0.010548 -0.003328 -0.008213 -0.000481 0.000527
# 2 -0.010548 0.019514 0.000507 0.011030 -0.000077 0.008783
# 3 -0.003328 0.000507 0.007497 -0.000563 -0.001850 0.000156
# 4 -0.008213 0.011030 -0.000563 0.043138 0.001624 0.001635
# 5 -0.000481 -0.000077 -0.001850 0.001624 0.028144 0.000241
# 6 0.000527 0.008783 0.000156 0.001635 0.000241 0.037048
#
#
# Mechanical properties :
#
#
# Convention : Reuss Voigt Hill
#
# Bulk Modulus (GPa) = 52.01807 61.54255 56.78031
# Shear Modulus (GPa) = 26.67562 34.93749 30.80655
#
# Velocity S-wave (km/s) = 3.37943 3.86751 3.63168
# Velocity P-wave (km/s) = 6.12354 6.80379 6.47261
#
# Compressibility (1/GPa) = 0.01922409
#
# Stress axis : x y z
#
# Youngs Moduli (GPa) = 52.76743 51.24594 133.38881
#
# Poissons Ratio (x) = 0.54054 0.44389
# Poissons Ratio (y) = 0.55659 -0.06763
# Poissons Ratio (z) = 0.17560 -0.02598
#
# Static dielectric constant tensor:
#      x y z
#    x 1.931270 -0.016610 -0.013720 
#    y -0.016610 1.900590 -0.038360 
#    z -0.013720 -0.038360 1.953760 
# 
# From -- ./inp_files/262069.got.cif
#   From: 2010.05.17/outbox.cif.g08.bks.cpg/sg2_132_cif.got.tgz:262069.got - 2010.06.03 11:33:40.
