data_PCOD9049687
_publ_section_title
;
Structure prediction by ZEFSAII (Michael W. Deem and Ramdas Pophale) SiO2 
 PCOD9049687
Probable space group: P -1
;
_chemical_formula_sum "Si O2"
_cell_formula_units_Z 14
_cell_length_a 9.770034
_cell_length_b 21.841013
_cell_length_c 17.109785
_cell_angle_alpha 18.902456
_cell_angle_beta 44.596208
_cell_angle_gamma 35.816086
_cell_volume 662.266425
_symmetry_space_group_name_H-M "P -1"
_symmetry_group_IT_number 2
_symmetry_cell_setting 'triclinic'
loop_
_space_group_symop_operation_xyz
x,y,z
-x,-y,-z
loop_
_atom_site_type_symbol
_atom_site_label
_atom_site_fract_x
_atom_site_fract_y
_atom_site_fract_z
Si Si1 0.003220 0.112471 0.639565
Si Si2 0.750878 0.663422 0.090593
Si Si3 0.330071 0.655904 0.989065
Si Si4 0.219218 0.866713 0.011255
Si Si5 0.353031 0.017249 0.114806
Si Si6 0.127343 0.735552 0.798887
Si Si7 0.765880 0.531602 0.594552
O O1 0.868207 0.389679 0.359294
O O2 0.823107 0.048484 0.762779
O O3 0.243546 0.920300 0.723689
O O4 0.102063 0.027774 0.788432
O O5 0.466863 0.818815 0.995969
O O6 0.913565 0.706862 0.919530
O O7 0.758601 0.743363 0.079514
O O8 0.223636 0.683843 0.912182
O O9 0.622260 0.460106 0.111630
O O10 0.222199 0.573047 0.198426
O O11 0.283960 0.614123 0.267039
O O12 0.000000 0.000000 0.000000
O O13 0.544068 0.806533 0.350094
O O14 0.500000 0.000000 0.000000
O O15 0.000000 0.000000 0.500000
O O16 0.000000 0.500000 0.500000
#
# Coordination Sequence:
#
# PCOD9049687 Si02
#       7
#     2   2   2   2   2   2   2
#     4  11  25  46  68 102 151 183 248 297 362 447
#     4  12  26  45  72 104 142 193 242 308 368 424
#     4  10  24  47  71 109 144 192 247 300 367 435
#     4  11  25  43  66 107 147 191 243 300 358 440
#     4  12  24  42  71 104 146 198 240 298 366 437
#     4  11  25  46  79 106 144 191 252 306 363 446
#     4  11  23  43  71 103 151 192 237 303 368 440
#
# _framework density 21.139529
#
# number of rings (size 3 to 8) (size 9 to 14) (size 15 to 20)
#    0.000    0.857    2.857    4.286    2.000    5.143 
#    0.000    5.000    0.000    0.000    0.000    0.000 
#    0.000    0.000    0.000    0.000    0.000    0.000 
#
# Total GULP energy -78146.612408 kJ/mol
# GULP energy per Si atom -5581.900886 kJ/mol
# Density = 2.109141 g / cm^3
# Si number density = 21.139529 Si / 1000 Ang^3
#
#
#
# Elastic Constant Matrix: (Units=GPa)
#
#
# Indices 1 2 3 4 5 6 
#
# 1 121.5861 61.5694 63.6827 -4.0951 -11.1370 -25.6338
# 2 61.5694 133.1642 61.2062 -7.6861 -7.3461 -25.2219
# 3 63.6827 61.2062 142.0402 -17.5074 -7.3980 -17.0397
# 4 -4.0951 -7.6861 -17.5074 32.7262 -7.2404 2.4138
# 5 -11.1370 -7.3461 -7.3980 -7.2404 31.7322 -2.9457
# 6 -25.6338 -25.2219 -17.0397 2.4138 -2.9457 37.8119
#
#
#
# Elastic Compliance Matrix: (Units=1/GPa)
#
#
# Indices 1 2 3 4 5 6 
#
# 1 0.013293 -0.003206 -0.003850 -0.000811 0.003347 0.005450
# 2 -0.003206 0.011128 -0.002700 0.000771 0.001377 0.004090
# 3 -0.003850 -0.002700 0.010648 0.004930 0.001650 0.000201
# 4 -0.000811 0.000771 0.004930 0.035249 0.009146 0.000649
# 5 0.003347 0.001377 0.001650 0.009146 0.036050 0.006155
# 6 0.005450 0.004090 0.000201 0.000649 0.006155 0.033399
#
#
# Mechanical properties :
#
#
# Convention : Reuss Voigt Hill
#
# Bulk Modulus (GPa) = 64.28496 85.52302 74.90399
# Shear Modulus (GPa) = 30.40138 34.47620 32.43879
#
# Velocity S-wave (km/s) = 3.79638 4.04281 3.92153
# Velocity P-wave (km/s) = 7.04929 7.89536 7.48429
#
# Compressibility (1/GPa) = 0.01555574
#
# Stress axis : x y z
#
# Youngs Moduli (GPa) = 75.22668 89.86032 93.91734
#
# Poissons Ratio (x) = 0.28813 0.36158
# Poissons Ratio (y) = 0.24121 0.25360
# Poissons Ratio (z) = 0.28962 0.24265
#
# Static dielectric constant tensor:
#      x y z
#    x 1.784290 0.013840 -0.000920 
#    y 0.013840 1.823630 -0.051980 
#    z -0.000920 -0.051980 1.790150 
# 
# From -- ./inp_files/562490.got.cif
#   From: 2010.05.17/outbox.cif.g08.bks.cpg/sg2_282_cif.got.tgz:562490.got - 2010.06.03 11:33:40.
