data_PCOD9049351
_publ_section_title
;
Structure prediction by ZEFSAII (Michael W. Deem and Ramdas Pophale) SiO2 
 PCOD9049351
Probable space group: P -1
;
_chemical_formula_sum "Si O2"
_cell_formula_units_Z 12
_cell_length_a 15.372311
_cell_length_b 5.311291
_cell_length_c 9.299204
_cell_angle_alpha 95.736080
_cell_angle_beta 39.315003
_cell_angle_gamma 92.032141
_cell_volume 477.583179
_symmetry_space_group_name_H-M "P -1"
_symmetry_group_IT_number 2
_symmetry_cell_setting 'triclinic'
loop_
_space_group_symop_operation_xyz
x,y,z
-x,-y,-z
loop_
_atom_site_type_symbol
_atom_site_label
_atom_site_fract_x
_atom_site_fract_y
_atom_site_fract_z
Si Si1 0.556267 0.098759 0.283708
Si Si2 0.106824 0.113755 0.557509
Si Si3 0.523154 0.230122 0.873759
Si Si4 0.818804 0.403189 0.035570
Si Si5 0.929640 0.727657 0.695421
Si Si6 0.699368 0.549643 0.497091
O O1 0.696787 0.231973 0.135546
O O2 0.441049 0.307238 0.378482
O O3 0.500000 0.000000 0.500000
O O4 0.566287 0.862267 0.148825
O O5 0.129219 0.106376 0.354540
O O6 0.229169 0.249147 0.482429
O O7 0.055323 0.834954 0.629572
O O8 0.967161 0.267533 0.801239
O O9 0.662972 0.297030 0.615457
O O10 0.500000 0.500000 0.000000
O O11 0.500000 0.000000 0.000000
O O12 0.795221 0.475983 0.234713
O O13 0.820376 0.646906 0.944948
O O14 0.000000 0.500000 0.500000
#
# Coordination Sequence:
#
# PCOD9049351 Si02
#       6
#     2   2   2   2   2   2
#     4  12  28  50  76 111 157 206 261 320 392 466
#     4  10  24  46  72 109 146 194 254 317 389 460
#     4  12  28  51  78 118 157 205 260 327 389 463
#     4  11  25  45  74 106 149 201 251 317 391 462
#     4   9  22  44  71 103 147 196 247 308 389 462
#     4  12  27  47  78 114 151 200 264 321 385 465
#
# _framework density 25.126512999999999
#
# number of rings (size 3 to 8) (size 9 to 14) (size 15 to 20)
#    0.000    1.000    3.333    1.000    4.667    7.333 
#    0.000    0.000    0.000    0.000    0.000    0.000 
#    0.000    0.000    0.000    0.000    0.000    0.000 
#
# Total GULP energy -67054.418458 kJ/mol
# GULP energy per Si atom -5587.868205 kJ/mol
# Density = 2.506932 g / cm^3
# Si number density = 25.126513 Si / 1000 Ang^3
#
#
#
# Elastic Constant Matrix: (Units=GPa)
#
#
# Indices 1 2 3 4 5 6 
#
# 1 128.7986 65.5408 58.7703 -29.9257 2.2460 33.4483
# 2 65.5408 161.8814 53.2860 -52.6748 10.3469 27.6958
# 3 58.7703 53.2860 164.2837 -47.0851 28.7553 -1.7589
# 4 -29.9257 -52.6748 -47.0851 57.1330 -1.6403 -6.8799
# 5 2.2460 10.3469 28.7553 -1.6403 57.2708 4.6386
# 6 33.4483 27.6958 -1.7589 -6.8799 4.6386 44.8801
#
#
#
# Elastic Compliance Matrix: (Units=1/GPa)
#
#
# Indices 1 2 3 4 5 6 
#
# 1 0.013434 -0.002653 -0.004622 -0.000204 0.002988 -0.008896
# 2 -0.002653 0.010401 0.000002 0.007790 -0.001301 -0.003113
# 3 -0.004622 0.000002 0.010743 0.006940 -0.005459 0.005492
# 4 -0.000204 0.007790 0.006940 0.030262 -0.004072 0.000677
# 5 0.002988 -0.001301 -0.005459 -0.004072 0.020559 -0.004387
# 6 -0.008896 -0.003113 0.005492 0.000677 -0.004387 0.031605
#
#
# Mechanical properties :
#
#
# Convention : Reuss Voigt Hill
#
# Bulk Modulus (GPa) = 49.91769 90.01756 69.96762
# Shear Modulus (GPa) = 36.17278 50.34785 43.26032
#
# Velocity S-wave (km/s) = 3.79836 4.48121 4.15384
# Velocity P-wave (km/s) = 6.25670 7.91697 7.13529
#
# Compressibility (1/GPa) = 0.02003298
#
# Stress axis : x y z
#
# Youngs Moduli (GPa) = 74.43936 96.14428 93.08396
#
# Poissons Ratio (x) = 0.25506 0.43023
# Poissons Ratio (y) = 0.19748 -0.00022
# Poissons Ratio (z) = 0.34405 -0.00023
#
# Static dielectric constant tensor:
#      x y z
#    x 2.159600 -0.159560 -0.168370 
#    y -0.159560 2.156740 0.002740 
#    z -0.168370 0.002740 2.166410 
# 
# From -- ./inp_files/130068.got.cif
#   From: 2010.05.17/outbox.cif.g08.bks.cpg/sg2_66_cif.got.tgz:130068.got - 2010.06.03 11:33:40.
