data_PCOD9049215
_publ_section_title
;
Structure prediction by ZEFSAII (Michael W. Deem and Ramdas Pophale) SiO2 
 PCOD9049215
Probable space group: P -1
;
_chemical_formula_sum "Si O2"
_cell_formula_units_Z 16
_cell_length_a 14.425593
_cell_length_b 11.639516
_cell_length_c 14.485601
_cell_angle_alpha 44.837269
_cell_angle_beta 151.544078
_cell_angle_gamma 117.391815
_cell_volume 714.033921
_symmetry_space_group_name_H-M "P -1"
_symmetry_group_IT_number 2
_symmetry_cell_setting 'triclinic'
loop_
_space_group_symop_operation_xyz
x,y,z
-x,-y,-z
loop_
_atom_site_type_symbol
_atom_site_label
_atom_site_fract_x
_atom_site_fract_y
_atom_site_fract_z
Si Si1 0.932552 0.870180 0.073127
Si Si2 0.210536 0.401892 0.987345
Si Si3 0.557333 0.033963 0.786420
Si Si4 0.508648 0.714880 0.986212
Si Si5 0.118645 0.307072 0.157507
Si Si6 0.161553 0.778241 0.789477
Si Si7 0.296922 0.690695 0.170985
Si Si8 0.674984 0.299183 0.347642
O O1 0.103412 0.816131 0.337113
O O2 0.930106 0.687397 0.132619
O O3 0.684991 0.991352 0.825913
O O4 0.000000 0.000000 0.000000
O O5 0.234495 0.328651 0.155084
O O6 0.450173 0.328364 0.187602
O O7 0.103067 0.627654 0.774266
O O8 0.298085 0.153286 0.468833
O O9 0.626611 0.157420 0.836762
O O10 0.621034 0.841464 0.001302
O O11 0.396366 0.732979 0.975100
O O12 0.321823 0.781223 0.704288
O O13 0.656378 0.501803 0.209217
O O14 0.000000 0.500000 0.000000
O O15 0.919441 0.265826 0.982808
O O16 0.213703 0.712489 0.979390
O O17 0.000000 0.000000 0.500000
O O18 0.500000 0.500000 0.500000
#
# Coordination Sequence:
#
# PCOD9049215 Si02
#       8
#     2   2   2   2   2   2   2   2
#     4  12  27  43  74 110 138 187 247 304 360 436
#     4  11  24  46  71 104 144 193 235 299 369 424
#     4  12  26  43  72 108 140 190 246 297 365 436
#     4  10  24  46  70  97 143 194 233 296 365 430
#     4  12  24  45  72 100 151 190 233 301 369 426
#     4  11  25  44  75 108 143 196 246 294 365 442
#     4  12  26  47  71 107 146 191 242 296 362 435
#     4  10  24  49  68  99 149 183 238 300 360 429
#
# _framework density 22.407899
#
# number of rings (size 3 to 8) (size 9 to 14) (size 15 to 20)
#    0.000    0.750    3.750    2.250    5.250    6.000 
#    0.000    0.000    0.000    0.000    0.000    0.000 
#    0.000    0.000    0.000    0.000    0.000    0.000 
#
# Total GULP energy -89337.172331 kJ/mol
# GULP energy per Si atom -5583.573271 kJ/mol
# Density = 2.235690 g / cm^3
# Si number density = 22.407899 Si / 1000 Ang^3
#
#
#
# Elastic Constant Matrix: (Units=GPa)
#
#
# Indices 1 2 3 4 5 6 
#
# 1 92.3759 18.3348 11.6895 -11.4618 -6.7998 15.9217
# 2 18.3348 122.4069 44.1674 -19.9679 -1.0403 22.7684
# 3 11.6895 44.1674 88.1133 -1.4428 -4.7796 3.1585
# 4 -11.4618 -19.9679 -1.4428 23.8996 0.8383 -2.6915
# 5 -6.7998 -1.0403 -4.7796 0.8383 24.1207 1.6905
# 6 15.9217 22.7684 3.1585 -2.6915 1.6905 39.9640
#
#
#
# Elastic Compliance Matrix: (Units=1/GPa)
#
#
# Indices 1 2 3 4 5 6 
#
# 1 0.012747 0.000539 -0.001498 0.005786 0.003471 -0.005024
# 2 0.000539 0.013263 -0.006340 0.010233 -0.000428 -0.006562
# 3 -0.001498 -0.006340 0.014670 -0.004911 0.002198 0.002626
# 4 0.005786 0.010233 -0.004911 0.052411 -0.000428 -0.004199
# 5 0.003471 -0.000428 0.002198 -0.000428 0.043090 -0.003164
# 6 -0.005024 -0.006562 0.002626 -0.004199 -0.003164 0.030407
#
#
# Mechanical properties :
#
#
# Convention : Reuss Voigt Hill
#
# Bulk Modulus (GPa) = 38.34025 50.14214 44.24119
# Shear Modulus (GPa) = 26.33236 32.84384 29.58810
#
# Velocity S-wave (km/s) = 3.43175 3.83263 3.63772
# Velocity P-wave (km/s) = 5.73148 6.48159 6.11804
#
# Compressibility (1/GPa) = 0.02608225
#
# Stress axis : x y z
#
# Youngs Moduli (GPa) = 78.44794 75.40038 68.16454
#
# Poissons Ratio (x) = -0.04065 0.10213
# Poissons Ratio (y) = -0.04229 0.43216
# Poissons Ratio (z) = 0.11753 0.47803
#
# Static dielectric constant tensor:
#      x y z
#    x 1.866160 0.002800 -0.013960 
#    y 0.002800 1.912630 0.004460 
#    z -0.013960 0.004460 1.830690 
# 
# From -- ./inp_files/532373.got.cif
#   From: 2010.05.17/outbox.cif.g08.bks.cpg/sg2_267_cif.got.tgz:532373.got - 2010.06.03 11:33:40.
