data_PCOD9049190
_publ_section_title
;
Structure prediction by ZEFSAII (Michael W. Deem and Ramdas Pophale) SiO2 
 PCOD9049190
Probable space group: P -1
;
_chemical_formula_sum "Si O2"
_cell_formula_units_Z 14
_cell_length_a 9.754348
_cell_length_b 13.051559
_cell_length_c 24.042219
_cell_angle_alpha 28.330306
_cell_angle_beta 141.987628
_cell_angle_gamma 153.832169
_cell_volume 640.528940
_symmetry_space_group_name_H-M "P -1"
_symmetry_group_IT_number 2
_symmetry_cell_setting 'triclinic'
loop_
_space_group_symop_operation_xyz
x,y,z
-x,-y,-z
loop_
_atom_site_type_symbol
_atom_site_label
_atom_site_fract_x
_atom_site_fract_y
_atom_site_fract_z
Si Si1 0.223823 0.892151 0.923370
Si Si2 0.143738 0.277026 0.757722
Si Si3 0.283018 0.357975 0.415289
Si Si4 0.266376 0.791960 0.864849
Si Si5 0.233852 0.147509 0.058214
Si Si6 0.230652 0.232376 0.334058
Si Si7 0.110532 0.432830 0.434341
O O1 0.362223 0.946311 0.881117
O O2 0.095203 0.050124 0.806881
O O3 0.944746 0.552441 0.017883
O O4 0.500000 0.000000 0.000000
O O5 0.507800 0.568362 0.724912
O O6 0.980207 0.398758 0.649193
O O7 0.015782 0.072643 0.868946
O O8 0.328490 0.409355 0.339238
O O9 0.181830 0.477579 0.369132
O O10 0.583836 0.449840 0.493850
O O11 0.000000 0.000000 0.500000
O O12 0.538961 0.893432 0.865235
O O13 0.066969 0.837555 0.748315
O O14 0.500000 0.500000 0.000000
O O15 0.000000 0.000000 0.000000
O O16 0.148744 0.927100 0.465212
#
# Coordination Sequence:
#
# PCOD9049190 Si02
#       7
#     2   2   2   2   2   2   2
#     4  11  23  47  70 101 139 190 248 303 373 444
#     4  12  26  45  73 109 146 192 248 318 374 444
#     4   9  22  46  70  98 142 191 241 298 368 454
#     4  11  26  44  75  98 144 193 245 305 376 452
#     4  12  29  51  74 114 153 197 257 321 381 449
#     4  11  25  45  72 108 143 193 243 300 377 453
#     4  10  24  46  70 107 146 188 246 299 378 453
#
# _framework density 21.856935
#
# number of rings (size 3 to 8) (size 9 to 14) (size 15 to 20)
#    0.000    1.143    2.857    1.286   10.000    1.714 
#    7.714    0.000    0.000    0.000    0.000    0.000 
#    0.000    0.000    0.000    0.000    0.000    0.000 
#
# Total GULP energy -77988.335248 kJ/mol
# GULP energy per Si atom -5570.595375 kJ/mol
# Density = 2.180719 g / cm^3
# Si number density = 21.856935 Si / 1000 Ang^3
#
#
#
# Elastic Constant Matrix: (Units=GPa)
#
#
# Indices 1 2 3 4 5 6 
#
# 1 156.4537 43.5740 40.6728 5.4650 2.2121 1.7514
# 2 43.5740 97.4668 38.7883 -6.6591 -10.1184 -7.1125
# 3 40.6728 38.7883 100.8152 -25.2340 18.6564 -9.9289
# 4 5.4650 -6.6591 -25.2340 43.9843 2.2943 -6.4953
# 5 2.2121 -10.1184 18.6564 2.2943 48.7127 -2.8175
# 6 1.7514 -7.1125 -9.9289 -6.4953 -2.8175 39.6371
#
#
#
# Elastic Compliance Matrix: (Units=1/GPa)
#
#
# Indices 1 2 3 4 5 6 
#
# 1 0.008208 -0.002622 -0.003587 -0.003844 0.000503 -0.002326
# 2 -0.002622 0.014189 -0.005381 -0.000653 0.005249 0.001580
# 3 -0.003587 -0.005381 0.018274 0.011286 -0.008194 0.005037
# 4 -0.003844 -0.000653 0.011286 0.030985 -0.005304 0.007580
# 5 0.000503 0.005249 -0.008194 -0.005304 0.024971 -0.000227
# 6 -0.002326 0.001580 0.005037 0.007580 -0.000227 0.028103
#
#
# Mechanical properties :
#
#
# Convention : Reuss Voigt Hill
#
# Bulk Modulus (GPa) = 57.17132 66.75620 61.96376
# Shear Modulus (GPa) = 32.52274 41.91352 37.21813
#
# Velocity S-wave (km/s) = 3.86162 4.38383 4.13098
# Velocity P-wave (km/s) = 6.78945 7.49884 7.15294
#
# Compressibility (1/GPa) = 0.01749129
#
# Stress axis : x y z
#
# Youngs Moduli (GPa) = 121.83849 70.47669 54.72367
#
# Poissons Ratio (x) = 0.18480 0.19628
# Poissons Ratio (y) = 0.31947 0.29445
# Poissons Ratio (z) = 0.43700 0.37921
#
# Static dielectric constant tensor:
#      x y z
#    x 1.827100 -0.044250 -0.009620 
#    y -0.044250 1.879520 -0.085160 
#    z -0.009620 -0.085160 1.833040 
# 
# From -- ./inp_files/37183.got.cif
#   From: 2010.05.17/outbox.cif.g08.bks.cpg/sg2_19_cif.got.tgz:37183.got - 2010.06.03 11:33:40.
