data_PCOD9049961
_publ_section_title
;
Structure prediction by ZEFSAII (Michael W. Deem and Ramdas Pophale) SiO2 
 PCOD9049961
Probable space group: P -1
;
_chemical_formula_sum "Si O2"
_cell_formula_units_Z 15
_cell_length_a 9.444660
_cell_length_b 22.396483
_cell_length_c 5.044952
_cell_angle_alpha 106.384598
_cell_angle_beta 76.107782
_cell_angle_gamma 144.572741
_cell_volume 593.368768
_symmetry_space_group_name_H-M "P -1"
_symmetry_group_IT_number 2
_symmetry_cell_setting 'triclinic'
loop_
_space_group_symop_operation_xyz
x,y,z
-x,-y,-z
loop_
_atom_site_type_symbol
_atom_site_label
_atom_site_fract_x
_atom_site_fract_y
_atom_site_fract_z
Si Si1 0.519959 0.238761 0.661173
Si Si2 0.000000 0.000000 0.500000
Si Si3 0.319233 0.798961 0.094178
Si Si4 0.444306 0.602741 0.221477
Si Si5 0.296695 0.356507 0.328104
Si Si6 0.684804 0.000842 0.472943
Si Si7 0.025734 0.381501 0.309050
Si Si8 0.798575 0.124960 0.082342
O O1 0.276154 0.125719 0.508037
O O2 0.541138 0.217761 0.924541
O O3 0.513331 0.310541 0.745059
O O4 0.771692 0.305541 0.482138
O O5 0.883486 0.014184 0.375799
O O6 0.335530 0.857432 0.932274
O O7 0.426210 0.876341 0.385158
O O8 0.050557 0.681366 0.005029
O O9 0.626918 0.640822 0.414908
O O10 0.174610 0.493803 0.311588
O O11 0.491428 0.581707 0.903631
O O12 0.200002 0.393672 0.402146
O O13 0.072890 0.238230 0.168826
O O14 0.767747 0.065304 0.781511
O O15 0.705327 0.056150 0.293204
#
# Coordination Sequence:
#
# PCOD9049961 Si02
#       8
#     2   1   2   2   2   2   2   2
#     4  11  26  47  76 107 153 199 253 314 383 450
#     4  10  24  48  70 108 150 196 244 308 380 448
#     4  10  26  41  69 105 146 190 246 309 371 437
#     4  12  27  50  76 111 150 204 253 312 381 453
#     4  11  26  46  77 110 150 195 255 316 379 445
#     4  11  24  43  69 103 142 198 240 299 366 450
#     4  11  27  46  77 108 151 199 258 314 373 452
#     4  11  23  42  71 101 147 187 247 296 370 442
#
# _framework density 25.279389999999999
#
# number of rings (size 3 to 8) (size 9 to 14) (size 15 to 20)
#    0.000    1.067    0.000    4.400   14.933    1.067 
#    2.400    0.000    0.000    0.000    0.000    0.000 
#    0.000    0.000    0.000    0.000    0.000    0.000 
#
# Total GULP energy -83547.072530 kJ/mol
# GULP energy per Si atom -5569.804835 kJ/mol
# Density = 2.522185 g / cm^3
# Si number density = 25.279390 Si / 1000 Ang^3
#
#
#
# Elastic Constant Matrix: (Units=GPa)
#
#
# Indices 1 2 3 4 5 6 
#
# 1 151.5344 51.3603 35.8936 -3.3322 17.5114 -22.6192
# 2 51.3603 168.6331 38.4621 15.9641 4.3448 -10.0070
# 3 35.8936 38.4621 122.8616 -6.3707 16.3278 -17.0422
# 4 -3.3322 15.9641 -6.3707 31.0028 3.1233 -1.9259
# 5 17.5114 4.3448 16.3278 3.1233 28.6611 -12.0617
# 6 -22.6192 -10.0070 -17.0422 -1.9259 -12.0617 35.2210
#
#
#
# Elastic Compliance Matrix: (Units=1/GPa)
#
#
# Indices 1 2 3 4 5 6 
#
# 1 0.008526 -0.002389 -0.000694 0.002549 -0.003264 0.003483
# 2 -0.002389 0.007560 -0.002195 -0.004811 0.002090 0.000004
# 3 -0.000694 -0.002195 0.010158 0.003741 -0.004362 0.002556
# 4 0.002549 -0.004811 0.003741 0.036514 -0.006102 0.001987
# 5 -0.003264 0.002090 -0.004362 -0.006102 0.044465 0.011281
# 6 0.003483 0.000004 0.002556 0.001987 0.011281 0.035839
#
#
# Mechanical properties :
#
#
# Convention : Reuss Voigt Hill
#
# Bulk Modulus (GPa) = 63.74705 77.16234 70.45469
# Shear Modulus (GPa) = 31.47661 40.13120 35.80390
#
# Velocity S-wave (km/s) = 3.53250 3.98868 3.76750
# Velocity P-wave (km/s) = 6.47378 7.19742 6.84516
#
# Compressibility (1/GPa) = 0.01568700
#
# Stress axis : x y z
#
# Youngs Moduli (GPa) = 117.28246 132.26974 98.44918
#
# Poissons Ratio (x) = 0.31601 0.06832
# Poissons Ratio (y) = 0.28021 0.21614
# Poissons Ratio (z) = 0.08139 0.29040
#
# Static dielectric constant tensor:
#      x y z
#    x 2.017120 0.026520 -0.054390 
#    y 0.026520 1.991430 -0.029060 
#    z -0.054390 -0.029060 2.035170 
# 
# From -- ./inp_files/51726.got.cif
#   From: 2010.05.17/outbox.cif.g08.bks.cpg/sg2_26_cif.got.tgz:51726.got - 2010.06.03 11:33:40.
