data_PCOD9049803
_publ_section_title
;
Structure prediction by ZEFSAII (Michael W. Deem and Ramdas Pophale) SiO2 
 PCOD9049803
Probable space group: P -1
;
_chemical_formula_sum "Si O2"
_cell_formula_units_Z 12
_cell_length_a 11.051181
_cell_length_b 11.727315
_cell_length_c 8.772653
_cell_angle_alpha 40.004221
_cell_angle_beta 133.444054
_cell_angle_gamma 132.370322
_cell_volume 503.573621
_symmetry_space_group_name_H-M "P -1"
_symmetry_group_IT_number 2
_symmetry_cell_setting 'triclinic'
loop_
_space_group_symop_operation_xyz
x,y,z
-x,-y,-z
loop_
_atom_site_type_symbol
_atom_site_label
_atom_site_fract_x
_atom_site_fract_y
_atom_site_fract_z
Si Si1 0.581625 0.630498 0.291998
Si Si2 0.933483 0.465872 0.148081
Si Si3 0.977992 0.899043 0.419268
Si Si4 0.521207 0.206760 0.253665
Si Si5 0.826358 0.737001 0.959692
Si Si6 0.213833 0.541593 0.557822
O O1 0.500000 0.500000 0.500000
O O2 0.773495 0.775805 0.351727
O O3 0.621745 0.486828 0.356408
O O4 0.490108 0.749723 0.981798
O O5 0.910037 0.244577 0.363722
O O6 0.095230 0.574087 0.287936
O O7 0.000000 0.500000 0.000000
O O8 0.805432 0.586735 0.957040
O O9 0.000000 0.000000 0.500000
O O10 0.046414 0.065736 0.186740
O O11 0.358604 0.251953 0.149690
O O12 0.704503 0.324321 0.369834
O O13 0.500000 0.000000 0.500000
O O14 0.892976 0.651689 0.253485
#
# Coordination Sequence:
#
# PCOD9049803 Si02
#       6
#     2   2   2   2   2   2
#     4  10  24  47  75 102 150 197 242 304 376 439
#     4  11  24  44  71 104 146 188 237 302 368 428
#     4  11  25  42  75 112 140 190 251 301 363 435
#     4  11  27  46  73 109 146 196 252 301 373 440
#     4  11  24  47  72 102 150 186 246 302 360 438
#     4  10  25  44  71 103 144 193 242 300 375 434
#
# _framework density 23.829681999999998
#
# number of rings (size 3 to 8) (size 9 to 14) (size 15 to 20)
#    0.000    1.333    1.667    2.500    9.333    6.000 
#    0.000    0.833    0.000    0.000    0.000    0.000 
#    0.000    0.000    0.000    0.000    0.000    0.000 
#
# Total GULP energy -66942.975689 kJ/mol
# GULP energy per Si atom -5578.581307 kJ/mol
# Density = 2.377544 g / cm^3
# Si number density = 23.829682 Si / 1000 Ang^3
#
#
#
# Elastic Constant Matrix: (Units=GPa)
#
#
# Indices 1 2 3 4 5 6 
#
# 1 136.6000 46.5348 75.2359 -9.7138 -25.5540 -13.3742
# 2 46.5348 134.5672 69.5440 -2.5978 -14.4339 9.1840
# 3 75.2359 69.5440 166.4924 -3.9115 -35.1825 2.7643
# 4 -9.7138 -2.5978 -3.9115 50.6004 4.6469 -1.9777
# 5 -25.5540 -14.4339 -35.1825 4.6469 60.9006 -10.4631
# 6 -13.3742 9.1840 2.7643 -1.9777 -10.4631 49.3836
#
#
#
# Elastic Compliance Matrix: (Units=1/GPa)
#
#
# Indices 1 2 3 4 5 6 
#
# 1 0.010993 -0.001882 -0.003653 0.001651 0.002645 0.004158
# 2 -0.001882 0.009925 -0.003431 -0.000134 -0.000811 -0.002341
# 3 -0.003653 -0.003431 0.009781 -0.000433 0.003300 -0.000217
# 4 0.001651 -0.000134 -0.000433 0.020169 -0.000938 0.001105
# 5 0.002645 -0.000811 0.003300 -0.000938 0.020161 0.004916
# 6 0.004158 -0.002341 -0.000217 0.001105 0.004916 0.022909
#
#
# Mechanical properties :
#
#
# Convention : Reuss Voigt Hill
#
# Bulk Modulus (GPa) = 78.32434 91.14324 84.73379
# Shear Modulus (GPa) = 43.05696 48.59990 45.82843
#
# Velocity S-wave (km/s) = 4.25533 4.52095 4.39015
# Velocity P-wave (km/s) = 7.55537 8.09832 7.83155
#
# Compressibility (1/GPa) = 0.01276742
#
# Stress axis : x y z
#
# Youngs Moduli (GPa) = 90.96761 100.75192 102.23885
#
# Poissons Ratio (x) = 0.18961 0.37347
# Poissons Ratio (y) = 0.17119 0.35080
# Poissons Ratio (z) = 0.33229 0.34570
#
# Static dielectric constant tensor:
#      x y z
#    x 2.075720 0.024210 0.079650 
#    y 0.024210 1.924880 -0.011690 
#    z 0.079650 -0.011690 2.029220 
# 
# From -- ./inp_files/246628.got.cif
#   From: 2010.05.17/outbox.cif.g08.bks.cpg/sg2_124_cif.got.tgz:246628.got - 2010.06.03 11:33:40.
