data_PCOD9049907
_publ_section_title
;
Structure prediction by ZEFSAII (Michael W. Deem and Ramdas Pophale) SiO2 
 PCOD9049907
Probable space group: P -1
;
_chemical_formula_sum "Si O2"
_cell_formula_units_Z 14
_cell_length_a 12.874703
_cell_length_b 18.675699
_cell_length_c 9.559698
_cell_angle_alpha 50.498231
_cell_angle_beta 144.567456
_cell_angle_gamma 150.647871
_cell_volume 630.605699
_symmetry_space_group_name_H-M "P -1"
_symmetry_group_IT_number 2
_symmetry_cell_setting 'triclinic'
loop_
_space_group_symop_operation_xyz
x,y,z
-x,-y,-z
loop_
_atom_site_type_symbol
_atom_site_label
_atom_site_fract_x
_atom_site_fract_y
_atom_site_fract_z
Si Si1 0.372455 0.853805 0.722646
Si Si2 0.566575 0.504667 0.905639
Si Si3 0.814708 0.175227 0.157641
Si Si4 0.232634 0.812142 0.303299
Si Si5 0.684520 0.298614 0.678039
Si Si6 0.671875 0.376191 0.015566
Si Si7 0.586953 0.659147 0.510861
O O1 0.166938 0.806183 0.679325
O O2 0.230532 0.801339 0.479966
O O3 0.639379 0.035612 0.784377
O O4 0.444350 0.775946 0.925393
O O5 0.528761 0.382664 0.969678
O O6 0.454863 0.524541 0.632562
O O7 0.500000 0.500000 0.000000
O O8 0.911409 0.666741 0.074139
O O9 0.092297 0.235904 0.323727
O O10 0.782483 0.262838 0.944054
O O11 0.500000 0.000000 0.000000
O O12 0.404857 0.798175 0.435044
O O13 0.431195 0.258085 0.513302
O O14 0.977966 0.479681 0.750718
O O15 0.605398 0.396684 0.767709
#
# Coordination Sequence:
#
# PCOD9049907 Si02
#       7
#     2   2   2   2   2   2   2
#     4  11  24  44  73  97 139 186 230 286 352 407
#     4  11  26  43  68 100 145 183 231 283 354 413
#     4  12  24  47  70 101 146 183 232 288 351 409
#     4  10  24  48  65  98 147 181 227 295 342 419
#     4  11  24  44  69 103 142 181 233 289 345 417
#     4  11  25  43  70 105 137 184 237 290 347 407
#     4  12  25  43  73 105 141 180 236 290 341 414
#
# _framework density 22.200876999999998
#
# number of rings (size 3 to 8) (size 9 to 14) (size 15 to 20)
#    0.000    0.857    5.714    0.857    6.000    1.714 
#    2.571    0.714    0.000    0.000    0.000    0.000 
#    0.000    0.000    0.000    0.000    0.000    0.000 
#
# Total GULP energy -78239.423754 kJ/mol
# GULP energy per Si atom -5588.530268 kJ/mol
# Density = 2.215035 g / cm^3
# Si number density = 22.200877 Si / 1000 Ang^3
#
#
#
# Elastic Constant Matrix: (Units=GPa)
#
#
# Indices 1 2 3 4 5 6 
#
# 1 217.7670 56.8394 57.7243 -22.0332 -5.9001 -9.0034
# 2 56.8394 90.8440 35.4245 -7.2211 12.2693 -12.7185
# 3 57.7243 35.4245 63.1827 -11.2517 2.1838 1.5253
# 4 -22.0332 -7.2211 -11.2517 25.8753 -2.3051 -5.7804
# 5 -5.9001 12.2693 2.1838 -2.3051 45.5669 -6.6163
# 6 -9.0034 -12.7185 1.5253 -5.7804 -6.6163 31.4000
#
#
#
# Elastic Compliance Matrix: (Units=1/GPa)
#
#
# Indices 1 2 3 4 5 6 
#
# 1 0.006951 -0.002212 -0.004519 0.004112 0.002291 0.002557
# 2 -0.002212 0.016509 -0.007148 0.000590 -0.003522 0.005767
# 3 -0.004519 -0.007148 0.024773 0.003835 -0.000345 -0.004761
# 4 0.004112 0.000590 0.003835 0.046737 0.004108 0.010701
# 5 0.002291 -0.003522 -0.000345 0.004108 0.024155 0.005093
# 6 0.002557 0.005767 -0.004761 0.010701 0.005093 0.038190
#
#
# Mechanical properties :
#
#
# Convention : Reuss Voigt Hill
#
# Bulk Modulus (GPa) = 48.83784 74.64111 61.73948
# Shear Modulus (GPa) = 26.05555 35.35548 30.70551
#
# Velocity S-wave (km/s) = 3.42954 3.99498 3.72301
# Velocity P-wave (km/s) = 6.14233 7.41442 6.80815
#
# Compressibility (1/GPa) = 0.02047592
#
# Stress axis : x y z
#
# Youngs Moduli (GPa) = 143.86340 60.57375 40.36592
#
# Poissons Ratio (x) = 0.13396 0.18242
# Poissons Ratio (y) = 0.31816 0.28853
# Poissons Ratio (z) = 0.65016 0.43297
#
# Static dielectric constant tensor:
#      x y z
#    x 1.874320 0.000990 0.001320 
#    y 0.000990 1.829220 -0.005840 
#    z 0.001320 -0.005840 1.828860 
# 
# From -- ./inp_files/279152.got.cif
#   From: 2010.05.17/outbox.cif.g08.bks.cpg/sg2_140_cif.got.tgz:279152.got - 2010.06.03 11:33:40.
