data_PCOD9049034
_publ_section_title
;
Structure prediction by ZEFSAII (Michael W. Deem and Ramdas Pophale) SiO2 
 PCOD9049034
Probable space group: P -1
;
_chemical_formula_sum "Si O2"
_cell_formula_units_Z 16
_cell_length_a 13.902800
_cell_length_b 11.146197
_cell_length_c 7.964995
_cell_angle_alpha 107.578328
_cell_angle_beta 121.459552
_cell_angle_gamma 36.250474
_cell_volume 605.034545
_symmetry_space_group_name_H-M "P -1"
_symmetry_group_IT_number 2
_symmetry_cell_setting 'triclinic'
loop_
_space_group_symop_operation_xyz
x,y,z
-x,-y,-z
loop_
_atom_site_type_symbol
_atom_site_label
_atom_site_fract_x
_atom_site_fract_y
_atom_site_fract_z
Si Si1 0.355861 0.177461 0.303217
Si Si2 0.224524 0.014049 0.582749
Si Si3 0.103014 0.779484 0.444680
Si Si4 0.569661 0.599650 0.613129
Si Si5 0.748330 0.430448 0.066817
Si Si6 0.927094 0.661875 0.640487
Si Si7 0.593664 0.117880 0.944046
Si Si8 0.132133 0.943526 0.956576
O O1 0.380061 0.298051 0.318847
O O2 0.153771 0.339013 0.274157
O O3 0.500000 0.000000 0.500000
O O4 0.381464 0.051561 0.129270
O O5 0.341343 0.800606 0.501333
O O6 0.237184 0.120079 0.517553
O O7 0.323135 0.928022 0.815683
O O8 0.004439 0.212671 0.517635
O O9 0.319514 0.565231 0.508991
O O10 0.000000 0.000000 0.500000
O O11 0.006712 0.857043 0.207385
O O12 0.650672 0.488543 0.822282
O O13 0.613228 0.642812 0.137708
O O14 0.773672 0.271598 0.112473
O O15 0.933723 0.350300 0.177770
O O16 0.000000 0.500000 0.500000
O O17 0.704246 0.099770 0.895521
O O18 0.000000 0.000000 0.000000
#
# Coordination Sequence:
#
# PCOD9049034 Si02
#       8
#     2   2   2   2   2   2   2   2
#     4  12  25  44  69 102 140 180 235 292 349 420
#     4  10  24  46  67 101 142 183 236 285 354 416
#     4  11  24  43  70 102 141 184 233 297 350 421
#     4  11  25  46  69 102 142 185 239 288 360 419
#     4  11  24  43  72 102 140 188 234 294 349 423
#     4  12  25  42  69 103 141 188 234 288 353 418
#     4  10  25  43  73 101 138 188 232 293 349 422
#     4  11  21  44  69 101 139 176 241 287 354 416
#
# _framework density 26.444769999999998
#
# number of rings (size 3 to 8) (size 9 to 14) (size 15 to 20)
#    0.000    1.000    2.500    3.375    3.500    3.000 
#    0.000    0.000    0.000    0.000    0.000    0.000 
#    0.000    0.000    0.000    0.000    0.000    0.000 
#
# Total GULP energy -89381.034568 kJ/mol
# GULP energy per Si atom -5586.314660 kJ/mol
# Density = 2.638458 g / cm^3
# Si number density = 26.444770 Si / 1000 Ang^3
#
#
#
# Elastic Constant Matrix: (Units=GPa)
#
#
# Indices 1 2 3 4 5 6 
#
# 1 135.6555 27.6507 10.0808 2.8815 -6.1011 10.5476
# 2 27.6507 175.1817 7.3140 20.6958 2.1528 -14.1690
# 3 10.0808 7.3140 48.9124 -3.7840 -10.9042 -7.1049
# 4 2.8815 20.6958 -3.7840 38.7647 5.9436 -6.4356
# 5 -6.1011 2.1528 -10.9042 5.9436 32.0400 8.6557
# 6 10.5476 -14.1690 -7.1049 -6.4356 8.6557 54.6555
#
#
#
# Elastic Compliance Matrix: (Units=1/GPa)
#
#
# Indices 1 2 3 4 5 6 
#
# 1 0.008049 -0.001349 -0.001442 -0.000728 0.001939 -0.002483
# 2 -0.001349 0.006457 -0.000882 -0.003036 -0.000859 0.001598
# 3 -0.001442 -0.000882 0.022826 0.002174 0.006546 0.002236
# 4 -0.000728 -0.003036 0.002174 0.029216 -0.005689 0.003977
# 5 0.001939 -0.000859 0.006546 -0.005689 0.036599 -0.006212
# 6 -0.002483 0.001598 0.002236 0.003977 -0.006212 0.020933
#
#
# Mechanical properties :
#
#
# Convention : Reuss Voigt Hill
#
# Bulk Modulus (GPa) = 33.34848 49.98229 41.66539
# Shear Modulus (GPa) = 35.35526 46.07230 40.71378
#
# Velocity S-wave (km/s) = 3.66040 4.17851 3.92800
# Velocity P-wave (km/s) = 5.52292 6.49781 6.03010
#
# Compressibility (1/GPa) = 0.02998637
#
# Stress axis : x y z
#
# Youngs Moduli (GPa) = 124.23137 154.88134 43.80958
#
# Poissons Ratio (x) = 0.20893 0.06318
# Poissons Ratio (y) = 0.16758 0.03863
# Poissons Ratio (z) = 0.17916 0.13657
#
# Static dielectric constant tensor:
#      x y z
#    x 2.319470 -0.079630 0.088950 
#    y -0.079630 2.172500 0.050900 
#    z 0.088950 0.050900 2.192790 
# 
# From -- ./inp_files/307795.got.cif
#   From: 2010.05.17/outbox.cif.g08.bks.cpg/sg2_154_cif.got.tgz:307795.got - 2010.06.03 11:33:40.
