data_PCOD9049859
_publ_section_title
;
Structure prediction by ZEFSAII (Michael W. Deem and Ramdas Pophale) SiO2 
 PCOD9049859
Probable space group: P -1
;
_chemical_formula_sum "Si O2"
_cell_formula_units_Z 14
_cell_length_a 5.976794
_cell_length_b 8.218675
_cell_length_c 17.466090
_cell_angle_alpha 129.133487
_cell_angle_beta 116.721616
_cell_angle_gamma 65.890850
_cell_volume 584.719488
_symmetry_space_group_name_H-M "P -1"
_symmetry_group_IT_number 2
_symmetry_cell_setting 'triclinic'
loop_
_space_group_symop_operation_xyz
x,y,z
-x,-y,-z
loop_
_atom_site_type_symbol
_atom_site_label
_atom_site_fract_x
_atom_site_fract_y
_atom_site_fract_z
Si Si1 0.677414 0.147697 0.230513
Si Si2 0.169980 0.400481 0.179057
Si Si3 0.264297 0.677483 0.539659
Si Si4 0.790657 0.391287 0.989647
Si Si5 0.084031 0.476151 0.669618
Si Si6 0.149797 0.827721 0.210942
Si Si7 0.551929 0.960285 0.407197
O O1 0.397883 0.202574 0.168044
O O2 0.689551 0.245137 0.345790
O O3 0.830181 0.297387 0.249618
O O4 0.845926 0.913156 0.189805
O O5 0.224938 0.601523 0.197786
O O6 0.108561 0.504891 0.283935
O O7 0.938249 0.337234 0.076134
O O8 0.500000 0.500000 0.500000
O O9 0.270865 0.881271 0.548074
O O10 0.024935 0.578761 0.445520
O O11 0.761230 0.199455 0.870869
O O12 0.500000 0.500000 0.000000
O O13 0.000000 0.500000 0.000000
O O14 0.307124 0.277894 0.658901
O O15 0.290125 0.991115 0.327645
O O16 0.500000 0.000000 0.500000
#
# Coordination Sequence:
#
# PCOD9049859 Si02
#       7
#     2   2   2   2   2   2   2
#     4  12  25  43  68 103 141 184 236 291 361 426
#     4  11  24  46  72  99 139 182 238 290 360 428
#     4  12  23  40  62  99 142 183 234 293 353 425
#     4  10  24  47  77 107 142 191 240 300 367 432
#     4  12  23  43  67  94 143 182 233 296 351 431
#     4  11  24  46  70 102 141 183 236 297 358 431
#     4  12  23  40  69  99 135 186 238 285 361 430
#
# _framework density 23.943104999999999
#
# number of rings (size 3 to 8) (size 9 to 14) (size 15 to 20)
#    0.000    0.571    2.857    6.000    2.000    1.714 
#    0.000    0.714    0.000    0.000    0.000    0.000 
#    0.000    0.000    0.000    0.000    0.000    0.000 
#
# Total GULP energy -78195.387573 kJ/mol
# GULP energy per Si atom -5585.384827 kJ/mol
# Density = 2.388861 g / cm^3
# Si number density = 23.943105 Si / 1000 Ang^3
#
#
#
# Elastic Constant Matrix: (Units=GPa)
#
#
# Indices 1 2 3 4 5 6 
#
# 1 68.3653 36.3599 35.9535 -16.2900 -1.0490 -29.7170
# 2 36.3599 96.4183 25.2378 -20.4267 -0.5022 -33.9869
# 3 35.9535 25.2378 131.5113 -30.1437 -12.6693 -19.3308
# 4 -16.2900 -20.4267 -30.1437 33.4408 -8.3800 6.4622
# 5 -1.0490 -0.5022 -12.6693 -8.3800 37.0500 3.8259
# 6 -29.7170 -33.9869 -19.3308 6.4622 3.8259 52.3368
#
#
#
# Elastic Compliance Matrix: (Units=1/GPa)
#
#
# Indices 1 2 3 4 5 6 
#
# 1 0.023381 -0.003885 -0.003460 0.004003 -0.000600 0.009024
# 2 -0.003885 0.015788 0.000983 0.007560 0.001389 0.007374
# 3 -0.003460 0.000983 0.011572 0.010662 0.006162 0.001181
# 4 0.004003 0.007560 0.010662 0.048944 0.014517 0.004016
# 5 -0.000600 0.001389 0.006162 0.014517 0.032521 -0.001333
# 6 0.009024 0.007374 0.001181 0.004016 -0.001333 0.029057
#
#
# Mechanical properties :
#
#
# Convention : Reuss Voigt Hill
#
# Bulk Modulus (GPa) = 26.30534 54.59971 40.45252
# Shear Modulus (GPa) = 26.78667 37.81511 32.30089
#
# Velocity S-wave (km/s) = 3.34842 3.97844 3.67695
# Velocity P-wave (km/s) = 5.09506 6.63004 5.91258
#
# Compressibility (1/GPa) = 0.03801510
#
# Stress axis : x y z
#
# Youngs Moduli (GPa) = 42.77040 63.34074 86.41274
#
# Poissons Ratio (x) = 0.24611 0.29901
# Poissons Ratio (y) = 0.16618 -0.08494
# Poissons Ratio (z) = 0.14800 -0.06226
#
# Static dielectric constant tensor:
#      x y z
#    x 1.976820 0.022490 0.113290 
#    y 0.022490 1.898550 -0.048070 
#    z 0.113290 -0.048070 1.969860 
# 
# From -- ./inp_files/32017.got.cif
#   From: 2010.05.17/outbox.cif.g08.bks.cpg/sg2_17_cif.got.tgz:32017.got - 2010.06.03 11:33:40.
