data_PCOD9049179
_publ_section_title
;
Structure prediction by ZEFSAII (Michael W. Deem and Ramdas Pophale) SiO2 
 PCOD9049179
Probable space group: P -1
;
_chemical_formula_sum "Si O2"
_cell_formula_units_Z 15
_cell_length_a 14.679067
_cell_length_b 11.968303
_cell_length_c 8.810498
_cell_angle_alpha 32.634299
_cell_angle_beta 62.455751
_cell_angle_gamma 52.925156
_cell_volume 662.288288
_symmetry_space_group_name_H-M "P -1"
_symmetry_group_IT_number 2
_symmetry_cell_setting 'triclinic'
loop_
_space_group_symop_operation_xyz
x,y,z
-x,-y,-z
loop_
_atom_site_type_symbol
_atom_site_label
_atom_site_fract_x
_atom_site_fract_y
_atom_site_fract_z
Si Si1 0.854319 0.075504 0.679114
Si Si2 0.285746 0.478617 0.556568
Si Si3 0.242908 0.156177 0.484717
Si Si4 0.054107 0.233411 0.314853
Si Si5 0.453162 0.126548 0.226733
Si Si6 0.590349 0.354552 0.968661
Si Si7 0.122810 0.346073 0.657156
Si Si8 0.500000 0.000000 0.000000
O O1 0.745132 0.309965 0.543245
O O2 0.957686 0.145838 0.506694
O O3 0.855371 0.942439 0.675682
O O4 0.877287 0.883280 0.009830
O O5 0.339986 0.538010 0.299134
O O6 0.169362 0.464827 0.610883
O O7 0.377508 0.236079 0.828919
O O8 0.122320 0.214762 0.436112
O O9 0.317180 0.245633 0.223125
O O10 0.218707 0.264385 0.545511
O O11 0.316487 0.881368 0.757661
O O12 0.000000 0.500000 0.000000
O O13 0.489436 0.969706 0.229736
O O14 0.500000 0.000000 0.500000
O O15 0.515341 0.291242 0.977286
O O16 0.500000 0.500000 0.000000
O O17 0.000000 0.500000 0.500000
#
# Coordination Sequence:
#
# PCOD9049179 Si02
#       8
#     2   2   2   2   2   2   2   1
#     4  11  26  47  72 106 151 190 246 311 377 455
#     4  12  26  46  74 110 149 195 254 308 377 457
#     4  11  23  44  73 100 144 191 241 309 379 440
#     4  11  26  48  71 110 148 190 246 308 379 462
#     4  10  24  46  70 105 146 191 253 307 376 448
#     4  11  23  45  70 104 145 190 250 310 369 455
#     4  12  26  47  76 106 148 192 252 317 380 458
#     4  12  28  46  76 108 156 202 252 320 380 452
#
# _framework density 22.648748999999999
#
# number of rings (size 3 to 8) (size 9 to 14) (size 15 to 20)
#    0.000    0.800    1.333    6.400    5.600    2.667 
#    2.400    0.000    0.000    0.000    0.000    0.000 
#    0.000    0.000    0.000    0.000    0.000    0.000 
#
# Total GULP energy -83622.709447 kJ/mol
# GULP energy per Si atom -5574.847296 kJ/mol
# Density = 2.259720 g / cm^3
# Si number density = 22.648749 Si / 1000 Ang^3
#
#
#
# Elastic Constant Matrix: (Units=GPa)
#
#
# Indices 1 2 3 4 5 6 
#
# 1 51.3392 -0.9797 44.9891 -5.7035 -8.5882 -4.5080
# 2 -0.9797 155.7470 31.8787 0.3090 7.9944 8.2133
# 3 44.9891 31.8787 94.9785 -4.8225 -5.1049 -9.8982
# 4 -5.7035 0.3090 -4.8225 42.8792 -10.7522 3.3267
# 5 -8.5882 7.9944 -5.1049 -10.7522 36.9284 2.9146
# 6 -4.5080 8.2133 -9.8982 3.3267 2.9146 32.2666
#
#
#
# Elastic Compliance Matrix: (Units=1/GPa)
#
#
# Indices 1 2 3 4 5 6 
#
# 1 0.037316 0.003819 -0.018615 0.004765 0.006869 -0.002581
# 2 0.003819 0.007621 -0.004727 -0.000181 -0.001253 -0.002725
# 3 -0.018615 -0.004727 0.021401 -0.000691 -0.000969 0.005326
# 4 0.004765 -0.000181 -0.000691 0.026362 0.008967 -0.003028
# 5 0.006869 -0.001253 -0.000969 0.008967 0.031646 -0.002802
# 6 -0.002581 -0.002725 0.005326 -0.003028 -0.002802 0.033524
#
#
# Mechanical properties :
#
#
# Convention : Reuss Voigt Hill
#
# Bulk Modulus (GPa) = 36.64307 50.42676 43.53491
# Shear Modulus (GPa) = 24.27030 37.49327 30.88179
#
# Velocity S-wave (km/s) = 3.27708 4.07310 3.69658
# Velocity P-wave (km/s) = 5.52566 6.66583 6.12234
#
# Compressibility (1/GPa) = 0.02729029
#
# Stress axis : x y z
#
# Youngs Moduli (GPa) = 26.79831 131.22288 46.72710
#
# Poissons Ratio (x) = -0.50114 0.86984
# Poissons Ratio (y) = -0.10234 0.22089
# Poissons Ratio (z) = 0.49886 0.62032
#
# Static dielectric constant tensor:
#      x y z
#    x 1.858580 0.006290 -0.040520 
#    y 0.006290 1.891660 0.005440 
#    z -0.040520 0.005440 1.846250 
# 
# From -- ./inp_files/306060.got.cif
#   From: 2010.05.17/outbox.cif.g08.bks.cpg/sg2_154_cif.got.tgz:306060.got - 2010.06.03 11:33:40.
