data_PCOD9049414
_publ_section_title
;
Structure prediction by ZEFSAII (Michael W. Deem and Ramdas Pophale) SiO2 
 PCOD9049414
Probable space group: P -1
;
_chemical_formula_sum "Si O2"
_cell_formula_units_Z 12
_cell_length_a 8.130206
_cell_length_b 11.936492
_cell_length_c 4.995310
_cell_angle_alpha 74.358562
_cell_angle_beta 89.937233
_cell_angle_gamma 115.151856
_cell_volume 418.822997
_symmetry_space_group_name_H-M "P -1"
_symmetry_group_IT_number 2
_symmetry_cell_setting 'triclinic'
loop_
_space_group_symop_operation_xyz
x,y,z
-x,-y,-z
loop_
_atom_site_type_symbol
_atom_site_label
_atom_site_fract_x
_atom_site_fract_y
_atom_site_fract_z
Si Si1 0.601280 0.737740 0.722544
Si Si2 0.406411 0.056858 0.171801
Si Si3 0.712556 0.412281 0.561880
Si Si4 0.145830 0.135712 0.803882
Si Si5 0.824981 0.590534 0.962040
Si Si6 0.876681 0.224844 0.549528
O O1 0.480828 0.819101 0.722458
O O2 0.486579 0.641793 0.542243
O O3 0.783808 0.848512 0.509660
O O4 0.682912 0.654424 0.942675
O O5 0.257835 0.927800 0.398122
O O6 0.316918 0.140753 0.968594
O O7 0.500000 0.000000 0.000000
O O8 0.735211 0.478470 0.805611
O O9 0.772720 0.297364 0.644878
O O10 0.837507 0.517327 0.274458
O O11 0.035821 0.221693 0.745818
O O12 0.000000 0.000000 0.000000
O O13 0.013023 0.694577 0.760059
#
# Coordination Sequence:
#
# PCOD9049414 Si02
#       6
#     2   2   2   2   2   2
#     4  11  26  45  76 109 148 194 250 312 372 448
#     4  11  25  47  76 110 146 195 246 316 380 441
#     4  12  26  48  76 112 152 197 252 302 371 445
#     4   9  22  44  69 104 146 190 239 299 373 438
#     4  11  27  48  76 110 149 202 250 306 367 443
#     4  10  24  46  73 109 150 191 252 305 375 444
#
# _framework density 28.651726
#
# number of rings (size 3 to 8) (size 9 to 14) (size 15 to 20)
#    0.000    1.333    0.000    3.000    9.333    8.667 
#    9.000    0.000    0.000    0.000    0.000    0.000 
#    0.000    0.000    0.000    0.000    0.000    0.000 
#
# Total GULP energy -67142.119939 kJ/mol
# GULP energy per Si atom -5595.176662 kJ/mol
# Density = 2.858651 g / cm^3
# Si number density = 28.651726 Si / 1000 Ang^3
#
#
#
# Elastic Constant Matrix: (Units=GPa)
#
#
# Indices 1 2 3 4 5 6 
#
# 1 91.3003 31.3099 13.4486 -1.5186 14.9175 -44.4034
# 2 31.3099 180.6392 27.8069 -8.5257 -6.3635 -53.2751
# 3 13.4486 27.8069 92.9211 -29.7820 10.5302 -21.3406
# 4 -1.5186 -8.5257 -29.7820 48.0900 3.1085 -3.2198
# 5 14.9175 -6.3635 10.5302 3.1085 63.0904 -16.5665
# 6 -44.4034 -53.2751 -21.3406 -3.2198 -16.5665 68.0492
#
#
#
# Elastic Compliance Matrix: (Units=1/GPa)
#
#
# Indices 1 2 3 4 5 6 
#
# 1 0.016254 0.000327 0.000786 0.001864 -0.001168 0.010912
# 2 0.000327 0.007710 -0.000709 0.001224 0.002517 0.006698
# 3 0.000786 -0.000709 0.015336 0.009847 -0.002060 0.004731
# 4 0.001864 0.001224 0.009847 0.027691 -0.001709 0.006156
# 5 -0.001168 0.002517 -0.002060 -0.001709 0.018091 0.004886
# 6 0.010912 0.006698 0.004731 0.006156 0.004886 0.030024
#
#
# Mechanical properties :
#
#
# Convention : Reuss Voigt Hill
#
# Bulk Modulus (GPa) = 24.93357 56.66570 40.79964
# Shear Modulus (GPa) = 39.16365 55.33226 47.24795
#
# Velocity S-wave (km/s) = 3.70115 4.39931 4.06525
# Velocity P-wave (km/s) = 5.19480 6.75467 6.02543
#
# Compressibility (1/GPa) = 0.04010656
#
# Stress axis : x y z
#
# Youngs Moduli (GPa) = 61.52351 129.69788 65.20434
#
# Poissons Ratio (x) = -0.04240 -0.05122
# Poissons Ratio (y) = -0.02011 0.04626
# Poissons Ratio (z) = -0.04833 0.09202
#
# Static dielectric constant tensor:
#      x y z
#    x 2.200110 -0.291040 -0.521120 
#    y -0.291040 1.240090 -1.236900 
#    z -0.521120 -1.236900 0.460320 
# 
# From -- ./inp_files/23458.got.cif
#   From: 2010.05.17/outbox.cif.g08.bks.cpg/sg2_12_cif.got.tgz:23458.got - 2010.06.03 11:33:40.
