data_PCOD9049965
_publ_section_title
;
Structure prediction by ZEFSAII (Michael W. Deem and Ramdas Pophale) SiO2 
 PCOD9049965
Probable space group: P -1
;
_chemical_formula_sum "Si O2"
_cell_formula_units_Z 13
_cell_length_a 12.829511
_cell_length_b 9.507988
_cell_length_c 11.029246
_cell_angle_alpha 76.354097
_cell_angle_beta 144.975462
_cell_angle_gamma 80.578269
_cell_volume 576.606405
_symmetry_space_group_name_H-M "P -1"
_symmetry_group_IT_number 2
_symmetry_cell_setting 'triclinic'
loop_
_space_group_symop_operation_xyz
x,y,z
-x,-y,-z
loop_
_atom_site_type_symbol
_atom_site_label
_atom_site_fract_x
_atom_site_fract_y
_atom_site_fract_z
Si Si1 0.295289 0.352171 0.205031
Si Si2 0.328496 0.057932 0.936372
Si Si3 0.857346 0.258290 0.097562
Si Si4 0.995190 0.667953 0.246298
Si Si5 0.156183 0.906798 0.288558
Si Si6 0.403289 0.301867 0.595850
Si Si7 0.000000 0.000000 0.500000
O O1 0.569260 0.219137 0.454561
O O2 0.291278 0.358322 0.344970
O O3 0.167905 0.559930 0.989260
O O4 0.168983 0.280388 0.037335
O O5 0.168249 0.261488 0.804998
O O6 0.157720 0.018909 0.735664
O O7 0.500000 0.000000 0.000000
O O8 0.487251 0.908091 0.224547
O O9 0.901739 0.196437 0.292025
O O10 0.618220 0.307076 0.806509
O O11 0.071183 0.072636 0.267040
O O12 0.097938 0.777996 0.313583
O O13 0.214457 0.448268 0.486286
O O14 0.000000 0.000000 0.000000
#
# Coordination Sequence:
#
# PCOD9049965 Si02
#       7
#     2   2   2   2   2   2   1
#     4  12  26  43  74 110 141 182 227 292 359 408
#     4  11  27  48  68  97 142 185 235 289 343 408
#     4  11  23  46  71  99 143 187 227 287 349 410
#     4  12  26  43  71 110 135 181 240 284 345 425
#     4  12  23  44  71 100 144 185 228 283 355 413
#     4  11  23  47  70 103 144 178 231 291 344 419
#     4  10  24  48  70  94 134 192 232 282 342 412
#
# _framework density 22.545708999999999
#
# number of rings (size 3 to 8) (size 9 to 14) (size 15 to 20)
#    0.000    0.615    6.154    1.846    4.308    3.077 
#    0.000    2.308    0.000    0.000    0.000    0.000 
#    0.000    0.000    0.000    0.000    0.000    0.000 
#
# Total GULP energy -72503.405676 kJ/mol
# GULP energy per Si atom -5577.185052 kJ/mol
# Density = 2.249439 g / cm^3
# Si number density = 22.545709 Si / 1000 Ang^3
#
#
#
# Elastic Constant Matrix: (Units=GPa)
#
#
# Indices 1 2 3 4 5 6 
#
# 1 72.4840 22.6277 26.3213 -10.0936 13.8714 -19.2669
# 2 22.6277 77.8039 38.5497 -21.1893 26.6859 -19.3397
# 3 26.3213 38.5497 84.1369 -10.7532 0.7518 -4.0777
# 4 -10.0936 -21.1893 -10.7532 32.6951 -6.9250 7.3636
# 5 13.8714 26.6859 0.7518 -6.9250 46.0652 -12.8812
# 6 -19.2669 -19.3397 -4.0777 7.3636 -12.8812 26.7296
#
#
#
# Elastic Compliance Matrix: (Units=1/GPa)
#
#
# Indices 1 2 3 4 5 6 
#
# 1 0.019646 0.002155 -0.006251 0.001862 -0.003232 0.012696
# 2 0.002155 0.027215 -0.011267 0.009593 -0.011636 0.011275
# 3 -0.006251 -0.011267 0.018583 -0.000288 0.006170 -0.006771
# 4 0.001862 0.009593 -0.000288 0.037637 -0.001214 -0.002715
# 5 -0.003232 -0.011636 0.006170 -0.001214 0.030616 0.005281
# 6 0.012696 0.011275 -0.006771 -0.002715 0.005281 0.056981
#
#
# Mechanical properties :
#
#
# Convention : Reuss Voigt Hill
#
# Bulk Modulus (GPa) = 28.80354 45.49134 37.14744
# Shear Modulus (GPa) = 21.46136 30.89306 26.17721
#
# Velocity S-wave (km/s) = 3.08864 3.70569 3.41115
# Velocity P-wave (km/s) = 5.05203 6.20731 5.65923
#
# Compressibility (1/GPa) = 0.03471795
#
# Stress axis : x y z
#
# Youngs Moduli (GPa) = 50.90100 36.74469 53.81185
#
# Poissons Ratio (x) = -0.07920 0.33640
# Poissons Ratio (y) = -0.10971 0.60630
# Poissons Ratio (z) = 0.31820 0.41400
#
# Static dielectric constant tensor:
#      x y z
#    x 1.903380 0.011940 0.048050 
#    y 0.011940 1.809630 -0.011300 
#    z 0.048050 -0.011300 1.810370 
# 
# From -- ./inp_files/445997.got.cif
#   From: 2010.05.17/outbox.cif.g08.bks.cpg/sg2_223_cif.got.tgz:445997.got - 2010.06.03 11:33:40.
