data_PCOD9049800
_publ_section_title
;
Structure prediction by ZEFSAII (Michael W. Deem and Ramdas Pophale) SiO2 
 PCOD9049800
Probable space group: P -1
;
_chemical_formula_sum "Si O2"
_cell_formula_units_Z 13
_cell_length_a 7.721119
_cell_length_b 6.909596
_cell_length_c 15.592851
_cell_angle_alpha 43.081330
_cell_angle_beta 67.538976
_cell_angle_gamma 78.843125
_cell_volume 520.251811
_symmetry_space_group_name_H-M "P -1"
_symmetry_group_IT_number 2
_symmetry_cell_setting 'triclinic'
loop_
_space_group_symop_operation_xyz
x,y,z
-x,-y,-z
loop_
_atom_site_type_symbol
_atom_site_label
_atom_site_fract_x
_atom_site_fract_y
_atom_site_fract_z
Si Si1 0.464816 0.424902 0.629843
Si Si2 0.161630 0.477606 0.210029
Si Si3 0.207258 0.855887 0.836447
Si Si4 0.857700 0.612335 0.557784
Si Si5 0.500000 0.000000 0.000000
Si Si6 0.782878 0.757589 0.890828
Si Si7 0.770501 0.236154 0.323041
O O1 0.500000 0.500000 0.500000
O O2 0.660594 0.411274 0.644289
O O3 0.376136 0.679481 0.608916
O O4 0.320588 0.139526 0.761224
O O5 0.108561 0.388361 0.347048
O O6 0.313293 0.757132 0.094538
O O7 0.238833 0.242406 0.208550
O O8 0.952283 0.481083 0.208772
O O9 0.307818 0.788138 0.750123
O O10 0.992883 0.900858 0.835647
O O11 0.209928 0.578509 0.982624
O O12 0.000000 0.500000 0.500000
O O13 0.832112 0.932852 0.432469
O O14 0.377655 0.138512 0.054772
#
# Coordination Sequence:
#
# PCOD9049800 Si02
#       7
#     2   2   2   2   1   2   2
#     4  12  25  45  76 105 140 187 248 299 354 430
#     4  11  27  45  72 106 153 185 238 295 367 429
#     4  10  24  47  74  99 143 185 248 287 361 418
#     4  12  28  47  75 108 148 193 235 304 371 424
#     4  12  26  44  72 110 146 186 244 286 372 420
#     4  10  25  48  72 105 143 197 232 304 347 439
#     4  11  25  49  72 104 141 191 243 298 356 431
#
# _framework density 24.987901000000001
#
# number of rings (size 3 to 8) (size 9 to 14) (size 15 to 20)
#    0.000    0.923    1.538    3.231    8.615    1.231 
#    0.000    4.615    0.000    0.000    0.000    0.000 
#    0.000    0.000    0.000    0.000    0.000    0.000 
#
# Total GULP energy -72581.503061 kJ/mol
# GULP energy per Si atom -5583.192543 kJ/mol
# Density = 2.493103 g / cm^3
# Si number density = 24.987901 Si / 1000 Ang^3
#
#
#
# Elastic Constant Matrix: (Units=GPa)
#
#
# Indices 1 2 3 4 5 6 
#
# 1 73.7626 67.7147 32.2773 -3.3025 -26.9617 6.2221
# 2 67.7147 193.6820 65.3077 40.7023 -17.1705 -16.8396
# 3 32.2773 65.3077 92.9075 0.6631 -13.6050 -9.1544
# 4 -3.3025 40.7023 0.6631 62.4710 16.3082 -23.4330
# 5 -26.9617 -17.1705 -13.6050 16.3082 45.5248 4.3865
# 6 6.2221 -16.8396 -9.1544 -23.4330 4.3865 39.8817
#
#
#
# Elastic Compliance Matrix: (Units=1/GPa)
#
#
# Indices 1 2 3 4 5 6 
#
# 1 0.028838 -0.008678 -0.002895 -0.000484 0.014142 -0.010668
# 2 -0.008678 0.011652 -0.004996 -0.008026 0.000604 0.000345
# 3 -0.002895 -0.004996 0.015556 0.005192 -0.001302 0.005107
# 4 -0.000484 -0.008026 0.005192 0.031915 -0.014956 0.018276
# 5 0.014142 0.000604 -0.001302 -0.014956 0.036993 -0.015106
# 6 -0.010668 0.000345 0.005107 0.018276 -0.015106 0.040456
#
#
# Mechanical properties :
#
#
# Convention : Reuss Voigt Hill
#
# Bulk Modulus (GPa) = 43.65360 76.77238 60.21299
# Shear Modulus (GPa) = 24.25010 42.57900 33.41455
#
# Velocity S-wave (km/s) = 3.11862 4.13241 3.66078
# Velocity P-wave (km/s) = 5.52047 7.31845 6.48210
#
# Compressibility (1/GPa) = 0.02290762
#
# Stress axis : x y z
#
# Youngs Moduli (GPa) = 34.67675 85.82426 64.28185
#
# Poissons Ratio (x) = 0.74478 0.18612
# Poissons Ratio (y) = 0.30092 0.32114
# Poissons Ratio (z) = 0.10040 0.42876
#
# Static dielectric constant tensor:
#      x y z
#    x 2.010300 0.009320 0.029520 
#    y 0.009320 1.989190 0.057670 
#    z 0.029520 0.057670 2.057900 
# 
# From -- ./inp_files/60454.got.cif
#   From: 2010.05.17/outbox.cif.g08.bks.cpg/sg2_31_cif.got.tgz:60454.got - 2010.06.03 11:33:40.
