data_PCOD9049621
_publ_section_title
;
Structure prediction by ZEFSAII (Michael W. Deem and Ramdas Pophale) SiO2 
 PCOD9049621
Probable space group: P -1
;
_chemical_formula_sum "Si O2"
_cell_formula_units_Z 16
_cell_length_a 6.032573
_cell_length_b 10.678774
_cell_length_c 11.279402
_cell_angle_alpha 62.824112
_cell_angle_beta 83.887402
_cell_angle_gamma 91.098820
_cell_volume 640.844933
_symmetry_space_group_name_H-M "P -1"
_symmetry_group_IT_number 2
_symmetry_cell_setting 'triclinic'
loop_
_space_group_symop_operation_xyz
x,y,z
-x,-y,-z
loop_
_atom_site_type_symbol
_atom_site_label
_atom_site_fract_x
_atom_site_fract_y
_atom_site_fract_z
Si Si1 0.876850 0.362984 0.745638
Si Si2 0.750869 0.545745 0.028090
Si Si3 0.783245 0.825408 0.259840
Si Si4 0.632479 0.814556 0.810986
Si Si5 0.917009 0.077496 0.584298
Si Si6 0.307853 0.910654 0.975726
Si Si7 0.447505 0.412523 0.286365
Si Si8 0.363347 0.693413 0.450530
O O1 0.766104 0.493390 0.757427
O O2 0.800172 0.377874 0.606848
O O3 0.127036 0.316374 0.737217
O O4 0.777391 0.222149 0.882086
O O5 0.674874 0.488064 0.185269
O O6 0.500000 0.500000 0.000000
O O7 0.763332 0.713005 0.933554
O O8 0.000000 0.500000 0.000000
O O9 0.525090 0.793044 0.315017
O O10 0.893214 0.859699 0.365841
O O11 0.835501 0.964009 0.117516
O O12 0.406685 0.843109 0.880110
O O13 0.599242 0.730892 0.724718
O O14 0.766805 0.961772 0.716361
O O15 0.774989 0.206953 0.502266
O O16 0.000000 0.000000 0.500000
O O17 0.500000 0.000000 0.000000
O O18 0.493527 0.390900 0.431317
#
# Coordination Sequence:
#
# PCOD9049621 Si02
#       8
#     2   2   2   2   2   2   2   2
#     4  11  24  46  68 104 141 185 248 289 373 439
#     4  10  24  47  69 105 146 190 243 301 375 443
#     4  11  24  44  74 100 139 190 239 308 366 430
#     4  11  24  45  71 105 145 182 247 306 370 437
#     4  11  25  42  70 107 139 185 241 302 367 442
#     4  12  22  45  72 100 140 181 240 304 365 433
#     4  11  25  46  71 104 146 194 236 302 369 450
#     4  11  24  46  68 102 144 186 244 297 365 443
#
# _framework density 24.967037000000001
#
# number of rings (size 3 to 8) (size 9 to 14) (size 15 to 20)
#    0.000    1.000    3.750    2.250    3.500    2.500 
#   11.250    0.000    0.000    0.000    0.000    0.000 
#    0.000    0.000    0.000    0.000    0.000    0.000 
#
# Total GULP energy -89377.916862 kJ/mol
# GULP energy per Si atom -5586.119804 kJ/mol
# Density = 2.491021 g / cm^3
# Si number density = 24.967037 Si / 1000 Ang^3
#
#
#
# Elastic Constant Matrix: (Units=GPa)
#
#
# Indices 1 2 3 4 5 6 
#
# 1 75.2739 54.4661 21.1508 8.3363 5.5771 -20.2413
# 2 54.4661 124.5295 7.5789 16.0348 9.9171 -29.5668
# 3 21.1508 7.5789 92.4939 -4.1320 0.9072 -3.8434
# 4 8.3363 16.0348 -4.1320 39.4097 -12.5869 4.0865
# 5 5.5771 9.9171 0.9072 -12.5869 30.9046 -3.0385
# 6 -20.2413 -29.5668 -3.8434 4.0865 -3.0385 48.5971
#
#
#
# Elastic Compliance Matrix: (Units=1/GPa)
#
#
# Indices 1 2 3 4 5 6 
#
# 1 0.021629 -0.007661 -0.004260 -0.003017 -0.002143 0.004131
# 2 -0.007661 0.013830 0.000622 -0.006114 -0.005026 0.005472
# 3 -0.004260 0.000622 0.011802 0.002298 0.001101 -0.000587
# 4 -0.003017 -0.006114 0.002298 0.034492 0.015828 -0.006706
# 5 -0.002143 -0.005026 0.001101 0.015828 0.040509 -0.002661
# 6 0.004131 0.005472 -0.000587 -0.006706 -0.002661 0.025978
#
#
# Mechanical properties :
#
#
# Convention : Reuss Voigt Hill
#
# Bulk Modulus (GPa) = 40.54661 50.96544 45.75603
# Shear Modulus (GPa) = 27.92383 37.72237 32.82310
#
# Velocity S-wave (km/s) = 3.34792 3.89123 3.62975
# Velocity P-wave (km/s) = 5.58749 6.37544 5.99443
#
# Compressibility (1/GPa) = 0.02466297
#
# Stress axis : x y z
#
# Youngs Moduli (GPa) = 46.23518 72.30808 84.72981
#
# Poissons Ratio (x) = 0.55392 0.36097
# Poissons Ratio (y) = 0.35419 -0.05271
# Poissons Ratio (z) = 0.19698 -0.04499
#
# Static dielectric constant tensor:
#      x y z
#    x 2.025920 0.016110 0.009310 
#    y 0.016110 1.972810 0.010440 
#    z 0.009310 0.010440 2.026200 
# 
# From -- ./inp_files/97522.got.cif
#   From: 2010.05.17/outbox.cif.g08.bks.cpg/sg2_49_cif.got.tgz:97522.got - 2010.06.03 11:33:40.
