data_PCOD9049302
_publ_section_title
;
Structure prediction by ZEFSAII (Michael W. Deem and Ramdas Pophale) SiO2 
 PCOD9049302
Probable space group: P -1
;
_chemical_formula_sum "Si O2"
_cell_formula_units_Z 16
_cell_length_a 15.692265
_cell_length_b 6.949265
_cell_length_c 8.926725
_cell_angle_alpha 108.273734
_cell_angle_beta 55.607070
_cell_angle_gamma 81.187181
_cell_volume 691.678931
_symmetry_space_group_name_H-M "P -1"
_symmetry_group_IT_number 2
_symmetry_cell_setting 'triclinic'
loop_
_space_group_symop_operation_xyz
x,y,z
-x,-y,-z
loop_
_atom_site_type_symbol
_atom_site_label
_atom_site_fract_x
_atom_site_fract_y
_atom_site_fract_z
Si Si1 0.738663 0.177622 0.027508
Si Si2 0.898226 0.678394 0.310006
Si Si3 0.704273 0.066884 0.496397
Si Si4 0.413893 0.943490 0.682885
Si Si5 0.523019 0.825529 0.068634
Si Si6 0.726219 0.389149 0.762239
Si Si7 0.930272 0.229093 0.036048
Si Si8 0.131343 0.321325 0.327194
O O1 0.731280 0.279639 0.893432
O O2 0.809868 0.259049 0.092370
O O3 0.816848 0.906009 0.876967
O O4 0.608881 0.225548 0.216586
O O5 0.854514 0.765384 0.538278
O O6 0.999178 0.737260 0.166660
O O7 0.791063 0.809681 0.344092
O O8 0.926249 0.421067 0.200930
O O9 0.598837 0.119193 0.724929
O O10 0.765071 0.210472 0.544233
O O11 0.660803 0.102879 0.381302
O O12 0.403612 0.128143 0.861660
O O13 0.500000 0.000000 0.500000
O O14 0.599673 0.571360 0.887840
O O15 0.500000 0.000000 0.000000
O O16 0.802378 0.525807 0.725987
O O17 0.000000 0.000000 0.000000
O O18 0.000000 0.500000 0.500000
#
# Coordination Sequence:
#
# PCOD9049302 Si02
#       8
#     2   2   2   2   2   2   2   2
#     4  12  25  46  73 107 142 191 247 297 359 439
#     4  11  25  45  67 109 145 190 236 303 352 430
#     4  11  24  43  71 103 140 183 241 289 358 430
#     4  10  24  46  72 101 144 184 233 300 357 423
#     4  11  23  48  73  99 140 187 233 301 361 426
#     4  12  26  45  74 105 144 191 241 300 365 428
#     4  11  26  44  73 103 152 191 238 291 371 428
#     4  12  26  43  72 104 149 188 244 300 356 429
#
# _framework density 23.13212
#
# number of rings (size 3 to 8) (size 9 to 14) (size 15 to 20)
#    0.000    0.750    2.500    4.125    7.000    3.000 
#    0.000    3.125    0.000    0.000    0.000    0.000 
#    0.000    0.000    0.000    0.000    0.000    0.000 
#
# Total GULP energy -89095.376102 kJ/mol
# GULP energy per Si atom -5568.461006 kJ/mol
# Density = 2.307947 g / cm^3
# Si number density = 23.132120 Si / 1000 Ang^3
#
#
#
# Elastic Constant Matrix: (Units=GPa)
#
#
# Indices 1 2 3 4 5 6 
#
# 1 62.6789 30.8839 21.4227 -9.8467 -2.9819 11.3293
# 2 30.8839 113.1000 31.7423 -4.8607 -10.3311 7.3514
# 3 21.4227 31.7423 66.0283 -17.1821 -2.4649 4.9258
# 4 -9.8467 -4.8607 -17.1821 33.0651 0.6710 -8.9719
# 5 -2.9819 -10.3311 -2.4649 0.6710 49.5178 -3.4389
# 6 11.3293 7.3514 4.9258 -8.9719 -3.4389 28.1476
#
#
#
# Elastic Compliance Matrix: (Units=1/GPa)
#
#
# Indices 1 2 3 4 5 6 
#
# 1 0.020656 -0.004133 -0.003766 0.001970 -0.000248 -0.005978
# 2 -0.004133 0.011393 -0.004576 -0.002242 0.001861 -0.000999
# 3 -0.003766 -0.004576 0.020915 0.009650 -0.000124 0.002111
# 4 0.001970 -0.002242 0.009650 0.038319 0.000331 0.010358
# 5 -0.000248 0.001861 -0.000124 0.000331 0.020715 0.002272
# 6 -0.005978 -0.000999 0.002111 0.010358 0.002272 0.041404
#
#
# Mechanical properties :
#
#
# Convention : Reuss Voigt Hill
#
# Bulk Modulus (GPa) = 35.69385 45.54499 40.61942
# Shear Modulus (GPa) = 26.63971 32.66332 29.65151
#
# Velocity S-wave (km/s) = 3.39725 3.76178 3.58415
# Velocity P-wave (km/s) = 5.55449 6.21287 5.89288
#
# Compressibility (1/GPa) = 0.02801603
#
# Stress axis : x y z
#
# Youngs Moduli (GPa) = 48.41205 87.77241 47.81156
#
# Poissons Ratio (x) = 0.36277 0.18003
# Poissons Ratio (y) = 0.20009 0.21877
# Poissons Ratio (z) = 0.18230 0.40162
#
# Static dielectric constant tensor:
#      x y z
#    x 1.879830 0.022420 -0.056120 
#    y 0.022420 1.961730 -0.057980 
#    z -0.056120 -0.057980 1.886420 
# 
# From -- ./inp_files/323821.got.cif
#   From: 2010.05.17/outbox.cif.g08.bks.cpg/sg2_162_cif.got.tgz:323821.got - 2010.06.03 11:33:40.
