data_PCOD9049506
_publ_section_title
;
Structure prediction by ZEFSAII (Michael W. Deem and Ramdas Pophale) SiO2 
 PCOD9049506
Probable space group: P -1
;
_chemical_formula_sum "Si O2"
_cell_formula_units_Z 11
_cell_length_a 8.431944
_cell_length_b 11.913044
_cell_length_c 9.160120
_cell_angle_alpha 141.206468
_cell_angle_beta 132.912988
_cell_angle_gamma 67.410990
_cell_volume 400.087488
_symmetry_space_group_name_H-M "P -1"
_symmetry_group_IT_number 2
_symmetry_cell_setting 'triclinic'
loop_
_space_group_symop_operation_xyz
x,y,z
-x,-y,-z
loop_
_atom_site_type_symbol
_atom_site_label
_atom_site_fract_x
_atom_site_fract_y
_atom_site_fract_z
Si Si1 0.952912 0.016700 0.819050
Si Si2 0.363670 0.508967 0.071282
Si Si3 0.500000 0.500000 0.500000
Si Si4 0.252638 0.129032 0.737010
Si Si5 0.984795 0.574370 0.730272
Si Si6 0.533405 0.858401 0.728636
O O1 0.877882 0.202963 0.952739
O O2 0.210010 0.039283 0.951284
O O3 0.777641 0.870621 0.457224
O O4 0.000000 0.000000 0.000000
O O5 0.340121 0.360275 0.046685
O O6 0.107266 0.482400 0.831682
O O7 0.500000 0.500000 0.000000
O O8 0.488942 0.721157 0.420870
O O9 0.738298 0.577014 0.627614
O O10 0.430316 0.696367 0.618102
O O11 0.420452 0.017105 0.777120
O O12 0.000000 0.000000 0.500000
O O13 0.000000 0.500000 0.500000
#
# Coordination Sequence:
#
# PCOD9049506 Si02
#       6
#     2   2   1   2   2   2
#     4  11  25  47  74 107 157 201 255 325 389 462
#     4  12  26  46  78 112 155 206 261 321 403 469
#     4  10  24  46  76 104 156 200 252 320 396 456
#     4  12  28  48  74 114 156 206 263 325 394 474
#     4  11  23  45  74 109 150 202 259 313 390 473
#     4  11  26  48  74 109 152 200 259 323 387 470
#
# _framework density 27.493984000000001
#
# number of rings (size 3 to 8) (size 9 to 14) (size 15 to 20)
#    0.000    0.727    1.818    5.455    7.636    3.636 
#    6.545    0.000    0.000    0.000    0.000    0.000 
#    0.000    0.000    0.000    0.000    0.000    0.000 
#
# Total GULP energy -61326.366910 kJ/mol
# GULP energy per Si atom -5575.124265 kJ/mol
# Density = 2.743141 g / cm^3
# Si number density = 27.493984 Si / 1000 Ang^3
#
#
#
# Elastic Constant Matrix: (Units=GPa)
#
#
# Indices 1 2 3 4 5 6 
#
# 1 113.5230 26.5600 35.0823 -1.9549 -12.1381 -5.8875
# 2 26.5600 231.9598 34.6952 -0.9285 5.4894 -26.2633
# 3 35.0823 34.6952 98.1259 -1.9900 -11.6030 -20.6072
# 4 -1.9549 -0.9285 -1.9900 57.6780 -4.9692 2.4702
# 5 -12.1381 5.4894 -11.6030 -4.9692 43.3504 -2.2788
# 6 -5.8875 -26.2633 -20.6072 2.4702 -2.2788 50.1850
#
#
#
# Elastic Compliance Matrix: (Units=1/GPa)
#
#
# Indices 1 2 3 4 5 6 
#
# 1 0.010193 -0.000788 -0.003202 0.000425 0.002122 -0.000456
# 2 -0.000788 0.004814 -0.001146 -0.000162 -0.001055 0.001916
# 3 -0.003202 -0.001146 0.013052 0.000391 0.003023 0.004502
# 4 0.000425 -0.000162 0.000391 0.017582 0.002226 -0.000639
# 5 0.002122 -0.001055 0.003023 0.002226 0.024963 0.001962
# 6 -0.000456 0.001916 0.004502 -0.000639 0.001962 0.022845
#
#
# Mechanical properties :
#
#
# Convention : Reuss Voigt Hill
#
# Bulk Modulus (GPa) = 56.22106 70.69821 63.45963
# Shear Modulus (GPa) = 45.59959 53.39409 49.49684
#
# Velocity S-wave (km/s) = 4.07692 4.41163 4.24757
# Velocity P-wave (km/s) = 6.53105 7.19165 6.86930
#
# Compressibility (1/GPa) = 0.01778693
#
# Stress axis : x y z
#
# Youngs Moduli (GPa) = 98.10435 207.72537 76.61786
#
# Poissons Ratio (x) = 0.16377 0.24532
# Poissons Ratio (y) = 0.07734 0.08779
# Poissons Ratio (z) = 0.31412 0.23802
#
# Static dielectric constant tensor:
#      x y z
#    x 2.410610 0.058910 0.045340 
#    y 0.058910 2.350160 0.039840 
#    z 0.045340 0.039840 2.415870 
# 
# From -- ./inp_files/183655.got.cif
#   From: 2010.05.17/outbox.cif.g08.bks.cpg/sg2_92_cif.got.tgz:183655.got - 2010.06.03 11:33:40.
