data_PCOD9049908
_publ_section_title
;
Structure prediction by ZEFSAII (Michael W. Deem and Ramdas Pophale) SiO2 
 PCOD9049908
Probable space group: P -1
;
_chemical_formula_sum "Si O2"
_cell_formula_units_Z 15
_cell_length_a 14.976183
_cell_length_b 9.383507
_cell_length_c 8.280860
_cell_angle_alpha 78.020888
_cell_angle_beta 144.962001
_cell_angle_gamma 92.089275
_cell_volume 634.826870
_symmetry_space_group_name_H-M "P -1"
_symmetry_group_IT_number 2
_symmetry_cell_setting 'triclinic'
loop_
_space_group_symop_operation_xyz
x,y,z
-x,-y,-z
loop_
_atom_site_type_symbol
_atom_site_label
_atom_site_fract_x
_atom_site_fract_y
_atom_site_fract_z
Si Si1 0.924132 0.005545 0.710145
Si Si2 0.762000 0.672982 0.905943
Si Si3 0.590348 0.563818 0.264104
Si Si4 0.680416 0.186714 0.093309
Si Si5 0.900790 0.353227 0.215636
Si Si6 0.824794 0.912577 0.160965
Si Si7 0.877204 0.691471 0.717375
Si Si8 0.500000 0.500000 0.500000
O O1 0.800805 0.156279 0.432282
O O2 0.068635 0.993156 0.799840
O O3 0.836064 0.871165 0.592315
O O4 0.000000 0.000000 0.000000
O O5 0.859628 0.679569 0.885067
O O6 0.596676 0.632018 0.633073
O O7 0.862844 0.523645 0.179992
O O8 0.737386 0.826493 0.928442
O O9 0.767213 0.592053 0.494221
O O10 0.572303 0.474615 0.421569
O O11 0.500000 0.500000 0.000000
O O12 0.490187 0.734269 0.112214
O O13 0.735829 0.304638 0.024741
O O14 0.711817 0.030654 0.081801
O O15 0.044701 0.226338 0.532834
O O16 0.949326 0.355336 0.099296
#
# Coordination Sequence:
#
# PCOD9049908 Si02
#       8
#     2   2   2   2   2   2   2   1
#     4  11  21  42  65 101 143 170 227 285 343 413
#     4  11  23  40  69 100 138 182 229 287 348 404
#     4  11  27  49  70 100 141 187 233 284 357 416
#     4  11  23  46  71  96 140 184 222 290 350 412
#     4  11  21  41  69  97 136 177 228 287 337 404
#     4  11  22  39  72  97 133 182 224 285 349 406
#     4  11  23  42  67 103 137 177 235 288 332 418
#     4  10  24  48  66 100 146 178 232 288 338 428
#
# _framework density 23.628487
#
# number of rings (size 3 to 8) (size 9 to 14) (size 15 to 20)
#    0.000    1.067    5.333    1.600    1.867    2.667 
#    7.200    2.667    0.000    0.000    0.000    0.000 
#    0.000    0.000    0.000    0.000    0.000    0.000 
#
# Total GULP energy -83509.416728 kJ/mol
# GULP energy per Si atom -5567.294449 kJ/mol
# Density = 2.357471 g / cm^3
# Si number density = 23.628487 Si / 1000 Ang^3
#
#
#
# Elastic Constant Matrix: (Units=GPa)
#
#
# Indices 1 2 3 4 5 6 
#
# 1 85.5148 38.7044 34.8501 4.4705 -11.2429 13.7207
# 2 38.7044 138.5634 25.9623 14.6007 -12.9599 8.6803
# 3 34.8501 25.9623 57.9203 19.0621 -5.9376 2.7176
# 4 4.4705 14.6007 19.0621 39.8364 -8.0482 3.9942
# 5 -11.2429 -12.9599 -5.9376 -8.0482 33.3109 -2.4325
# 6 13.7207 8.6803 2.7176 3.9942 -2.4325 31.9281
#
#
#
# Elastic Compliance Matrix: (Units=1/GPa)
#
#
# Indices 1 2 3 4 5 6 
#
# 1 0.018967 -0.002993 -0.011260 0.005877 0.004154 -0.006797
# 2 -0.002993 0.008680 -0.001288 -0.001835 0.001649 -0.000609
# 3 -0.011260 -0.001288 0.028386 -0.012672 -0.001996 0.004206
# 4 0.005877 -0.001835 -0.012672 0.032980 0.006646 -0.004568
# 5 0.004154 0.001649 -0.001996 0.006646 0.033287 -0.000359
# 6 -0.006797 -0.000609 0.004206 -0.004568 -0.000359 0.034593
#
#
# Mechanical properties :
#
#
# Convention : Reuss Voigt Hill
#
# Bulk Modulus (GPa) = 40.08004 53.44802 46.76403
# Shear Modulus (GPa) = 25.47203 33.18053 29.32628
#
# Velocity S-wave (km/s) = 3.28689 3.75141 3.52680
# Velocity P-wave (km/s) = 5.60395 6.43688 6.03480
#
# Compressibility (1/GPa) = 0.02495007
#
# Stress axis : x y z
#
# Youngs Moduli (GPa) = 52.72334 115.20582 35.22830
#
# Poissons Ratio (x) = 0.34483 0.39667
# Poissons Ratio (y) = 0.15781 0.04539
# Poissons Ratio (z) = 0.59367 0.14843
#
# Static dielectric constant tensor:
#      x y z
#    x 1.895050 0.009410 -0.068960 
#    y 0.009410 1.850700 0.156920 
#    z -0.068960 0.156920 0.829330 
# 
# From -- ./inp_files/298420.got.cif
#   From: 2010.05.17/outbox.cif.g08.bks.cpg/sg2_150_cif.got.tgz:298420.got - 2010.06.03 11:33:40.
