data_PCOD9049716
_publ_section_title
;
Structure prediction by ZEFSAII (Michael W. Deem and Ramdas Pophale) SiO2 
 PCOD9049716
Probable space group: P -1
;
_chemical_formula_sum "Si O2"
_cell_formula_units_Z 12
_cell_length_a 11.908379
_cell_length_b 14.737430
_cell_length_c 5.256903
_cell_angle_alpha 122.971200
_cell_angle_beta 69.886369
_cell_angle_gamma 141.478290
_cell_volume 476.093682
_symmetry_space_group_name_H-M "P -1"
_symmetry_group_IT_number 2
_symmetry_cell_setting 'triclinic'
loop_
_space_group_symop_operation_xyz
x,y,z
-x,-y,-z
loop_
_atom_site_type_symbol
_atom_site_label
_atom_site_fract_x
_atom_site_fract_y
_atom_site_fract_z
Si Si1 0.157328 0.143138 0.282558
Si Si2 0.824491 0.015893 0.584296
Si Si3 0.326886 0.472115 0.475136
Si Si4 0.184053 0.579791 0.592448
Si Si5 0.524760 0.328191 0.817365
Si Si6 0.626585 0.100161 0.805611
O O1 0.229371 0.083007 0.264422
O O2 0.279352 0.316519 0.319381
O O3 0.037106 0.132443 0.563151
O O4 0.000000 0.000000 0.000000
O O5 0.677504 0.856072 0.271879
O O6 0.777240 0.108099 0.727292
O O7 0.159748 0.438281 0.482497
O O8 0.460113 0.578853 0.292246
O O9 0.397712 0.570902 0.832162
O O10 0.342352 0.675088 0.400650
O O11 0.000000 0.500000 0.500000
O O12 0.268330 0.714240 0.950045
O O13 0.500000 0.000000 0.500000
O O14 0.500000 0.000000 0.000000
#
# Coordination Sequence:
#
# PCOD9049716 Si02
#       6
#     2   2   2   2   2   2
#     4  11  29  47  74 103 150 196 249 307 361 439
#     4  11  27  47  74 106 148 193 251 295 372 432
#     4  10  25  47  70 102 144 189 245 296 371 424
#     4  10  25  42  75 107 152 187 246 300 375 439
#     4  10  24  47  72 106 141 189 243 298 368 436
#     4  12  26  47  76 111 149 194 244 308 372 448
#
# _framework density 25.205121999999999
#
# number of rings (size 3 to 8) (size 9 to 14) (size 15 to 20)
#    1.000    0.333    1.667    1.000   14.000    2.000 
#    0.000    0.000    0.000    0.000    0.000    0.000 
#    0.000    0.000    0.000    0.000    0.000    0.000 
#
# Total GULP energy -67076.097967 kJ/mol
# GULP energy per Si atom -5589.674831 kJ/mol
# Density = 2.514775 g / cm^3
# Si number density = 25.205122 Si / 1000 Ang^3
#
#
#
# Elastic Constant Matrix: (Units=GPa)
#
#
# Indices 1 2 3 4 5 6 
#
# 1 166.9599 19.6426 36.7005 -0.3495 -11.1537 -9.9061
# 2 19.6426 77.8882 5.2720 -12.9924 -10.9627 -3.6271
# 3 36.7005 5.2720 122.5606 4.0001 7.5289 -9.6437
# 4 -0.3495 -12.9924 4.0001 36.1799 -10.1417 2.6715
# 5 -11.1537 -10.9627 7.5289 -10.1417 43.3481 5.8048
# 6 -9.9061 -3.6271 -9.6437 2.6715 5.8048 40.1122
#
#
#
# Elastic Compliance Matrix: (Units=1/GPa)
#
#
# Indices 1 2 3 4 5 6 
#
# 1 0.006742 -0.001238 -0.002018 0.000269 0.001728 0.000800
# 2 -0.001238 0.015121 -0.000869 0.007045 0.005357 -0.000392
# 3 -0.002018 -0.000869 0.009257 -0.002426 -0.003219 0.002276
# 4 0.000269 0.007045 -0.002426 0.033695 0.010646 -0.003665
# 5 0.001728 0.005357 -0.003219 0.010646 0.028548 -0.004703
# 6 0.000800 -0.000392 0.002276 -0.003665 -0.004703 0.026564
#
#
# Mechanical properties :
#
#
# Convention : Reuss Voigt Hill
#
# Bulk Modulus (GPa) = 43.72756 54.51545 49.12151
# Shear Modulus (GPa) = 36.81854 44.31428 40.56641
#
# Velocity S-wave (km/s) = 3.82613 4.19757 4.01615
# Velocity P-wave (km/s) = 6.07498 6.72075 6.40601
#
# Compressibility (1/GPa) = 0.02286887
#
# Stress axis : x y z
#
# Youngs Moduli (GPa) = 148.32134 66.13326 108.02875
#
# Poissons Ratio (x) = 0.08190 0.21796
# Poissons Ratio (y) = 0.18369 0.09392
# Poissons Ratio (z) = 0.29925 0.05750
#
# Static dielectric constant tensor:
#      x y z
#    x 2.032600 0.048360 -0.055020 
#    y 0.048360 2.076660 -0.099120 
#    z -0.055020 -0.099120 2.090360 
# 
# From -- ./inp_files/73589.got.cif
#   From: 2010.05.17/outbox.cif.g08.bks.cpg/sg2_37_cif.got.tgz:73589.got - 2010.06.03 11:33:40.
