data_PCOD9049644
_publ_section_title
;
Structure prediction by ZEFSAII (Michael W. Deem and Ramdas Pophale) SiO2 
 PCOD9049644
Probable space group: P -1
;
_chemical_formula_sum "Si O2"
_cell_formula_units_Z 14
_cell_length_a 5.254965
_cell_length_b 9.341520
_cell_length_c 16.350240
_cell_angle_alpha 109.172598
_cell_angle_beta 117.780715
_cell_angle_gamma 58.314912
_cell_volume 600.530149
_symmetry_space_group_name_H-M "P -1"
_symmetry_group_IT_number 2
_symmetry_cell_setting 'triclinic'
loop_
_space_group_symop_operation_xyz
x,y,z
-x,-y,-z
loop_
_atom_site_type_symbol
_atom_site_label
_atom_site_fract_x
_atom_site_fract_y
_atom_site_fract_z
Si Si1 0.481063 0.472746 0.251157
Si Si2 0.322688 0.817525 0.385017
Si Si3 0.271154 0.562100 0.055528
Si Si4 0.661498 0.650227 0.645282
Si Si5 0.928123 0.885987 0.725974
Si Si6 0.958067 0.305931 0.532331
Si Si7 0.125003 0.039572 0.941169
O O1 0.418668 0.653622 0.310776
O O2 0.445123 0.490417 0.152968
O O3 0.246013 0.424516 0.262879
O O4 0.809956 0.306611 0.282878
O O5 0.675679 0.793325 0.461315
O O6 0.140284 0.981438 0.332241
O O7 0.882148 0.206368 0.576386
O O8 0.090041 0.763207 0.069656
O O9 0.500000 0.500000 0.000000
O O10 0.000000 0.500000 0.000000
O O11 0.630140 0.839325 0.678432
O O12 0.882429 0.494329 0.589041
O O13 0.314115 0.666972 0.569066
O O14 0.044277 0.947458 0.835856
O O15 0.500000 0.000000 0.000000
O O16 0.000000 0.000000 0.000000
#
# Coordination Sequence:
#
# PCOD9049644 Si02
#       7
#     2   2   2   2   2   2   2
#     4  11  25  47  69 106 144 189 237 293 361 430
#     4  11  25  45  72 100 146 189 241 292 359 418
#     4  12  27  49  76 105 143 193 237 300 370 436
#     4  10  25  43  76 101 147 191 240 294 361 417
#     4  12  26  45  74 107 142 191 240 298 359 425
#     4  10  24  47  70 105 145 192 240 295 354 428
#     4  12  28  50  73 110 145 187 242 305 361 437
#
# _framework density 23.312736000000001
#
# number of rings (size 3 to 8) (size 9 to 14) (size 15 to 20)
#    0.000    0.857    2.857    2.571   10.000    2.857 
#    0.000    0.000    0.000    0.000    0.000    0.000 
#    0.000    0.000    0.000    0.000    0.000    0.000 
#
# Total GULP energy -78262.366439 kJ/mol
# GULP energy per Si atom -5590.169031 kJ/mol
# Density = 2.325967 g / cm^3
# Si number density = 23.312736 Si / 1000 Ang^3
#
#
#
# Elastic Constant Matrix: (Units=GPa)
#
#
# Indices 1 2 3 4 5 6 
#
# 1 92.8512 35.9344 49.6549 9.6654 7.1014 14.6599
# 2 35.9344 178.0398 53.7709 -5.5864 1.7959 22.2547
# 3 49.6549 53.7709 108.3652 8.0417 -12.3304 22.9313
# 4 9.6654 -5.5864 8.0417 40.3966 9.6501 2.3196
# 5 7.1014 1.7959 -12.3304 9.6501 33.3918 -6.0545
# 6 14.6599 22.2547 22.9313 2.3196 -6.0545 38.6988
#
#
#
# Elastic Compliance Matrix: (Units=1/GPa)
#
#
# Indices 1 2 3 4 5 6 
#
# 1 0.015693 -0.000750 -0.006954 -0.000906 -0.006016 -0.002280
# 2 -0.000750 0.007140 -0.003151 0.002555 -0.002582 -0.002512
# 3 -0.006954 -0.003151 0.015893 -0.003628 0.007928 -0.003513
# 4 -0.000906 0.002555 -0.003628 0.028551 -0.009942 -0.002243
# 5 -0.006016 -0.002582 0.007928 -0.009942 0.038189 0.005637
# 6 -0.002280 -0.002512 -0.003513 -0.002243 0.005637 0.031247
#
#
# Mechanical properties :
#
#
# Convention : Reuss Voigt Hill
#
# Bulk Modulus (GPa) = 58.76638 73.10853 65.93745
# Shear Modulus (GPa) = 30.47036 38.49051 34.48044
#
# Velocity S-wave (km/s) = 3.61920 4.06772 3.85000
# Velocity P-wave (km/s) = 6.53662 7.31367 6.93604
#
# Compressibility (1/GPa) = 0.01701653
#
# Stress axis : x y z
#
# Youngs Moduli (GPa) = 63.72143 140.05676 62.92213
#
# Poissons Ratio (x) = 0.10505 0.43754
# Poissons Ratio (y) = 0.04780 0.19827
# Poissons Ratio (z) = 0.44309 0.44132
#
# Static dielectric constant tensor:
#      x y z
#    x 2.006770 -0.074990 -0.076520 
#    y -0.074990 1.799170 -0.036810 
#    z -0.076520 -0.036810 1.802400 
# 
# From -- ./inp_files/289291.got.cif
#   From: 2010.05.17/outbox.cif.g08.bks.cpg/sg2_145_cif.got.tgz:289291.got - 2010.06.03 11:33:40.
