data_PCOD9049275
_publ_section_title
;
Structure prediction by ZEFSAII (Michael W. Deem and Ramdas Pophale) SiO2 
 PCOD9049275
Probable space group: P -1
;
_chemical_formula_sum "Si O2"
_cell_formula_units_Z 16
_cell_length_a 8.679955
_cell_length_b 22.902542
_cell_length_c 19.886257
_cell_angle_alpha 159.797433
_cell_angle_beta 42.779625
_cell_angle_gamma 145.750776
_cell_volume 750.379658
_symmetry_space_group_name_H-M "P -1"
_symmetry_group_IT_number 2
_symmetry_cell_setting 'triclinic'
loop_
_space_group_symop_operation_xyz
x,y,z
-x,-y,-z
loop_
_atom_site_type_symbol
_atom_site_label
_atom_site_fract_x
_atom_site_fract_y
_atom_site_fract_z
Si Si1 0.204222 0.181166 0.475468
Si Si2 0.396835 0.121722 0.854540
Si Si3 0.234084 0.803917 0.055364
Si Si4 0.809042 0.730705 0.579754
Si Si5 0.342822 0.953878 0.429595
Si Si6 0.734777 0.551706 0.773047
Si Si7 0.366712 0.566189 0.168811
Si Si8 0.340422 0.695831 0.770949
O O1 0.174995 0.242418 0.476327
O O2 0.519256 0.341599 0.574100
O O3 0.985413 0.176119 0.589713
O O4 0.128366 0.950191 0.249400
O O5 0.566083 0.145613 0.892125
O O6 0.580952 0.157063 0.767993
O O7 0.305441 0.276087 0.053562
O O8 0.114063 0.891458 0.687034
O O9 0.383989 0.842642 0.977513
O O10 0.961515 0.563368 0.885480
O O11 0.597100 0.779705 0.729391
O O12 0.703353 0.503143 0.392595
O O13 0.500000 0.000000 0.500000
O O14 0.465290 0.185301 0.613644
O O15 0.643298 0.511844 0.837383
O O16 0.053562 0.625404 0.750064
O O17 0.500000 0.500000 0.000000
#
# Coordination Sequence:
#
# PCOD9049275 Si02
#       8
#     2   2   2   2   2   2   2   2
#     4  12  25  42  66  97 132 171 219 260 323 379
#     4  12  25  42  65  98 133 171 219 259 320 382
#     4  11  24  42  67  97 130 171 214 269 315 386
#     4  11  23  46  71  95 126 167 213 272 325 387
#     4  12  25  40  65  95 134 177 210 266 315 380
#     4  11  26  42  64  98 130 171 217 265 315 388
#     4  11  22  42  63  90 131 171 216 261 314 376
#     4  10  24  46  71  94 127 166 212 273 331 373
#
# _framework density 21.32254
#
# number of rings (size 3 to 8) (size 9 to 14) (size 15 to 20)
#    0.000    0.750    2.500    6.000    3.500    4.500 
#    0.000    0.000    0.000    0.000    0.000    0.000 
#    0.000    0.000    0.000    0.000    0.000    0.000 
#
# Total GULP energy -89551.503121 kJ/mol
# GULP energy per Si atom -5596.968945 kJ/mol
# Density = 2.127401 g / cm^3
# Si number density = 21.322540 Si / 1000 Ang^3
#
#
#
# Elastic Constant Matrix: (Units=GPa)
#
#
# Indices 1 2 3 4 5 6 
#
# 1 104.6259 18.6626 17.2047 13.9977 12.3779 15.6942
# 2 18.6626 97.4171 15.7602 -19.1116 4.4398 14.8765
# 3 17.2047 15.7602 23.8737 -13.1764 8.7811 1.3551
# 4 13.9977 -19.1116 -13.1764 28.5061 5.7057 -13.8607
# 5 12.3779 4.4398 8.7811 5.7057 41.8438 3.0348
# 6 15.6942 14.8765 1.3551 -13.8607 3.0348 15.4301
#
#
#
# Elastic Compliance Matrix: (Units=1/GPa)
#
#
# Indices 1 2 3 4 5 6 
#
# 1 -0.007216 -0.002213 0.033652 0.044423 -0.014321 0.049240
# 2 -0.002213 0.013091 -0.002595 0.007098 -0.000897 -0.003589
# 3 0.033652 -0.002595 -0.032475 -0.093651 0.018363 -0.116611
# 4 0.044423 0.007098 -0.093651 -0.097945 0.029088 -0.137506
# 5 -0.014321 -0.000897 0.018363 0.029088 0.017766 0.036453
# 6 0.049240 -0.003589 -0.116611 -0.137506 0.036453 -0.102262
#
#
# Mechanical properties :
#
#
# Convention : Reuss Voigt Hill
#
# Bulk Modulus (GPa) = 32.16807 36.57463 34.37135
# Shear Modulus (GPa) = -19.50334 28.77530 4.63598
#
# Velocity S-wave (km/s) = -3.02765 3.67757 1.47612
# Velocity P-wave (km/s) = 1.70204 5.93490 4.36577
#
# Compressibility (1/GPa) = 0.03108672
#
# Stress axis : x y z
#
# Youngs Moduli (GPa) = -138.57826 76.39117 -30.79329
#
# Poissons Ratio (x) = 0.16909 1.03626
# Poissons Ratio (y) = -0.30673 -0.07991
# Poissons Ratio (z) = 4.66345 0.19825
#
# Static dielectric constant tensor:
#      x y z
#    x 1.737070 0.006270 -0.028570 
#    y 0.006270 1.783720 -0.001010 
#    z -0.028570 -0.001010 1.805360 
# 
# From -- ./inp_files/534197.got.cif
#   From: 2010.05.17/outbox.cif.g08.bks.cpg/sg2_268_cif.got.tgz:534197.got - 2010.06.03 11:33:40.
