data_PCOD9049985
_publ_section_title
;
Structure prediction by ZEFSAII (Michael W. Deem and Ramdas Pophale) SiO2 
 PCOD9049985
Probable space group: P -1
;
_chemical_formula_sum "Si O2"
_cell_formula_units_Z 9
_cell_length_a 9.128402
_cell_length_b 9.835505
_cell_length_c 7.660331
_cell_angle_alpha 59.245571
_cell_angle_beta 59.674045
_cell_angle_gamma 37.601192
_cell_volume 354.040884
_symmetry_space_group_name_H-M "P -1"
_symmetry_group_IT_number 2
_symmetry_cell_setting 'triclinic'
loop_
_space_group_symop_operation_xyz
x,y,z
-x,-y,-z
loop_
_atom_site_type_symbol
_atom_site_label
_atom_site_fract_x
_atom_site_fract_y
_atom_site_fract_z
Si Si1 0.316441 0.055368 0.424840
Si Si2 0.479683 0.340289 0.698388
Si Si3 0.101041 0.512056 0.254667
Si Si4 0.000000 0.500000 0.000000
Si Si5 0.868657 0.195005 0.811068
O O1 0.439110 0.844877 0.367997
O O2 0.500000 0.000000 0.500000
O O3 0.225248 0.277250 0.232485
O O4 0.081008 0.127270 0.604377
O O5 0.500000 0.500000 0.500000
O O6 0.210004 0.489953 0.828909
O O7 0.672937 0.220513 0.816004
O O8 0.245129 0.569427 0.187533
O O9 0.000000 0.500000 0.500000
O O10 0.910184 0.676288 0.111409
O O11 0.000000 0.000000 0.000000
#
# Coordination Sequence:
#
# PCOD9049985 Si02
#       5
#     2   2   2   1   2
#     4  11  24  47  77 106 155 196 249 319 389 456
#     4  12  27  49  76 113 154 201 260 319 382 463
#     4  10  24  48  71 109 153 196 249 312 383 462
#     4  12  28  46  82 102 156 206 260 304 398 448
#     4  11  26  45  76 115 150 193 253 320 387 455
#
# _framework density 25.420791999999999
#
# number of rings (size 3 to 8) (size 9 to 14) (size 15 to 20)
#    0.000    0.889    0.000    7.333    9.333    1.778 
#    0.000    0.000    0.000    0.000    0.000    0.000 
#    0.000    0.000    0.000    0.000    0.000    0.000 
#
# Total GULP energy -50187.344821 kJ/mol
# GULP energy per Si atom -5576.371647 kJ/mol
# Density = 2.536293 g / cm^3
# Si number density = 25.420792 Si / 1000 Ang^3
#
#
#
# Elastic Constant Matrix: (Units=GPa)
#
#
# Indices 1 2 3 4 5 6 
#
# 1 231.5333 57.5369 49.6473 19.6352 -9.8341 17.1937
# 2 57.5369 127.2986 50.2685 -8.9778 -15.8770 35.0842
# 3 49.6473 50.2685 151.9729 6.2831 -31.3227 11.6964
# 4 19.6352 -8.9778 6.2831 41.1143 -0.7088 0.1439
# 5 -9.8341 -15.8770 -31.3227 -0.7088 54.3991 8.9077
# 6 17.1937 35.0842 11.6964 0.1439 8.9077 56.8265
#
#
#
# Elastic Compliance Matrix: (Units=1/GPa)
#
#
# Indices 1 2 3 4 5 6 
#
# 1 0.005317 -0.002293 -0.000921 -0.002904 -0.000284 0.000048
# 2 -0.002293 0.012433 -0.002374 0.004250 0.003046 -0.006982
# 3 -0.000921 -0.002374 0.008642 -0.001324 0.004213 -0.000692
# 4 -0.002904 0.004250 -0.001324 0.026855 0.000570 -0.001630
# 5 -0.000284 0.003046 0.004213 0.000570 0.022672 -0.006217
# 6 0.000048 -0.006982 -0.000692 -0.001630 -0.006217 0.023014
#
#
# Mechanical properties :
#
#
# Convention : Reuss Voigt Hill
#
# Bulk Modulus (GPa) = 65.71564 91.74559 78.73062
# Shear Modulus (GPa) = 43.40942 54.02481 48.71711
#
# Velocity S-wave (km/s) = 4.13684 4.61501 4.38245
# Velocity P-wave (km/s) = 6.98034 8.03535 7.52636
#
# Compressibility (1/GPa) = 0.01521708
#
# Stress axis : x y z
#
# Youngs Moduli (GPa) = 188.07711 80.42825 115.70809
#
# Poissons Ratio (x) = 0.18444 0.10652
# Poissons Ratio (y) = 0.43131 0.27469
# Poissons Ratio (z) = 0.17315 0.19094
#
# Static dielectric constant tensor:
#      x y z
#    x 1.389070 0.447350 -0.017540 
#    y 0.447350 1.821880 0.093000 
#    z -0.017540 0.093000 1.748100 
# 
# From -- ./inp_files/16686.got.cif
#   From: 2010.05.17/outbox.cif.g08.bks.cpg/sg2_9_cif.got.tgz:16686.got - 2010.06.03 11:33:40.
