data_PCOD9049886
_publ_section_title
;
Structure prediction by ZEFSAII (Michael W. Deem and Ramdas Pophale) SiO2 
 PCOD9049886
Probable space group: P -1
;
_chemical_formula_sum "Si O2"
_cell_formula_units_Z 14
_cell_length_a 7.110724
_cell_length_b 9.234699
_cell_length_c 11.068880
_cell_angle_alpha 120.682471
_cell_angle_beta 112.907148
_cell_angle_gamma 99.550006
_cell_volume 511.211735
_symmetry_space_group_name_H-M "P -1"
_symmetry_group_IT_number 2
_symmetry_cell_setting 'triclinic'
loop_
_space_group_symop_operation_xyz
x,y,z
-x,-y,-z
loop_
_atom_site_type_symbol
_atom_site_label
_atom_site_fract_x
_atom_site_fract_y
_atom_site_fract_z
Si Si1 0.481093 0.799416 0.944384
Si Si2 0.813477 0.869190 0.628379
Si Si3 0.054504 0.164932 0.989856
Si Si4 0.135063 0.824016 0.396997
Si Si5 0.214693 0.532053 0.974455
Si Si6 0.375804 0.589160 0.284178
Si Si7 0.161563 0.718590 0.630753
O O1 0.725037 0.806296 0.022459
O O2 0.319071 0.703349 0.977330
O O3 0.372971 0.712184 0.751240
O O4 0.500000 0.000000 0.000000
O O5 0.844945 0.976359 0.553490
O O6 0.588230 0.669559 0.464120
O O7 0.014718 0.816134 0.693601
O O8 0.836805 0.044490 0.795390
O O9 0.164778 0.376428 0.168940
O O10 0.000000 0.000000 0.000000
O O11 0.309005 0.760254 0.348862
O O12 0.192630 0.804182 0.541580
O O13 0.893478 0.653833 0.216287
O O14 0.409266 0.570531 0.140622
O O15 0.000000 0.500000 0.000000
O O16 0.000000 0.500000 0.500000
#
# Coordination Sequence:
#
# PCOD9049886 Si02
#       7
#     2   2   2   2   2   2   2
#     4  12  27  47  76 114 159 210 259 329 406 460
#     4  12  27  49  75 118 151 211 268 326 392 483
#     4  12  30  49  78 120 164 206 270 331 398 482
#     4  11  25  48  78 110 158 205 263 328 399 472
#     4  10  24  47  79 109 155 209 264 318 395 471
#     4  11  27  49  80 109 160 211 266 326 398 469
#     4  12  26  47  76 109 156 199 263 327 393 472
#
# _framework density 27.385912999999999
#
# number of rings (size 3 to 8) (size 9 to 14) (size 15 to 20)
#    0.000    0.571    4.286    1.714   10.000    2.286 
#    0.000    0.000    0.000    0.000    0.000    0.000 
#    0.000    0.000    0.000    0.000    0.000    0.000 
#
# Total GULP energy -77971.211282 kJ/mol
# GULP energy per Si atom -5569.372234 kJ/mol
# Density = 2.732358 g / cm^3
# Si number density = 27.385913 Si / 1000 Ang^3
#
#
#
# Elastic Constant Matrix: (Units=GPa)
#
#
# Indices 1 2 3 4 5 6 
#
# 1 69.3378 11.3285 9.8088 11.0978 3.6291 3.6567
# 2 11.3285 189.1102 24.2522 12.6308 -12.0751 22.8193
# 3 9.8088 24.2522 175.2827 4.7436 13.7106 9.2884
# 4 11.0978 12.6308 4.7436 60.6385 -4.9925 -11.3738
# 5 3.6291 -12.0751 13.7106 -4.9925 30.8685 0.0564
# 6 3.6567 22.8193 9.2884 -11.3738 0.0564 39.4105
#
#
#
# Elastic Compliance Matrix: (Units=1/GPa)
#
#
# Indices 1 2 3 4 5 6 
#
# 1 0.015310 -0.000570 -0.000405 -0.003205 -0.002358 -0.001916
# 2 -0.000570 0.006151 -0.000775 -0.001617 0.002563 -0.003797
# 3 -0.000405 -0.000775 0.006159 -0.000721 -0.003106 -0.001169
# 4 -0.003205 -0.001617 -0.000721 0.019021 0.003128 0.006889
# 5 -0.002358 0.002563 -0.003106 0.003128 0.035560 0.000319
# 6 -0.001916 -0.003797 -0.001169 0.006889 0.000319 0.030013
#
#
# Mechanical properties :
#
#
# Convention : Reuss Voigt Hill
#
# Bulk Modulus (GPa) = 41.45888 58.27884 49.86886
# Shear Modulus (GPa) = 40.40236 52.07290 46.23763
#
# Velocity S-wave (km/s) = 3.84513 4.36529 4.11344
# Velocity P-wave (km/s) = 5.90635 6.83626 6.38825
#
# Compressibility (1/GPa) = 0.02412028
#
# Stress axis : x y z
#
# Youngs Moduli (GPa) = 65.31627 162.56923 162.35532
#
# Poissons Ratio (x) = 0.09274 0.06577
# Poissons Ratio (y) = 0.03726 0.12577
# Poissons Ratio (z) = 0.02646 0.12594
#
# Static dielectric constant tensor:
#      x y z
#    x 2.339550 -0.029050 -0.019520 
#    y -0.029050 2.154780 -0.071480 
#    z -0.019520 -0.071480 2.257580 
# 
# From -- ./inp_files/383040.got.cif
#   From: 2010.05.17/outbox.cif.g08.bks.cpg/sg2_192_cif.got.tgz:383040.got - 2010.06.03 11:33:40.
