data_PCOD9049006
_publ_section_title
;
Structure prediction by ZEFSAII (Michael W. Deem and Ramdas Pophale) SiO2 
 PCOD9049006
Probable space group: P -1
;
_chemical_formula_sum "Si O2"
_cell_formula_units_Z 14
_cell_length_a 9.344604
_cell_length_b 22.434159
_cell_length_c 23.424987
_cell_angle_alpha 11.634383
_cell_angle_beta 143.743877
_cell_angle_gamma 147.183084
_cell_volume 530.371300
_symmetry_space_group_name_H-M "P -1"
_symmetry_group_IT_number 2
_symmetry_cell_setting 'triclinic'
loop_
_space_group_symop_operation_xyz
x,y,z
-x,-y,-z
loop_
_atom_site_type_symbol
_atom_site_label
_atom_site_fract_x
_atom_site_fract_y
_atom_site_fract_z
Si Si1 0.996447 0.103569 0.556717
Si Si2 0.044562 0.489905 0.451076
Si Si3 0.000000 0.000000 0.000000
Si Si4 0.500000 0.000000 0.000000
Si Si5 0.681486 0.368880 0.013234
Si Si6 0.318708 0.600606 0.888238
Si Si7 0.526894 0.671797 0.578460
Si Si8 0.168316 0.287113 0.561521
O O1 0.277764 0.329107 0.407100
O O2 0.983950 0.173280 0.553617
O O3 0.952242 0.732604 0.882764
O O4 0.766287 0.138880 0.412190
O O5 0.029469 0.201536 0.756532
O O6 0.782547 0.579743 0.292982
O O7 0.053134 0.410872 0.462265
O O8 0.235980 0.851468 0.193174
O O9 0.258828 0.013243 0.869193
O O10 0.576561 0.381712 0.684423
O O11 0.541365 0.030340 0.252372
O O12 0.567515 0.318859 0.087284
O O13 0.630078 0.621401 0.720339
O O14 0.000000 0.500000 0.000000
O O15 0.500000 0.500000 0.000000
#
# Coordination Sequence:
#
# PCOD9049006 Si02
#       8
#     2   2   1   1   2   2   2   2
#     4  12  25  45  64 102 136 172 222 277 331 396
#     4  11  25  43  72 102 134 177 223 280 337 401
#     4  10  24  46  66 100 138 166 220 280 332 408
#     4  10  24  46  66 100 130 182 216 270 344 400
#     4  12  23  44  67  92 137 178 227 270 326 396
#     4  12  27  42  67  96 133 180 227 276 328 386
#     4  12  25  42  68 101 132 178 219 277 333 390
#     4  11  25  43  72  99 138 176 226 276 337 405
#
# _framework density 26.396601
#
# number of rings (size 3 to 8) (size 9 to 14) (size 15 to 20)
#    0.000    0.571    2.857    4.286    4.000    6.857 
#    0.000    0.000    0.000    0.000    0.000    0.000 
#    0.000    0.000    0.000    0.000    0.000    0.000 
#
# Total GULP energy -78011.508536 kJ/mol
# GULP energy per Si atom -5572.250610 kJ/mol
# Density = 2.633652 g / cm^3
# Si number density = 26.396601 Si / 1000 Ang^3
#
#
#
# Elastic Constant Matrix: (Units=GPa)
#
#
# Indices 1 2 3 4 5 6 
#
# 1 180.8980 35.8129 11.5974 11.8670 -12.0176 -39.3825
# 2 35.8129 80.6359 -5.6576 0.3414 -11.9755 -15.6102
# 3 11.5974 -5.6576 142.0220 -1.0546 -2.7514 -8.6473
# 4 11.8670 0.3414 -1.0546 43.4563 -8.5047 -1.8632
# 5 -12.0176 -11.9755 -2.7514 -8.5047 31.3030 -0.3808
# 6 -39.3825 -15.6102 -8.6473 -1.8632 -0.3808 54.7793
#
#
#
# Elastic Compliance Matrix: (Units=1/GPa)
#
#
# Indices 1 2 3 4 5 6 
#
# 1 0.007131 -0.002097 -0.000376 -0.001444 0.001564 0.004431
# 2 -0.002097 0.014781 0.001058 0.001673 0.005433 0.002966
# 3 -0.000376 0.001058 0.007211 0.000527 0.001052 0.001194
# 4 -0.001444 0.001673 0.000527 0.024767 0.006866 0.000412
# 5 0.001564 0.005433 0.001052 0.006866 0.036623 0.003327
# 6 0.004431 0.002966 0.001194 0.000412 0.003327 0.022512
#
#
# Mechanical properties :
#
#
# Convention : Reuss Voigt Hill
#
# Bulk Modulus (GPa) = 38.03404 54.11795 46.07599
# Shear Modulus (GPa) = 40.12231 50.02792 45.07512
#
# Velocity S-wave (km/s) = 3.90292 4.35816 4.13681
# Velocity P-wave (km/s) = 5.89494 6.77282 6.34907
#
# Compressibility (1/GPa) = 0.02629224
#
# Stress axis : x y z
#
# Youngs Moduli (GPa) = 140.24130 67.65386 138.67551
#
# Poissons Ratio (x) = 0.14188 0.05220
# Poissons Ratio (y) = 0.29411 -0.14677
# Poissons Ratio (z) = 0.05279 -0.07160
#
# Static dielectric constant tensor:
#      x y z
#    x 2.777950 0.094600 -0.309660 
#    y 0.094600 2.262180 -0.109720 
#    z -0.309660 -0.109720 2.199680 
# 
# From -- ./inp_files/355436.got.cif
#   From: 2010.05.17/outbox.cif.g08.bks.cpg/sg2_178_cif.got.tgz:355436.got - 2010.06.03 11:33:40.
