data_PCOD9049544
_publ_section_title
;
Structure prediction by ZEFSAII (Michael W. Deem and Ramdas Pophale) SiO2 
 PCOD9049544
Probable space group: P -1
;
_chemical_formula_sum "Si O2"
_cell_formula_units_Z 16
_cell_length_a 19.416880
_cell_length_b 8.385818
_cell_length_c 5.794384
_cell_angle_alpha 112.099126
_cell_angle_beta 72.046543
_cell_angle_gamma 124.104724
_cell_volume 717.976322
_symmetry_space_group_name_H-M "P -1"
_symmetry_group_IT_number 2
_symmetry_cell_setting 'triclinic'
loop_
_space_group_symop_operation_xyz
x,y,z
-x,-y,-z
loop_
_atom_site_type_symbol
_atom_site_label
_atom_site_fract_x
_atom_site_fract_y
_atom_site_fract_z
Si Si1 0.395360 0.896269 0.294109
Si Si2 0.859843 0.694362 0.981824
Si Si3 0.993047 0.809096 0.271326
Si Si4 0.717403 0.675105 0.389633
Si Si5 0.908777 0.447822 0.486227
Si Si6 0.248487 0.936493 0.659439
Si Si7 0.427961 0.750748 0.682215
Si Si8 0.821384 0.976283 0.849934
O O1 0.306923 0.874444 0.435355
O O2 0.412622 0.814673 0.475357
O O3 0.471473 0.125769 0.328136
O O4 0.398212 0.805085 0.989139
O O5 0.949603 0.802174 0.072234
O O6 0.781668 0.609624 0.190345
O O7 0.861439 0.524252 0.741361
O O8 0.847921 0.852828 0.929754
O O9 0.929544 0.592359 0.323568
O O10 0.000000 0.000000 0.500000
O O11 0.086410 0.844386 0.209018
O O12 0.626238 0.486787 0.408520
O O13 0.765641 0.812923 0.631717
O O14 0.714620 0.833039 0.308528
O O15 0.847586 0.212777 0.394002
O O16 0.000000 0.500000 0.500000
O O17 0.235386 0.935590 0.946894
#
# Coordination Sequence:
#
# PCOD9049544 Si02
#       8
#     2   2   2   2   2   2   2   2
#     4  10  24  48  74 110 136 180 226 289 337 414
#     4  11  23  40  66  88 124 179 226 284 336 412
#     4  12  23  40  64  87 123 179 230 277 336 404
#     4  11  24  42  67  97 131 181 221 275 343 421
#     4  12  26  41  61  95 130 171 227 289 337 394
#     4  11  27  41  65  97 139 174 223 285 345 401
#     4  10  24  46  78 103 142 178 230 275 348 417
#     4  11  24  42  62  96 130 174 230 280 340 413
#
# _framework density 22.284858
#
# number of rings (size 3 to 8) (size 9 to 14) (size 15 to 20)
#    0.000    1.000    2.500    2.625   10.500    3.500 
#    0.000    0.625    0.000    0.000    0.000    0.000 
#    0.000    0.000    0.000    0.000    0.000    0.000 
#
# Total GULP energy -89157.105444 kJ/mol
# GULP energy per Si atom -5572.319090 kJ/mol
# Density = 2.223414 g / cm^3
# Si number density = 22.284858 Si / 1000 Ang^3
#
#
#
# Elastic Constant Matrix: (Units=GPa)
#
#
# Indices 1 2 3 4 5 6 
#
# 1 23.3994 -9.1435 -5.8003 -11.5108 -7.3668 19.3054
# 2 -9.1435 95.4729 -10.7713 1.8786 -4.1389 34.3626
# 3 -5.8003 -10.7713 80.3317 -15.6443 -15.2726 14.8260
# 4 -11.5108 1.8786 -15.6443 18.0844 0.4840 6.2228
# 5 -7.3668 -4.1389 -15.2726 0.4840 30.8450 0.8854
# 6 19.3054 34.3626 14.8260 6.2228 0.8854 35.2892
#
#
#
# Elastic Compliance Matrix: (Units=1/GPa)
#
#
# Indices 1 2 3 4 5 6 
#
# 1 -0.009236 -0.013534 -0.015915 -0.028309 -0.012326 0.030219
# 2 -0.013534 0.006372 -0.005358 -0.015978 -0.004963 0.006392
# 3 -0.015915 -0.005358 0.006217 -0.008578 -0.001676 0.012866
# 4 -0.028309 -0.015978 -0.008578 0.021137 -0.014382 0.031283
# 5 -0.012326 -0.004963 -0.001676 -0.014382 0.027801 0.014118
# 6 0.030219 0.006392 0.012866 0.031283 0.014118 -0.005695
#
#
# Mechanical properties :
#
#
# Convention : Reuss Voigt Hill
#
# Bulk Modulus (GPa) = -15.09185 16.41930 0.66372
# Shear Modulus (GPa) = 53.12226 31.83833 42.48029
#
# Velocity S-wave (km/s) = 4.88770 3.78391 4.37079
# Velocity P-wave (km/s) = 5.00658 5.14534 5.07644
#
# Compressibility (1/GPa) = -0.06626091
#
# Stress axis : x y z
#
# Youngs Moduli (GPa) = -108.26921 156.93059 160.85078
#
# Poissons Ratio (x) = 2.12389 2.56000
# Poissons Ratio (y) = -1.46531 0.86178
# Poissons Ratio (z) = -1.72314 0.84077
#
# Static dielectric constant tensor:
#      x y z
#    x 1.838770 -0.033630 0.031910 
#    y -0.033630 1.867070 -0.076410 
#    z 0.031910 -0.076410 2.028380 
# 
# From -- ./inp_files/89809.got.cif
#   From: 2010.05.17/outbox.cif.g08.bks.cpg/sg2_45_cif.got.tgz:89809.got - 2010.06.03 11:33:40.
