data_PCOD9049831
_publ_section_title
;
Structure prediction by ZEFSAII (Michael W. Deem and Ramdas Pophale) SiO2 
 PCOD9049831
Probable space group: P -1
;
_chemical_formula_sum "Si O2"
_cell_formula_units_Z 16
_cell_length_a 4.942090
_cell_length_b 18.985539
_cell_length_c 9.951292
_cell_angle_alpha 130.995147
_cell_angle_beta 84.860929
_cell_angle_gamma 68.302367
_cell_volume 576.724939
_symmetry_space_group_name_H-M "P -1"
_symmetry_group_IT_number 2
_symmetry_cell_setting 'triclinic'
loop_
_space_group_symop_operation_xyz
x,y,z
-x,-y,-z
loop_
_atom_site_type_symbol
_atom_site_label
_atom_site_fract_x
_atom_site_fract_y
_atom_site_fract_z
Si Si1 0.030386 0.214666 0.974635
Si Si2 0.760322 0.995579 0.615831
Si Si3 0.525640 0.335240 0.923431
Si Si4 0.525742 0.351414 0.499719
Si Si5 0.346983 0.315587 0.189596
Si Si6 0.134110 0.581552 0.246570
Si Si7 0.150815 0.901644 0.759879
Si Si8 0.694436 0.799201 0.404887
O O1 0.734201 0.204925 0.021771
O O2 0.861581 0.285432 0.933211
O O3 0.297279 0.101586 0.538651
O O4 0.085805 0.283962 0.170423
O O5 0.396520 0.106852 0.801212
O O6 0.000000 0.000000 0.500000
O O7 0.492991 0.245375 0.727992
O O8 0.291060 0.366829 0.108116
O O9 0.338868 0.458050 0.018711
O O10 0.366985 0.379698 0.394117
O O11 0.225322 0.383721 0.652017
O O12 0.791108 0.214700 0.333760
O O13 0.677265 0.416634 0.629391
O O14 0.051528 0.687349 0.289307
O O15 0.511982 0.855238 0.625574
O O16 0.941285 0.953085 0.697897
O O17 0.000000 0.000000 0.000000
#
# Coordination Sequence:
#
# PCOD9049831 Si02
#       8
#     2   2   2   2   2   2   2   2
#     4  10  26  48  72 121 162 214 280 342 422 495
#     4  12  29  52  84 122 169 225 281 356 426 510
#     4  10  27  49  82 117 169 225 277 359 419 494
#     4  11  24  48  78 121 166 223 285 342 421 513
#     4  10  24  47  75 116 166 216 279 344 411 503
#     4  11  25  50  82 119 167 225 283 350 421 503
#     4  11  27  51  80 121 168 226 276 346 431 512
#     4  11  27  55  81 123 168 222 291 346 426 515
#
# _framework density 27.742861999999999
#
# number of rings (size 3 to 8) (size 9 to 14) (size 15 to 20)
#    0.750    0.500    1.250    1.875    7.000    5.500 
#    0.000    1.875    0.000    0.750    0.000    0.000 
#    0.000    0.000    0.000    0.000    0.000    0.000 
#
# Total GULP energy -89551.706479 kJ/mol
# GULP energy per Si atom -5596.981655 kJ/mol
# Density = 2.767972 g / cm^3
# Si number density = 27.742862 Si / 1000 Ang^3
#
#
#
# Elastic Constant Matrix: (Units=GPa)
#
#
# Indices 1 2 3 4 5 6 
#
# 1 133.5587 30.3714 54.7261 22.0028 28.0637 -20.0308
# 2 30.3714 91.2843 43.9455 0.1646 10.7444 -4.7161
# 3 54.7261 43.9455 180.8709 -4.4812 19.7661 -14.8186
# 4 22.0028 0.1646 -4.4812 61.0889 -10.7028 -0.4514
# 5 28.0637 10.7444 19.7661 -10.7028 51.4324 1.9184
# 6 -20.0308 -4.7161 -14.8186 -0.4514 1.9184 48.0232
#
#
#
# Elastic Compliance Matrix: (Units=1/GPa)
#
#
# Indices 1 2 3 4 5 6 
#
# 1 0.011688 -0.001857 -0.002169 -0.005463 -0.006451 0.004230
# 2 -0.001857 0.012837 -0.002501 0.000339 -0.000627 -0.000257
# 3 -0.002169 -0.002501 0.006993 0.001173 -0.000776 0.001049
# 4 -0.005463 0.000339 0.001173 0.019565 0.006604 -0.001963
# 5 -0.006451 -0.000627 -0.000776 0.006604 0.024913 -0.003925
# 6 0.004230 -0.000257 0.001049 -0.001963 -0.003925 0.023024
#
#
# Mechanical properties :
#
#
# Convention : Reuss Voigt Hill
#
# Bulk Modulus (GPa) = 54.16256 73.75555 63.95906
# Shear Modulus (GPa) = 42.29112 50.55363 46.42238
#
# Velocity S-wave (km/s) = 3.90859 4.27338 4.09505
# Velocity P-wave (km/s) = 6.31940 7.14088 6.74266
#
# Compressibility (1/GPa) = 0.01846294
#
# Stress axis : x y z
#
# Youngs Moduli (GPa) = 85.55658 77.90227 143.00598
#
# Poissons Ratio (x) = 0.14466 0.31021
# Poissons Ratio (y) = 0.15887 0.35768
# Poissons Ratio (z) = 0.18559 0.19485
#
# Static dielectric constant tensor:
#      x y z
#    x 2.316430 0.075830 -0.110240 
#    y 0.075830 2.228670 -0.015750 
#    z -0.110240 -0.015750 2.174480 
# 
# From -- ./inp_files/371361.got.cif
#   From: 2010.05.17/outbox.cif.g08.bks.cpg/sg2_186_cif.got.tgz:371361.got - 2010.06.03 11:33:40.
