data_PCOD9049750
_publ_section_title
;
Structure prediction by ZEFSAII (Michael W. Deem and Ramdas Pophale) SiO2 
 PCOD9049750
Probable space group: P -1
;
_chemical_formula_sum "Si O2"
_cell_formula_units_Z 10
_cell_length_a 17.919868
_cell_length_b 5.260856
_cell_length_c 8.769783
_cell_angle_alpha 86.064967
_cell_angle_beta 34.632017
_cell_angle_gamma 104.723221
_cell_volume 392.137296
_symmetry_space_group_name_H-M "P -1"
_symmetry_group_IT_number 2
_symmetry_cell_setting 'triclinic'
loop_
_space_group_symop_operation_xyz
x,y,z
-x,-y,-z
loop_
_atom_site_type_symbol
_atom_site_label
_atom_site_fract_x
_atom_site_fract_y
_atom_site_fract_z
Si Si1 0.825688 0.907061 0.058198
Si Si2 0.000014 0.735591 0.603526
Si Si3 0.598420 0.467599 0.703939
Si Si4 0.109220 0.533033 0.674978
Si Si5 0.431370 0.165706 0.696692
O O1 0.710554 0.776949 0.402773
O O2 0.746324 0.986810 0.053917
O O3 0.848358 0.641589 0.969939
O O4 0.996113 0.196058 0.804370
O O5 0.124515 0.781831 0.520104
O O6 0.000000 0.500000 0.500000
O O7 0.000000 0.000000 0.500000
O O8 0.723646 0.401392 0.563599
O O9 0.481668 0.218562 0.785650
O O10 0.500000 0.500000 0.000000
O O11 0.000000 0.500000 0.000000
O O12 0.500000 0.500000 0.500000
O O13 0.500000 0.000000 0.500000
#
# Coordination Sequence:
#
# PCOD9049750 Si02
#       5
#     2   2   2   2   2
#     4  11  25  49  83 112 159 212 272 323 392 485
#     4  12  27  47  79 118 154 203 273 326 392 472
#     4  11  26  49  77 122 165 208 260 338 408 469
#     4  12  25  49  84 114 158 208 270 337 394 463
#     4  10  24  47  73 105 156 207 253 313 396 468
#
# _framework density 25.501269000000001
#
# number of rings (size 3 to 8) (size 9 to 14) (size 15 to 20)
#    0.000    0.800    4.000    1.800    5.600    0.000 
#    3.600    5.000    0.000    0.000    0.000    0.000 
#    0.000    0.000    0.000    0.000    0.000    0.000 
#
# Total GULP energy -55919.010648 kJ/mol
# GULP energy per Si atom -5591.901065 kJ/mol
# Density = 2.544323 g / cm^3
# Si number density = 25.501269 Si / 1000 Ang^3
#
#
#
# Elastic Constant Matrix: (Units=GPa)
#
#
# Indices 1 2 3 4 5 6 
#
# 1 274.0699 74.9983 105.9656 39.7989 -20.1146 -15.4012
# 2 74.9983 151.6973 79.3022 40.5678 -0.5686 -0.2361
# 3 105.9656 79.3022 182.2180 42.3602 -8.1403 0.1552
# 4 39.7989 40.5678 42.3602 66.2493 -8.8332 12.3155
# 5 -20.1146 -0.5686 -8.1403 -8.8332 55.0679 8.2029
# 6 -15.4012 -0.2361 0.1552 12.3155 8.2029 48.3959
#
#
#
# Elastic Compliance Matrix: (Units=1/GPa)
#
#
# Indices 1 2 3 4 5 6 
#
# 1 0.005146 -0.001061 -0.002200 -0.001218 0.001085 0.001765
# 2 -0.001061 0.009561 -0.002715 -0.003850 -0.001448 0.000943
# 3 -0.002200 -0.002715 0.008516 -0.002429 0.000057 -0.000132
# 4 -0.001218 -0.003850 -0.002429 0.021409 0.003551 -0.006449
# 5 0.001085 -0.001448 0.000057 0.003551 0.019700 -0.003905
# 6 0.001765 0.000943 -0.000132 -0.006449 -0.003905 0.023533
#
#
# Mechanical properties :
#
#
# Convention : Reuss Voigt Hill
#
# Bulk Modulus (GPa) = 88.72261 125.39083 107.05672
# Shear Modulus (GPa) = 48.27444 57.12390 52.69917
#
# Velocity S-wave (km/s) = 4.35561 4.73804 4.55084
# Velocity P-wave (km/s) = 7.75642 8.89996 8.34779
#
# Compressibility (1/GPa) = 0.01127108
#
# Stress axis : x y z
#
# Youngs Moduli (GPa) = 194.34386 104.58690 117.42251
#
# Poissons Ratio (x) = 0.11098 0.25837
# Poissons Ratio (y) = 0.20622 0.31875
# Poissons Ratio (z) = 0.42763 0.28391
#
# Static dielectric constant tensor:
#      x y z
#    x 2.103870 0.067400 0.053390 
#    y 0.067400 2.112930 -0.039580 
#    z 0.053390 -0.039580 2.113490 
# 
# From -- ./inp_files/57786.got.cif
#   From: 2010.05.17/outbox.cif.g08.bks.cpg/sg2_29_cif.got.tgz:57786.got - 2010.06.03 11:33:40.
