data_PCOD9049667
_publ_section_title
;
Structure prediction by ZEFSAII (Michael W. Deem and Ramdas Pophale) SiO2 
 PCOD9049667
Probable space group: P -1
;
_chemical_formula_sum "Si O2"
_cell_formula_units_Z 15
_cell_length_a 8.093788
_cell_length_b 17.741522
_cell_length_c 7.693167
_cell_angle_alpha 64.239033
_cell_angle_beta 58.828714
_cell_angle_gamma 41.387142
_cell_volume 622.827619
_symmetry_space_group_name_H-M "P -1"
_symmetry_group_IT_number 2
_symmetry_cell_setting 'triclinic'
loop_
_space_group_symop_operation_xyz
x,y,z
-x,-y,-z
loop_
_atom_site_type_symbol
_atom_site_label
_atom_site_fract_x
_atom_site_fract_y
_atom_site_fract_z
Si Si1 0.733715 0.304073 0.409894
Si Si2 0.306739 0.421402 0.948449
Si Si3 0.774775 0.508897 0.693879
Si Si4 0.500000 0.500000 0.500000
Si Si5 0.177533 0.819196 0.104466
Si Si6 0.614236 0.139202 0.645659
Si Si7 0.860260 0.021423 0.290902
Si Si8 0.032530 0.263857 0.943010
O O1 0.437625 0.434397 0.403559
O O2 0.773885 0.349165 0.511014
O O3 0.667315 0.224553 0.517027
O O4 0.934472 0.268996 0.184208
O O5 0.360043 0.487451 0.743527
O O6 0.523662 0.291661 0.893196
O O7 0.348256 0.414653 0.141450
O O8 0.000000 0.500000 0.000000
O O9 0.000000 0.500000 0.500000
O O10 0.879790 0.390318 0.825860
O O11 0.956714 0.903464 0.286123
O O12 0.057766 0.786560 0.074693
O O13 0.213199 0.895634 0.906418
O O14 0.864488 0.028027 0.723871
O O15 0.339416 0.195887 0.824622
O O16 0.640568 0.092201 0.486702
#
# Coordination Sequence:
#
# PCOD9049667 Si02
#       8
#     2   2   2   1   2   2   2   2
#     4  12  23  45  66 105 146 188 236 293 355 439
#     4  12  26  45  70 106 143 186 234 293 362 433
#     4  12  23  42  69 102 144 189 228 285 364 436
#     4  12  26  40  68 104 146 184 234 292 350 434
#     4  11  24  46  72 101 143 183 239 298 352 423
#     4  11  24  45  74  99 137 188 239 295 358 418
#     4  10  24  47  71 102 139 186 241 300 348 415
#     4  12  24  42  73 103 139 188 235 288 359 428
#
# _framework density 24.08371
#
# number of rings (size 3 to 8) (size 9 to 14) (size 15 to 20)
#    0.000    0.533    5.333    2.800    1.867    1.067 
#    0.000    0.000    0.000    0.000    0.000    0.000 
#    0.000    0.000    0.000    0.000    0.000    0.000 
#
# Total GULP energy -83674.053450 kJ/mol
# GULP energy per Si atom -5578.270230 kJ/mol
# Density = 2.402889 g / cm^3
# Si number density = 24.083710 Si / 1000 Ang^3
#
#
#
# Elastic Constant Matrix: (Units=GPa)
#
#
# Indices 1 2 3 4 5 6 
#
# 1 47.3198 28.6679 39.2165 10.7922 -9.8552 4.0079
# 2 28.6679 128.2581 35.3401 16.2970 -19.6072 15.3208
# 3 39.2165 35.3401 160.4910 32.3761 -20.0156 10.0205
# 4 10.7922 16.2970 32.3761 37.6039 2.9997 16.0885
# 5 -9.8552 -19.6072 -20.0156 2.9997 42.5857 10.8932
# 6 4.0079 15.3208 10.0205 16.0885 10.8932 45.8242
#
#
#
# Elastic Compliance Matrix: (Units=1/GPa)
#
#
# Indices 1 2 3 4 5 6 
#
# 1 0.029306 -0.004478 -0.005511 -0.002044 0.002188 0.000336
# 2 -0.004478 0.010169 0.000079 -0.002110 0.004702 -0.003403
# 3 -0.005511 0.000079 0.009396 -0.006799 0.003678 -0.000087
# 4 -0.002044 -0.002110 -0.006799 0.038631 -0.004789 -0.010054
# 5 0.002188 0.004702 0.003678 -0.004789 0.030288 -0.008086
# 6 0.000336 -0.003403 -0.000087 -0.010054 -0.008086 0.028402
#
#
# Mechanical properties :
#
#
# Convention : Reuss Voigt Hill
#
# Bulk Modulus (GPa) = 34.42077 60.27977 47.35027
# Shear Modulus (GPa) = 28.45853 40.72574 34.59214
#
# Velocity S-wave (km/s) = 3.44124 4.11665 3.79400
# Velocity P-wave (km/s) = 5.48750 6.90502 6.23667
#
# Compressibility (1/GPa) = 0.02905223
#
# Stress axis : x y z
#
# Youngs Moduli (GPa) = 34.12247 98.33667 106.43250
#
# Poissons Ratio (x) = 0.44035 0.58653
# Poissons Ratio (y) = 0.15280 -0.00845
# Poissons Ratio (z) = 0.18804 -0.00781
#
# Static dielectric constant tensor:
#      x y z
#    x 1.443000 -0.185660 0.058350 
#    y -0.185660 2.005900 -0.044790 
#    z 0.058350 -0.044790 1.978920 
# 
# From -- ./inp_files/214658.got.cif
#   From: 2010.05.17/outbox.cif.g08.bks.cpg/sg2_108_cif.got.tgz:214658.got - 2010.06.03 11:33:40.
