data_PCOD9049214
_publ_section_title
;
Structure prediction by ZEFSAII (Michael W. Deem and Ramdas Pophale) SiO2 
 PCOD9049214
Probable space group: P -1
;
_chemical_formula_sum "Si O2"
_cell_formula_units_Z 16
_cell_length_a 10.739288
_cell_length_b 11.124597
_cell_length_c 20.584802
_cell_angle_alpha 31.164552
_cell_angle_beta 43.384292
_cell_angle_gamma 34.371865
_cell_volume 716.730338
_symmetry_space_group_name_H-M "P -1"
_symmetry_group_IT_number 2
_symmetry_cell_setting 'triclinic'
loop_
_space_group_symop_operation_xyz
x,y,z
-x,-y,-z
loop_
_atom_site_type_symbol
_atom_site_label
_atom_site_fract_x
_atom_site_fract_y
_atom_site_fract_z
Si Si1 0.622382 0.682614 0.069634
Si Si2 0.566959 0.662554 0.737634
Si Si3 0.726963 0.870996 0.823054
Si Si4 0.936052 0.260799 0.359035
Si Si5 0.936989 0.635001 0.296289
Si Si6 0.463297 0.485645 0.694381
Si Si7 0.243850 0.301510 0.530658
Si Si8 0.437305 0.805253 0.864037
O O1 0.479128 0.579207 0.139241
O O2 0.685275 0.500972 0.195724
O O3 0.775634 0.660608 0.962564
O O4 0.500000 0.000000 0.000000
O O5 0.558364 0.753863 0.773453
O O6 0.823439 0.512091 0.694445
O O7 0.375466 0.958549 0.639009
O O8 0.526129 0.905489 0.841149
O O9 0.907729 0.798423 0.734174
O O10 0.644549 0.162817 0.754869
O O11 0.937417 0.478239 0.305307
O O12 0.697325 0.372604 0.370367
O O13 0.000000 0.000000 0.500000
O O14 0.791129 0.626653 0.412327
O O15 0.817278 0.959072 0.167804
O O16 0.594706 0.623733 0.594576
O O17 0.000000 0.500000 0.500000
O O18 0.500000 0.500000 0.000000
#
# Coordination Sequence:
#
# PCOD9049214 Si02
#       8
#     2   2   2   2   2   2   2   2
#     4  10  24  46  70  96 140 189 236 292 346 415
#     4  11  23  44  72 106 140 178 242 289 351 423
#     4  11  23  45  68 101 143 184 233 288 350 417
#     4  12  25  40  70 105 141 186 227 288 354 419
#     4  11  24  41  69 108 137 185 235 287 356 413
#     4  11  25  45  68 101 145 185 234 289 346 422
#     4  11  26  46  73 102 142 188 234 293 349 417
#     4  11  22  42  68 101 143 184 229 292 348 415
#
# _framework density 22.323599000000002
#
# number of rings (size 3 to 8) (size 9 to 14) (size 15 to 20)
#    0.000    1.000    3.750    2.250    1.750    6.000 
#    4.500    3.750    0.000    0.000    0.000    0.000 
#    0.000    0.000    0.000    0.000    0.000    0.000 
#
# Total GULP energy -89228.556974 kJ/mol
# GULP energy per Si atom -5576.784811 kJ/mol
# Density = 2.227279 g / cm^3
# Si number density = 22.323599 Si / 1000 Ang^3
#
#
#
# Elastic Constant Matrix: (Units=GPa)
#
#
# Indices 1 2 3 4 5 6 
#
# 1 98.4828 36.4739 41.3060 -6.1060 9.0407 -4.3460
# 2 36.4739 100.1424 62.6925 11.6253 7.8666 3.6989
# 3 41.3060 62.6925 148.0046 5.0550 11.2873 -6.9269
# 4 -6.1060 11.6253 5.0550 37.2031 4.3075 13.3334
# 5 9.0407 7.8666 11.2873 4.3075 34.8492 0.8562
# 6 -4.3460 3.6989 -6.9269 13.3334 0.8562 47.4716
#
#
#
# Elastic Compliance Matrix: (Units=1/GPa)
#
#
# Indices 1 2 3 4 5 6 
#
# 1 0.012791 -0.003697 -0.001946 0.003726 -0.002318 0.000170
# 2 -0.003697 0.015195 -0.005296 -0.004214 -0.000207 -0.001108
# 3 -0.001946 -0.005296 0.009755 -0.000474 -0.001445 0.001817
# 4 0.003726 -0.004214 -0.000474 0.032308 -0.003649 -0.008408
# 5 -0.002318 -0.000207 -0.001445 -0.003649 0.030261 0.000072
# 6 0.000170 -0.001108 0.001817 -0.008408 0.000072 0.023793
#
#
# Mechanical properties :
#
#
# Convention : Reuss Voigt Hill
#
# Bulk Modulus (GPa) = 63.04983 69.73051 66.39017
# Shear Modulus (GPa) = 33.05392 37.64861 35.35127
#
# Velocity S-wave (km/s) = 3.85212 4.11115 3.98374
# Velocity P-wave (km/s) = 6.93470 7.33754 7.13896
#
# Compressibility (1/GPa) = 0.01586047
#
# Stress axis : x y z
#
# Youngs Moduli (GPa) = 78.18014 65.81325 102.51511
#
# Poissons Ratio (x) = 0.24332 0.19952
# Poissons Ratio (y) = 0.28904 0.54297
# Poissons Ratio (z) = 0.15216 0.34858
#
# Static dielectric constant tensor:
#      x y z
#    x 1.798620 0.015810 0.027410 
#    y 0.015810 1.893060 0.018360 
#    z 0.027410 0.018360 1.840420 
# 
# From -- ./inp_files/595044.got.cif
#   From: 2010.05.17/outbox.cif.g08.bks.cpg/sg2_298_cif.got.tgz:595044.got - 2010.06.03 11:33:40.
