data_PCOD9049962
_publ_section_title
;
Structure prediction by ZEFSAII (Michael W. Deem and Ramdas Pophale) SiO2 
 PCOD9049962
Probable space group: P -1
;
_chemical_formula_sum "Si O2"
_cell_formula_units_Z 14
_cell_length_a 24.106846
_cell_length_b 17.697888
_cell_length_c 4.834559
_cell_angle_alpha 100.097332
_cell_angle_beta 82.577006
_cell_angle_gamma 164.254402
_cell_volume 544.984736
_symmetry_space_group_name_H-M "P -1"
_symmetry_group_IT_number 2
_symmetry_cell_setting 'triclinic'
loop_
_space_group_symop_operation_xyz
x,y,z
-x,-y,-z
loop_
_atom_site_type_symbol
_atom_site_label
_atom_site_fract_x
_atom_site_fract_y
_atom_site_fract_z
Si Si1 0.509093 0.783097 0.727869
Si Si2 0.247677 0.548287 0.502054
Si Si3 0.037218 0.633100 0.186683
Si Si4 0.695638 0.723305 0.867112
Si Si5 0.218810 0.266264 0.676381
Si Si6 0.574793 0.030580 0.176935
Si Si7 0.985704 0.241037 0.983591
O O1 0.341647 0.587746 0.482203
O O2 0.380961 0.548928 0.820688
O O3 0.556101 0.922669 0.964968
O O4 0.734012 0.061058 0.632098
O O5 0.049542 0.302204 0.287345
O O6 0.174396 0.471195 0.806202
O O7 0.430050 0.834007 0.411787
O O8 0.056247 0.725000 0.003463
O O9 0.819515 0.362388 0.307194
O O10 0.000000 0.500000 0.000000
O O11 0.661030 0.623560 0.564428
O O12 0.500000 0.500000 0.000000
O O13 0.814423 0.829396 0.091174
O O14 0.814216 0.954302 0.826696
O O15 0.000000 0.000000 0.500000
O O16 0.500000 0.000000 0.000000
#
# Coordination Sequence:
#
# PCOD9049962 Si02
#       7
#     2   2   2   2   2   2   2
#     4  11  25  45  74 110 154 187 245 314 374 431
#     4  12  25  46  77 102 147 192 247 295 368 442
#     4  10  24  48  70 110 146 190 240 307 374 431
#     4  12  27  49  78 108 152 199 255 305 380 453
#     4  12  27  47  79 114 151 197 251 315 379 443
#     4  11  23  47  76 107 144 200 250 299 368 454
#     4  12  25  49  75 106 144 199 246 301 363 452
#
# _framework density 25.688793
#
# number of rings (size 3 to 8) (size 9 to 14) (size 15 to 20)
#    0.000    0.571    2.857    4.286    2.000    4.000 
#    5.143    0.000    0.000    0.000    0.000    0.000 
#    0.000    0.000    0.000    0.000    0.000    0.000 
#
# Total GULP energy -78283.994448 kJ/mol
# GULP energy per Si atom -5591.713889 kJ/mol
# Density = 2.563032 g / cm^3
# Si number density = 25.688793 Si / 1000 Ang^3
#
#
#
# Elastic Constant Matrix: (Units=GPa)
#
#
# Indices 1 2 3 4 5 6 
#
# 1 127.5323 62.9948 30.1115 11.1880 9.9029 -16.7402
# 2 62.9948 147.3246 -6.3636 -0.9265 -13.5571 -17.3761
# 3 30.1115 -6.3636 70.1688 -10.0084 -2.2193 -4.2906
# 4 11.1880 -0.9265 -10.0084 42.1158 -0.6253 0.8867
# 5 9.9029 -13.5571 -2.2193 -0.6253 36.0844 -0.4956
# 6 -16.7402 -17.3761 -4.2906 0.8867 -0.4956 50.9399
#
#
#
# Elastic Compliance Matrix: (Units=1/GPa)
#
#
# Indices 1 2 3 4 5 6 
#
# 1 0.014462 -0.007014 -0.007818 -0.005997 -0.007165 0.001736
# 2 -0.007014 0.010810 0.004770 0.003291 0.006361 0.001789
# 3 -0.007818 0.004770 0.019214 0.006813 0.005246 0.000609
# 4 -0.005997 0.003291 0.006813 0.027099 0.003761 -0.000709
# 5 -0.007165 0.006361 0.005246 0.003761 0.032464 0.000508
# 6 0.001736 0.001789 0.000609 -0.000709 0.000508 0.020880
#
#
# Mechanical properties :
#
#
# Convention : Reuss Voigt Hill
#
# Bulk Modulus (GPa) = 41.04661 57.61235 49.32948
# Shear Modulus (GPa) = 32.64298 43.04688 37.84493
#
# Velocity S-wave (km/s) = 3.56857 4.09798 3.84240
# Velocity P-wave (km/s) = 5.74392 6.69828 6.23938
#
# Compressibility (1/GPa) = 0.02436255
#
# Stress axis : x y z
#
# Youngs Moduli (GPa) = 69.14779 92.50853 52.04620
#
# Poissons Ratio (x) = 0.64883 0.40689
# Poissons Ratio (y) = 0.48498 -0.24827
# Poissons Ratio (z) = 0.54059 -0.44128
#
# Static dielectric constant tensor:
#      x y z
#    x 2.076140 0.035440 -0.004880 
#    y 0.035440 1.990240 0.087550 
#    z -0.004880 0.087550 2.075760 
# 
# From -- ./inp_files/124773.got.cif
#   From: 2010.05.17/outbox.cif.g08.bks.cpg/sg2_63_cif.got.tgz:124773.got - 2010.06.03 11:33:40.
