data_PCOD9049889
_publ_section_title
;
Structure prediction by ZEFSAII (Michael W. Deem and Ramdas Pophale) SiO2 
 PCOD9049889
Probable space group: P -1
;
_chemical_formula_sum "Si O2"
_cell_formula_units_Z 11
_cell_length_a 14.833661
_cell_length_b 12.330360
_cell_length_c 15.194613
_cell_angle_alpha 28.509514
_cell_angle_beta 20.975932
_cell_angle_gamma 25.135923
_cell_volume 412.250334
_symmetry_space_group_name_H-M "P -1"
_symmetry_group_IT_number 2
_symmetry_cell_setting 'triclinic'
loop_
_space_group_symop_operation_xyz
x,y,z
-x,-y,-z
loop_
_atom_site_type_symbol
_atom_site_label
_atom_site_fract_x
_atom_site_fract_y
_atom_site_fract_z
Si Si1 0.000000 0.500000 0.000000
Si Si2 0.258668 0.070734 0.512190
Si Si3 0.305684 0.449342 0.593577
Si Si4 0.263825 0.790021 0.978059
Si Si5 0.310085 0.923059 0.165125
Si Si6 0.798087 0.542865 0.865351
O O1 0.284448 0.389055 0.756428
O O2 0.951246 0.799078 0.821318
O O3 0.151532 0.288122 0.376540
O O4 0.993912 0.131735 0.773228
O O5 0.404575 0.778204 0.550650
O O6 0.534265 0.076695 0.302297
O O7 0.254806 0.729729 0.413063
O O8 0.025100 0.456565 0.799235
O O9 0.173243 0.717996 0.018986
O O10 0.500000 0.500000 0.000000
O O11 0.489383 0.745656 0.044940
O O12 0.500000 0.000000 0.000000
#
# Coordination Sequence:
#
# PCOD9049889 Si02
#       6
#     1   2   2   2   2   2
#     4  12  26  54  70 108 152 200 258 324 402 444
#     4  11  26  49  79 117 160 208 254 320 394 458
#     4  12  29  47  80 113 153 205 264 325 389 475
#     4  10  24  47  79 115 161 208 253 318 388 464
#     4  12  28  49  76 111 147 203 265 328 391 465
#     4  11  25  46  75 111 156 203 259 319 384 469
#
# _framework density 26.682817
#
# number of rings (size 3 to 8) (size 9 to 14) (size 15 to 20)
#    0.000    0.727    3.636    2.727   10.182    3.636 
#    0.000    0.000    0.000    0.000    0.000    0.000 
#    0.000    0.000    0.000    0.000    0.000    0.000 
#
# Total GULP energy -61426.727619 kJ/mol
# GULP energy per Si atom -5584.247965 kJ/mol
# Density = 2.662209 g / cm^3
# Si number density = 26.682817 Si / 1000 Ang^3
#
#
#
# Elastic Constant Matrix: (Units=GPa)
#
#
# Indices 1 2 3 4 5 6 
#
# 1 44.0234 4.0951 50.2521 8.0059 -2.4117 2.4420
# 2 4.0951 175.0982 78.3806 14.7988 30.7846 25.5069
# 3 50.2521 78.3806 174.0977 11.9455 22.9825 14.3169
# 4 8.0059 14.7988 11.9455 63.8202 1.5521 12.5250
# 5 -2.4117 30.7846 22.9825 1.5521 60.8447 3.4974
# 6 2.4420 25.5069 14.3169 12.5250 3.4974 39.1248
#
#
#
# Elastic Compliance Matrix: (Units=1/GPa)
#
#
# Indices 1 2 3 4 5 6 
#
# 1 0.038733 0.004695 -0.013651 -0.003550 0.004392 0.000261
# 2 0.004695 0.008678 -0.004593 -0.000948 -0.002229 -0.003767
# 3 -0.013651 -0.004593 0.012118 0.000687 -0.002780 -0.000559
# 4 -0.003550 -0.000948 0.000687 0.017169 -0.000077 -0.004901
# 5 0.004392 -0.002229 -0.002780 -0.000077 0.018758 0.000544
# 6 0.000261 -0.003767 -0.000559 -0.004901 0.000544 0.029724
#
#
# Mechanical properties :
#
#
# Convention : Reuss Voigt Hill
#
# Bulk Modulus (GPa) = 30.83560 73.18610 52.01085
# Shear Modulus (GPa) = 30.65807 50.12403 40.39105
#
# Velocity S-wave (km/s) = 3.39334 4.33888 3.89491
# Velocity P-wave (km/s) = 5.18984 7.25182 6.30569
#
# Compressibility (1/GPa) = 0.03243005
#
# Stress axis : x y z
#
# Youngs Moduli (GPa) = 25.81775 115.23320 82.52248
#
# Poissons Ratio (x) = -0.54100 1.12654
# Poissons Ratio (y) = -0.12121 0.37903
# Poissons Ratio (z) = 0.35245 0.52927
#
# Static dielectric constant tensor:
#      x y z
#    x 2.251500 -0.033110 -0.126080 
#    y -0.033110 2.084260 0.000750 
#    z -0.126080 0.000750 2.037320 
# 
# From -- ./inp_files/95153.got.cif
#   From: 2010.05.17/outbox.cif.g08.bks.cpg/sg2_48_cif.got.tgz:95153.got - 2010.06.03 11:33:40.
