data_PCOD9049108
_publ_section_title
;
Structure prediction by ZEFSAII (Michael W. Deem and Ramdas Pophale) SiO2 
 PCOD9049108
Probable space group: P -1
;
_chemical_formula_sum "Si O2"
_cell_formula_units_Z 16
_cell_length_a 5.300377
_cell_length_b 11.955110
_cell_length_c 24.155310
_cell_angle_alpha 32.204153
_cell_angle_beta 70.120997
_cell_angle_gamma 57.967211
_cell_volume 671.195523
_symmetry_space_group_name_H-M "P -1"
_symmetry_group_IT_number 2
_symmetry_cell_setting 'triclinic'
loop_
_space_group_symop_operation_xyz
x,y,z
-x,-y,-z
loop_
_atom_site_type_symbol
_atom_site_label
_atom_site_fract_x
_atom_site_fract_y
_atom_site_fract_z
Si Si1 0.052462 0.111601 0.075297
Si Si2 0.652494 0.994376 0.717055
Si Si3 0.833743 0.352947 0.094547
Si Si4 0.436648 0.229920 0.737056
Si Si5 0.582702 0.779829 0.545998
Si Si6 0.843227 0.378462 0.777188
Si Si7 0.739510 0.517160 0.854017
Si Si8 0.743234 0.297532 0.491681
O O1 0.786779 0.246271 0.085153
O O2 0.335167 0.976653 0.152787
O O3 0.073813 0.894776 0.127288
O O4 0.033536 0.315078 0.949760
O O5 0.661938 0.783934 0.766259
O O6 0.948368 0.858933 0.791374
O O7 0.384601 0.117309 0.731588
O O8 0.670914 0.192818 0.595284
O O9 0.536060 0.510142 0.086973
O O10 0.000000 0.500000 0.000000
O O11 0.505842 0.430030 0.621127
O O12 0.148712 0.380484 0.734362
O O13 0.604795 0.563688 0.673442
O O14 0.317412 0.845214 0.493424
O O15 0.919950 0.721250 0.521285
O O16 0.500000 0.000000 0.500000
O O17 0.762330 0.464489 0.809698
#
# Coordination Sequence:
#
# PCOD9049108 Si02
#       8
#     2   2   2   2   2   2   2   2
#     4  11  23  44  68  94 138 183 226 291 348 423
#     4  11  25  43  73 102 135 185 233 300 345 428
#     4  11  25  45  67 100 135 182 234 290 357 416
#     4  10  24  46  69 101 140 185 233 286 365 414
#     4  11  24  45  70 102 149 194 232 297 364 427
#     4  11  25  43  67 101 141 185 228 291 356 431
#     4  12  26  42  70 104 136 181 240 288 352 427
#     4  11  24  46  71 108 140 189 246 295 355 430
#
# _framework density 23.838059999999999
#
# number of rings (size 3 to 8) (size 9 to 14) (size 15 to 20)
#    0.000    1.000    2.500    3.000    7.000    2.500 
#    0.000    1.875    0.000    0.000    0.000    0.000 
#    0.000    0.000    0.000    0.000    0.000    0.000 
#
# Total GULP energy -89279.312318 kJ/mol
# GULP energy per Si atom -5579.957020 kJ/mol
# Density = 2.378380 g / cm^3
# Si number density = 23.838060 Si / 1000 Ang^3
#
#
#
# Elastic Constant Matrix: (Units=GPa)
#
#
# Indices 1 2 3 4 5 6 
#
# 1 31.8933 40.2263 17.6591 10.9661 -2.6691 10.7590
# 2 40.2263 178.0325 34.5763 34.2021 -8.6140 26.4494
# 3 17.6591 34.5763 124.4779 23.4756 -0.8404 1.8872
# 4 10.9661 34.2021 23.4756 42.5933 11.6632 1.4253
# 5 -2.6691 -8.6140 -0.8404 11.6632 35.2268 -5.5623
# 6 10.7590 26.4494 1.8872 1.4253 -5.5623 34.6161
#
#
#
# Elastic Compliance Matrix: (Units=1/GPa)
#
#
# Indices 1 2 3 4 5 6 
#
# 1 0.047743 -0.008031 -0.003654 -0.004001 0.001616 -0.008079
# 2 -0.008031 0.009364 -0.000246 -0.006021 0.003052 -0.003907
# 3 -0.003654 -0.000246 0.009472 -0.004561 0.001597 0.001252
# 4 -0.004001 -0.006021 -0.004561 0.035388 -0.013204 0.002514
# 5 0.001616 0.003052 0.001597 -0.013204 0.034157 0.003111
# 6 -0.008079 -0.003907 0.001252 0.002514 0.003111 0.034713
#
#
# Mechanical properties :
#
#
# Convention : Reuss Voigt Hill
#
# Bulk Modulus (GPa) = 23.40991 57.70302 40.55647
# Shear Modulus (GPa) = 23.93026 38.61670 31.27348
#
# Velocity S-wave (km/s) = 3.17182 4.02924 3.62596
# Velocity P-wave (km/s) = 4.82241 6.77533 5.88051
#
# Compressibility (1/GPa) = 0.04271695
#
# Stress axis : x y z
#
# Youngs Moduli (GPa) = 20.94531 106.79027 105.56931
#
# Poissons Ratio (x) = 0.85759 0.38580
# Poissons Ratio (y) = 0.16820 0.02602
# Poissons Ratio (z) = 0.07654 0.02632
#
# Static dielectric constant tensor:
#      x y z
#    x 2.006370 -0.019040 -0.005900 
#    y -0.019040 1.958950 -0.106080 
#    z -0.005900 -0.106080 1.971900 
# 
# From -- ./inp_files/82999.got.cif
#   From: 2010.05.17/outbox.cif.g08.bks.cpg/sg2_42_cif.got.tgz:82999.got - 2010.06.03 11:33:40.
