data_PCOD9049815
_publ_section_title
;
Structure prediction by ZEFSAII (Michael W. Deem and Ramdas Pophale) SiO2 
 PCOD9049815
Probable space group: P -1
;
_chemical_formula_sum "Si O2"
_cell_formula_units_Z 16
_cell_length_a 7.878536
_cell_length_b 14.554557
_cell_length_c 11.254347
_cell_angle_alpha 31.720781
_cell_angle_beta 107.384475
_cell_angle_gamma 103.335065
_cell_volume 646.824758
_symmetry_space_group_name_H-M "P -1"
_symmetry_group_IT_number 2
_symmetry_cell_setting 'triclinic'
loop_
_space_group_symop_operation_xyz
x,y,z
-x,-y,-z
loop_
_atom_site_type_symbol
_atom_site_label
_atom_site_fract_x
_atom_site_fract_y
_atom_site_fract_z
Si Si1 0.109820 0.881056 0.064927
Si Si2 0.424786 0.480289 0.372545
Si Si3 0.170285 0.393563 0.103385
Si Si4 0.663384 0.945859 0.461276
Si Si5 0.646396 0.262480 0.269296
Si Si6 0.386326 0.073443 0.783678
Si Si7 0.249990 0.643128 0.549995
Si Si8 0.975081 0.397155 0.818059
O O1 0.251081 0.775411 0.294759
O O2 0.998764 0.742907 0.124992
O O3 0.197816 0.994472 0.858210
O O4 0.000000 0.000000 0.000000
O O5 0.500000 0.500000 0.500000
O O6 0.375073 0.281522 0.558067
O O7 0.590825 0.500288 0.293779
O O8 0.234279 0.588298 0.206511
O O9 0.192793 0.206870 0.376922
O O10 0.323194 0.537827 0.986181
O O11 0.000000 0.500000 0.000000
O O12 0.110332 0.355517 0.998825
O O13 0.545766 0.821516 0.658316
O O14 0.560876 0.991344 0.266819
O O15 0.726790 0.115858 0.355728
O O16 0.719118 0.271241 0.409823
O O17 0.500000 0.000000 0.000000
O O18 0.051945 0.573982 0.588471
#
# Coordination Sequence:
#
# PCOD9049815 Si02
#       8
#     2   2   2   2   2   2   2   2
#     4  12  26  42  70 105 148 188 242 307 369 441
#     4  12  23  44  75 102 147 193 241 300 367 438
#     4  11  26  45  71 107 145 194 247 301 373 449
#     4  11  24  48  76 104 149 191 248 310 369 446
#     4  10  24  47  75 105 143 198 245 305 374 440
#     4  12  24  46  70 109 143 185 245 305 370 445
#     4  11  23  47  74 103 148 194 246 303 377 442
#     4  11  26  47  69 110 145 194 249 299 375 440
#
# _framework density 24.736219999999999
#
# number of rings (size 3 to 8) (size 9 to 14) (size 15 to 20)
#    0.000    0.750    3.750    2.250    5.250    1.500 
#    2.250    0.000    0.000    0.000    0.000    0.000 
#    0.000    0.000    0.000    0.000    0.000    0.000 
#
# Total GULP energy -89356.483434 kJ/mol
# GULP energy per Si atom -5584.780215 kJ/mol
# Density = 2.467992 g / cm^3
# Si number density = 24.736220 Si / 1000 Ang^3
#
#
#
# Elastic Constant Matrix: (Units=GPa)
#
#
# Indices 1 2 3 4 5 6 
#
# 1 88.9033 27.7014 12.6273 0.9846 4.6651 -0.3002
# 2 27.7014 222.1996 48.0914 -11.3696 13.1146 -11.4141
# 3 12.6273 48.0914 48.4187 0.6991 -2.6115 -6.3496
# 4 0.9846 -11.3696 0.6991 37.8277 -6.6524 -1.7589
# 5 4.6651 13.1146 -2.6115 -6.6524 29.1997 -2.3496
# 6 -0.3002 -11.4141 -6.3496 -1.7589 -2.3496 31.6937
#
#
#
# Elastic Compliance Matrix: (Units=1/GPa)
#
#
# Indices 1 2 3 4 5 6 
#
# 1 0.011998 -0.000956 -0.002393 -0.000948 -0.001991 -0.000910
# 2 -0.000956 0.006197 -0.005956 0.001559 -0.002734 0.000913
# 3 -0.002393 -0.005956 0.028010 -0.001080 0.005622 0.003801
# 4 -0.000948 0.001559 -0.001080 0.028103 0.005945 0.002336
# 5 -0.001991 -0.002734 0.005622 0.005945 0.037913 0.003263
# 6 -0.000910 0.000913 0.003801 0.002336 0.003263 0.033005
#
#
# Mechanical properties :
#
#
# Convention : Reuss Voigt Hill
#
# Bulk Modulus (GPa) = 36.23726 59.59578 47.91652
# Shear Modulus (GPa) = 28.89622 37.81765 33.35693
#
# Velocity S-wave (km/s) = 3.42156 3.91428 3.67618
# Velocity P-wave (km/s) = 5.50370 6.67634 6.11818
#
# Compressibility (1/GPa) = 0.02759591
#
# Stress axis : x y z
#
# Youngs Moduli (GPa) = 83.34942 161.37592 35.70148
#
# Poissons Ratio (x) = 0.15421 0.08543
# Poissons Ratio (y) = 0.07965 0.21263
# Poissons Ratio (z) = 0.19944 0.96113
#
# Static dielectric constant tensor:
#      x y z
#    x 2.129850 -0.040240 0.083230 
#    y -0.040240 1.937340 0.070950 
#    z 0.083230 0.070950 2.068730 
# 
# From -- ./inp_files/398278.got.cif
#   From: 2010.05.17/outbox.cif.g08.bks.cpg/sg2_200_cif.got.tgz:398278.got - 2010.06.03 11:33:40.
