data_PCOD9049724
_publ_section_title
;
Structure prediction by ZEFSAII (Michael W. Deem and Ramdas Pophale) SiO2 
 PCOD9049724
Probable space group: P -1
;
_chemical_formula_sum "Si O2"
_cell_formula_units_Z 16
_cell_length_a 11.206488
_cell_length_b 12.993501
_cell_length_c 8.771486
_cell_angle_alpha 47.926634
_cell_angle_beta 141.896612
_cell_angle_gamma 120.446651
_cell_volume 584.449006
_symmetry_space_group_name_H-M "P -1"
_symmetry_group_IT_number 2
_symmetry_cell_setting 'triclinic'
loop_
_space_group_symop_operation_xyz
x,y,z
-x,-y,-z
loop_
_atom_site_type_symbol
_atom_site_label
_atom_site_fract_x
_atom_site_fract_y
_atom_site_fract_z
Si Si1 0.338349 0.115952 0.898742
Si Si2 0.118086 0.113961 0.370957
Si Si3 0.745195 0.599867 0.316319
Si Si4 0.317319 0.297829 0.175627
Si Si5 0.206878 0.841121 0.602953
Si Si6 0.653822 0.101813 0.629183
Si Si7 0.124537 0.607211 0.116398
Si Si8 0.338224 0.559998 0.106691
O O1 0.280668 0.115210 0.665308
O O2 0.227095 0.250037 0.728468
O O3 0.569029 0.135052 0.139788
O O4 0.288289 0.979274 0.079277
O O5 0.208784 0.163171 0.252928
O O6 0.081797 0.952291 0.466391
O O7 0.956799 0.235578 0.119638
O O8 0.857268 0.465511 0.629871
O O9 0.759413 0.623854 0.128508
O O10 0.525910 0.576668 0.175157
O O11 0.535462 0.243450 0.412579
O O12 0.291123 0.402455 0.185164
O O13 0.196709 0.869417 0.383546
O O14 0.186755 0.678840 0.773168
O O15 0.500000 0.000000 0.500000
O O16 0.329227 0.595532 0.241979
O O17 0.000000 0.500000 0.000000
#
# Coordination Sequence:
#
# PCOD9049724 Si02
#       8
#     2   2   2   2   2   2   2   2
#     4  10  18  35  63  96 125 161 208 262 309 371
#     4  12  23  39  64  93 129 171 209 253 317 379
#     4  11  22  41  67  97 124 165 211 266 317 362
#     4  12  21  38  68  97 127 162 212 264 315 371
#     4  10  21  38  62  94 127 163 211 263 312 365
#     4  10  17  34  60  95 127 156 208 268 307 366
#     4  12  25  44  62  92 133 171 208 256 314 385
#     4  11  24  43  65  94 131 163 211 268 309 372
#
# _framework density 27.376211999999999
#
# number of rings (size 3 to 8) (size 9 to 14) (size 15 to 20)
#    0.000    1.000    8.750    1.125    0.000    2.000 
#    0.000    0.000    0.000    1.500    0.000    0.000 
#    0.000    0.000    0.000    0.000    0.000    0.000 
#
# Total GULP energy -89649.311550 kJ/mol
# GULP energy per Si atom -5603.081972 kJ/mol
# Density = 2.731390 g / cm^3
# Si number density = 27.376212 Si / 1000 Ang^3
#
#
#
# Elastic Constant Matrix: (Units=GPa)
#
#
# Indices 1 2 3 4 5 6 
#
# 1 96.3965 20.3935 45.1594 -1.8102 -17.0631 -19.9350
# 2 20.3935 109.3875 45.1659 -39.8084 9.5147 -15.8912
# 3 45.1594 45.1659 186.5138 -18.4727 -20.1768 -11.7675
# 4 -1.8102 -39.8084 -18.4727 49.8425 -1.8156 6.3652
# 5 -17.0631 9.5147 -20.1768 -1.8156 66.0998 -14.0151
# 6 -19.9350 -15.8912 -11.7675 6.3652 -14.0151 45.1065
#
#
#
# Elastic Compliance Matrix: (Units=1/GPa)
#
#
# Indices 1 2 3 4 5 6 
#
# 1 0.014000 -0.002090 -0.002233 -0.002673 0.004573 0.006667
# 2 -0.002090 0.014746 -0.002230 0.010604 -0.002769 0.001333
# 3 -0.002233 -0.002230 0.006746 0.000645 0.001926 0.000495
# 4 -0.002673 0.010604 0.000645 0.028852 -0.001620 -0.001852
# 5 0.004573 -0.002769 0.001926 -0.001620 0.018871 0.007640
# 6 0.006667 0.001333 0.000495 -0.001852 0.007640 0.028350
#
#
# Mechanical properties :
#
#
# Convention : Reuss Voigt Hill
#
# Bulk Modulus (GPa) = 44.67278 68.19280 56.43279
# Shear Modulus (GPa) = 37.84078 50.98169 44.41124
#
# Velocity S-wave (km/s) = 3.72190 4.32008 4.03209
# Velocity P-wave (km/s) = 5.90115 7.06029 6.50658
#
# Compressibility (1/GPa) = 0.02238500
#
# Stress axis : x y z
#
# Youngs Moduli (GPa) = 71.42762 67.81689 148.24314
#
# Poissons Ratio (x) = 0.14176 0.33103
# Poissons Ratio (y) = 0.14931 0.33057
# Poissons Ratio (z) = 0.15950 0.15123
#
# Static dielectric constant tensor:
#      x y z
#    x 2.191840 0.080150 0.053500 
#    y 0.080150 2.139590 0.062810 
#    z 0.053500 0.062810 2.130010 
# 
# From -- ./inp_files/271910.got.cif
#   From: 2010.05.17/outbox.cif.g08.bks.cpg/sg2_136_cif.got.tgz:271910.got - 2010.06.03 11:33:40.
