data_PCOD9049999
_publ_section_title
;
Structure prediction by ZEFSAII (Michael W. Deem and Ramdas Pophale) SiO2 
 PCOD9049999
Probable space group: P -1
;
_chemical_formula_sum "Si O2"
_cell_formula_units_Z 15
_cell_length_a 9.625090
_cell_length_b 8.889435
_cell_length_c 16.147149
_cell_angle_alpha 131.313076
_cell_angle_beta 137.102319
_cell_angle_gamma 44.691237
_cell_volume 632.734123
_symmetry_space_group_name_H-M "P -1"
_symmetry_group_IT_number 2
_symmetry_cell_setting 'triclinic'
loop_
_space_group_symop_operation_xyz
x,y,z
-x,-y,-z
loop_
_atom_site_type_symbol
_atom_site_label
_atom_site_fract_x
_atom_site_fract_y
_atom_site_fract_z
Si Si1 0.360341 0.753885 0.996479
Si Si2 0.524335 0.109728 0.743293
Si Si3 0.026733 0.209453 0.626018
Si Si4 0.988146 0.235138 0.814738
Si Si5 0.287907 0.352130 0.441289
Si Si6 0.077289 0.778944 0.731941
Si Si7 0.500000 0.000000 0.000000
Si Si8 0.519782 0.456125 0.730565
O O1 0.318841 0.903574 0.114538
O O2 0.483309 0.846334 0.017526
O O3 0.500000 0.500000 0.000000
O O4 0.151628 0.758969 0.852922
O O5 0.268216 0.187922 0.692281
O O6 0.518704 0.301437 0.749361
O O7 0.603849 0.876265 0.645928
O O8 0.025081 0.225085 0.729687
O O9 0.815723 0.431793 0.582604
O O10 0.000000 0.000000 0.500000
O O11 0.764744 0.451429 0.824919
O O12 0.922976 0.032816 0.733025
O O13 0.222712 0.153369 0.935991
O O14 0.458530 0.371863 0.588574
O O15 0.070364 0.352795 0.394479
O O16 0.307456 0.693804 0.745981
#
# Coordination Sequence:
#
# PCOD9049999 Si02
#       8
#     2   2   2   2   2   2   1   2
#     4  11  22  47  76 103 145 195 251 303 370 443
#     4  12  25  45  74 107 146 195 252 303 366 445
#     4  12  26  45  71 104 152 194 237 311 374 439
#     4  11  25  46  70 105 143 186 243 307 371 435
#     4  12  26  44  73 112 145 192 249 298 367 448
#     4  11  24  43  76 103 142 195 243 301 364 435
#     4  10  24  48  72 104 146 188 252 308 366 446
#     4  12  24  44  74 106 143 192 248 300 365 441
#
# _framework density 23.70664
#
# number of rings (size 3 to 8) (size 9 to 14) (size 15 to 20)
#    0.000    0.533    5.333    2.400    1.867    3.733 
#    0.000    2.667    0.000    0.000    0.000    0.000 
#    0.000    0.000    0.000    0.000    0.000    0.000 
#
# Total GULP energy -83696.091625 kJ/mol
# GULP energy per Si atom -5579.739442 kJ/mol
# Density = 2.365268 g / cm^3
# Si number density = 23.706640 Si / 1000 Ang^3
#
#
#
# Elastic Constant Matrix: (Units=GPa)
#
#
# Indices 1 2 3 4 5 6 
#
# 1 103.1445 41.1668 31.3336 -19.5159 -4.7006 -7.0081
# 2 41.1668 84.4945 38.6412 -4.5366 -17.3098 0.8849
# 3 31.3336 38.6412 118.3815 -8.9765 -9.3332 -11.6878
# 4 -19.5159 -4.5366 -8.9765 42.7295 -13.4650 -3.0840
# 5 -4.7006 -17.3098 -9.3332 -13.4650 33.7365 -11.4211
# 6 -7.0081 0.8849 -11.6878 -3.0840 -11.4211 43.7387
#
#
#
# Elastic Compliance Matrix: (Units=1/GPa)
#
#
# Indices 1 2 3 4 5 6 
#
# 1 0.013697 -0.005446 -0.000829 0.006553 0.002591 0.003222
# 2 -0.005446 0.017824 -0.003698 0.001060 0.007744 -0.000124
# 3 -0.000829 -0.003698 0.010744 0.002845 0.003417 0.003906
# 4 0.006553 0.001060 0.002845 0.033668 0.018748 0.009058
# 5 0.002591 0.007744 0.003417 0.018748 0.047442 0.014882
# 6 0.003222 -0.000124 0.003906 0.009058 0.014882 0.028950
#
#
# Mechanical properties :
#
#
# Convention : Reuss Voigt Hill
#
# Bulk Modulus (GPa) = 44.79995 58.70042 51.75018
# Shear Modulus (GPa) = 27.82248 37.03286 32.42767
#
# Velocity S-wave (km/s) = 3.42952 3.95667 3.70249
# Velocity P-wave (km/s) = 5.88395 6.75933 6.33677
#
# Compressibility (1/GPa) = 0.02232145
#
# Stress axis : x y z
#
# Youngs Moduli (GPa) = 73.00800 56.10361 93.07116
#
# Poissons Ratio (x) = 0.30551 0.07712
# Poissons Ratio (y) = 0.39757 0.34418
# Poissons Ratio (z) = 0.06050 0.20747
#
# Static dielectric constant tensor:
#      x y z
#    x 1.931880 -0.039430 0.038210 
#    y -0.039430 1.837850 0.084930 
#    z 0.038210 0.084930 1.863900 
# 
# From -- ./inp_files/294242.got.cif
#   From: 2010.05.17/outbox.cif.g08.bks.cpg/sg2_148_cif.got.tgz:294242.got - 2010.06.03 11:33:40.
