data_PCOD9049045
_publ_section_title
;
Structure prediction by ZEFSAII (Michael W. Deem and Ramdas Pophale) SiO2 
 PCOD9049045
Probable space group: P -1
;
_chemical_formula_sum "Si O2"
_cell_formula_units_Z 14
_cell_length_a 14.441013
_cell_length_b 18.395691
_cell_length_c 5.084068
_cell_angle_alpha 113.318364
_cell_angle_beta 55.750914
_cell_angle_gamma 148.042038
_cell_volume 580.525107
_symmetry_space_group_name_H-M "P -1"
_symmetry_group_IT_number 2
_symmetry_cell_setting 'triclinic'
loop_
_space_group_symop_operation_xyz
x,y,z
-x,-y,-z
loop_
_atom_site_type_symbol
_atom_site_label
_atom_site_fract_x
_atom_site_fract_y
_atom_site_fract_z
Si Si1 0.742981 0.331940 0.532224
Si Si2 0.917295 0.747278 0.695012
Si Si3 0.647845 0.135156 0.135312
Si Si4 0.221335 0.163862 0.944016
Si Si5 0.017144 0.389552 0.536987
Si Si6 0.403289 0.192138 0.201799
Si Si7 0.831067 0.097142 0.995077
O O1 0.588465 0.184333 0.421456
O O2 0.911297 0.370042 0.427338
O O3 0.837010 0.455764 0.385725
O O4 0.626853 0.307554 0.917310
O O5 0.874222 0.632106 0.693271
O O6 0.989716 0.787088 0.334076
O O7 0.093339 0.875518 0.796118
O O8 0.772445 0.737125 0.941458
O O9 0.837509 0.267348 0.844608
O O10 0.713411 0.110509 0.213732
O O11 0.500000 0.000000 0.000000
O O12 0.366226 0.209666 0.565154
O O13 0.289543 0.178270 0.144991
O O14 0.000000 0.000000 0.000000
O O15 0.297462 0.045724 0.135998
#
# Coordination Sequence:
#
# PCOD9049045 Si02
#       7
#     2   2   2   2   2   2   2
#     4  11  25  44  67  97 143 182 229 280 343 425
#     4  11  22  41  68  96 129 180 233 273 337 407
#     4  11  24  38  68 104 137 177 223 287 343 410
#     4  12  23  42  66  98 141 177 225 289 348 402
#     4  10  24  46  67  96 137 193 224 276 350 413
#     4  12  25  39  66 105 136 178 225 285 348 404
#     4  11  21  37  63 101 132 168 223 280 343 392
#
# _framework density 24.116095000000001
#
# number of rings (size 3 to 8) (size 9 to 14) (size 15 to 20)
#    0.000    0.857    4.286    2.571    8.000    1.143 
#    0.000    1.429    0.000    0.000    0.000    0.000 
#    0.000    0.000    0.000    0.000    0.000    0.000 
#
# Total GULP energy -78332.382712 kJ/mol
# GULP energy per Si atom -5595.170194 kJ/mol
# Density = 2.406121 g / cm^3
# Si number density = 24.116095 Si / 1000 Ang^3
#
#
#
# Elastic Constant Matrix: (Units=GPa)
#
#
# Indices 1 2 3 4 5 6 
#
# 1 104.1210 43.7203 15.2105 10.5795 -16.5303 -28.6239
# 2 43.7203 89.3452 30.2059 5.1744 -17.4266 -32.8706
# 3 15.2105 30.2059 108.9446 13.1978 -14.5167 -15.1116
# 4 10.5795 5.1744 13.1978 20.8619 -7.9435 -2.7136
# 5 -16.5303 -17.4266 -14.5167 -7.9435 42.3389 17.4435
# 6 -28.6239 -32.8706 -15.1116 -2.7136 17.4435 43.8700
#
#
#
# Elastic Compliance Matrix: (Units=1/GPa)
#
#
# Indices 1 2 3 4 5 6 
#
# 1 0.013423 -0.004561 0.000812 -0.005319 0.000555 0.005071
# 2 -0.004561 0.017932 -0.003109 0.001417 0.001071 0.009051
# 3 0.000812 -0.003109 0.010969 -0.005971 0.001214 0.001127
# 4 -0.005319 0.001417 -0.005971 0.056895 0.008998 -0.004524
# 5 0.000555 0.001071 0.001214 0.008998 0.030495 -0.009986
# 6 0.005071 0.009051 0.001127 -0.004524 -0.009986 0.036964
#
#
# Mechanical properties :
#
#
# Convention : Reuss Voigt Hill
#
# Bulk Modulus (GPa) = 34.95382 53.40935 44.18158
# Shear Modulus (GPa) = 26.32538 35.63243 30.97891
#
# Velocity S-wave (km/s) = 3.30754 3.84805 3.58798
# Velocity P-wave (km/s) = 5.39554 6.47596 5.96028
#
# Compressibility (1/GPa) = 0.02860918
#
# Stress axis : x y z
#
# Youngs Moduli (GPa) = 74.49665 55.76523 91.16667
#
# Poissons Ratio (x) = 0.25437 -0.07404
# Poissons Ratio (y) = 0.33981 0.28340
# Poissons Ratio (z) = -0.06050 0.17335
#
# Static dielectric constant tensor:
#      x y z
#    x 1.965330 0.030480 -0.020470 
#    y 0.030480 1.979460 0.000370 
#    z -0.020470 0.000370 1.937870 
# 
# From -- ./inp_files/53724.got.cif
#   From: 2010.05.17/outbox.cif.g08.bks.cpg/sg2_27_cif.got.tgz:53724.got - 2010.06.03 11:33:40.
