data_PCOD9049408
_publ_section_title
;
Structure prediction by ZEFSAII (Michael W. Deem and Ramdas Pophale) SiO2 
 PCOD9049408
Probable space group: P -1
;
_chemical_formula_sum "Si O2"
_cell_formula_units_Z 16
_cell_length_a 20.937554
_cell_length_b 9.348971
_cell_length_c 4.871680
_cell_angle_alpha 72.282425
_cell_angle_beta 102.612245
_cell_angle_gamma 139.200757
_cell_volume 593.430290
_symmetry_space_group_name_H-M "P -1"
_symmetry_group_IT_number 2
_symmetry_cell_setting 'triclinic'
loop_
_space_group_symop_operation_xyz
x,y,z
-x,-y,-z
loop_
_atom_site_type_symbol
_atom_site_label
_atom_site_fract_x
_atom_site_fract_y
_atom_site_fract_z
Si Si1 0.115932 0.689366 0.470457
Si Si2 0.099930 0.122973 0.662274
Si Si3 0.166459 0.093419 0.206258
Si Si4 0.221557 0.569244 0.855422
Si Si5 0.726501 0.118235 0.878925
Si Si6 0.456208 0.577967 0.283612
Si Si7 0.661998 0.685091 0.186595
Si Si8 0.421444 0.971097 0.591244
O O1 0.155408 0.918500 0.458522
O O2 0.170962 0.642847 0.684132
O O3 0.000000 0.500000 0.500000
O O4 0.166348 0.759817 0.178795
O O5 0.150381 0.329555 0.790352
O O6 0.162199 0.197839 0.399581
O O7 0.000000 0.000000 0.500000
O O8 0.078704 0.961873 0.974552
O O9 0.252117 0.230342 0.979773
O O10 0.249021 0.669916 0.127037
O O11 0.330609 0.719784 0.762618
O O12 0.639640 0.005448 0.646658
O O13 0.681275 0.896453 0.121565
O O14 0.500000 0.500000 0.500000
O O15 0.428996 0.504274 0.988179
O O16 0.522055 0.836618 0.237763
O O17 0.360756 0.430632 0.477855
O O18 0.500000 0.000000 0.500000
#
# Coordination Sequence:
#
# PCOD9049408 Si02
#       8
#     2   2   2   2   2   2   2   2
#     4  10  24  48  76 109 144 191 251 313 379 454
#     4  12  28  52  77 110 153 199 252 312 384 457
#     4  11  27  48  78 109 149 194 255 310 376 453
#     4  11  27  48  76 107 157 199 249 317 385 448
#     4  10  24  46  73 108 150 193 247 317 375 445
#     4  12  24  44  72 105 144 196 246 303 367 436
#     4  11  25  43  77 108 146 190 254 309 365 438
#     4  11  27  44  68 105 152 197 251 300 375 451
#
# _framework density 26.961888999999999
#
# number of rings (size 3 to 8) (size 9 to 14) (size 15 to 20)
#    0.000    1.000    1.250    3.000   15.750    1.000 
#    2.250    0.000    0.000    0.000    0.000    0.000 
#    0.000    0.000    0.000    0.000    0.000    0.000 
#
# Total GULP energy -89277.730945 kJ/mol
# GULP energy per Si atom -5579.858184 kJ/mol
# Density = 2.690052 g / cm^3
# Si number density = 26.961889 Si / 1000 Ang^3
#
#
#
# Elastic Constant Matrix: (Units=GPa)
#
#
# Indices 1 2 3 4 5 6 
#
# 1 141.3688 57.6428 26.2355 12.0314 -21.0581 24.6971
# 2 57.6428 123.3795 17.2380 14.6666 -34.9955 -0.8674
# 3 26.2355 17.2380 120.1851 20.9606 -16.3213 -1.4066
# 4 12.0314 14.6666 20.9606 37.0715 -2.9980 -11.3363
# 5 -21.0581 -34.9955 -16.3213 -2.9980 44.2607 -3.0465
# 6 24.6971 -0.8674 -1.4066 -11.3363 -3.0465 52.1868
#
#
#
# Elastic Compliance Matrix: (Units=1/GPa)
#
#
# Indices 1 2 3 4 5 6 
#
# 1 0.010275 -0.004196 -0.001164 -0.002653 0.000583 -0.005506
# 2 -0.004196 0.012636 0.000722 -0.002739 0.008220 0.002100
# 3 -0.001164 0.000722 0.009828 -0.005236 0.003279 -0.000118
# 4 -0.002653 -0.002739 -0.005236 0.034238 -0.002464 0.008363
# 5 0.000583 0.008220 0.003279 -0.002464 0.030495 0.001194
# 6 -0.005506 0.002100 -0.000118 0.008363 0.001194 0.023686
#
#
# Mechanical properties :
#
#
# Convention : Reuss Voigt Hill
#
# Bulk Modulus (GPa) = 42.61715 65.24068 53.92891
# Shear Modulus (GPa) = 36.16531 45.62495 40.89513
#
# Velocity S-wave (km/s) = 3.66642 4.11810 3.89881
# Velocity P-wave (km/s) = 5.81070 6.84555 6.34924
#
# Compressibility (1/GPa) = 0.02346473
#
# Stress axis : x y z
#
# Youngs Moduli (GPa) = 97.32285 79.13647 101.75062
#
# Poissons Ratio (x) = 0.33204 0.11840
# Poissons Ratio (y) = 0.40834 -0.07347
# Poissons Ratio (z) = 0.11325 -0.05714
#
# Static dielectric constant tensor:
#      x y z
#    x 2.333130 -0.073770 0.007540 
#    y -0.073770 2.247800 -0.045970 
#    z 0.007540 -0.045970 2.289930 
# 
# From -- ./inp_files/117066.got.cif
#   From: 2010.05.17/outbox.cif.g08.bks.cpg/sg2_59_cif.got.tgz:117066.got - 2010.06.03 11:33:40.
