data_PCOD9049804
_publ_section_title
;
Structure prediction by ZEFSAII (Michael W. Deem and Ramdas Pophale) SiO2 
 PCOD9049804
Probable space group: P -1
;
_chemical_formula_sum "Si O2"
_cell_formula_units_Z 16
_cell_length_a 18.769987
_cell_length_b 11.595532
_cell_length_c 22.845737
_cell_angle_alpha 152.571515
_cell_angle_beta 162.033483
_cell_angle_gamma 34.058627
_cell_volume 702.113718
_symmetry_space_group_name_H-M "P -1"
_symmetry_group_IT_number 2
_symmetry_cell_setting 'triclinic'
loop_
_space_group_symop_operation_xyz
x,y,z
-x,-y,-z
loop_
_atom_site_type_symbol
_atom_site_label
_atom_site_fract_x
_atom_site_fract_y
_atom_site_fract_z
Si Si1 0.007520 0.672230 0.410750
Si Si2 0.165543 0.934585 0.380885
Si Si3 0.341468 0.915787 0.944080
Si Si4 0.756547 0.768156 0.145842
Si Si5 0.300787 0.853755 0.320530
Si Si6 0.405602 0.565892 0.591636
Si Si7 0.282951 0.436565 0.760586
Si Si8 0.924888 0.524122 0.816669
O O1 0.213678 0.552308 0.486626
O O2 0.801066 0.651086 0.191876
O O3 0.937653 0.564459 0.369991
O O4 0.079891 0.968970 0.609807
O O5 0.235974 0.973869 0.385888
O O6 0.185630 0.661029 0.301785
O O7 0.300447 0.162680 0.624509
O O8 0.897014 0.969197 0.198745
O O9 0.494928 0.838249 0.974355
O O10 0.500103 0.136402 0.203017
O O11 0.275047 0.655448 0.807181
O O12 0.859924 0.594573 0.100815
O O13 0.400610 0.600768 0.309160
O O14 0.500000 0.000000 0.500000
O O15 0.058266 0.777367 0.062258
O O16 0.271136 0.468913 0.383665
O O17 0.500000 0.500000 0.000000
#
# Coordination Sequence:
#
# PCOD9049804 Si02
#       8
#     2   2   2   2   2   2   2   2
#     4   9  18  36  64 102 135 171 224 276 336 416
#     4  12  27  46  65 103 143 181 236 281 339 418
#     4  11  23  40  68 104 142 174 221 285 351 405
#     4   9  18  37  66 100 136 173 221 271 348 409
#     4  12  30  50  69  98 140 185 237 291 336 405
#     4  10  24  47  75 103 133 186 233 275 354 410
#     4  12  23  40  67 104 142 179 223 288 349 405
#     4  11  23  47  75  98 139 185 232 285 333 417
#
# _framework density 22.788332
#
# number of rings (size 3 to 8) (size 9 to 14) (size 15 to 20)
#    0.000    1.250    3.750    2.250    3.500    2.500 
#    2.250    0.000    0.000    0.000    0.000    0.000 
#    0.000    0.000    0.000    0.000    0.000    0.000 
#
# Total GULP energy -89401.036146 kJ/mol
# GULP energy per Si atom -5587.564759 kJ/mol
# Density = 2.273647 g / cm^3
# Si number density = 22.788332 Si / 1000 Ang^3
#
#
#
# Elastic Constant Matrix: (Units=GPa)
#
#
# Indices 1 2 3 4 5 6 
#
# 1 130.6188 -0.6109 29.0927 10.8267 1.5585 14.5543
# 2 -0.6109 25.9456 -3.1352 -3.8981 8.0041 5.5385
# 3 29.0927 -3.1352 110.8773 11.5960 -10.5535 3.0293
# 4 10.8267 -3.8981 11.5960 26.0838 3.2402 10.6632
# 5 1.5585 8.0041 -10.5535 3.2402 30.7163 7.9458
# 6 14.5543 5.5385 3.0293 10.6632 7.9458 38.0386
#
#
#
# Elastic Compliance Matrix: (Units=1/GPa)
#
#
# Indices 1 2 3 4 5 6 
#
# 1 0.008535 0.000438 -0.002044 -0.001421 -0.000405 -0.002684
# 2 0.000438 0.045293 -0.000916 0.011488 -0.011404 -0.007528
# 3 -0.002044 -0.000916 0.010410 -0.004651 0.004281 0.000496
# 4 -0.001421 0.011488 -0.004651 0.048866 -0.006273 -0.013146
# 5 -0.000405 -0.011404 0.004281 -0.006273 0.038949 -0.004903
# 6 -0.002684 -0.007528 0.000496 -0.013146 -0.004903 0.033082
#
#
# Mechanical properties :
#
#
# Convention : Reuss Voigt Hill
#
# Bulk Modulus (GPa) = 16.89317 35.34834 26.12075
# Shear Modulus (GPa) = 23.82004 35.10743 29.46373
#
# Velocity S-wave (km/s) = 3.23658 3.92929 3.59964
# Velocity P-wave (km/s) = 4.62562 6.01091 5.36318
#
# Compressibility (1/GPa) = 0.05919554
#
# Stress axis : x y z
#
# Youngs Moduli (GPa) = 117.16811 22.07863 96.06466
#
# Poissons Ratio (x) = -0.00968 0.19632
# Poissons Ratio (y) = -0.05136 0.08795
# Poissons Ratio (z) = 0.23945 0.02021
#
# Static dielectric constant tensor:
#      x y z
#    x 1.895110 0.019890 -0.000110 
#    y 0.019890 1.906470 -0.024150 
#    z -0.000110 -0.024150 1.878970 
# 
# From -- ./inp_files/515843.got.cif
#   From: 2010.05.17/outbox.cif.g08.bks.cpg/sg2_258_cif.got.tgz:515843.got - 2010.06.03 11:33:40.
