data_PCOD9049176
_publ_section_title
;
Structure prediction by ZEFSAII (Michael W. Deem and Ramdas Pophale) SiO2 
 PCOD9049176
Probable space group: P -1
;
_chemical_formula_sum "Si O2"
_cell_formula_units_Z 16
_cell_length_a 14.519879
_cell_length_b 13.123923
_cell_length_c 5.364596
_cell_angle_alpha 69.139816
_cell_angle_beta 105.127594
_cell_angle_gamma 133.896110
_cell_volume 688.206929
_symmetry_space_group_name_H-M "P -1"
_symmetry_group_IT_number 2
_symmetry_cell_setting 'triclinic'
loop_
_space_group_symop_operation_xyz
x,y,z
-x,-y,-z
loop_
_atom_site_type_symbol
_atom_site_label
_atom_site_fract_x
_atom_site_fract_y
_atom_site_fract_z
Si Si1 0.090467 0.632398 0.654360
Si Si2 0.056546 0.960041 0.373335
Si Si3 0.796614 0.785030 0.148907
Si Si4 0.519785 0.184908 0.491398
Si Si5 0.723327 0.506589 0.254369
Si Si6 0.323395 0.898922 0.267185
Si Si7 0.146178 0.470987 0.158411
Si Si8 0.715619 0.934686 0.268777
O O1 0.203260 0.772500 0.458073
O O2 0.000000 0.500000 0.500000
O O3 0.997426 0.638679 0.741506
O O4 0.152669 0.596778 0.930287
O O5 0.923034 0.813013 0.304418
O O6 0.164378 0.964534 0.549858
O O7 0.000000 0.000000 0.500000
O O8 0.137681 0.096447 0.125624
O O9 0.696198 0.614278 0.170244
O O10 0.741106 0.838486 0.235218
O O11 0.605254 0.335973 0.269232
O O12 0.607153 0.160594 0.711527
O O13 0.423318 0.174349 0.611986
O O14 0.427171 0.045531 0.370029
O O15 0.771492 0.496683 0.566751
O O16 0.817235 0.571289 0.023309
O O17 0.280567 0.952641 0.986194
#
# Coordination Sequence:
#
# PCOD9049176 Si02
#       8
#     2   2   2   2   2   2   2   2
#     4  11  23  46  72 110 149 187 248 305 379 443
#     4   9  21  44  69 102 142 184 238 302 368 436
#     4  10  24  46  70 105 143 190 242 303 374 434
#     4  11  26  47  70 103 143 201 243 306 360 441
#     4  12  27  47  76 103 152 193 248 301 370 434
#     4  11  25  47  70 107 145 195 243 306 368 437
#     4  11  25  45  72 111 143 191 239 309 373 438
#     4  11  24  44  73 105 142 191 251 298 366 439
#
# _framework density 23.248819000000001
#
# number of rings (size 3 to 8) (size 9 to 14) (size 15 to 20)
#    0.000    1.250    2.500    1.125    5.250    8.500 
#    4.500    2.500    0.000    0.000    0.000    0.000 
#    0.000    0.000    0.000    0.000    0.000    0.000 
#
# Total GULP energy -89343.832507 kJ/mol
# GULP energy per Si atom -5583.989532 kJ/mol
# Density = 2.319590 g / cm^3
# Si number density = 23.248819 Si / 1000 Ang^3
#
#
#
# Elastic Constant Matrix: (Units=GPa)
#
#
# Indices 1 2 3 4 5 6 
#
# 1 168.4370 43.8155 59.3537 -12.3416 -10.6371 6.3056
# 2 43.8155 113.4279 26.4480 -19.4064 2.0300 -6.8960
# 3 59.3537 26.4480 69.2492 12.7610 -5.9129 11.3684
# 4 -12.3416 -19.4064 12.7610 27.7753 2.1388 2.6522
# 5 -10.6371 2.0300 -5.9129 2.1388 38.5122 2.2861
# 6 6.3056 -6.8960 11.3684 2.6522 2.2861 26.9599
#
#
#
# Elastic Compliance Matrix: (Units=1/GPa)
#
#
# Indices 1 2 3 4 5 6 
#
# 1 0.010446 0.000257 -0.010999 0.009711 0.000569 0.001257
# 2 0.000257 0.013608 -0.009201 0.013498 -0.003179 0.006242
# 3 -0.010999 -0.009201 0.034691 -0.026469 0.004969 -0.012227
# 4 0.009711 0.013498 -0.026469 0.061719 -0.005923 0.006773
# 5 0.000569 -0.003179 0.004969 -0.005923 0.027668 -0.004805
# 6 0.001257 0.006242 -0.012227 0.006773 -0.004805 0.043292
#
#
# Mechanical properties :
#
#
# Convention : Reuss Voigt Hill
#
# Bulk Modulus (GPa) = 53.02380 67.81650 60.42015
# Shear Modulus (GPa) = 21.04405 33.41594 27.23000
#
# Velocity S-wave (km/s) = 3.01186 3.79531 3.42605
# Velocity P-wave (km/s) = 5.91200 6.95982 6.45719
#
# Compressibility (1/GPa) = 0.01885945
#
# Stress axis : x y z
#
# Youngs Moduli (GPa) = 95.72807 73.48537 28.82583
#
# Poissons Ratio (x) = -0.01888 0.31705
# Poissons Ratio (y) = -0.02460 0.26523
# Poissons Ratio (z) = 1.05290 0.67615
#
# Static dielectric constant tensor:
#      x y z
#    x 1.745160 0.034090 -0.031490 
#    y 0.034090 1.955520 0.084770 
#    z -0.031490 0.084770 1.890890 
# 
# From -- ./inp_files/97604.got.cif
#   From: 2010.05.17/outbox.cif.g08.bks.cpg/sg2_49_cif.got.tgz:97604.got - 2010.06.03 11:33:40.
