data_PCOD9049078
_publ_section_title
;
Structure prediction by ZEFSAII (Michael W. Deem and Ramdas Pophale) SiO2 
 PCOD9049078
Probable space group: P -1
;
_chemical_formula_sum "Si O2"
_cell_formula_units_Z 15
_cell_length_a 15.868928
_cell_length_b 9.447567
_cell_length_c 11.139214
_cell_angle_alpha 81.580449
_cell_angle_beta 39.868743
_cell_angle_gamma 51.355289
_cell_volume 624.541527
_symmetry_space_group_name_H-M "P -1"
_symmetry_group_IT_number 2
_symmetry_cell_setting 'triclinic'
loop_
_space_group_symop_operation_xyz
x,y,z
-x,-y,-z
loop_
_atom_site_type_symbol
_atom_site_label
_atom_site_fract_x
_atom_site_fract_y
_atom_site_fract_z
Si Si1 0.590436 0.532125 0.300391
Si Si2 0.348536 0.032757 0.517911
Si Si3 0.557061 0.228132 0.027015
Si Si4 0.006231 0.822854 0.255695
Si Si5 0.253002 0.167108 0.985353
Si Si6 0.000000 0.500000 0.000000
Si Si7 0.204898 0.406900 0.233739
Si Si8 0.308319 0.698941 0.354655
O O1 0.500000 0.500000 0.500000
O O2 0.474798 0.599786 0.291429
O O3 0.521222 0.750976 0.394238
O O4 0.848165 0.295705 0.010288
O O5 0.202694 0.095338 0.560690
O O6 0.507323 0.025868 0.316488
O O7 0.178991 0.228442 0.780706
O O8 0.410391 0.236784 0.119755
O O9 0.384358 0.474528 0.262517
O O10 0.742594 0.987988 0.933957
O O11 0.659884 0.234339 0.808251
O O12 0.132900 0.630502 0.247856
O O13 0.924644 0.047621 0.363929
O O14 0.262593 0.281389 0.061806
O O15 0.052010 0.385953 0.091866
O O16 0.000000 0.500000 0.500000
#
# Coordination Sequence:
#
# PCOD9049078 Si02
#       8
#     2   2   2   2   2   1   2   2
#     4  11  24  45  72 100 143 192 241 300 360 424
#     4  11  23  46  71 101 144 179 241 304 356 430
#     4  11  24  45  72 104 150 189 234 304 357 425
#     4  11  21  45  71 101 140 190 238 293 357 428
#     4  12  25  46  71 105 144 188 238 298 369 429
#     4  12  26  44  70 104 140 182 236 298 362 432
#     4  12  22  42  72 106 140 191 241 283 364 435
#     4  10  24  46  68 106 147 186 242 300 352 429
#
# _framework density 24.017617000000001
#
# number of rings (size 3 to 8) (size 9 to 14) (size 15 to 20)
#    0.000    0.800    4.000    3.200    1.867    2.667 
#    4.800    0.000    0.000    0.000    0.000    0.000 
#    0.000    0.000    0.000    0.000    0.000    0.000 
#
# Total GULP energy -83672.913650 kJ/mol
# GULP energy per Si atom -5578.194243 kJ/mol
# Density = 2.396295 g / cm^3
# Si number density = 24.017617 Si / 1000 Ang^3
#
#
#
# Elastic Constant Matrix: (Units=GPa)
#
#
# Indices 1 2 3 4 5 6 
#
# 1 70.1158 26.5856 15.0756 6.0520 18.1583 -10.8999
# 2 26.5856 102.1967 30.1280 9.1568 7.0089 -20.4228
# 3 15.0756 30.1280 103.8186 18.8392 21.8712 5.4537
# 4 6.0520 9.1568 18.8392 41.5732 17.8469 4.6363
# 5 18.1583 7.0089 21.8712 17.8469 37.4218 11.1638
# 6 -10.8999 -20.4228 5.4537 4.6363 11.1638 28.2982
#
#
#
# Elastic Compliance Matrix: (Units=1/GPa)
#
#
# Indices 1 2 3 4 5 6 
#
# 1 0.020279 -0.002138 -0.000464 0.002330 -0.013672 0.011370
# 2 -0.002138 0.013846 -0.003591 -0.001464 -0.002009 0.010893
# 3 -0.000464 -0.003591 0.012236 -0.002581 -0.004101 -0.003088
# 4 0.002330 -0.001464 -0.002581 0.031364 -0.014591 0.000957
# 5 -0.013672 -0.002009 -0.004101 -0.014591 0.050031 -0.023272
# 6 0.011370 0.010893 -0.003088 0.000957 -0.023272 0.057199
#
#
# Mechanical properties :
#
#
# Convention : Reuss Voigt Hill
#
# Bulk Modulus (GPa) = 29.43313 46.63439 38.03376
# Shear Modulus (GPa) = 23.96171 35.08143 29.52157
#
# Velocity S-wave (km/s) = 3.16202 3.82600 3.50975
# Velocity P-wave (km/s) = 5.06089 6.24312 5.68283
#
# Compressibility (1/GPa) = 0.03397532
#
# Stress axis : x y z
#
# Youngs Moduli (GPa) = 49.31094 72.22503 81.72340
#
# Poissons Ratio (x) = 0.15439 0.03795
# Poissons Ratio (y) = 0.10541 0.29347
# Poissons Ratio (z) = 0.02290 0.25936
#
# Static dielectric constant tensor:
#      x y z
#    x 2.091230 0.012740 -0.025440 
#    y 0.012740 1.933450 0.018390 
#    z -0.025440 0.018390 2.047440 
# 
# From -- ./inp_files/66679.got.cif
#   From: 2010.05.17/outbox.cif.g08.bks.cpg/sg2_34_cif.got.tgz:66679.got - 2010.06.03 11:33:40.
