data_PCOD9049921
_publ_section_title
;
Structure prediction by ZEFSAII (Michael W. Deem and Ramdas Pophale) SiO2 
 PCOD9049921
Probable space group: P -1
;
_chemical_formula_sum "Si O2"
_cell_formula_units_Z 16
_cell_length_a 10.880563
_cell_length_b 7.447913
_cell_length_c 11.013334
_cell_angle_alpha 106.667832
_cell_angle_beta 53.152624
_cell_angle_gamma 108.135989
_cell_volume 672.811262
_symmetry_space_group_name_H-M "P -1"
_symmetry_group_IT_number 2
_symmetry_cell_setting 'triclinic'
loop_
_space_group_symop_operation_xyz
x,y,z
-x,-y,-z
loop_
_atom_site_type_symbol
_atom_site_label
_atom_site_fract_x
_atom_site_fract_y
_atom_site_fract_z
Si Si1 0.273731 0.508256 0.856902
Si Si2 0.070654 0.499615 0.323305
Si Si3 0.340318 0.732463 0.092725
Si Si4 0.401101 0.465048 0.429792
Si Si5 0.882368 0.801039 0.526993
Si Si6 0.191993 0.712494 0.703557
Si Si7 0.300323 0.142994 0.126776
Si Si8 0.182114 0.080232 0.909560
O O1 0.461386 0.524717 0.744621
O O2 0.205723 0.586549 0.791164
O O3 0.209656 0.289194 0.877221
O O4 0.250515 0.641657 0.008342
O O5 0.252013 0.591752 0.219480
O O6 0.000000 0.500000 0.500000
O O7 0.985211 0.675677 0.365862
O O8 0.981749 0.330152 0.258102
O O9 0.319166 0.951881 0.152753
O O10 0.525196 0.740310 0.974322
O O11 0.500000 0.500000 0.500000
O O12 0.285217 0.261579 0.451797
O O13 0.298509 0.631541 0.523621
O O14 0.819879 0.764220 0.698693
O O15 0.000000 0.000000 0.500000
O O16 0.249996 0.927986 0.755277
O O17 0.242115 0.090104 0.014567
O O18 0.000000 0.000000 0.000000
#
# Coordination Sequence:
#
# PCOD9049921 Si02
#       8
#     2   2   2   2   2   2   2   2
#     4  11  23  44  74 102 139 193 235 295 370 420
#     4  11  26  44  68 100 139 189 230 294 362 426
#     4  11  23  44  72 101 144 189 233 299 360 424
#     4   9  21  42  71 100 139 189 236 291 365 431
#     4  11  22  42  68 101 139 183 238 290 352 434
#     4  10  24  48  68 102 148 177 241 299 356 438
#     4  11  25  43  70 105 141 184 242 297 359 434
#     4  12  28  42  70 107 138 185 244 299 359 436
#
# _framework density 23.780813999999999
#
# number of rings (size 3 to 8) (size 9 to 14) (size 15 to 20)
#    0.000    1.250    3.750    0.750    5.250    5.000 
#    0.000    0.000    0.000    0.000    0.000    0.000 
#    0.000    0.000    0.000    0.000    0.000    0.000 
#
# Total GULP energy -89266.448886 kJ/mol
# GULP energy per Si atom -5579.153055 kJ/mol
# Density = 2.372669 g / cm^3
# Si number density = 23.780814 Si / 1000 Ang^3
#
#
#
# Elastic Constant Matrix: (Units=GPa)
#
#
# Indices 1 2 3 4 5 6 
#
# 1 84.0521 32.2342 20.6238 -6.6921 12.3475 34.8266
# 2 32.2342 121.4216 38.8824 -13.8676 10.9331 32.4769
# 3 20.6238 38.8824 119.1207 -2.0171 -2.7997 12.5938
# 4 -6.6921 -13.8676 -2.0171 57.6415 10.1212 -4.2198
# 5 12.3475 10.9331 -2.7997 10.1212 32.9364 4.0562
# 6 34.8266 32.4769 12.5938 -4.2198 4.0562 44.1902
#
#
#
# Elastic Compliance Matrix: (Units=1/GPa)
#
#
# Indices 1 2 3 4 5 6 
#
# 1 0.019206 0.000075 -0.002001 0.002290 -0.006397 -0.013815
# 2 0.000075 0.011889 -0.003181 0.002980 -0.004272 -0.007213
# 3 -0.002001 -0.003181 0.009747 -0.001106 0.002880 0.000767
# 4 0.002290 0.002980 -0.001106 0.019587 -0.007826 -0.001090
# 5 -0.006397 -0.004272 0.002880 -0.007826 0.036425 0.003270
# 6 -0.013815 -0.007213 0.000767 -0.001090 0.003270 0.038196
#
#
# Mechanical properties :
#
#
# Convention : Reuss Voigt Hill
#
# Bulk Modulus (GPa) = 32.64925 56.45279 44.55102
# Shear Modulus (GPa) = 32.15988 42.47723 37.31855
#
# Velocity S-wave (km/s) = 3.68141 4.23093 3.96570
# Velocity P-wave (km/s) = 5.64176 6.90348 6.30426
#
# Compressibility (1/GPa) = 0.03062857
#
# Stress axis : x y z
#
# Youngs Moduli (GPa) = 52.06722 84.11212 102.59115
#
# Poissons Ratio (x) = -0.00628 0.20524
# Poissons Ratio (y) = -0.00389 0.32634
# Poissons Ratio (z) = 0.10416 0.26756
#
# Static dielectric constant tensor:
#      x y z
#    x 2.212050 -0.322270 0.006870 
#    y -0.322270 2.293680 -0.052170 
#    z 0.006870 -0.052170 2.033720 
# 
# From -- ./inp_files/419699.got.cif
#   From: 2010.05.17/outbox.cif.g08.bks.cpg/sg2_210_cif.got.tgz:419699.got - 2010.06.03 11:33:40.
