data_PCOD9049728
_publ_section_title
;
Structure prediction by ZEFSAII (Michael W. Deem and Ramdas Pophale) SiO2 
 PCOD9049728
Probable space group: P -1
;
_chemical_formula_sum "Si O2"
_cell_formula_units_Z 16
_cell_length_a 5.470826
_cell_length_b 11.322268
_cell_length_c 20.576003
_cell_angle_alpha 42.987732
_cell_angle_beta 124.154813
_cell_angle_gamma 107.210447
_cell_volume 704.093439
_symmetry_space_group_name_H-M "P -1"
_symmetry_group_IT_number 2
_symmetry_cell_setting 'triclinic'
loop_
_space_group_symop_operation_xyz
x,y,z
-x,-y,-z
loop_
_atom_site_type_symbol
_atom_site_label
_atom_site_fract_x
_atom_site_fract_y
_atom_site_fract_z
Si Si1 0.737518 0.524330 0.337417
Si Si2 0.495156 0.188883 0.733642
Si Si3 0.899665 0.232644 0.248134
Si Si4 0.328727 0.051265 0.023517
Si Si5 0.728577 0.556018 0.175217
Si Si6 0.759819 0.629629 0.869245
Si Si7 0.921617 0.158344 0.570161
Si Si8 0.265343 0.686515 0.394859
O O1 0.450794 0.636570 0.286366
O O2 0.780710 0.576565 0.250137
O O3 0.818640 0.315692 0.441069
O O4 0.961309 0.611259 0.380438
O O5 0.757891 0.183237 0.721960
O O6 0.235605 0.170367 0.648454
O O7 0.500858 0.045815 0.848666
O O8 0.945063 0.390421 0.239446
O O9 0.532340 0.261447 0.179127
O O10 0.060973 0.257684 0.194369
O O11 0.040961 0.037231 0.372290
O O12 0.286720 0.262249 0.937394
O O13 0.500000 0.000000 0.000000
O O14 0.000000 0.000000 0.000000
O O15 0.405990 0.496127 0.148342
O O16 0.000000 0.500000 0.000000
O O17 0.689517 0.211155 0.574182
O O18 0.500000 0.500000 0.500000
#
# Coordination Sequence:
#
# PCOD9049728 Si02
#       8
#     2   2   2   2   2   2   2   2
#     4  11  21  43  65  99 140 178 232 291 352 419
#     4  11  23  40  66  99 136 179 233 285 355 412
#     4  10  26  45  68 104 136 184 239 283 356 410
#     4  12  27  45  70 104 140 179 229 291 357 419
#     4  10  26  45  71 100 141 185 232 292 356 418
#     4  10  24  47  72  96 140 187 239 285 348 409
#     4  11  24  40  66 101 140 180 237 286 346 422
#     4  11  20  38  67 100 136 187 227 292 351 411
#
# _framework density 22.724257000000001
#
# number of rings (size 3 to 8) (size 9 to 14) (size 15 to 20)
#    0.750    0.500    3.750    1.875    7.000    1.500 
#    0.000    0.625    0.000    0.000    0.000    0.000 
#    0.000    0.000    0.000    0.000    0.000    0.000 
#
# Total GULP energy -89101.233983 kJ/mol
# GULP energy per Si atom -5568.827124 kJ/mol
# Density = 2.267254 g / cm^3
# Si number density = 22.724257 Si / 1000 Ang^3
#
#
#
# Elastic Constant Matrix: (Units=GPa)
#
#
# Indices 1 2 3 4 5 6 
#
# 1 91.5582 4.5445 8.8146 -6.6777 -21.0319 0.2792
# 2 4.5445 51.9151 15.4657 -28.7720 9.6314 -12.5253
# 3 8.8146 15.4657 110.0191 -24.8102 -22.9928 -4.5588
# 4 -6.6777 -28.7720 -24.8102 37.1671 -4.8733 5.0904
# 5 -21.0319 9.6314 -22.9928 -4.8733 26.4188 -5.8777
# 6 0.2792 -12.5253 -4.5588 5.0904 -5.8777 14.1706
#
#
#
# Elastic Compliance Matrix: (Units=1/GPa)
#
#
# Indices 1 2 3 4 5 6 
#
# 1 0.015465 -0.001246 0.004758 0.006749 0.019433 0.005761
# 2 -0.001246 0.042013 0.000693 0.028695 -0.004835 0.025069
# 3 0.004758 0.000693 0.017272 0.014560 0.023621 0.010642
# 4 0.006749 0.028695 0.014560 0.060621 0.022669 0.017540
# 5 0.019433 -0.004835 0.023621 0.022669 0.086665 0.030747
# 6 0.005761 0.025069 0.010642 0.017540 0.030747 0.102490
#
#
# Mechanical properties :
#
#
# Convention : Reuss Voigt Hill
#
# Bulk Modulus (GPa) = 12.02506 34.57133 23.29819
# Shear Modulus (GPa) = 14.54189 30.52914 22.53551
#
# Velocity S-wave (km/s) = 2.53242 3.66930 3.15253
# Velocity P-wave (km/s) = 3.72211 5.76178 4.85037
#
# Compressibility (1/GPa) = 0.08315969
#
# Stress axis : x y z
#
# Youngs Moduli (GPa) = 64.66420 23.80213 57.89842
#
# Poissons Ratio (x) = 0.02966 -0.27549
# Poissons Ratio (y) = 0.08059 -0.04014
# Poissons Ratio (z) = -0.30769 -0.01650
#
# Static dielectric constant tensor:
#      x y z
#    x 1.787500 0.039590 -0.113330 
#    y 0.039590 1.916050 0.014950 
#    z -0.113330 0.014950 1.727380 
# 
# From -- ./inp_files/583269.got.cif
#   From: 2010.05.17/outbox.cif.g08.bks.cpg/sg2_292_cif.got.tgz:583269.got - 2010.06.03 11:33:40.
