data_PCOD9049944
_publ_section_title
;
Structure prediction by ZEFSAII (Michael W. Deem and Ramdas Pophale) SiO2 
 PCOD9049944
Probable space group: P -1
;
_chemical_formula_sum "Si O2"
_cell_formula_units_Z 14
_cell_length_a 18.645162
_cell_length_b 5.755338
_cell_length_c 9.681267
_cell_angle_alpha 63.893407
_cell_angle_beta 37.214997
_cell_angle_gamma 62.297087
_cell_volume 551.553680
_symmetry_space_group_name_H-M "P -1"
_symmetry_group_IT_number 2
_symmetry_cell_setting 'triclinic'
loop_
_space_group_symop_operation_xyz
x,y,z
-x,-y,-z
loop_
_atom_site_type_symbol
_atom_site_label
_atom_site_fract_x
_atom_site_fract_y
_atom_site_fract_z
Si Si1 0.913787 0.842821 0.258627
Si Si2 0.483899 0.735321 0.671898
Si Si3 0.048972 0.888005 0.309076
Si Si4 0.288522 0.689625 0.515516
Si Si5 0.740347 0.521411 0.969488
Si Si6 0.588476 0.078229 0.961735
Si Si7 0.879718 0.602679 0.011776
O O1 0.777787 0.017671 0.403230
O O2 0.945534 0.860293 0.366996
O O3 0.981664 0.548969 0.186243
O O4 0.000000 0.000000 0.000000
O O5 0.592955 0.481379 0.546465
O O6 0.361430 0.651936 0.834164
O O7 0.500000 0.000000 0.500000
O O8 0.475600 0.794773 0.833768
O O9 0.120214 0.090125 0.071446
O O10 0.000000 0.000000 0.500000
O O11 0.146356 0.621559 0.257263
O O12 0.188870 0.510234 0.730142
O O13 0.333749 0.735702 0.280895
O O14 0.677600 0.809834 0.941112
O O15 0.802266 0.537889 0.017515
O O16 0.500000 0.000000 0.000000
#
# Coordination Sequence:
#
# PCOD9049944 Si02
#       7
#     2   2   2   2   2   2   2
#     4   9  23  44  68 101 138 178 227 280 350 402
#     4  12  27  47  72 104 138 184 234 282 345 419
#     4  11  25  42  73 104 136 182 235 285 339 413
#     4  11  24  45  71 100 143 178 229 290 343 403
#     4  11  25  45  71  98 144 181 230 280 348 414
#     4  12  27  44  68 105 143 179 232 285 348 406
#     4  10  24  48  70 103 139 186 233 278 350 414
#
# _framework density 25.382843999999999
#
# number of rings (size 3 to 8) (size 9 to 14) (size 15 to 20)
#    0.000    1.143    1.429    3.000    8.000    4.571 
#    2.571    0.000    0.000    0.000    0.000    0.000 
#    0.000    0.000    0.000    0.000    0.000    0.000 
#
# Total GULP energy -78408.470251 kJ/mol
# GULP energy per Si atom -5600.605018 kJ/mol
# Density = 2.532507 g / cm^3
# Si number density = 25.382844 Si / 1000 Ang^3
#
#
#
# Elastic Constant Matrix: (Units=GPa)
#
#
# Indices 1 2 3 4 5 6 
#
# 1 170.2562 48.0367 50.6330 15.3385 -12.2379 -7.9598
# 2 48.0367 135.4805 53.0468 5.0836 -17.6876 -38.1304
# 3 50.6330 53.0468 150.9545 -5.5506 10.2186 -8.6292
# 4 15.3385 5.0836 -5.5506 60.0624 -6.9740 -17.9969
# 5 -12.2379 -17.6876 10.2186 -6.9740 22.6539 11.2885
# 6 -7.9598 -38.1304 -8.6292 -17.9969 11.2885 45.8789
#
#
#
# Elastic Compliance Matrix: (Units=1/GPa)
#
#
# Indices 1 2 3 4 5 6 
#
# 1 0.007488 -0.001794 -0.002406 -0.002258 0.004328 -0.002594
# 2 -0.001794 0.012833 -0.003790 0.002507 0.007109 0.008876
# 3 -0.002406 -0.003790 0.009420 0.001026 -0.008545 0.000710
# 4 -0.002258 0.002507 0.001026 0.020115 0.001819 0.009327
# 5 0.004328 0.007109 -0.008545 0.001819 0.061059 -0.009258
# 6 -0.002594 0.008876 0.000710 0.009327 -0.009258 0.034793
#
#
# Mechanical properties :
#
#
# Convention : Reuss Voigt Hill
#
# Bulk Modulus (GPa) = 72.65775 84.45825 78.55800
# Shear Modulus (GPa) = 30.07094 46.05070 38.06082
#
# Velocity S-wave (km/s) = 3.44567 4.26402 3.87650
# Velocity P-wave (km/s) = 6.67212 7.58870 7.14512
#
# Compressibility (1/GPa) = 0.01376316
#
# Stress axis : x y z
#
# Youngs Moduli (GPa) = 133.54430 77.92376 106.15788
#
# Poissons Ratio (x) = 0.13976 0.25538
# Poissons Ratio (y) = 0.23952 0.40231
# Poissons Ratio (z) = 0.32126 0.29531
#
# Static dielectric constant tensor:
#      x y z
#    x 1.993620 -0.003760 0.017490 
#    y -0.003760 2.015910 0.011250 
#    z 0.017490 0.011250 2.011810 
# 
# From -- ./inp_files/340228.got.cif
#   From: 2010.05.17/outbox.cif.g08.bks.cpg/sg2_171_cif.got.tgz:340228.got - 2010.06.03 11:33:40.
