data_PCOD9049232
_publ_section_title
;
Structure prediction by ZEFSAII (Michael W. Deem and Ramdas Pophale) SiO2 
 PCOD9049232
Probable space group: P -1
;
_chemical_formula_sum "Si O2"
_cell_formula_units_Z 12
_cell_length_a 14.414201
_cell_length_b 8.723901
_cell_length_c 8.447397
_cell_angle_alpha 132.556710
_cell_angle_beta 46.689369
_cell_angle_gamma 136.221110
_cell_volume 498.998860
_symmetry_space_group_name_H-M "P -1"
_symmetry_group_IT_number 2
_symmetry_cell_setting 'triclinic'
loop_
_space_group_symop_operation_xyz
x,y,z
-x,-y,-z
loop_
_atom_site_type_symbol
_atom_site_label
_atom_site_fract_x
_atom_site_fract_y
_atom_site_fract_z
Si Si1 0.583335 0.422251 0.476784
Si Si2 0.835634 0.290496 0.539829
Si Si3 0.828692 0.402132 0.967398
Si Si4 0.314622 0.114441 0.762264
Si Si5 0.252899 0.373781 0.266655
Si Si6 0.083601 0.865386 0.092513
O O1 0.500000 0.500000 0.500000
O O2 0.701305 0.385907 0.215768
O O3 0.464932 0.194007 0.553838
O O4 0.664973 0.608874 0.653987
O O5 0.762388 0.393773 0.575086
O O6 0.000000 0.500000 0.500000
O O7 0.803892 0.033891 0.337445
O O8 0.773036 0.286303 0.782556
O O9 0.949690 0.680701 0.016307
O O10 0.913685 0.272200 0.851535
O O11 0.324119 0.346276 0.999339
O O12 0.238981 0.940967 0.878209
O O13 0.101080 0.125551 0.277520
#
# Coordination Sequence:
#
# PCOD9049232 Si02
#       6
#     2   2   2   2   2   2
#     4  12  27  45  71 106 143 184 237 291 347 415
#     4  12  24  44  75 105 139 184 233 289 352 415
#     4  11  24  44  71 110 141 176 243 286 347 415
#     4  10  24  46  71 100 143 187 228 276 363 408
#     4  10  25  47  70 100 142 185 235 283 346 421
#     4   9  23  46  71 101 140 183 231 290 345 408
#
# _framework density 24.048152999999999
#
# number of rings (size 3 to 8) (size 9 to 14) (size 15 to 20)
#    1.000    0.333    1.667    2.500    4.667    8.000 
#    0.000    0.000    0.000    0.000    0.000    0.000 
#    0.000    0.000    0.000    0.000    0.000    0.000 
#
# Total GULP energy -66869.253422 kJ/mol
# GULP energy per Si atom -5572.437785 kJ/mol
# Density = 2.399342 g / cm^3
# Si number density = 24.048153 Si / 1000 Ang^3
#
#
#
# Elastic Constant Matrix: (Units=GPa)
#
#
# Indices 1 2 3 4 5 6 
#
# 1 81.8653 -2.7343 26.1788 15.6287 23.4846 -2.9725
# 2 -2.7343 63.2359 27.3497 -20.2163 8.1319 3.5986
# 3 26.1788 27.3497 133.2106 -0.6758 18.7935 5.5552
# 4 15.6287 -20.2163 -0.6758 34.3318 16.0181 -3.0294
# 5 23.4846 8.1319 18.7935 16.0181 29.8270 4.4250
# 6 -2.9725 3.5986 5.5552 -3.0294 4.4250 27.0416
#
#
#
# Elastic Compliance Matrix: (Units=1/GPa)
#
#
# Indices 1 2 3 4 5 6 
#
# 1 0.017119 0.003902 -0.002270 0.001700 -0.014681 0.004422
# 2 0.003902 0.028671 -0.003369 0.026391 -0.023550 0.004116
# 3 -0.002270 -0.003369 0.009151 0.000652 -0.003251 -0.001076
# 4 0.001700 0.026391 0.000652 0.066591 -0.046426 0.011598
# 5 -0.014681 -0.023550 -0.003251 -0.046426 0.080898 -0.016251
# 6 0.004422 0.004116 -0.001076 0.011598 -0.016251 0.041098
#
#
# Mechanical properties :
#
#
# Convention : Reuss Voigt Hill
#
# Bulk Modulus (GPa) = 19.42977 42.21116 30.82047
# Shear Modulus (GPa) = 18.92807 33.40794 26.16801
#
# Velocity S-wave (km/s) = 2.80856 3.73125 3.30229
# Velocity P-wave (km/s) = 4.31444 6.01281 5.23299
#
# Compressibility (1/GPa) = 0.05146741
#
# Stress axis : x y z
#
# Youngs Moduli (GPa) = 58.41490 34.87885 109.27281
#
# Poissons Ratio (x) = -0.13608 0.24803
# Poissons Ratio (y) = -0.22791 0.36809
# Poissons Ratio (z) = 0.13259 0.11749
#
# Static dielectric constant tensor:
#      x y z
#    x 1.918400 0.017880 -0.016330 
#    y 0.017880 1.930320 0.005420 
#    z -0.016330 0.005420 1.972570 
# 
# From -- ./inp_files/296614.got.cif
#   From: 2010.05.17/outbox.cif.g08.bks.cpg/sg2_149_cif.got.tgz:296614.got - 2010.06.03 11:33:40.
