data_PCOD9049131
_publ_section_title
;
Structure prediction by ZEFSAII (Michael W. Deem and Ramdas Pophale) SiO2 
 PCOD9049131
Probable space group: P -1
;
_chemical_formula_sum "Si O2"
_cell_formula_units_Z 16
_cell_length_a 14.411109
_cell_length_b 15.407428
_cell_length_c 14.852090
_cell_angle_alpha 38.993721
_cell_angle_beta 161.014291
_cell_angle_gamma 140.138095
_cell_volume 666.434585
_symmetry_space_group_name_H-M "P -1"
_symmetry_group_IT_number 2
_symmetry_cell_setting 'triclinic'
loop_
_space_group_symop_operation_xyz
x,y,z
-x,-y,-z
loop_
_atom_site_type_symbol
_atom_site_label
_atom_site_fract_x
_atom_site_fract_y
_atom_site_fract_z
Si Si1 0.125124 0.020847 0.831504
Si Si2 0.753405 0.416548 0.779044
Si Si3 0.492014 0.023987 0.626732
Si Si4 0.261808 0.869381 0.914707
Si Si5 0.438763 0.198557 0.269364
Si Si6 0.629212 0.276009 0.041089
Si Si7 0.982414 0.379332 0.653707
Si Si8 0.831593 0.528214 0.567599
O O1 0.814797 0.048574 0.556489
O O2 0.064371 0.940753 0.744552
O O3 0.279501 0.934232 0.117249
O O4 0.375283 0.156024 0.940388
O O5 0.500000 0.500000 0.500000
O O6 0.846945 0.438796 0.743775
O O7 0.657505 0.256719 0.849400
O O8 0.000000 0.500000 0.000000
O O9 0.639516 0.923797 0.776462
O O10 0.404128 0.141902 0.384843
O O11 0.190925 0.791379 0.817445
O O12 0.500000 0.000000 0.000000
O O13 0.779333 0.246921 0.533028
O O14 0.274325 0.327062 0.993739
O O15 0.875909 0.357805 0.264691
O O16 0.443194 0.391846 0.741703
O O17 0.822470 0.431088 0.551211
O O18 0.000000 0.500000 0.500000
#
# Coordination Sequence:
#
# PCOD9049131 Si02
#       8
#     2   2   2   2   2   2   2   2
#     4  11  25  42  74 101 137 183 239 285 349 417
#     4  12  24  45  71 103 142 192 234 289 356 427
#     4  11  25  46  72 100 133 187 227 300 352 422
#     4  10  24  46  69 106 145 184 233 294 345 418
#     4  11  26  48  69 100 141 172 238 291 365 418
#     4  11  24  45  68 102 142 183 231 283 349 422
#     4  12  28  46  72 103 140 183 234 301 352 424
#     4  12  25  44  71 102 138 188 237 282 356 428
#
# _framework density 24.008355999999999
#
# number of rings (size 3 to 8) (size 9 to 14) (size 15 to 20)
#    0.000    0.750    2.500    3.375    8.750    4.000 
#    0.000    5.625    0.000    0.000    0.000    0.000 
#    0.000    0.000    0.000    0.000    0.000    0.000 
#
# Total GULP energy -89445.044569 kJ/mol
# GULP energy per Si atom -5590.315286 kJ/mol
# Density = 2.395371 g / cm^3
# Si number density = 24.008356 Si / 1000 Ang^3
#
#
#
# Elastic Constant Matrix: (Units=GPa)
#
#
# Indices 1 2 3 4 5 6 
#
# 1 108.9098 25.5530 30.2193 -20.7710 -8.5773 2.8438
# 2 25.5530 87.3577 24.9595 -16.7237 1.3366 5.1922
# 3 30.2193 24.9595 119.4604 -2.7513 -1.9890 3.7468
# 4 -20.7710 -16.7237 -2.7513 34.9249 10.3624 -7.1085
# 5 -8.5773 1.3366 -1.9890 10.3624 24.5250 1.1680
# 6 2.8438 5.1922 3.7468 -7.1085 1.1680 42.6289
#
#
#
# Elastic Compliance Matrix: (Units=1/GPa)
#
#
# Indices 1 2 3 4 5 6 
#
# 1 0.011381 -0.001659 -0.002397 0.005428 0.001558 0.000516
# 2 -0.001659 0.014002 -0.002418 0.006811 -0.004411 -0.000126
# 3 -0.002397 -0.002418 0.009472 -0.002320 0.001080 -0.000794
# 4 0.005428 0.006811 -0.002320 0.041063 -0.016312 0.006307
# 5 0.001558 -0.004411 0.001080 -0.016312 0.048717 -0.003716
# 6 0.000516 -0.000126 -0.000794 0.006307 -0.003716 0.024662
#
#
# Mechanical properties :
#
#
# Convention : Reuss Voigt Hill
#
# Bulk Modulus (GPa) = 45.65219 53.02127 49.33673
# Shear Modulus (GPa) = 29.48982 36.08218 32.78600
#
# Velocity S-wave (km/s) = 3.50853 3.88093 3.69942
# Velocity P-wave (km/s) = 5.95563 6.49728 6.23234
#
# Compressibility (1/GPa) = 0.02190475
#
# Stress axis : x y z
#
# Youngs Moduli (GPa) = 87.86643 71.41620 105.57185
#
# Poissons Ratio (x) = 0.11851 0.25311
# Poissons Ratio (y) = 0.14581 0.25532
# Poissons Ratio (z) = 0.21066 0.17272
#
# Static dielectric constant tensor:
#      x y z
#    x 1.928030 0.046250 -0.042600 
#    y 0.046250 1.919790 -0.032230 
#    z -0.042600 -0.032230 1.854000 
# 
# From -- ./inp_files/534299.got.cif
#   From: 2010.05.17/outbox.cif.g08.bks.cpg/sg2_268_cif.got.tgz:534299.got - 2010.06.03 11:33:40.
