data_PCOD9049206
_publ_section_title
;
Structure prediction by ZEFSAII (Michael W. Deem and Ramdas Pophale) SiO2 
 PCOD9049206
Probable space group: P -1
;
_chemical_formula_sum "Si O2"
_cell_formula_units_Z 14
_cell_length_a 14.460763
_cell_length_b 11.989351
_cell_length_c 11.554905
_cell_angle_alpha 39.957754
_cell_angle_beta 30.708130
_cell_angle_gamma 52.056995
_cell_volume 651.031187
_symmetry_space_group_name_H-M "P -1"
_symmetry_group_IT_number 2
_symmetry_cell_setting 'triclinic'
loop_
_space_group_symop_operation_xyz
x,y,z
-x,-y,-z
loop_
_atom_site_type_symbol
_atom_site_label
_atom_site_fract_x
_atom_site_fract_y
_atom_site_fract_z
Si Si1 0.889931 0.889130 0.808906
Si Si2 0.513482 0.746277 0.739795
Si Si3 0.455629 0.932630 0.970995
Si Si4 0.199335 0.832725 0.680323
Si Si5 0.698020 0.529163 0.201606
Si Si6 0.807760 0.085055 0.126536
Si Si7 0.533901 0.580943 0.096111
O O1 0.018397 0.893706 0.776864
O O2 0.821671 0.692094 0.997041
O O3 0.000000 0.000000 0.500000
O O4 0.713859 0.977806 0.957959
O O5 0.302850 0.793516 0.937565
O O6 0.534871 0.617665 0.709871
O O7 0.655381 0.917341 0.431572
O O8 0.576609 0.661305 0.858379
O O9 0.634004 0.014794 0.643911
O O10 0.416146 0.723650 0.164720
O O11 0.500000 0.000000 0.000000
O O12 0.229616 0.656761 0.721275
O O13 0.186404 0.800100 0.855102
O O14 0.500000 0.500000 0.500000
O O15 0.676408 0.573323 0.053446
O O16 0.000000 0.000000 0.000000
#
# Coordination Sequence:
#
# PCOD9049206 Si02
#       7
#     2   2   2   2   2   2   2
#     4  12  26  42  68 102 138 182 227 275 346 413
#     4  10  24  46  70  94 133 181 231 286 338 398
#     4  12  22  44  69  97 140 180 223 282 347 411
#     4  12  24  44  68  98 139 180 227 290 341 412
#     4  12  24  44  71 102 144 181 226 281 350 420
#     4  11  25  45  69  98 131 177 238 288 343 397
#     4  11  22  43  72  96 134 184 226 275 344 408
#
# _framework density 21.504344
#
# number of rings (size 3 to 8) (size 9 to 14) (size 15 to 20)
#    0.000    0.571    7.143    0.429    2.000    1.143 
#    2.571    2.857    0.000    0.000    0.000    0.000 
#    0.000    0.000    0.000    0.000    0.000    0.000 
#
# Total GULP energy -78021.020767 kJ/mol
# GULP energy per Si atom -5572.930055 kJ/mol
# Density = 2.145540 g / cm^3
# Si number density = 21.504344 Si / 1000 Ang^3
#
#
#
# Elastic Constant Matrix: (Units=GPa)
#
#
# Indices 1 2 3 4 5 6 
#
# 1 99.2715 21.1791 26.6136 11.6432 -13.0838 -20.8251
# 2 21.1791 128.2325 11.8278 -2.6038 -30.1132 2.4274
# 3 26.6136 11.8278 53.5921 -3.6571 -23.7110 -4.2491
# 4 11.6432 -2.6038 -3.6571 26.8249 -4.3370 -6.5830
# 5 -13.0838 -30.1132 -23.7110 -4.3370 32.3816 5.6327
# 6 -20.8251 2.4274 -4.2491 -6.5830 5.6327 47.2246
#
#
#
# Elastic Compliance Matrix: (Units=1/GPa)
#
#
# Indices 1 2 3 4 5 6 
#
# 1 0.014404 -0.003112 -0.009023 -0.007379 -0.005599 0.005339
# 2 -0.003112 0.011345 0.005588 0.004944 0.014479 -0.002491
# 3 -0.009023 0.005588 0.035970 0.013571 0.030183 -0.002738
# 4 -0.007379 0.004944 0.013571 0.046128 0.017371 0.002071
# 5 -0.005599 0.014479 0.030183 0.017371 0.067580 -0.006137
# 6 0.005339 -0.002491 -0.002738 0.002071 -0.006137 0.024432
#
#
# Mechanical properties :
#
#
# Convention : Reuss Voigt Hill
#
# Bulk Modulus (GPa) = 20.56628 44.48192 32.52410
# Shear Modulus (GPa) = 21.81855 36.05126 28.93491
#
# Velocity S-wave (km/s) = 3.18875 4.09891 3.67214
# Velocity P-wave (km/s) = 4.81062 6.56745 5.75645
#
# Compressibility (1/GPa) = 0.04862329
#
# Stress axis : x y z
#
# Youngs Moduli (GPa) = 69.42472 88.14653 27.80080
#
# Poissons Ratio (x) = 0.27434 0.25086
# Poissons Ratio (y) = 0.21607 -0.15535
# Poissons Ratio (z) = 0.62645 -0.49255
#
# Static dielectric constant tensor:
#      x y z
#    x 1.576530 -0.023570 0.044180 
#    y -0.023570 1.840940 0.019530 
#    z 0.044180 0.019530 1.756880 
# 
# From -- ./inp_files/272586.got.cif
#   From: 2010.05.17/outbox.cif.g08.bks.cpg/sg2_137_cif.got.tgz:272586.got - 2010.06.03 11:33:40.
