data_PCOD9049106
_publ_section_title
;
Structure prediction by ZEFSAII (Michael W. Deem and Ramdas Pophale) SiO2 
 PCOD9049106
Probable space group: P -1
;
_chemical_formula_sum "Si O2"
_cell_formula_units_Z 15
_cell_length_a 12.297476
_cell_length_b 11.117952
_cell_length_c 8.645460
_cell_angle_alpha 104.222471
_cell_angle_beta 33.964320
_cell_angle_gamma 111.662375
_cell_volume 609.557964
_symmetry_space_group_name_H-M "P -1"
_symmetry_group_IT_number 2
_symmetry_cell_setting 'triclinic'
loop_
_space_group_symop_operation_xyz
x,y,z
-x,-y,-z
loop_
_atom_site_type_symbol
_atom_site_label
_atom_site_fract_x
_atom_site_fract_y
_atom_site_fract_z
Si Si1 0.759743 0.916215 0.757523
Si Si2 0.019001 0.434712 0.789269
Si Si3 0.441821 0.521736 0.398553
Si Si4 0.946376 0.129944 0.149894
Si Si5 0.000000 0.500000 0.500000
Si Si6 0.574173 0.958598 0.691734
Si Si7 0.687898 0.241354 0.267313
Si Si8 0.211827 0.311502 0.133905
O O1 0.665334 0.883650 0.687770
O O2 0.724069 0.788389 0.863226
O O3 0.000000 0.000000 0.500000
O O4 0.624462 0.004118 0.009476
O O5 0.239360 0.413104 0.543964
O O6 0.026126 0.527836 0.665926
O O7 0.000000 0.500000 0.000000
O O8 0.807879 0.317789 0.000628
O O9 0.500000 0.500000 0.500000
O O10 0.385502 0.657400 0.512315
O O11 0.621043 0.552172 0.070532
O O12 0.855441 0.189179 0.135093
O O13 0.132230 0.233218 0.046377
O O14 0.759413 0.086837 0.478140
O O15 0.000000 0.000000 0.000000
O O16 0.958127 0.639959 0.564507
O O17 0.506452 0.874284 0.591736
#
# Coordination Sequence:
#
# PCOD9049106 Si02
#       8
#     2   2   2   2   1   2   2   2
#     4  11  25  47  69 102 147 193 243 318 381 450
#     4  10  24  46  69 100 145 191 250 312 374 445
#     4  11  23  45  68 102 142 195 253 310 382 452
#     4  12  24  43  72 106 147 195 248 311 386 459
#     4  12  28  44  74 106 144 204 256 302 390 446
#     4  11  25  43  71 105 140 188 252 303 388 456
#     4  11  23  41  71  99 140 189 243 314 377 445
#     4  12  25  44  73 103 152 193 255 315 377 462
#
# _framework density 24.607994000000001
#
# number of rings (size 3 to 8) (size 9 to 14) (size 15 to 20)
#    0.000    0.800    1.333    6.800    1.867    2.667 
#    0.000    0.000    0.000    0.000    0.000    0.000 
#    0.000    0.000    0.000    0.000    0.000    0.000 
#
# Total GULP energy -83668.621307 kJ/mol
# GULP energy per Si atom -5577.908087 kJ/mol
# Density = 2.455199 g / cm^3
# Si number density = 24.607994 Si / 1000 Ang^3
#
#
#
# Elastic Constant Matrix: (Units=GPa)
#
#
# Indices 1 2 3 4 5 6 
#
# 1 114.7678 22.0679 12.6821 -3.3978 -7.7219 -32.9017
# 2 22.0679 60.1949 5.0827 17.2919 -9.3567 -14.6996
# 3 12.6821 5.0827 72.1246 -9.0857 -14.6375 -1.5052
# 4 -3.3978 17.2919 -9.0857 49.5202 -4.3423 2.2324
# 5 -7.7219 -9.3567 -14.6375 -4.3423 34.9168 -1.4885
# 6 -32.9017 -14.6996 -1.5052 2.2324 -1.4885 42.6433
#
#
#
# Elastic Compliance Matrix: (Units=1/GPa)
#
#
# Indices 1 2 3 4 5 6 
#
# 1 0.011831 -0.002225 -0.001192 0.001172 0.002021 0.008328
# 2 -0.002225 0.022038 -0.001182 -0.007986 0.004198 0.006403
# 3 -0.001192 -0.001182 0.015961 0.003868 0.006560 -0.000737
# 4 0.001172 -0.007986 0.003868 0.024132 0.002619 -0.002884
# 5 0.002021 0.004198 0.006560 0.002619 0.033469 0.004269
# 6 0.008328 0.006403 -0.000737 -0.002884 0.004269 0.032357
#
#
# Mechanical properties :
#
#
# Convention : Reuss Voigt Hill
#
# Bulk Modulus (GPa) = 24.61137 36.30587 30.45862
# Shear Modulus (GPa) = 30.76320 39.23305 34.99813
#
# Velocity S-wave (km/s) = 3.53955 3.99723 3.77533
# Velocity P-wave (km/s) = 5.16988 6.00745 5.60434
#
# Compressibility (1/GPa) = 0.04063162
#
# Stress axis : x y z
#
# Youngs Moduli (GPa) = 84.52269 45.37531 62.65263
#
# Poissons Ratio (x) = 0.10098 0.07467
# Poissons Ratio (y) = 0.18810 0.07407
# Poissons Ratio (z) = 0.10074 0.05364
#
# Static dielectric constant tensor:
#      x y z
#    x 2.065370 -0.003550 -0.036450 
#    y -0.003550 1.961930 -0.014090 
#    z -0.036450 -0.014090 2.114420 
# 
# From -- ./inp_files/262656.got.cif
#   From: 2010.05.17/outbox.cif.g08.bks.cpg/sg2_132_cif.got.tgz:262656.got - 2010.06.03 11:33:40.
