data_PCOD9049247
_publ_section_title
;
Structure prediction by ZEFSAII (Michael W. Deem and Ramdas Pophale) SiO2 
 PCOD9049247
Probable space group: P -1
;
_chemical_formula_sum "Si O2"
_cell_formula_units_Z 16
_cell_length_a 14.891101
_cell_length_b 5.692537
_cell_length_c 8.510393
_cell_angle_alpha 78.399271
_cell_angle_beta 80.522737
_cell_angle_gamma 89.479531
_cell_volume 696.812818
_symmetry_space_group_name_H-M "P -1"
_symmetry_group_IT_number 2
_symmetry_cell_setting 'triclinic'
loop_
_space_group_symop_operation_xyz
x,y,z
-x,-y,-z
loop_
_atom_site_type_symbol
_atom_site_label
_atom_site_fract_x
_atom_site_fract_y
_atom_site_fract_z
Si Si1 0.996900 0.859255 0.857133
Si Si2 0.332406 0.309469 0.398686
Si Si3 0.131314 0.558086 0.041881
Si Si4 0.444253 0.098203 0.655479
Si Si5 0.053906 0.726592 0.377917
Si Si6 0.503948 0.544839 0.175172
Si Si7 0.313916 0.679658 0.809364
Si Si8 0.756894 0.209133 0.534948
O O1 0.074186 0.664398 0.894932
O O2 0.005380 0.044756 0.686517
O O3 0.899763 0.719332 0.898654
O O4 0.000000 0.000000 0.000000
O O5 0.369674 0.258487 0.568733
O O6 0.426140 0.358047 0.275470
O O7 0.278638 0.559358 0.387388
O O8 0.282450 0.063104 0.388854
O O9 0.235395 0.619619 0.964503
O O10 0.098098 0.659021 0.204886
O O11 0.513566 0.224844 0.740309
O O12 0.500000 0.000000 0.500000
O O13 0.382122 0.905062 0.791589
O O14 0.136586 0.794222 0.459067
O O15 0.000000 0.500000 0.500000
O O16 0.610230 0.519485 0.188002
O O17 0.500000 0.500000 0.000000
O O18 0.269187 0.730937 0.646031
#
# Coordination Sequence:
#
# PCOD9049247 Si02
#       8
#     2   2   2   2   2   2   2   2
#     4   9  22  45  72  98 140 190 240 310 388 466
#     4  11  24  48  69 103 149 201 252 309 381 464
#     4  10  24  46  71 102 145 195 246 313 393 464
#     4  11  22  46  72  99 142 204 258 310 378 459
#     4  11  27  46  74 109 146 190 253 323 388 461
#     4  12  26  41  71 104 149 198 252 319 382 451
#     4  11  25  43  68 105 144 198 254 308 384 461
#     4  11  27  44  75 107 147 196 257 315 381 465
#
# _framework density 22.961691999999999
#
# number of rings (size 3 to 8) (size 9 to 14) (size 15 to 20)
#    0.000    1.250    2.500    1.875    8.750    6.000 
#    0.000    0.000    0.000    0.000    0.000    0.000 
#    0.000    0.000    0.000    0.000    0.000    0.000 
#
# Total GULP energy -89183.148492 kJ/mol
# GULP energy per Si atom -5573.946781 kJ/mol
# Density = 2.290943 g / cm^3
# Si number density = 22.961692 Si / 1000 Ang^3
#
#
#
# Elastic Constant Matrix: (Units=GPa)
#
#
# Indices 1 2 3 4 5 6 
#
# 1 118.6657 59.8767 57.7112 -6.4798 -14.0382 19.9352
# 2 59.8767 144.5982 71.4415 -6.1644 -12.7446 21.7033
# 3 57.7112 71.4415 98.3680 -16.2298 -18.0949 11.3064
# 4 -6.4798 -6.1644 -16.2298 27.0647 10.4345 2.1569
# 5 -14.0382 -12.7446 -18.0949 10.4345 52.2325 -4.2065
# 6 19.9352 21.7033 11.3064 2.1569 -4.2065 40.3627
#
#
#
# Elastic Compliance Matrix: (Units=1/GPa)
#
#
# Indices 1 2 3 4 5 6 
#
# 1 0.012823 -0.001918 -0.005696 -0.000839 0.000885 -0.003570
# 2 -0.001918 0.011741 -0.007363 -0.001915 -0.000077 -0.003209
# 3 -0.005696 -0.007363 0.020547 0.008376 0.002182 0.000797
# 4 -0.000839 -0.001915 0.008376 0.044340 -0.006971 -0.003998
# 5 0.000885 -0.000077 0.002182 -0.006971 0.021643 0.001621
# 6 -0.003570 -0.003209 0.000797 -0.003998 0.001621 0.028423
#
#
# Mechanical properties :
#
#
# Convention : Reuss Voigt Hill
#
# Bulk Modulus (GPa) = 65.97326 82.18786 74.08056
# Shear Modulus (GPa) = 28.64922 35.43880 32.04401
#
# Velocity S-wave (km/s) = 3.53611 3.93286 3.73975
# Velocity P-wave (km/s) = 6.74287 7.51627 7.14005
#
# Compressibility (1/GPa) = 0.01515766
#
# Stress axis : x y z
#
# Youngs Moduli (GPa) = 77.98240 85.17091 48.66918
#
# Poissons Ratio (x) = 0.16335 0.27720
# Poissons Ratio (y) = 0.14957 0.35836
# Poissons Ratio (z) = 0.44416 0.62714
#
# Static dielectric constant tensor:
#      x y z
#    x 1.907750 -0.081110 0.125820 
#    y -0.081110 2.317490 0.337950 
#    z 0.125820 0.337950 2.283450 
# 
# From -- ./inp_files/288468.got.cif
#   From: 2010.05.17/outbox.cif.g08.bks.cpg/sg2_145_cif.got.tgz:288468.got - 2010.06.03 11:33:40.
