data_PCOD9049810
_publ_section_title
;
Structure prediction by ZEFSAII (Michael W. Deem and Ramdas Pophale) SiO2 
 PCOD9049810
Probable space group: P -1
;
_chemical_formula_sum "Si O2"
_cell_formula_units_Z 12
_cell_length_a 9.364058
_cell_length_b 11.919773
_cell_length_c 6.812057
_cell_angle_alpha 71.550679
_cell_angle_beta 46.526698
_cell_angle_gamma 60.585932
_cell_volume 480.373933
_symmetry_space_group_name_H-M "P -1"
_symmetry_group_IT_number 2
_symmetry_cell_setting 'triclinic'
loop_
_space_group_symop_operation_xyz
x,y,z
-x,-y,-z
loop_
_atom_site_type_symbol
_atom_site_label
_atom_site_fract_x
_atom_site_fract_y
_atom_site_fract_z
Si Si1 0.433222 0.014080 0.827650
Si Si2 0.650907 0.167330 0.398128
Si Si3 0.750481 0.634110 0.564464
Si Si4 0.195339 0.872202 0.298876
Si Si5 0.014052 0.260885 0.999065
Si Si6 0.043920 0.651755 0.565857
O O1 0.621175 0.029917 0.509260
O O2 0.677806 0.088523 0.013382
O O3 0.240153 0.150232 0.904703
O O4 0.500000 0.000000 0.000000
O O5 0.653185 0.189677 0.621377
O O6 0.460883 0.274994 0.398456
O O7 0.865729 0.185129 0.127979
O O8 0.942731 0.654108 0.254515
O O9 0.805495 0.669764 0.709486
O O10 0.790955 0.485764 0.591673
O O11 0.096333 0.772077 0.383281
O O12 0.000000 0.000000 0.500000
O O13 0.935314 0.346565 0.220215
#
# Coordination Sequence:
#
# PCOD9049810 Si02
#       6
#     2   2   2   2   2   2
#     4   9  17  31  58  86 112 148 192 231 282 347
#     4   9  19  34  60  83 117 151 191 244 276 350
#     4  10  22  40  57  90 117 147 205 233 290 341
#     4  10  17  34  61  82 115 154 189 228 295 339
#     4  10  19  38  62  83 117 154 190 241 291 338
#     4  10  21  38  63  82 120 158 184 249 286 342
#
# _framework density 24.980539
#
# number of rings (size 3 to 8) (size 9 to 14) (size 15 to 20)
#    0.000    2.333    3.333    0.500    0.000    2.667 
#    0.000   17.500    0.000    0.000    0.000    0.000 
#    0.000    0.000    0.000    0.000    0.000    0.000 
#
# Total GULP energy -67015.536158 kJ/mol
# GULP energy per Si atom -5584.628013 kJ/mol
# Density = 2.492368 g / cm^3
# Si number density = 24.980539 Si / 1000 Ang^3
#
#
#
# Elastic Constant Matrix: (Units=GPa)
#
#
# Indices 1 2 3 4 5 6 
#
# 1 148.9982 64.4857 7.5225 1.9974 -10.8359 -4.2723
# 2 64.4857 139.4958 42.5047 -25.1907 -5.5475 9.5947
# 3 7.5225 42.5047 100.0701 -10.2363 -11.1843 -0.3754
# 4 1.9974 -25.1907 -10.2363 23.4091 4.6699 0.8116
# 5 -10.8359 -5.5475 -11.1843 4.6699 35.0909 -11.1241
# 6 -4.2723 9.5947 -0.3754 0.8116 -11.1241 54.0835
#
#
#
# Elastic Compliance Matrix: (Units=1/GPa)
#
#
# Indices 1 2 3 4 5 6 
#
# 1 0.010087 -0.006749 0.001789 -0.008389 0.004718 0.003103
# 2 -0.006749 0.014588 -0.004661 0.015320 -0.004680 -0.004346
# 3 0.001789 -0.004661 0.012266 -0.000762 0.004454 0.001981
# 4 -0.008389 0.015320 -0.000762 0.061952 -0.010724 -0.006521
# 5 0.004718 -0.004680 0.004454 -0.010724 0.034771 0.008547
# 6 0.003103 -0.004346 0.001981 -0.006521 0.008547 0.021375
#
#
# Mechanical properties :
#
#
# Convention : Reuss Voigt Hill
#
# Bulk Modulus (GPa) = 56.50157 68.62111 62.56134
# Shear Modulus (GPa) = 27.75004 40.78677 34.26841
#
# Velocity S-wave (km/s) = 3.33658 4.04510 3.70781
# Velocity P-wave (km/s) = 6.12463 7.02471 6.59006
#
# Compressibility (1/GPa) = 0.01769862
#
# Stress axis : x y z
#
# Youngs Moduli (GPa) = 99.14233 68.54904 81.52861
#
# Poissons Ratio (x) = 0.46261 -0.14586
# Poissons Ratio (y) = 0.66908 0.38002
# Poissons Ratio (z) = -0.17737 0.31952
#
# Static dielectric constant tensor:
#      x y z
#    x 2.073550 0.073010 -0.015250 
#    y 0.073010 1.937660 0.010190 
#    z -0.015250 0.010190 2.060710 
# 
# From -- ./inp_files/251782.got.cif
#   From: 2010.05.17/outbox.cif.g08.bks.cpg/sg2_126_cif.got.tgz:251782.got - 2010.06.03 11:33:40.
