data_PCOD9049720
_publ_section_title
;
Structure prediction by ZEFSAII (Michael W. Deem and Ramdas Pophale) SiO2 
 PCOD9049720
Probable space group: P -1
;
_chemical_formula_sum "Si O2"
_cell_formula_units_Z 15
_cell_length_a 7.898013
_cell_length_b 16.044989
_cell_length_c 6.188703
_cell_angle_alpha 47.696517
_cell_angle_beta 91.812605
_cell_angle_gamma 97.513144
_cell_volume 573.345099
_symmetry_space_group_name_H-M "P -1"
_symmetry_group_IT_number 2
_symmetry_cell_setting 'triclinic'
loop_
_space_group_symop_operation_xyz
x,y,z
-x,-y,-z
loop_
_atom_site_type_symbol
_atom_site_label
_atom_site_fract_x
_atom_site_fract_y
_atom_site_fract_z
Si Si1 0.316319 0.713991 0.577873
Si Si2 0.649809 0.931509 0.555412
Si Si3 0.858286 0.137888 0.374831
Si Si4 0.271367 0.457862 0.634280
Si Si5 0.860136 0.894736 0.253701
Si Si6 0.897513 0.333443 0.723831
Si Si7 0.386937 0.257523 0.791314
Si Si8 0.500000 0.500000 0.000000
O O1 0.278092 0.811339 0.567982
O O2 0.135910 0.669565 0.528126
O O3 0.450384 0.760065 0.314083
O O4 0.402093 0.610525 0.853978
O O5 0.700987 0.935955 0.300291
O O6 0.500000 0.000000 0.500000
O O7 0.808648 0.004929 0.559607
O O8 0.613247 0.805492 0.870953
O O9 0.039403 0.162985 0.456322
O O10 0.860102 0.206952 0.033900
O O11 0.236885 0.584018 0.348286
O O12 0.378022 0.392018 0.582613
O O13 0.352416 0.458537 0.873137
O O14 0.081637 0.386499 0.728368
O O15 0.780468 0.804195 0.232529
O O16 0.000000 0.000000 0.000000
#
# Coordination Sequence:
#
# PCOD9049720 Si02
#       8
#     2   2   2   2   2   2   2   1
#     4  11  27  44  74 111 148 196 246 312 364 452
#     4  12  28  46  74 108 151 198 250 310 374 443
#     4  12  26  44  77 104 151 193 252 304 374 444
#     4  10  24  48  74 106 146 192 248 310 374 451
#     4  12  28  48  73 113 150 198 253 309 371 443
#     4  10  24  47  72 106 146 194 245 309 375 444
#     4  12  27  45  76 105 152 195 247 308 375 442
#     4  10  26  46  74 110 150 190 254 304 386 434
#
# _framework density 26.162253
#
# number of rings (size 3 to 8) (size 9 to 14) (size 15 to 20)
#    0.000    0.800    1.333    3.600   14.933    2.133 
#    0.000    2.667    0.000    0.000    0.000    0.000 
#    0.000    0.000    0.000    0.000    0.000    0.000 
#
# Total GULP energy -83809.737607 kJ/mol
# GULP energy per Si atom -5587.315840 kJ/mol
# Density = 2.610271 g / cm^3
# Si number density = 26.162253 Si / 1000 Ang^3
#
#
#
# Elastic Constant Matrix: (Units=GPa)
#
#
# Indices 1 2 3 4 5 6 
#
# 1 125.0829 23.6412 23.2688 18.1854 21.3822 7.7214
# 2 23.6412 142.3603 3.2376 2.2297 1.8607 2.7964
# 3 23.2688 3.2376 58.4391 -12.5107 17.9174 3.4927
# 4 18.1854 2.2297 -12.5107 36.7306 3.7819 5.0287
# 5 21.3822 1.8607 17.9174 3.7819 47.0937 15.3192
# 6 7.7214 2.7964 3.4927 5.0287 15.3192 57.1858
#
#
#
# Elastic Compliance Matrix: (Units=1/GPa)
#
#
# Indices 1 2 3 4 5 6 
#
# 1 0.010518 -0.001508 -0.004761 -0.006510 -0.002437 0.000170
# 2 -0.001508 0.007266 0.000171 0.000364 0.000402 -0.000302
# 3 -0.004761 0.000171 0.023807 0.011227 -0.007905 0.000311
# 4 -0.006510 0.000364 0.011227 0.034878 -0.003495 -0.001955
# 5 -0.002437 0.000402 -0.007905 -0.003495 0.027666 -0.006312
# 6 0.000170 -0.000302 0.000311 -0.001955 -0.006312 0.019322
#
#
# Mechanical properties :
#
#
# Convention : Reuss Voigt Hill
#
# Bulk Modulus (GPa) = 34.02052 47.35304 40.68678
# Shear Modulus (GPa) = 34.37558 46.58433 40.47995
#
# Velocity S-wave (km/s) = 3.62876 4.22429 3.93780
# Velocity P-wave (km/s) = 5.53074 6.47548 6.02167
#
# Compressibility (1/GPa) = 0.02939403
#
# Stress axis : x y z
#
# Youngs Moduli (GPa) = 95.07571 137.62833 42.00478
#
# Poissons Ratio (x) = 0.20753 0.19999
# Poissons Ratio (y) = 0.14337 -0.00717
# Poissons Ratio (z) = 0.45266 -0.02348
#
# Static dielectric constant tensor:
#      x y z
#    x 2.107820 0.006980 -0.034350 
#    y 0.006980 2.068110 0.066360 
#    z -0.034350 0.066360 2.094360 
# 
# From -- ./inp_files/34106.got.cif
#   From: 2010.05.17/outbox.cif.g08.bks.cpg/sg2_18_cif.got.tgz:34106.got - 2010.06.03 11:33:40.
