data_PCOD9049852
_publ_section_title
;
Structure prediction by ZEFSAII (Michael W. Deem and Ramdas Pophale) SiO2 
 PCOD9049852
Probable space group: P -1
;
_chemical_formula_sum "Si O2"
_cell_formula_units_Z 16
_cell_length_a 11.672553
_cell_length_b 8.208939
_cell_length_c 9.349619
_cell_angle_alpha 110.909835
_cell_angle_beta 108.816996
_cell_angle_gamma 118.789643
_cell_volume 584.570055
_symmetry_space_group_name_H-M "P -1"
_symmetry_group_IT_number 2
_symmetry_cell_setting 'triclinic'
loop_
_space_group_symop_operation_xyz
x,y,z
-x,-y,-z
loop_
_atom_site_type_symbol
_atom_site_label
_atom_site_fract_x
_atom_site_fract_y
_atom_site_fract_z
Si Si1 0.819320 0.632437 0.831990
Si Si2 0.032368 0.334701 0.575033
Si Si3 0.494788 0.197470 0.091608
Si Si4 0.260248 0.351275 0.863716
Si Si5 0.444949 0.834174 0.595111
Si Si6 0.669403 0.766197 0.618756
Si Si7 0.112957 0.794646 0.827284
Si Si8 0.687562 0.927575 0.376187
O O1 0.777398 0.640929 0.982893
O O2 0.680985 0.364326 0.633661
O O3 0.798063 0.785269 0.771516
O O4 0.996346 0.721427 0.893061
O O5 0.129452 0.606175 0.733667
O O6 0.998289 0.254131 0.370689
O O7 0.852542 0.199114 0.521048
O O8 0.104911 0.255968 0.677726
O O9 0.593319 0.398354 0.074513
O O10 0.300329 0.191765 0.789052
O O11 0.597581 0.299545 0.313030
O O12 0.500000 0.000000 0.000000
O O13 0.300517 0.045386 0.995550
O O14 0.626026 0.929633 0.674325
O O15 0.441936 0.040366 0.665409
O O16 0.500000 0.500000 0.500000
O O17 0.689860 0.795963 0.466869
#
# Coordination Sequence:
#
# PCOD9049852 Si02
#       8
#     2   2   2   2   2   2   2   2
#     4  11  26  52  81 122 168 217 274 342 415 488
#     4  11  24  49  83 116 160 218 279 335 411 490
#     4  12  26  49  83 125 163 213 279 346 408 492
#     4  12  28  50  82 127 169 211 276 344 413 498
#     4  11  25  50  82 117 161 219 272 341 414 492
#     4  10  24  47  76 114 162 212 268 338 407 481
#     4  11  24  49  86 119 160 218 279 343 409 490
#     4  12  25  49  84 116 162 220 279 333 418 498
#
# _framework density 27.370546000000001
#
# number of rings (size 3 to 8) (size 9 to 14) (size 15 to 20)
#    0.000    0.750    2.500    4.500    0.000    8.500 
#    0.000    7.500    2.750    0.000    0.000    0.000 
#    0.000    0.000    0.000    0.000    0.000    0.000 
#
# Total GULP energy -89467.120802 kJ/mol
# GULP energy per Si atom -5591.695050 kJ/mol
# Density = 2.730825 g / cm^3
# Si number density = 27.370546 Si / 1000 Ang^3
#
#
#
# Elastic Constant Matrix: (Units=GPa)
#
#
# Indices 1 2 3 4 5 6 
#
# 1 195.9717 52.7010 71.9128 -4.5177 -18.1034 -3.6858
# 2 52.7010 124.6389 57.1966 -8.0857 -12.9211 4.9895
# 3 71.9128 57.1966 161.0405 -22.6281 -22.5531 3.2234
# 4 -4.5177 -8.0857 -22.6281 50.7401 5.4839 -4.6515
# 5 -18.1034 -12.9211 -22.5531 5.4839 50.2667 -0.0137
# 6 -3.6858 4.9895 3.2234 -4.6515 -0.0137 60.1952
#
#
#
# Elastic Compliance Matrix: (Units=1/GPa)
#
#
# Indices 1 2 3 4 5 6 
#
# 1 0.006470 -0.001661 -0.002282 -0.000756 0.000962 0.000598
# 2 -0.001661 0.010083 -0.002702 0.000099 0.000770 -0.000785
# 3 -0.002282 -0.002702 0.008929 0.003101 0.002151 -0.000154
# 4 -0.000756 0.000099 0.003101 0.021298 -0.001178 0.001425
# 5 0.000962 0.000770 0.002151 -0.001178 0.021532 -0.000206
# 6 0.000598 -0.000785 -0.000154 0.001425 -0.000206 0.016833
#
#
# Mechanical properties :
#
#
# Convention : Reuss Voigt Hill
#
# Bulk Modulus (GPa) = 82.03441 93.91910 87.97676
# Shear Modulus (GPa) = 48.78101 52.22977 50.50539
#
# Velocity S-wave (km/s) = 4.22624 4.37309 4.30029
# Velocity P-wave (km/s) = 7.33837 7.73867 7.54118
#
# Compressibility (1/GPa) = 0.01219001
#
# Stress axis : x y z
#
# Youngs Moduli (GPa) = 154.56424 99.17421 111.99974
#
# Poissons Ratio (x) = 0.16478 0.25564
# Poissons Ratio (y) = 0.25680 0.30261
# Poissons Ratio (z) = 0.35279 0.26795
#
# Static dielectric constant tensor:
#      x y z
#    x 2.230670 0.026650 -0.036960 
#    y 0.026650 2.163310 -0.061950 
#    z -0.036960 -0.061950 2.329640 
# 
# From -- ./inp_files/295614.got.cif
#   From: 2010.05.17/outbox.cif.g08.bks.cpg/sg2_148_cif.got.tgz:295614.got - 2010.06.03 11:33:40.
