data_PCOD9049356
_publ_section_title
;
Structure prediction by ZEFSAII (Michael W. Deem and Ramdas Pophale) SiO2 
 PCOD9049356
Probable space group: P -1
;
_chemical_formula_sum "Si O2"
_cell_formula_units_Z 15
_cell_length_a 11.333936
_cell_length_b 19.064340
_cell_length_c 5.290229
_cell_angle_alpha 51.392082
_cell_angle_beta 57.581686
_cell_angle_gamma 41.963742
_cell_volume 591.559214
_symmetry_space_group_name_H-M "P -1"
_symmetry_group_IT_number 2
_symmetry_cell_setting 'triclinic'
loop_
_space_group_symop_operation_xyz
x,y,z
-x,-y,-z
loop_
_atom_site_type_symbol
_atom_site_label
_atom_site_fract_x
_atom_site_fract_y
_atom_site_fract_z
Si Si1 0.000000 0.500000 0.000000
Si Si2 0.850751 0.396421 0.086528
Si Si3 0.619150 0.017986 0.486230
Si Si4 0.999654 0.094725 0.923485
Si Si5 0.371493 0.661155 0.284808
Si Si6 0.870268 0.839889 0.971929
Si Si7 0.314352 0.263693 0.406847
Si Si8 0.591308 0.620118 0.620574
O O1 0.043968 0.572200 0.949167
O O2 0.800731 0.620493 0.879912
O O3 0.697697 0.410873 0.399504
O O4 0.762241 0.485541 0.751118
O O5 0.986380 0.266338 0.132764
O O6 0.507765 0.153791 0.338142
O O7 0.500000 0.000000 0.500000
O O8 0.809737 0.945415 0.297273
O O9 0.685521 0.950964 0.824613
O O10 0.024610 0.115571 0.138952
O O11 0.812444 0.211467 0.803317
O O12 0.000000 0.000000 0.000000
O O13 0.489602 0.648127 0.413440
O O14 0.464864 0.638934 0.956970
O O15 0.804382 0.779155 0.342495
O O16 0.347765 0.303547 0.543956
#
# Coordination Sequence:
#
# PCOD9049356 Si02
#       8
#     1   2   2   2   2   2   2   2
#     4  10  24  46  72 112 144 192 250 320 390 470
#     4  11  24  46  76 111 154 199 260 319 401 465
#     4  12  25  47  74 112 147 203 261 320 396 471
#     4  12  28  46  76 108 155 207 259 325 392 468
#     4  12  25  50  73 112 156 203 263 318 402 461
#     4  12  26  48  75 113 154 205 257 328 396 470
#     4  11  25  45  76 111 152 198 261 323 397 466
#     4  11  28  46  77 115 152 207 260 328 380 486
#
# _framework density 25.356718999999998
#
# number of rings (size 3 to 8) (size 9 to 14) (size 15 to 20)
#    0.000    0.533    2.667    4.400    1.867    9.067 
#    0.000    0.000    0.000    0.000    0.000    0.000 
#    0.000    0.000    0.000    0.000    0.000    0.000 
#
# Total GULP energy -83669.011860 kJ/mol
# GULP energy per Si atom -5577.934124 kJ/mol
# Density = 2.529901 g / cm^3
# Si number density = 25.356719 Si / 1000 Ang^3
#
#
#
# Elastic Constant Matrix: (Units=GPa)
#
#
# Indices 1 2 3 4 5 6 
#
# 1 227.5495 55.0905 29.4924 -12.9915 29.3403 4.6013
# 2 55.0905 171.1721 34.7688 -27.1627 20.7393 -5.2204
# 3 29.4924 34.7688 31.0161 -4.5644 22.3522 -4.7096
# 4 -12.9915 -27.1627 -4.5644 45.6302 -14.7626 -0.3012
# 5 29.3403 20.7393 22.3522 -14.7626 40.3598 -10.0254
# 6 4.6013 -5.2204 -4.7096 -0.3012 -10.0254 50.7849
#
#
#
# Elastic Compliance Matrix: (Units=1/GPa)
#
#
# Indices 1 2 3 4 5 6 
#
# 1 0.005267 -0.000965 -0.002464 -0.000077 -0.002309 -0.001261
# 2 -0.000965 0.008763 -0.011331 0.005314 0.004638 0.000885
# 3 -0.002464 -0.011331 0.072020 -0.012283 -0.037181 -0.001675
# 4 -0.000077 0.005314 -0.012283 0.028798 0.015309 0.002607
# 5 -0.002309 0.004638 -0.037181 0.015309 0.052158 0.007625
# 6 -0.001261 0.000885 -0.001675 0.002607 0.007625 0.021261
#
#
# Mechanical properties :
#
#
# Convention : Reuss Voigt Hill
#
# Bulk Modulus (GPa) = 17.69043 74.27121 45.98082
# Shear Modulus (GPa) = 21.12991 48.04736 34.58864
#
# Velocity S-wave (km/s) = 2.88984 4.35772 3.69735
# Velocity P-wave (km/s) = 4.25754 7.39417 6.03326
#
# Compressibility (1/GPa) = 0.05652773
#
# Stress axis : x y z
#
# Youngs Moduli (GPa) = 189.87456 114.12015 13.88507
#
# Poissons Ratio (x) = 0.11017 0.03422
# Poissons Ratio (y) = 0.18330 0.15733
# Poissons Ratio (z) = 0.46792 1.29309
#
# Static dielectric constant tensor:
#      x y z
#    x 1.872520 -0.029890 -0.039810 
#    y -0.029890 1.954340 0.055050 
#    z -0.039810 0.055050 2.188810 
# 
# From -- ./inp_files/82975.got.cif
#   From: 2010.05.17/outbox.cif.g08.bks.cpg/sg2_42_cif.got.tgz:82975.got - 2010.06.03 11:33:40.
