data_PCOD9049832
_publ_section_title
;
Structure prediction by ZEFSAII (Michael W. Deem and Ramdas Pophale) SiO2 
 PCOD9049832
Probable space group: P -1
;
_chemical_formula_sum "Si O2"
_cell_formula_units_Z 14
_cell_length_a 5.460907
_cell_length_b 15.819150
_cell_length_c 8.682811
_cell_angle_alpha 123.112132
_cell_angle_beta 54.727521
_cell_angle_gamma 100.087909
_cell_volume 502.017965
_symmetry_space_group_name_H-M "P -1"
_symmetry_group_IT_number 2
_symmetry_cell_setting 'triclinic'
loop_
_space_group_symop_operation_xyz
x,y,z
-x,-y,-z
loop_
_atom_site_type_symbol
_atom_site_label
_atom_site_fract_x
_atom_site_fract_y
_atom_site_fract_z
Si Si1 0.111000 0.412292 0.081818
Si Si2 0.497351 0.909045 0.594926
Si Si3 0.706762 0.884555 0.951687
Si Si4 0.283880 0.730246 0.674037
Si Si5 0.912014 0.142872 0.534097
Si Si6 0.491186 0.515464 0.262010
Si Si7 0.231032 0.756001 0.038288
O O1 0.284226 0.436550 0.198260
O O2 0.759955 0.476032 0.249674
O O3 0.310766 0.452760 0.919048
O O4 0.060244 0.297566 0.944232
O O5 0.455287 0.800099 0.576045
O O6 0.854254 0.903963 0.464312
O O7 0.351681 0.911115 0.482769
O O8 0.326811 0.000759 0.856522
O O9 0.369421 0.860442 0.065761
O O10 0.865262 0.867446 0.707867
O O11 0.949421 0.804645 0.884352
O O12 0.275067 0.622494 0.494807
O O13 0.428341 0.706011 0.766026
O O14 0.759058 0.249151 0.782369
#
# Coordination Sequence:
#
# PCOD9049832 Si02
#       7
#     2   2   2   2   2   2   2
#     4  10  25  46  72 109 138 185 238 293 352 436
#     4  11  25  49  74 100 149 194 239 289 362 418
#     4  11  27  48  70 107 147 192 239 296 352 429
#     4  11  25  45  74 105 144 193 236 298 355 426
#     4  11  25  46  72 100 145 194 233 298 350 421
#     4  10  24  47  75  99 145 187 233 290 365 417
#     4  12  28  43  75 110 144 185 246 291 361 421
#
# _framework density 27.887452
#
# number of rings (size 3 to 8) (size 9 to 14) (size 15 to 20)
#    0.000    1.143    1.429    3.000    8.000    8.000 
#    0.000    0.000    0.000    0.000    0.000    0.000 
#    0.000    0.000    0.000    0.000    0.000    0.000 
#
# Total GULP energy -78040.605962 kJ/mol
# GULP energy per Si atom -5574.328997 kJ/mol
# Density = 2.782398 g / cm^3
# Si number density = 27.887452 Si / 1000 Ang^3
#
#
#
# Elastic Constant Matrix: (Units=GPa)
#
#
# Indices 1 2 3 4 5 6 
#
# 1 188.8261 56.5810 62.3946 21.7804 17.0419 32.0379
# 2 56.5810 123.0127 55.8492 14.5338 3.2658 26.7561
# 3 62.3946 55.8492 158.2308 23.2056 8.0479 12.4475
# 4 21.7804 14.5338 23.2056 42.6225 14.8059 6.3917
# 5 17.0419 3.2658 8.0479 14.8059 50.6608 9.0160
# 6 32.0379 26.7561 12.4475 6.3917 9.0160 53.4097
#
#
#
# Elastic Compliance Matrix: (Units=1/GPa)
#
#
# Indices 1 2 3 4 5 6 
#
# 1 0.007082 -0.001714 -0.001732 -0.001298 -0.001148 -0.002637
# 2 -0.001714 0.011192 -0.002844 -0.001276 0.001391 -0.003998
# 3 -0.001732 -0.002844 0.008354 -0.002863 0.000126 0.000838
# 4 -0.001298 -0.001276 -0.002863 0.028704 -0.007397 -0.000101
# 5 -0.001148 0.001391 0.000126 -0.007397 0.022709 -0.002986
# 6 -0.002637 -0.003998 0.000838 -0.000101 -0.002986 0.022629
#
#
# Mechanical properties :
#
#
# Convention : Reuss Voigt Hill
#
# Bulk Modulus (GPa) = 71.17483 91.07992 81.12738
# Shear Modulus (GPa) = 42.39741 49.02157 45.70949
#
# Velocity S-wave (km/s) = 3.90334 4.19720 4.05294
# Velocity P-wave (km/s) = 6.77439 7.49796 7.14534
#
# Compressibility (1/GPa) = 0.01404991
#
# Stress axis : x y z
#
# Youngs Moduli (GPa) = 141.19479 89.34875 119.70342
#
# Poissons Ratio (x) = 0.15315 0.20728
# Poissons Ratio (y) = 0.24202 0.34038
# Poissons Ratio (z) = 0.24450 0.25407
#
# Static dielectric constant tensor:
#      x y z
#    x 2.346370 -0.089640 -0.125360 
#    y -0.089640 2.222970 0.106540 
#    z -0.125360 0.106540 2.459800 
# 
# From -- ./inp_files/139474.got.cif
#   From: 2010.05.17/outbox.cif.g08.bks.cpg/sg2_70_cif.got.tgz:139474.got - 2010.06.03 11:33:40.
