data_PCOD9049837
_publ_section_title
;
Structure prediction by ZEFSAII (Michael W. Deem and Ramdas Pophale) SiO2 
 PCOD9049837
Probable space group: P -1
;
_chemical_formula_sum "Si O2"
_cell_formula_units_Z 13
_cell_length_a 11.399296
_cell_length_b 9.828635
_cell_length_c 8.228172
_cell_angle_alpha 138.512717
_cell_angle_beta 123.885345
_cell_angle_gamma 66.155699
_cell_volume 506.827813
_symmetry_space_group_name_H-M "P -1"
_symmetry_group_IT_number 2
_symmetry_cell_setting 'triclinic'
loop_
_space_group_symop_operation_xyz
x,y,z
-x,-y,-z
loop_
_atom_site_type_symbol
_atom_site_label
_atom_site_fract_x
_atom_site_fract_y
_atom_site_fract_z
Si Si1 0.896603 0.215821 0.007189
Si Si2 0.436194 0.437240 0.221195
Si Si3 0.500000 0.500000 0.000000
Si Si4 0.356591 0.111078 0.443478
Si Si5 0.071976 0.892867 0.703007
Si Si6 0.379305 0.928314 0.965153
Si Si7 0.880635 0.595599 0.107056
O O1 0.773008 0.039944 0.737182
O O2 0.919503 0.235322 0.235966
O O3 0.867103 0.426754 0.087514
O O4 0.031411 0.116562 0.935456
O O5 0.500000 0.500000 0.500000
O O6 0.442384 0.591586 0.213361
O O7 0.549558 0.275450 0.086803
O O8 0.273519 0.370087 0.058337
O O9 0.636123 0.666689 0.270357
O O10 0.500000 0.000000 0.500000
O O11 0.351095 0.095073 0.229598
O O12 0.226414 0.876937 0.727724
O O13 0.951009 0.803593 0.415278
O O14 0.500000 0.000000 0.000000
O O15 0.000000 0.500000 0.000000
#
# Coordination Sequence:
#
# PCOD9049837 Si02
#       7
#     2   2   1   2   2   2   2
#     4  10  24  47  76 106 147 195 253 309 375 451
#     4  12  27  48  73 116 152 196 260 318 382 453
#     4  12  24  46  80 106 148 198 246 314 380 454
#     4  11  22  42  70 108 142 190 250 304 374 446
#     4  10  24  48  74 109 144 198 252 308 374 458
#     4  11  25  46  73 107 156 196 247 324 379 453
#     4  12  27  47  75 107 151 200 248 314 382 456
#
# _framework density 25.649736999999998
#
# number of rings (size 3 to 8) (size 9 to 14) (size 15 to 20)
#    0.000    0.923    1.538    4.154    4.308    1.846 
#   13.846    0.000    0.000    0.000    0.000    0.000 
#    0.000    0.000    0.000    0.000    0.000    0.000 
#
# Total GULP energy -72514.264964 kJ/mol
# GULP energy per Si atom -5578.020382 kJ/mol
# Density = 2.559136 g / cm^3
# Si number density = 25.649737 Si / 1000 Ang^3
#
#
#
# Elastic Constant Matrix: (Units=GPa)
#
#
# Indices 1 2 3 4 5 6 
#
# 1 156.7077 32.3403 56.6271 -15.4651 12.5270 -32.7285
# 2 32.3403 68.7095 21.0508 -2.0115 11.7545 -13.0676
# 3 56.6271 21.0508 171.5570 -19.4401 14.3659 -12.9852
# 4 -15.4651 -2.0115 -19.4401 39.4329 -9.9607 11.7663
# 5 12.5270 11.7545 14.3659 -9.9607 50.0606 -10.1976
# 6 -32.7285 -13.0676 -12.9852 11.7663 -10.1976 42.7233
#
#
#
# Elastic Compliance Matrix: (Units=1/GPa)
#
#
# Indices 1 2 3 4 5 6 
#
# 1 0.008814 -0.002524 -0.002137 0.000786 0.000209 0.005163
# 2 -0.002524 0.017046 -0.001049 -0.002236 -0.002929 0.002878
# 3 -0.002137 -0.001049 0.006968 0.002548 -0.000864 -0.000748
# 4 0.000786 -0.002236 0.002548 0.029816 0.004202 -0.006515
# 5 0.000209 -0.002929 -0.000864 0.004202 0.022342 0.003177
# 6 0.005163 0.002878 -0.000748 -0.006515 0.003177 0.030568
#
#
# Mechanical properties :
#
#
# Convention : Reuss Voigt Hill
#
# Bulk Modulus (GPa) = 46.71279 68.55672 57.63476
# Shear Modulus (GPa) = 37.28288 45.57377 41.42832
#
# Velocity S-wave (km/s) = 3.81667 4.21975 4.02326
# Velocity P-wave (km/s) = 6.13791 7.10829 6.64085
#
# Compressibility (1/GPa) = 0.02140741
#
# Stress axis : x y z
#
# Youngs Moduli (GPa) = 113.45815 58.66319 143.52341
#
# Poissons Ratio (x) = 0.14809 0.30671
# Poissons Ratio (y) = 0.28642 0.15051
# Poissons Ratio (z) = 0.24246 0.06152
#
# Static dielectric constant tensor:
#      x y z
#    x 2.081210 -0.016180 0.031670 
#    y -0.016180 1.699170 0.018020 
#    z 0.031670 0.018020 2.050620 
# 
# From -- ./inp_files/263814.got.cif
#   From: 2010.05.17/outbox.cif.g08.bks.cpg/sg2_132_cif.got.tgz:263814.got - 2010.06.03 11:33:40.
