data_PCOD9049821
_publ_section_title
;
Structure prediction by ZEFSAII (Michael W. Deem and Ramdas Pophale) SiO2 
 PCOD9049821
Probable space group: P -1
;
_chemical_formula_sum "Si O2"
_cell_formula_units_Z 12
_cell_length_a 14.321205
_cell_length_b 8.417871
_cell_length_c 5.548405
_cell_angle_alpha 85.277635
_cell_angle_beta 62.094182
_cell_angle_gamma 51.127624
_cell_volume 437.940209
_symmetry_space_group_name_H-M "P -1"
_symmetry_group_IT_number 2
_symmetry_cell_setting 'triclinic'
loop_
_space_group_symop_operation_xyz
x,y,z
-x,-y,-z
loop_
_atom_site_type_symbol
_atom_site_label
_atom_site_fract_x
_atom_site_fract_y
_atom_site_fract_z
Si Si1 0.477084 0.616406 0.768483
Si Si2 0.361984 0.277947 0.887223
Si Si3 0.908738 0.442287 0.543807
Si Si4 0.914251 0.961630 0.287422
Si Si5 0.761755 0.417991 0.372146
Si Si6 0.323557 0.011628 0.635879
O O1 0.500000 0.500000 0.500000
O O2 0.604969 0.614743 0.634639
O O3 0.342456 0.859695 0.844835
O O4 0.500000 0.500000 0.000000
O O5 0.277560 0.522366 0.866773
O O6 0.532621 0.133194 0.691633
O O7 0.328706 0.173868 0.744829
O O8 0.254150 0.344692 0.222162
O O9 0.888622 0.405291 0.297946
O O10 0.000000 0.500000 0.500000
O O11 0.983329 0.215777 0.613656
O O12 0.793129 0.213017 0.467997
O O13 0.821484 0.903618 0.316788
O O14 0.000000 0.000000 0.000000
#
# Coordination Sequence:
#
# PCOD9049821 Si02
#       6
#     2   2   2   2   2   2
#     4  11  25  45  77 111 147 194 253 322 383 455
#     4  10  24  50  71 101 152 192 259 308 387 461
#     4  12  28  45  73 109 149 201 250 318 388 465
#     4  12  25  44  75 105 154 189 256 312 395 455
#     4  11  25  44  73 105 146 196 252 313 384 456
#     4  10  24  47  75 107 141 207 247 318 379 466
#
# _framework density 27.401
#
# number of rings (size 3 to 8) (size 9 to 14) (size 15 to 20)
#    0.000    1.000    3.333    1.500    9.333    2.667 
#    3.000    5.000    0.000    0.000    0.000    0.000 
#    0.000    0.000    0.000    0.000    0.000    0.000 
#
# Total GULP energy -66848.241892 kJ/mol
# GULP energy per Si atom -5570.686824 kJ/mol
# Density = 2.733863 g / cm^3
# Si number density = 27.401000 Si / 1000 Ang^3
#
#
#
# Elastic Constant Matrix: (Units=GPa)
#
#
# Indices 1 2 3 4 5 6 
#
# 1 178.3666 3.6726 39.9275 2.8773 -19.5235 -5.0666
# 2 3.6726 123.3631 10.6854 -14.8483 12.1717 -8.9443
# 3 39.9275 10.6854 70.6820 2.1690 -12.6899 -15.8544
# 4 2.8773 -14.8483 2.1690 38.1545 -1.5926 -7.9644
# 5 -19.5235 12.1717 -12.6899 -1.5926 22.8053 0.4271
# 6 -5.0666 -8.9443 -15.8544 -7.9644 0.4271 53.4204
#
#
#
# Elastic Compliance Matrix: (Units=1/GPa)
#
#
# Indices 1 2 3 4 5 6 
#
# 1 0.006768 -0.000442 -0.003070 -0.000420 0.004301 -0.000440
# 2 -0.000442 0.009516 -0.002105 0.003916 -0.006385 0.001561
# 3 -0.003070 -0.002105 0.018895 -0.000278 0.008899 0.004852
# 4 -0.000420 0.003916 -0.000278 0.028759 -0.000686 0.004827
# 5 0.004301 -0.006385 0.008899 -0.000686 0.055816 0.001431
# 6 -0.000440 0.001561 0.004852 0.004827 0.001431 0.021087
#
#
# Mechanical properties :
#
#
# Convention : Reuss Voigt Hill
#
# Bulk Modulus (GPa) = 41.76396 53.44254 47.60325
# Shear Modulus (GPa) = 31.23888 44.08444 37.66166
#
# Velocity S-wave (km/s) = 3.38015 4.01541 3.71140
# Velocity P-wave (km/s) = 5.52347 6.40658 5.98134
#
# Compressibility (1/GPa) = 0.02394409
#
# Stress axis : x y z
#
# Youngs Moduli (GPa) = 147.75962 105.08474 52.92503
#
# Poissons Ratio (x) = 0.04649 0.16247
# Poissons Ratio (y) = 0.06537 0.11140
# Poissons Ratio (z) = 0.45361 0.22119
#
# Static dielectric constant tensor:
#      x y z
#    x 2.234020 0.039580 0.113340 
#    y 0.039580 2.347380 -0.026250 
#    z 0.113340 -0.026250 2.671280 
# 
# From -- ./inp_files/90004.got.cif
#   From: 2010.05.17/outbox.cif.g08.bks.cpg/sg2_46_cif.got.tgz:90004.got - 2010.06.03 11:33:40.
