data_PCOD9049779
_publ_section_title
;
Structure prediction by ZEFSAII (Michael W. Deem and Ramdas Pophale) SiO2 
 PCOD9049779
Probable space group: P -1
;
_chemical_formula_sum "Si O2"
_cell_formula_units_Z 16
_cell_length_a 14.622140
_cell_length_b 14.275518
_cell_length_c 9.012685
_cell_angle_alpha 88.419305
_cell_angle_beta 110.473905
_cell_angle_gamma 31.675763
_cell_volume 694.328452
_symmetry_space_group_name_H-M "P -1"
_symmetry_group_IT_number 2
_symmetry_cell_setting 'triclinic'
loop_
_space_group_symop_operation_xyz
x,y,z
-x,-y,-z
loop_
_atom_site_type_symbol
_atom_site_label
_atom_site_fract_x
_atom_site_fract_y
_atom_site_fract_z
Si Si1 0.526570 0.571566 0.608831
Si Si2 0.743067 0.234989 0.932492
Si Si3 0.986945 0.084447 0.357308
Si Si4 0.364407 0.117168 0.662607
Si Si5 0.675855 0.535734 0.260104
Si Si6 0.187812 0.322297 0.253978
Si Si7 0.126261 0.579355 0.318217
Si Si8 0.551298 0.091190 0.017656
O O1 0.500000 0.500000 0.500000
O O2 0.612509 0.448899 0.815184
O O3 0.740185 0.449443 0.675705
O O4 0.262778 0.853846 0.459101
O O5 0.555011 0.315612 0.801553
O O6 0.819905 0.174085 0.146166
O O7 0.000000 0.000000 0.000000
O O8 0.859789 0.293978 0.316662
O O9 0.000000 0.000000 0.500000
O O10 0.151885 0.310435 0.403488
O O11 0.386330 0.171242 0.809748
O O12 0.599040 0.923824 0.696545
O O13 0.414436 0.978348 0.792501
O O14 0.811593 0.472677 0.469948
O O15 0.567521 0.701681 0.069605
O O16 0.236092 0.387809 0.320840
O O17 0.000000 0.500000 0.000000
O O18 0.830402 0.844157 0.121686
#
# Coordination Sequence:
#
# PCOD9049779 Si02
#       8
#     2   2   2   2   2   2   2   2
#     4  12  24  46  71 106 144 193 243 297 367 435
#     4  12  24  44  72  99 145 197 239 299 366 430
#     4  12  26  45  72 100 145 196 242 307 364 428
#     4  10  24  47  74 105 149 188 246 303 381 439
#     4  12  26  42  69 109 146 188 252 301 364 447
#     4  11  23  46  75 108 144 194 242 307 371 446
#     4  12  25  44  74 106 148 189 246 305 364 443
#     4  11  25  45  74 109 145 194 242 311 368 446
#
# _framework density 23.043849000000002
#
# number of rings (size 3 to 8) (size 9 to 14) (size 15 to 20)
#    0.000    0.500    6.250    1.125    1.750    3.500 
#    0.000    1.250    0.000    0.000    0.000    0.000 
#    0.000    0.000    0.000    0.000    0.000    0.000 
#
# Total GULP energy -89311.104071 kJ/mol
# GULP energy per Si atom -5581.944004 kJ/mol
# Density = 2.299140 g / cm^3
# Si number density = 23.043849 Si / 1000 Ang^3
#
#
#
# Elastic Constant Matrix: (Units=GPa)
#
#
# Indices 1 2 3 4 5 6 
#
# 1 97.9558 29.4435 37.6220 -1.1307 -39.1314 9.2719
# 2 29.4435 104.5731 39.7237 -11.3234 2.5469 7.1874
# 3 37.6220 39.7237 141.6839 14.1157 -30.8236 0.0606
# 4 -1.1307 -11.3234 14.1157 47.3819 -1.9592 -0.3768
# 5 -39.1314 2.5469 -30.8236 -1.9592 41.9273 -1.9044
# 6 9.2719 7.1874 0.0606 -0.3768 -1.9044 35.6402
#
#
#
# Elastic Compliance Matrix: (Units=1/GPa)
#
#
# Indices 1 2 3 4 5 6 
#
# 1 0.019675 -0.006115 0.000687 -0.000430 0.019089 -0.002871
# 2 -0.006115 0.013962 -0.004893 0.004220 -0.010033 -0.001708
# 3 0.000687 -0.004893 0.010491 -0.003916 0.008523 0.001204
# 4 -0.000430 0.004220 -0.003916 0.023163 -0.002483 -0.000620
# 5 0.019089 -0.010033 0.008523 -0.002483 0.048408 -0.000397
# 6 -0.002871 -0.001708 0.001204 -0.000620 -0.000397 0.029120
#
#
# Mechanical properties :
#
#
# Convention : Reuss Voigt Hill
#
# Bulk Modulus (GPa) = 42.57790 61.97680 52.27735
# Shear Modulus (GPa) = 28.85335 40.81813 34.83574
#
# Velocity S-wave (km/s) = 3.54235 4.21328 3.89230
# Velocity P-wave (km/s) = 5.93700 7.11495 6.55250
#
# Compressibility (1/GPa) = 0.02348636
#
# Stress axis : x y z
#
# Youngs Moduli (GPa) = 50.82464 71.62400 95.31724
#
# Poissons Ratio (x) = 0.43797 -0.06547
# Poissons Ratio (y) = 0.31079 0.46640
# Poissons Ratio (z) = -0.03491 0.35046
#
# Static dielectric constant tensor:
#      x y z
#    x 1.880480 -0.038950 -0.039570 
#    y -0.038950 1.861400 -0.016920 
#    z -0.039570 -0.016920 1.997930 
# 
# From -- ./inp_files/117218.got.cif
#   From: 2010.05.17/outbox.cif.g08.bks.cpg/sg2_59_cif.got.tgz:117218.got - 2010.06.03 11:33:40.
