data_PCOD9049152
_publ_section_title
;
Structure prediction by ZEFSAII (Michael W. Deem and Ramdas Pophale) SiO2 
 PCOD9049152
Probable space group: P -1
;
_chemical_formula_sum "Si O2"
_cell_formula_units_Z 16
_cell_length_a 19.585997
_cell_length_b 8.102658
_cell_length_c 11.483127
_cell_angle_alpha 56.949843
_cell_angle_beta 40.284379
_cell_angle_gamma 36.133123
_cell_volume 682.738614
_symmetry_space_group_name_H-M "P -1"
_symmetry_group_IT_number 2
_symmetry_cell_setting 'triclinic'
loop_
_space_group_symop_operation_xyz
x,y,z
-x,-y,-z
loop_
_atom_site_type_symbol
_atom_site_label
_atom_site_fract_x
_atom_site_fract_y
_atom_site_fract_z
Si Si1 0.672458 0.268969 0.492972
Si Si2 0.570872 0.979655 0.742251
Si Si3 0.818727 0.349810 0.734661
Si Si4 0.039613 0.174080 0.872176
Si Si5 0.169606 0.928495 0.405136
Si Si6 0.246346 0.199256 0.059538
Si Si7 0.793984 0.995770 0.051135
Si Si8 0.550614 0.108158 0.474018
O O1 0.585575 0.566481 0.430688
O O2 0.576893 0.203058 0.678015
O O3 0.808964 0.014430 0.330352
O O4 0.741362 0.262504 0.524254
O O5 0.688804 0.690962 0.774456
O O6 0.628540 0.904609 0.561920
O O7 0.404921 0.101927 0.904274
O O8 0.992218 0.192968 0.568734
O O9 0.809581 0.248438 0.661224
O O10 0.797333 0.212885 0.913975
O O11 0.900361 0.464445 0.876412
O O12 0.070519 0.209090 0.950686
O O13 0.000000 0.000000 0.000000
O O14 0.234397 0.047807 0.230360
O O15 0.222185 0.120382 0.996905
O O16 0.649978 0.126226 0.264527
O O17 0.500000 0.000000 0.500000
#
# Coordination Sequence:
#
# PCOD9049152 Si02
#       8
#     2   2   2   2   2   2   2   2
#     4  12  27  45  71 104 144 188 226 289 362 416
#     4  12  25  44  71 106 144 182 230 289 359 414
#     4  10  24  47  73 103 138 187 238 289 344 415
#     4  12  26  44  69 101 146 181 234 292 351 418
#     4  10  24  46  70 100 143 186 238 284 344 422
#     4  11  26  45  71 104 137 191 240 286 343 415
#     4  11  25  45  76 103 138 188 241 290 342 418
#     4  12  25  46  74 105 140 184 236 291 346 421
#
# _framework density 23.435030999999999
#
# number of rings (size 3 to 8) (size 9 to 14) (size 15 to 20)
#    0.000    0.750    2.500    3.750    3.500    4.500 
#    4.500    0.000    0.000    0.000    0.000    0.000 
#    0.000    0.000    0.000    0.000    0.000    0.000 
#
# Total GULP energy -89527.469908 kJ/mol
# GULP energy per Si atom -5595.466869 kJ/mol
# Density = 2.338169 g / cm^3
# Si number density = 23.435031 Si / 1000 Ang^3
#
#
#
# Elastic Constant Matrix: (Units=GPa)
#
#
# Indices 1 2 3 4 5 6 
#
# 1 88.8275 -3.6092 19.3112 2.9143 -11.1916 -4.5110
# 2 -3.6092 97.4991 22.0800 -1.5010 -13.2068 0.7420
# 3 19.3112 22.0800 134.5073 -7.2346 -19.5093 -1.2719
# 4 2.9143 -1.5010 -7.2346 21.5665 -5.9271 5.9767
# 5 -11.1916 -13.2068 -19.5093 -5.9271 46.2407 -8.1871
# 6 -4.5110 0.7420 -1.2719 5.9767 -8.1871 27.0148
#
#
#
# Elastic Compliance Matrix: (Units=1/GPa)
#
#
# Indices 1 2 3 4 5 6 
#
# 1 0.012266 0.001156 -0.001616 -0.002237 0.002918 0.003320
# 2 0.001156 0.011053 -0.001497 0.000782 0.003004 0.000556
# 3 -0.001616 -0.001497 0.008610 0.003831 0.003367 0.000349
# 4 -0.002237 0.000782 0.003831 0.052484 0.006268 -0.009927
# 5 0.002918 0.003004 0.003367 0.006268 0.026701 0.007268
# 6 0.003320 0.000556 0.000349 -0.009927 0.007268 0.041971
#
#
# Mechanical properties :
#
#
# Convention : Reuss Voigt Hill
#
# Bulk Modulus (GPa) = 35.69835 44.04421 39.87128
# Shear Modulus (GPa) = 30.05924 37.83453 33.94689
#
# Velocity S-wave (km/s) = 3.58531 4.02237 3.81012
# Velocity P-wave (km/s) = 5.69256 6.35670 6.03378
#
# Compressibility (1/GPa) = 0.02801250
#
# Stress axis : x y z
#
# Youngs Moduli (GPa) = 81.52785 90.47288 116.14298
#
# Poissons Ratio (x) = -0.10455 0.18774
# Poissons Ratio (y) = -0.09422 0.17391
# Poissons Ratio (z) = 0.13179 0.13547
#
# Static dielectric constant tensor:
#      x y z
#    x 1.917050 0.020990 0.022590 
#    y 0.020990 1.866730 0.064090 
#    z 0.022590 0.064090 1.891190 
# 
# From -- ./inp_files/187786.got.cif
#   From: 2010.05.17/outbox.cif.g08.bks.cpg/sg2_94_cif.got.tgz:187786.got - 2010.06.03 11:33:40.
