data_PCOD9049805
_publ_section_title
;
Structure prediction by ZEFSAII (Michael W. Deem and Ramdas Pophale) SiO2 
 PCOD9049805
Probable space group: P -1
;
_chemical_formula_sum "Si O2"
_cell_formula_units_Z 16
_cell_length_a 16.731834
_cell_length_b 5.955207
_cell_length_c 9.246203
_cell_angle_alpha 52.421270
_cell_angle_beta 102.854651
_cell_angle_gamma 106.064803
_cell_volume 699.889275
_symmetry_space_group_name_H-M "P -1"
_symmetry_group_IT_number 2
_symmetry_cell_setting 'triclinic'
loop_
_space_group_symop_operation_xyz
x,y,z
-x,-y,-z
loop_
_atom_site_type_symbol
_atom_site_label
_atom_site_fract_x
_atom_site_fract_y
_atom_site_fract_z
Si Si1 0.169058 0.534118 0.519613
Si Si2 0.400655 0.462048 0.967995
Si Si3 0.717220 0.154868 0.330365
Si Si4 0.208183 0.628291 0.009585
Si Si5 0.691567 0.504366 0.625943
Si Si6 0.109071 0.052586 0.142905
Si Si7 0.588014 0.144437 0.906587
Si Si8 0.065946 0.969332 0.826415
O O1 0.197984 0.683430 0.624745
O O2 0.258048 0.514800 0.492412
O O3 0.108371 0.231314 0.638646
O O4 0.126178 0.744610 0.321359
O O5 0.358131 0.668899 0.766451
O O6 0.500000 0.500000 0.000000
O O7 0.381303 0.587873 0.070733
O O8 0.374394 0.139903 0.017619
O O9 0.740814 0.153675 0.170585
O O10 0.692987 0.841926 0.511490
O O11 0.117282 0.713556 0.934369
O O12 0.251654 0.630112 0.181090
O O13 0.192029 0.292488 0.093490
O O14 0.599983 0.322061 0.690522
O O15 0.083015 0.067323 0.960821
O O16 0.033470 0.107552 0.194446
O O17 0.500000 0.000000 0.000000
#
# Coordination Sequence:
#
# PCOD9049805 Si02
#       8
#     2   2   2   2   2   2   2   2
#     4  12  25  42  66 106 134 178 240 296 348 428
#     4  10  24  47  75 103 143 188 231 288 360 431
#     4  12  26  42  72 102 140 181 236 294 359 423
#     4  12  23  44  66  96 136 178 240 286 348 430
#     4  12  26  42  72 102 140 181 236 294 359 423
#     4  11  24  42  64  95 138 185 228 290 358 419
#     4  10  24  47  75 103 143 188 231 288 360 431
#     4  11  24  42  64  95 138 185 228 290 358 419
#
# _framework density 22.860761
#
# number of rings (size 3 to 8) (size 9 to 14) (size 15 to 20)
#    0.000    0.750    6.250    0.750    7.000    0.000 
#    0.000    6.250    0.000    0.000    0.000    0.000 
#    0.000    0.000    0.000    0.000    0.000    0.000 
#
# Total GULP energy -89078.987844 kJ/mol
# GULP energy per Si atom -5567.436740 kJ/mol
# Density = 2.280873 g / cm^3
# Si number density = 22.860761 Si / 1000 Ang^3
#
#
#
# Elastic Constant Matrix: (Units=GPa)
#
#
# Indices 1 2 3 4 5 6 
#
# 1 85.5036 15.8187 40.3472 -20.5693 -10.0762 -10.6754
# 2 15.8187 92.7453 32.9911 -21.8620 -8.8257 -6.5733
# 3 40.3472 32.9911 121.2536 -36.4040 -23.6945 7.1304
# 4 -20.5693 -21.8620 -36.4040 45.7984 0.2279 -2.6413
# 5 -10.0762 -8.8257 -23.6945 0.2279 30.7537 -3.9441
# 6 -10.6754 -6.5733 7.1304 -2.6413 -3.9441 37.1469
#
#
#
# Elastic Compliance Matrix: (Units=1/GPa)
#
#
# Indices 1 2 3 4 5 6 
#
# 1 0.015553 0.000453 -0.003641 0.004633 0.003145 0.005912
# 2 0.000453 0.013095 -0.001771 0.005232 0.002949 0.003472
# 3 -0.003641 -0.001771 0.014536 0.008882 0.009106 -0.002552
# 4 0.004633 0.005232 0.008882 0.033654 0.010129 0.004021
# 5 0.003145 0.002949 0.009106 0.010129 0.041956 0.004852
# 6 0.005912 0.003472 -0.002552 0.004021 0.004852 0.030524
#
#
# Mechanical properties :
#
#
# Convention : Reuss Voigt Hill
#
# Bulk Modulus (GPa) = 30.06009 53.09070 41.57540
# Shear Modulus (GPa) = 29.35571 36.76285 33.05928
#
# Velocity S-wave (km/s) = 3.58733 4.01449 3.80691
# Velocity P-wave (km/s) = 5.50785 6.69045 6.12774
#
# Compressibility (1/GPa) = 0.03326670
#
# Stress axis : x y z
#
# Youngs Moduli (GPa) = 64.29738 76.36559 68.79315
#
# Poissons Ratio (x) = -0.03456 0.25045
# Poissons Ratio (y) = -0.02910 0.12180
# Poissons Ratio (z) = 0.23408 0.13521
#
# Static dielectric constant tensor:
#      x y z
#    x 2.057840 -0.028430 -0.089550 
#    y -0.028430 1.920570 0.052700 
#    z -0.089550 0.052700 1.909050 
# 
# From -- ./inp_files/48073.got.cif
#   From: 2010.05.17/outbox.cif.g08.bks.cpg/sg2_25_cif.got.tgz:48073.got - 2010.06.03 11:33:40.
