data_PCOD9049197
_publ_section_title
;
Structure prediction by ZEFSAII (Michael W. Deem and Ramdas Pophale) SiO2 
 PCOD9049197
Probable space group: P -1
;
_chemical_formula_sum "Si O2"
_cell_formula_units_Z 12
_cell_length_a 15.584629
_cell_length_b 5.382868
_cell_length_c 10.065022
_cell_angle_alpha 124.126558
_cell_angle_beta 49.001662
_cell_angle_gamma 127.698186
_cell_volume 485.825311
_symmetry_space_group_name_H-M "P -1"
_symmetry_group_IT_number 2
_symmetry_cell_setting 'triclinic'
loop_
_space_group_symop_operation_xyz
x,y,z
-x,-y,-z
loop_
_atom_site_type_symbol
_atom_site_label
_atom_site_fract_x
_atom_site_fract_y
_atom_site_fract_z
Si Si1 0.015706 0.375451 0.594807
Si Si2 0.574360 0.675902 0.606958
Si Si3 0.575146 0.287742 0.904755
Si Si4 0.101143 0.361479 0.981785
Si Si5 0.211232 0.564492 0.664079
Si Si6 0.322885 0.286875 0.863847
O O1 0.148015 0.575485 0.591489
O O2 0.000000 0.500000 0.500000
O O3 0.000000 0.000000 0.500000
O O4 0.922627 0.420701 0.813058
O O5 0.500000 0.500000 0.500000
O O6 0.700517 0.631351 0.492130
O O7 0.468824 0.462815 0.752440
O O8 0.596112 0.055683 0.702504
O O9 0.500000 0.500000 0.000000
O O10 0.696079 0.562052 0.931414
O O11 0.500000 0.000000 0.000000
O O12 0.102301 0.417649 0.839576
O O13 0.239684 0.384022 0.874637
O O14 0.000000 0.000000 0.000000
O O15 0.286798 0.911981 0.759140
#
# Coordination Sequence:
#
# PCOD9049197 Si02
#       6
#     2   2   2   2   2   2
#     4  12  30  52  78 116 156 208 272 335 398 469
#     4  11  23  47  78 120 157 203 264 322 405 477
#     4  10  24  46  70 109 154 204 253 311 385 468
#     4  12  26  52  78 113 154 210 270 324 400 476
#     4  12  26  49  84 113 160 212 265 336 396 479
#     4  11  25  46  78 108 160 206 258 325 396 478
#
# _framework density 24.700234999999999
#
# number of rings (size 3 to 8) (size 9 to 14) (size 15 to 20)
#    0.000    0.667    3.333    3.000    7.000    1.333 
#    6.000    0.000    0.000    0.000    0.000    0.000 
#    0.000    0.000    0.000    0.000    0.000    0.000 
#
# Total GULP energy -66998.060566 kJ/mol
# GULP energy per Si atom -5583.171714 kJ/mol
# Density = 2.464402 g / cm^3
# Si number density = 24.700235 Si / 1000 Ang^3
#
#
#
# Elastic Constant Matrix: (Units=GPa)
#
#
# Indices 1 2 3 4 5 6 
#
# 1 179.7820 41.4671 68.2813 9.2219 11.0946 -12.4815
# 2 41.4671 132.5881 69.6891 30.7696 9.6186 -8.6517
# 3 68.2813 69.6891 140.3628 25.9339 -12.4252 -9.8427
# 4 9.2219 30.7696 25.9339 65.0988 6.8143 1.3114
# 5 11.0946 9.6186 -12.4252 6.8143 57.4366 4.4478
# 6 -12.4815 -8.6517 -9.8427 1.3114 4.4478 38.7250
#
#
#
# Elastic Compliance Matrix: (Units=1/GPa)
#
#
# Indices 1 2 3 4 5 6 
#
# 1 0.007211 -0.000255 -0.003616 0.000753 -0.002345 0.001592
# 2 -0.000255 0.011273 -0.005040 -0.003034 -0.002690 0.001567
# 3 -0.003616 -0.005040 0.012264 -0.002466 0.004457 0.000397
# 4 0.000753 -0.003034 -0.002466 0.017928 -0.002188 -0.001418
# 5 -0.002345 -0.002690 0.004457 -0.002188 0.019725 -0.002415
# 6 0.001592 0.001567 0.000397 -0.001418 -0.002415 0.027113
#
#
# Mechanical properties :
#
#
# Convention : Reuss Voigt Hill
#
# Bulk Modulus (GPa) = 77.37515 90.17865 83.77690
# Shear Modulus (GPa) = 42.50028 50.47177 46.48602
#
# Velocity S-wave (km/s) = 4.15256 4.52527 4.34292
# Velocity P-wave (km/s) = 7.37464 7.99328 7.69019
#
# Compressibility (1/GPa) = 0.01292405
#
# Stress axis : x y z
#
# Youngs Moduli (GPa) = 138.67120 88.70963 81.53869
#
# Poissons Ratio (x) = 0.02265 0.29488
# Poissons Ratio (y) = 0.03541 0.41098
# Poissons Ratio (z) = 0.50149 0.44712
#
# Static dielectric constant tensor:
#      x y z
#    x -0.005760 0.191100 0.063930 
#    y 0.191100 1.982100 -0.039700 
#    z 0.063930 -0.039700 2.470770 
# 
# From -- ./inp_files/441494.got.cif
#   From: 2010.05.17/outbox.cif.g08.bks.cpg/sg2_221_cif.got.tgz:441494.got - 2010.06.03 11:33:40.
