data_PCOD9049663
_publ_section_title
;
Structure prediction by ZEFSAII (Michael W. Deem and Ramdas Pophale) SiO2 
 PCOD9049663
Probable space group: P -1
;
_chemical_formula_sum "Si O2"
_cell_formula_units_Z 14
_cell_length_a 7.452054
_cell_length_b 14.317431
_cell_length_c 8.700091
_cell_angle_alpha 52.805934
_cell_angle_beta 50.956323
_cell_angle_gamma 69.003271
_cell_volume 573.916336
_symmetry_space_group_name_H-M "P -1"
_symmetry_group_IT_number 2
_symmetry_cell_setting 'triclinic'
loop_
_space_group_symop_operation_xyz
x,y,z
-x,-y,-z
loop_
_atom_site_type_symbol
_atom_site_label
_atom_site_fract_x
_atom_site_fract_y
_atom_site_fract_z
Si Si1 0.022135 0.971791 0.198836
Si Si2 0.394896 0.186351 0.286246
Si Si3 0.756214 0.374426 0.334456
Si Si4 0.875857 0.390963 0.751904
Si Si5 0.389300 0.779980 0.171791
Si Si6 0.735581 0.548771 0.917834
Si Si7 0.101649 0.791711 0.851839
O O1 0.793978 0.900031 0.450617
O O2 0.238762 0.890209 0.187654
O O3 0.034723 0.090745 0.172200
O O4 0.000000 0.000000 0.000000
O O5 0.320537 0.318710 0.218416
O O6 0.644249 0.175144 0.244172
O O7 0.418359 0.176027 0.098568
O O8 0.583268 0.303360 0.612657
O O9 0.853819 0.275016 0.264647
O O10 0.981901 0.434964 0.232109
O O11 0.654804 0.480322 0.184619
O O12 0.765353 0.305891 0.769835
O O13 0.697652 0.454521 0.896676
O O14 0.000000 0.500000 0.500000
O O15 0.010959 0.306378 0.875991
#
# Coordination Sequence:
#
# PCOD9049663 Si02
#       7
#     2   2   2   2   2   2   2
#     4  12  22  43  67  93 122 168 211 268 301 369
#     4  11  23  42  65  96 120 167 216 262 293 385
#     4  10  21  42  60  96 129 169 195 264 321 374
#     4  10  17  34  60  93 113 166 206 250 293 374
#     4  11  23  39  68  93 128 163 216 253 317 364
#     4  10  21  38  66  87 134 162 209 255 313 367
#     4  10  24  37  65  93 129 160 215 254 315 365
#
# _framework density 24.393801
#
# number of rings (size 3 to 8) (size 9 to 14) (size 15 to 20)
#    0.000    1.429    5.714    0.429    0.000    6.286 
#    0.000    2.143    0.000    0.000    0.000    0.000 
#    0.000    0.000    0.000    0.000    0.000    0.000 
#
# Total GULP energy -78260.502083 kJ/mol
# GULP energy per Si atom -5590.035863 kJ/mol
# Density = 2.433828 g / cm^3
# Si number density = 24.393801 Si / 1000 Ang^3
#
#
#
# Elastic Constant Matrix: (Units=GPa)
#
#
# Indices 1 2 3 4 5 6 
#
# 1 34.9790 18.3645 12.6537 -8.7335 4.5778 12.0407
# 2 18.3645 152.8384 20.2425 -34.2050 0.1720 16.2546
# 3 12.6537 20.2425 202.0494 -20.4820 4.0159 9.9354
# 4 -8.7335 -34.2050 -20.4820 31.0613 2.7392 10.0384
# 5 4.5778 0.1720 4.0159 2.7392 24.9076 3.1988
# 6 12.0407 16.2546 9.9354 10.0384 3.1988 30.2570
#
#
#
# Elastic Compliance Matrix: (Units=1/GPa)
#
#
# Indices 1 2 3 4 5 6 
#
# 1 0.043316 0.003416 0.001088 0.026148 -0.007529 -0.027309
# 2 0.003416 0.011971 0.001351 0.019894 -0.001228 -0.014705
# 3 0.001088 0.001351 0.005795 0.007474 -0.001271 -0.005407
# 4 0.026148 0.019894 0.007474 0.083416 -0.008864 -0.050285
# 5 -0.007529 -0.001228 -0.001271 -0.008864 0.042395 0.002532
# 6 -0.027309 -0.014705 -0.005407 -0.050285 0.002532 0.070009
#
#
# Mechanical properties :
#
#
# Convention : Reuss Voigt Hill
#
# Bulk Modulus (GPa) = 13.73781 54.70978 34.22379
# Shear Modulus (GPa) = 18.55599 39.81893 29.18746
#
# Velocity S-wave (km/s) = 2.76104 4.04460 3.46282
# Velocity P-wave (km/s) = 3.97598 6.65494 5.48163
#
# Compressibility (1/GPa) = 0.07279183
#
# Stress axis : x y z
#
# Youngs Moduli (GPa) = 23.08616 83.53474 172.57481
#
# Poissons Ratio (x) = -0.28535 -0.18780
# Poissons Ratio (y) = -0.07886 -0.23314
# Poissons Ratio (z) = -0.02512 -0.11285
#
# Static dielectric constant tensor:
#      x y z
#    x 2.120500 -0.086670 -0.080700 
#    y -0.086670 1.924030 0.071580 
#    z -0.080700 0.071580 2.004260 
# 
# From -- ./inp_files/199233.got.cif
#   From: 2010.05.17/outbox.cif.g08.bks.cpg/sg2_100_cif.got.tgz:199233.got - 2010.06.03 11:33:40.
