data_PCOD9049799
_publ_section_title
;
Structure prediction by ZEFSAII (Michael W. Deem and Ramdas Pophale) SiO2 
 PCOD9049799
Probable space group: P -1
;
_chemical_formula_sum "Si O2"
_cell_formula_units_Z 16
_cell_length_a 11.248190
_cell_length_b 11.997566
_cell_length_c 11.046334
_cell_angle_alpha 99.205049
_cell_angle_beta 131.138987
_cell_angle_gamma 120.206258
_cell_volume 636.960246
_symmetry_space_group_name_H-M "P -1"
_symmetry_group_IT_number 2
_symmetry_cell_setting 'triclinic'
loop_
_space_group_symop_operation_xyz
x,y,z
-x,-y,-z
loop_
_atom_site_type_symbol
_atom_site_label
_atom_site_fract_x
_atom_site_fract_y
_atom_site_fract_z
Si Si1 0.809661 0.552001 0.473861
Si Si2 0.325894 0.747768 0.556566
Si Si3 0.169424 0.393109 0.782212
Si Si4 0.506502 0.685637 0.457285
Si Si5 0.305833 0.156500 0.784505
Si Si6 0.262143 0.326408 0.187100
Si Si7 0.994700 0.066607 0.747977
Si Si8 0.612271 0.102143 0.962149
O O1 0.731245 0.373973 0.394248
O O2 0.877547 0.633417 0.399002
O O3 0.544452 0.463252 0.327814
O O4 0.061974 0.706641 0.763137
O O5 0.426911 0.734460 0.508240
O O6 0.036866 0.634057 0.310523
O O7 0.522608 0.961527 0.774440
O O8 0.074621 0.223193 0.751749
O O9 0.479488 0.615505 0.051424
O O10 0.255438 0.457615 0.212159
O O11 0.703136 0.713381 0.667819
O O12 0.686208 0.840121 0.495641
O O13 0.215022 0.103374 0.856855
O O14 0.464149 0.136298 0.849277
O O15 0.000000 0.000000 0.500000
O O16 0.033951 0.130522 0.922605
O O17 0.500000 0.000000 0.000000
#
# Coordination Sequence:
#
# PCOD9049799 Si02
#       8
#     2   2   2   2   2   2   2   2
#     4  11  23  44  72 106 145 181 244 303 362 422
#     4  11  24  47  71 102 147 189 240 301 349 433
#     4  12  24  46  72 107 148 191 233 306 374 426
#     4  10  26  46  71 104 139 196 248 293 352 425
#     4  12  28  46  73 112 148 190 238 302 376 438
#     4  10  24  47  74  99 141 192 249 296 354 430
#     4  12  27  44  72 102 150 191 240 301 360 439
#     4  12  25  40  75 111 140 189 239 297 368 429
#
# _framework density 25.119306000000002
#
# number of rings (size 3 to 8) (size 9 to 14) (size 15 to 20)
#    0.000    0.750    3.750    2.625    5.250    3.500 
#    0.000    0.625    0.000    0.000    0.000    0.000 
#    0.000    0.000    0.000    0.000    0.000    0.000 
#
# Total GULP energy -89591.577939 kJ/mol
# GULP energy per Si atom -5599.473621 kJ/mol
# Density = 2.506213 g / cm^3
# Si number density = 25.119306 Si / 1000 Ang^3
#
#
#
# Elastic Constant Matrix: (Units=GPa)
#
#
# Indices 1 2 3 4 5 6 
#
# 1 112.4618 30.8367 23.5916 14.4550 0.1063 -23.4873
# 2 30.8367 100.0253 15.6787 13.3682 6.4659 -0.7774
# 3 23.5916 15.6787 132.2540 15.5728 1.3862 -8.7750
# 4 14.4550 13.3682 15.5728 34.2244 -5.5890 0.5372
# 5 0.1063 6.4659 1.3862 -5.5890 40.0954 11.9268
# 6 -23.4873 -0.7774 -8.7750 0.5372 11.9268 30.8616
#
#
#
# Elastic Compliance Matrix: (Units=1/GPa)
#
#
# Indices 1 2 3 4 5 6 
#
# 1 0.012669 -0.002880 -0.000617 -0.004671 -0.003409 0.010793
# 2 -0.002880 0.011529 -0.000522 -0.003345 -0.001929 -0.001246
# 3 -0.000617 -0.000522 0.008340 -0.003607 -0.001453 0.002513
# 4 -0.004671 -0.003345 -0.003607 0.035603 0.008148 -0.008434
# 5 -0.003409 -0.001929 -0.001453 0.008148 0.030957 -0.015162
# 6 0.010793 -0.001246 0.002513 -0.008434 -0.015162 0.047306
#
#
# Mechanical properties :
#
#
# Convention : Reuss Voigt Hill
#
# Bulk Modulus (GPa) = 40.81520 53.88390 47.34955
# Shear Modulus (GPa) = 30.74896 39.34520 35.04708
#
# Velocity S-wave (km/s) = 3.50253 3.96199 3.73932
# Velocity P-wave (km/s) = 5.71321 6.51364 6.12651
#
# Compressibility (1/GPa) = 0.02450067
#
# Stress axis : x y z
#
# Youngs Moduli (GPa) = 78.93502 86.73562 119.90738
#
# Poissons Ratio (x) = 0.24983 0.07393
# Poissons Ratio (y) = 0.22736 0.06254
# Poissons Ratio (z) = 0.04867 0.04524
#
# Static dielectric constant tensor:
#      x y z
#    x 2.028370 -0.001050 -0.080420 
#    y -0.001050 1.997780 -0.010490 
#    z -0.080420 -0.010490 2.068470 
# 
# From -- ./inp_files/428462.got.cif
#   From: 2010.05.17/outbox.cif.g08.bks.cpg/sg2_215_cif.got.tgz:428462.got - 2010.06.03 11:33:40.
