data_PCOD9049635
_publ_section_title
;
Structure prediction by ZEFSAII (Michael W. Deem and Ramdas Pophale) SiO2 
 PCOD9049635
Probable space group: P -1
;
_chemical_formula_sum "Si O2"
_cell_formula_units_Z 16
_cell_length_a 8.336362
_cell_length_b 11.407502
_cell_length_c 9.375189
_cell_angle_alpha 92.878711
_cell_angle_beta 50.016920
_cell_angle_gamma 88.141988
_cell_volume 679.834028
_symmetry_space_group_name_H-M "P -1"
_symmetry_group_IT_number 2
_symmetry_cell_setting 'triclinic'
loop_
_space_group_symop_operation_xyz
x,y,z
-x,-y,-z
loop_
_atom_site_type_symbol
_atom_site_label
_atom_site_fract_x
_atom_site_fract_y
_atom_site_fract_z
Si Si1 0.162627 0.799250 0.978016
Si Si2 0.786270 0.566506 0.573808
Si Si3 0.252281 0.250443 0.629084
Si Si4 0.485431 0.640234 0.979595
Si Si5 0.642264 0.957582 0.046754
Si Si6 0.389893 0.672705 0.358651
Si Si7 0.055842 0.820928 0.719072
Si Si8 0.337676 0.007150 0.465205
O O1 0.304057 0.702952 0.984648
O O2 0.162205 0.780063 0.806977
O O3 0.236573 0.929987 0.965309
O O4 0.927102 0.792730 0.169293
O O5 0.821690 0.636691 0.414469
O O6 0.689076 0.646673 0.763819
O O7 0.624824 0.467678 0.627104
O O8 0.000000 0.500000 0.500000
O O9 0.446253 0.280507 0.619168
O O10 0.295347 0.146628 0.480875
O O11 0.500000 0.500000 0.000000
O O12 0.451689 0.694228 0.160140
O O13 0.467596 0.939298 0.263574
O O14 0.813056 0.853176 0.897733
O O15 0.500000 0.000000 0.000000
O O16 0.158645 0.731376 0.537383
O O17 0.136492 0.943678 0.623494
O O18 0.500000 0.000000 0.500000
#
# Coordination Sequence:
#
# PCOD9049635 Si02
#       8
#     2   2   2   2   2   2   2   2
#     4  12  25  45  74 102 143 195 236 295 368 423
#     4  11  25  49  71 101 146 188 239 302 365 431
#     4  12  24  44  76 105 141 194 241 296 366 427
#     4  10  24  47  70 102 140 185 236 297 364 423
#     4  12  28  44  70 107 147 192 243 294 357 431
#     4  11  25  44  75 105 144 184 244 302 355 431
#     4  12  26  48  71 108 149 189 246 294 357 436
#     4  12  23  46  73 103 149 194 232 299 360 423
#
# _framework density 23.535157000000002
#
# number of rings (size 3 to 8) (size 9 to 14) (size 15 to 20)
#    0.000    0.500    3.750    4.500    1.750    5.500 
#    0.000    3.750    0.000    0.000    0.000    0.000 
#    0.000    0.000    0.000    0.000    0.000    0.000 
#
# Total GULP energy -89470.528540 kJ/mol
# GULP energy per Si atom -5591.908034 kJ/mol
# Density = 2.348159 g / cm^3
# Si number density = 23.535157 Si / 1000 Ang^3
#
#
#
# Elastic Constant Matrix: (Units=GPa)
#
#
# Indices 1 2 3 4 5 6 
#
# 1 68.8127 32.0810 50.8513 6.7589 1.6414 -15.3555
# 2 32.0810 104.7035 29.6319 5.1207 10.5729 1.4914
# 3 50.8513 29.6319 192.6863 15.5640 5.0742 0.2428
# 4 6.7589 5.1207 15.5640 47.9918 -0.5889 -1.5825
# 5 1.6414 10.5729 5.0742 -0.5889 41.1873 -3.2404
# 6 -15.3555 1.4914 0.2428 -1.5825 -3.2404 39.4232
#
#
#
# Elastic Compliance Matrix: (Units=1/GPa)
#
#
# Indices 1 2 3 4 5 6 
#
# 1 0.023323 -0.005965 -0.005253 -0.000608 0.001986 0.009481
# 2 -0.005965 0.011784 -0.000113 -0.000518 -0.003020 -0.003038
# 3 -0.005253 -0.000113 0.006739 -0.001516 -0.000787 -0.002209
# 4 -0.000608 -0.000518 -0.001516 0.021502 0.000708 0.000714
# 5 0.001986 -0.003020 -0.000787 0.000708 0.025319 0.003002
# 6 0.009481 -0.003038 -0.002209 0.000714 0.003002 0.029463
#
#
# Mechanical properties :
#
#
# Convention : Reuss Voigt Hill
#
# Bulk Modulus (GPa) = 52.12555 65.70342 58.91449
# Shear Modulus (GPa) = 33.97043 42.62968 38.30005
#
# Velocity S-wave (km/s) = 3.80332 4.26058 4.03843
# Velocity P-wave (km/s) = 6.44073 7.22365 6.84340
#
# Compressibility (1/GPa) = 0.01918445
#
# Stress axis : x y z
#
# Youngs Moduli (GPa) = 42.87563 84.86074 148.38117
#
# Poissons Ratio (x) = 0.50624 0.77944
# Poissons Ratio (y) = 0.25577 0.01672
# Poissons Ratio (z) = 0.22522 0.00956
#
# Static dielectric constant tensor:
#      x y z
#    x 1.855760 0.019800 -0.028740 
#    y 0.019800 1.989700 0.028560 
#    z -0.028740 0.028560 1.842630 
# 
# From -- ./inp_files/187252.got.cif
#   From: 2010.05.17/outbox.cif.g08.bks.cpg/sg2_94_cif.got.tgz:187252.got - 2010.06.03 11:33:40.
