data_PCOD9049713
_publ_section_title
;
Structure prediction by ZEFSAII (Michael W. Deem and Ramdas Pophale) SiO2 
 PCOD9049713
Probable space group: P -1
;
_chemical_formula_sum "Si O2"
_cell_formula_units_Z 12
_cell_length_a 8.588993
_cell_length_b 9.093316
_cell_length_c 11.169577
_cell_angle_alpha 79.603832
_cell_angle_beta 123.255364
_cell_angle_gamma 135.260465
_cell_volume 480.008877
_symmetry_space_group_name_H-M "P -1"
_symmetry_group_IT_number 2
_symmetry_cell_setting 'triclinic'
loop_
_space_group_symop_operation_xyz
x,y,z
-x,-y,-z
loop_
_atom_site_type_symbol
_atom_site_label
_atom_site_fract_x
_atom_site_fract_y
_atom_site_fract_z
Si Si1 0.964999 0.278440 0.208964
Si Si2 0.289318 0.346072 0.143321
Si Si3 0.213306 0.762910 0.462559
Si Si4 0.962325 0.362823 0.852998
Si Si5 0.842767 0.748781 0.461284
Si Si6 0.488988 0.843137 0.798066
O O1 0.676490 0.173699 0.159139
O O2 0.021011 0.183037 0.146446
O O3 0.069041 0.483974 0.146239
O O4 0.131316 0.321106 0.390171
O O5 0.537933 0.552668 0.304320
O O6 0.363335 0.231341 0.129898
O O7 0.226571 0.429176 0.000878
O O8 0.049065 0.617428 0.297412
O O9 0.295110 0.707996 0.616476
O O10 0.038152 0.786505 0.443515
O O11 0.500000 0.000000 0.500000
O O12 0.708893 0.103823 0.817924
O O13 0.000000 0.000000 0.500000
#
# Coordination Sequence:
#
# PCOD9049713 Si02
#       6
#     2   2   2   2   2   2
#     4  11  26  46  72 102 145 185 239 290 347 425
#     4  12  26  45  72 108 144 182 243 288 353 429
#     4   9  21  41  72  94 136 181 232 279 349 407
#     4  11  24  46  72 106 147 185 227 299 357 415
#     4  11  26  45  72 106 136 189 243 291 352 417
#     4  10  24  47  72 105 140 192 236 282 357 421
#
# _framework density 24.999535999999999
#
# number of rings (size 3 to 8) (size 9 to 14) (size 15 to 20)
#    0.000    1.333    0.000    3.500   11.667    6.000 
#    3.000    0.000    0.000    0.000    0.000    0.000 
#    0.000    0.000    0.000    0.000    0.000    0.000 
#
# Total GULP energy -66954.575755 kJ/mol
# GULP energy per Si atom -5579.547980 kJ/mol
# Density = 2.494264 g / cm^3
# Si number density = 24.999536 Si / 1000 Ang^3
#
#
#
# Elastic Constant Matrix: (Units=GPa)
#
#
# Indices 1 2 3 4 5 6 
#
# 1 170.0356 45.4877 44.1416 -4.0265 11.3314 6.5622
# 2 45.4877 132.6423 47.9311 -9.1731 11.8533 -11.0401
# 3 44.1416 47.9311 126.7143 -16.6693 7.3246 7.9904
# 4 -4.0265 -9.1731 -16.6693 26.9398 -8.7004 -5.1505
# 5 11.3314 11.8533 7.3246 -8.7004 32.0967 -14.6518
# 6 6.5622 -11.0401 7.9904 -5.1505 -14.6518 32.0077
#
#
#
# Elastic Compliance Matrix: (Units=1/GPa)
#
#
# Indices 1 2 3 4 5 6 
#
# 1 0.007205 -0.002059 -0.001597 -0.002675 -0.003991 -0.004046
# 2 -0.002059 0.009907 -0.003100 0.002490 0.000934 0.005441
# 3 -0.001597 -0.003100 0.010430 0.004275 -0.000918 -0.003078
# 4 -0.002675 0.002490 0.004275 0.050433 0.020960 0.018050
# 5 -0.003991 0.000934 -0.000918 0.020960 0.050915 0.028049
# 6 -0.004046 0.005441 -0.003078 0.018050 0.028049 0.050461
#
#
# Mechanical properties :
#
#
# Convention : Reuss Voigt Hill
#
# Bulk Modulus (GPa) = 71.27336 78.27923 74.77629
# Shear Modulus (GPa) = 25.31139 37.66429 31.48784
#
# Velocity S-wave (km/s) = 3.18539 3.88570 3.55285
# Velocity P-wave (km/s) = 6.48851 7.17718 6.84151
#
# Compressibility (1/GPa) = 0.01403049
#
# Stress axis : x y z
#
# Youngs Moduli (GPa) = 138.78612 100.94055 95.87557
#
# Poissons Ratio (x) = 0.20782 0.15314
# Poissons Ratio (y) = 0.28574 0.29719
# Poissons Ratio (z) = 0.22168 0.31289
#
# Static dielectric constant tensor:
#      x y z
#    x 2.134950 -0.061090 0.015060 
#    y -0.061090 2.038910 -0.002690 
#    z 0.015060 -0.002690 2.080270 
# 
# From -- ./inp_files/204859.got.cif
#   From: 2010.05.17/outbox.cif.g08.bks.cpg/sg2_103_cif.got.tgz:204859.got - 2010.06.03 11:33:40.
