data_PCOD9049808
_publ_section_title
;
Structure prediction by ZEFSAII (Michael W. Deem and Ramdas Pophale) SiO2 
 PCOD9049808
Probable space group: P -1
;
_chemical_formula_sum "Si O2"
_cell_formula_units_Z 12
_cell_length_a 5.884348
_cell_length_b 16.146882
_cell_length_c 8.569836
_cell_angle_alpha 135.947423
_cell_angle_beta 117.983166
_cell_angle_gamma 57.813604
_cell_volume 473.966660
_symmetry_space_group_name_H-M "P -1"
_symmetry_group_IT_number 2
_symmetry_cell_setting 'triclinic'
loop_
_space_group_symop_operation_xyz
x,y,z
-x,-y,-z
loop_
_atom_site_type_symbol
_atom_site_label
_atom_site_fract_x
_atom_site_fract_y
_atom_site_fract_z
Si Si1 0.668471 0.541763 0.962682
Si Si2 0.528592 0.358156 0.465365
Si Si3 0.467087 0.979493 0.641297
Si Si4 0.835123 0.766556 0.971877
Si Si5 0.673696 0.242877 0.694542
Si Si6 0.010125 0.141354 0.174337
O O1 0.560928 0.491670 0.703392
O O2 0.500000 0.500000 0.000000
O O3 0.545681 0.690773 0.152833
O O4 0.000000 0.500000 0.000000
O O5 0.262786 0.345220 0.278424
O O6 0.561483 0.295007 0.561320
O O7 0.776804 0.262033 0.324352
O O8 0.500000 0.000000 0.500000
O O9 0.250080 0.906353 0.491355
O O10 0.723993 0.876245 0.660223
O O11 0.407365 0.112988 0.885406
O O12 0.952678 0.826437 0.948218
O O13 0.054863 0.727577 0.126220
O O14 0.000000 0.000000 0.000000
#
# Coordination Sequence:
#
# PCOD9049808 Si02
#       6
#     2   2   2   2   2   2
#     4  10  24  47  75 104 139 191 240 292 357 424
#     4  11  24  45  71  96 141 182 235 294 352 422
#     4  12  23  41  68  98 142 183 230 289 359 424
#     4  12  25  42  66 105 136 179 239 286 360 420
#     4  11  24  45  69  99 141 183 236 290 352 427
#     4  12  22  40  66  97 140 181 228 294 350 418
#
# _framework density 25.318238999999998
#
# number of rings (size 3 to 8) (size 9 to 14) (size 15 to 20)
#    0.000    0.667    3.333    5.000    2.333    2.000 
#    0.000    0.833    0.000    0.000    0.000    0.000 
#    0.000    0.000    0.000    0.000    0.000    0.000 
#
# Total GULP energy -67037.650559 kJ/mol
# GULP energy per Si atom -5586.470880 kJ/mol
# Density = 2.526061 g / cm^3
# Si number density = 25.318239 Si / 1000 Ang^3
#
#
#
# Elastic Constant Matrix: (Units=GPa)
#
#
# Indices 1 2 3 4 5 6 
#
# 1 64.3238 4.4566 12.9778 -1.6227 1.6418 1.7390
# 2 4.4566 41.5871 -10.2731 3.1659 20.8468 5.0195
# 3 12.9778 -10.2731 144.5054 -6.1677 18.8134 8.8850
# 4 -1.6227 3.1659 -6.1677 32.1750 -14.0069 6.1862
# 5 1.6418 20.8468 18.8134 -14.0069 46.4392 -6.1552
# 6 1.7390 5.0195 8.8850 6.1862 -6.1552 48.3449
#
#
#
# Elastic Compliance Matrix: (Units=1/GPa)
#
#
# Indices 1 2 3 4 5 6 
#
# 1 0.016167 -0.003583 -0.001957 0.001795 0.002401 0.000226
# 2 -0.003583 0.040529 0.006389 -0.012677 -0.025389 -0.006864
# 3 -0.001957 0.006389 0.008588 -0.001644 -0.007155 -0.002872
# 4 0.001795 -0.012677 -0.001644 0.040307 0.018281 -0.001276
# 5 0.002401 -0.025389 -0.007155 0.018281 0.042172 0.006895
# 6 0.000226 -0.006864 -0.002872 -0.001276 0.006895 0.022958
#
#
# Mechanical properties :
#
#
# Convention : Reuss Voigt Hill
#
# Bulk Modulus (GPa) = 14.92921 29.41544 22.17232
# Shear Modulus (GPa) = 26.13023 41.60884 33.86954
#
# Velocity S-wave (km/s) = 3.21607 4.05833 3.66150
# Velocity P-wave (km/s) = 4.43850 5.79685 5.16255
#
# Compressibility (1/GPa) = 0.06698279
#
# Stress axis : x y z
#
# Youngs Moduli (GPa) = 61.85347 24.67395 116.44149
#
# Poissons Ratio (x) = 0.08841 0.22783
# Poissons Ratio (y) = 0.22164 -0.74399
# Poissons Ratio (z) = 0.12102 -0.15765
#
# Static dielectric constant tensor:
#      x y z
#    x 0.822190 -0.647030 -0.582850 
#    y -0.647030 1.696360 -0.277820 
#    z -0.582850 -0.277820 1.727820 
# 
# From -- ./inp_files/22084.got.cif
#   From: 2010.05.17/outbox.cif.g08.bks.cpg/sg2_12_cif.got.tgz:22084.got - 2010.06.03 11:33:40.
