data_PCOD9049326
_publ_section_title
;
Structure prediction by ZEFSAII (Michael W. Deem and Ramdas Pophale) SiO2 
 PCOD9049326
Probable space group: P -1
;
_chemical_formula_sum "Si O2"
_cell_formula_units_Z 14
_cell_length_a 14.847230
_cell_length_b 8.164633
_cell_length_c 8.211068
_cell_angle_alpha 40.491276
_cell_angle_beta 121.009255
_cell_angle_gamma 105.649008
_cell_volume 540.466751
_symmetry_space_group_name_H-M "P -1"
_symmetry_group_IT_number 2
_symmetry_cell_setting 'triclinic'
loop_
_space_group_symop_operation_xyz
x,y,z
-x,-y,-z
loop_
_atom_site_type_symbol
_atom_site_label
_atom_site_fract_x
_atom_site_fract_y
_atom_site_fract_z
Si Si1 0.393724 0.582562 0.052986
Si Si2 0.584503 0.186764 0.454294
Si Si3 0.080529 0.812074 0.838985
Si Si4 0.763361 0.685117 0.770661
Si Si5 0.220583 0.131926 0.930754
Si Si6 0.060847 0.196453 0.996418
Si Si7 0.370771 0.072273 0.839326
O O1 0.398091 0.724738 0.779020
O O2 0.350948 0.784849 0.002303
O O3 0.514647 0.422233 0.315922
O O4 0.314670 0.386704 0.110750
O O5 0.500000 0.000000 0.500000
O O6 0.698114 0.076093 0.726837
O O7 0.027141 0.687085 0.036800
O O8 0.152716 0.990098 0.854179
O O9 0.148773 0.574017 0.984381
O O10 0.000000 0.000000 0.500000
O O11 0.834059 0.893733 0.721091
O O12 0.685664 0.763192 0.488205
O O13 0.310072 0.212487 0.835421
O O14 0.125662 0.303879 0.826853
O O15 0.000000 0.000000 0.000000
O O16 0.500000 0.000000 0.000000
#
# Coordination Sequence:
#
# PCOD9049326 Si02
#       7
#     2   2   2   2   2   2   2
#     4  11  24  43  72 107 148 195 241 295 362 451
#     4  11  24  44  72 110 151 192 240 297 369 442
#     4  11  25  47  75 104 140 193 252 309 366 432
#     4  12  25  47  77 103 146 197 239 305 377 427
#     4  11  23  44  71 103 150 184 242 306 360 428
#     4  10  24  46  72 105 142 187 251 309 355 433
#     4  12  26  43  72 109 150 191 242 292 368 453
#
# _framework density 25.903535999999999
#
# number of rings (size 3 to 8) (size 9 to 14) (size 15 to 20)
#    0.000    0.857    1.429    5.571    4.000    2.286 
#    0.000    3.571    3.143    0.000    0.000    0.000 
#    0.000    0.000    0.000    0.000    0.000    0.000 
#
# Total GULP energy -78132.187395 kJ/mol
# GULP energy per Si atom -5580.870528 kJ/mol
# Density = 2.584458 g / cm^3
# Si number density = 25.903536 Si / 1000 Ang^3
#
#
#
# Elastic Constant Matrix: (Units=GPa)
#
#
# Indices 1 2 3 4 5 6 
#
# 1 196.9480 39.1914 29.3562 4.6478 10.3019 -21.2893
# 2 39.1914 66.4245 41.3924 17.0452 17.5352 -3.8697
# 3 29.3562 41.3924 115.4481 15.0491 27.8942 1.5215
# 4 4.6478 17.0452 15.0491 34.7347 0.5482 16.2868
# 5 10.3019 17.5352 27.8942 0.5482 37.1810 7.2895
# 6 -21.2893 -3.8697 1.5215 16.2868 7.2895 58.2184
#
#
#
# Elastic Compliance Matrix: (Units=1/GPa)
#
#
# Indices 1 2 3 4 5 6 
#
# 1 0.005985 -0.003074 -0.000349 -0.000105 -0.000351 0.002067
# 2 -0.003074 0.025568 -0.004801 -0.012369 -0.008445 0.005218
# 3 -0.000349 -0.004801 0.012683 -0.003501 -0.007321 0.001118
# 4 -0.000105 -0.012369 -0.003501 0.042824 0.010617 -0.014078
# 5 -0.000351 -0.008445 -0.007321 0.010617 0.037923 -0.008217
# 6 0.002067 0.005218 0.001118 -0.014078 -0.008217 0.023217
#
#
# Mechanical properties :
#
#
# Convention : Reuss Voigt Hill
#
# Bulk Modulus (GPa) = 35.98760 66.52227 51.25493
# Shear Modulus (GPa) = 28.75041 43.95221 36.35131
#
# Velocity S-wave (km/s) = 3.33513 4.12365 3.75017
# Velocity P-wave (km/s) = 5.36227 6.95767 6.21140
#
# Compressibility (1/GPa) = 0.02778735
#
# Stress axis : x y z
#
# Youngs Moduli (GPa) = 167.07187 39.11150 78.84858
#
# Poissons Ratio (x) = 0.12025 0.02748
# Poissons Ratio (y) = 0.51366 0.37857
# Poissons Ratio (z) = 0.05823 0.18778
#
# Static dielectric constant tensor:
#      x y z
#    x 2.171740 -0.069880 -0.121560 
#    y -0.069880 2.192020 0.029760 
#    z -0.121560 0.029760 2.076380 
# 
# From -- ./inp_files/297340.got.cif
#   From: 2010.05.17/outbox.cif.g08.bks.cpg/sg2_149_cif.got.tgz:297340.got - 2010.06.03 11:33:40.
