data_PCOD9049151
_publ_section_title
;
Structure prediction by ZEFSAII (Michael W. Deem and Ramdas Pophale) SiO2 
 PCOD9049151
Probable space group: P -1
;
_chemical_formula_sum "Si O2"
_cell_formula_units_Z 14
_cell_length_a 11.991452
_cell_length_b 11.014289
_cell_length_c 8.662931
_cell_angle_alpha 50.874378
_cell_angle_beta 139.313141
_cell_angle_gamma 119.253062
_cell_volume 578.538552
_symmetry_space_group_name_H-M "P -1"
_symmetry_group_IT_number 2
_symmetry_cell_setting 'triclinic'
loop_
_space_group_symop_operation_xyz
x,y,z
-x,-y,-z
loop_
_atom_site_type_symbol
_atom_site_label
_atom_site_fract_x
_atom_site_fract_y
_atom_site_fract_z
Si Si1 0.360382 0.972810 0.007453
Si Si2 0.934643 0.247948 0.224131
Si Si3 0.131025 0.257871 0.127408
Si Si4 0.913976 0.514096 0.564187
Si Si5 0.355565 0.546556 0.194487
Si Si6 0.579134 0.694792 0.053229
Si Si7 0.560000 0.847233 0.597390
O O1 0.445795 0.853002 0.316701
O O2 0.187759 0.904228 0.802728
O O3 0.500000 0.000000 0.000000
O O4 0.338052 0.138868 0.936067
O O5 0.089629 0.226145 0.286765
O O6 0.000992 0.334417 0.379167
O O7 0.798905 0.381344 0.929026
O O8 0.277632 0.391464 0.162494
O O9 0.236076 0.128877 0.250142
O O10 0.963360 0.345101 0.821967
O O11 0.717307 0.559053 0.318302
O O12 0.000000 0.500000 0.500000
O O13 0.500000 0.500000 0.500000
O O14 0.427043 0.656807 0.044648
O O15 0.531900 0.718331 0.805853
O O16 0.500000 0.000000 0.500000
#
# Coordination Sequence:
#
# PCOD9049151 Si02
#       7
#     2   2   2   2   2   2   2
#     4  11  24  47  73 101 137 189 243 294 343 421
#     4  11  24  43  69 107 136 185 237 290 352 420
#     4  11  23  44  68 103 144 178 234 294 350 421
#     4  11  23  44  68 105 146 180 225 291 362 418
#     4  11  21  39  70 104 139 183 233 291 347 422
#     4  11  23  45  71 104 144 187 238 286 356 424
#     4  10  24  46  70 100 142 190 239 289 353 422
#
# _framework density 24.198907999999999
#
# number of rings (size 3 to 8) (size 9 to 14) (size 15 to 20)
#    0.000    1.143    2.857    4.286    2.000    1.143 
#    5.143    2.857    0.000    0.000    0.000    0.000 
#    0.000    0.000    0.000    0.000    0.000    0.000 
#
# Total GULP energy -78144.331953 kJ/mol
# GULP energy per Si atom -5581.737997 kJ/mol
# Density = 2.414383 g / cm^3
# Si number density = 24.198908 Si / 1000 Ang^3
#
#
#
# Elastic Constant Matrix: (Units=GPa)
#
#
# Indices 1 2 3 4 5 6 
#
# 1 179.0083 37.1210 42.4305 1.3562 -3.3547 -24.8495
# 2 37.1210 89.4236 10.8636 11.1896 0.4237 -4.4408
# 3 42.4305 10.8636 127.9024 -10.2869 1.5997 -10.0746
# 4 1.3562 11.1896 -10.2869 17.3265 -9.8475 6.8054
# 5 -3.3547 0.4237 1.5997 -9.8475 45.1520 -4.3747
# 6 -24.8495 -4.4408 -10.0746 6.8054 -4.3747 30.8847
#
#
#
# Elastic Compliance Matrix: (Units=1/GPa)
#
#
# Indices 1 2 3 4 5 6 
#
# 1 0.007313 -0.002278 -0.001973 -0.002003 0.000726 0.005457
# 2 -0.002278 0.013851 -0.001175 -0.011738 -0.002625 0.001990
# 3 -0.001973 -0.001175 0.009108 0.006986 0.001048 -0.000176
# 4 -0.002003 -0.011738 0.006986 0.086049 0.016775 -0.017605
# 5 0.000726 -0.002625 0.001048 0.016775 0.025898 0.000521
# 6 0.005457 0.001990 -0.000176 -0.017605 0.000521 0.040951
#
#
# Mechanical properties :
#
#
# Convention : Reuss Voigt Hill
#
# Bulk Modulus (GPa) = 51.49425 64.12938 57.81181
# Shear Modulus (GPa) = 24.93840 39.06725 32.00282
#
# Velocity S-wave (km/s) = 3.21371 4.02235 3.64055
# Velocity P-wave (km/s) = 5.92422 6.93764 6.45086
#
# Compressibility (1/GPa) = 0.01941965
#
# Stress axis : x y z
#
# Youngs Moduli (GPa) = 136.75087 72.19641 109.79824
#
# Poissons Ratio (x) = 0.16444 0.21661
# Poissons Ratio (y) = 0.31147 0.12905
# Poissons Ratio (z) = 0.26978 0.08486
#
# Static dielectric constant tensor:
#      x y z
#    x 2.226920 -0.361980 0.194110 
#    y -0.361980 2.394010 -0.291370 
#    z 0.194110 -0.291370 2.216520 
# 
# From -- ./inp_files/261867.got.cif
#   From: 2010.05.17/outbox.cif.g08.bks.cpg/sg2_131_cif.got.tgz:261867.got - 2010.06.03 11:33:40.
