data_PCOD9049583
_publ_section_title
;
Structure prediction by ZEFSAII (Michael W. Deem and Ramdas Pophale) SiO2 
 PCOD9049583
Probable space group: P -1
;
_chemical_formula_sum "Si O2"
_cell_formula_units_Z 15
_cell_length_a 11.409084
_cell_length_b 10.789481
_cell_length_c 14.325136
_cell_angle_alpha 54.077291
_cell_angle_beta 35.405310
_cell_angle_gamma 36.435975
_cell_volume 594.431185
_symmetry_space_group_name_H-M "P -1"
_symmetry_group_IT_number 2
_symmetry_cell_setting 'triclinic'
loop_
_space_group_symop_operation_xyz
x,y,z
-x,-y,-z
loop_
_atom_site_type_symbol
_atom_site_label
_atom_site_fract_x
_atom_site_fract_y
_atom_site_fract_z
Si Si1 0.601409 0.702793 0.570635
Si Si2 0.110465 0.047113 0.319840
Si Si3 0.909746 0.307143 0.992279
Si Si4 0.804512 0.521817 0.319860
Si Si5 0.319076 0.393408 0.834446
Si Si6 0.500000 0.500000 0.000000
Si Si7 0.114313 0.615170 0.309366
Si Si8 0.961374 0.010200 0.824642
O O1 0.782554 0.493623 0.610582
O O2 0.270598 0.889171 0.717824
O O3 0.635558 0.629546 0.475811
O O4 0.787878 0.757145 0.444194
O O5 0.020084 0.268458 0.297577
O O6 0.023703 0.040707 0.272743
O O7 0.447359 0.852466 0.185152
O O8 0.000000 0.000000 0.500000
O O9 0.684899 0.472583 0.145768
O O10 0.118620 0.084535 0.012266
O O11 0.065967 0.379187 0.828097
O O12 0.734007 0.336678 0.007625
O O13 0.624634 0.579897 0.318302
O O14 0.000000 0.500000 0.000000
O O15 0.694742 0.555310 0.819566
O O16 0.219500 0.736021 0.165599
#
# Coordination Sequence:
#
# PCOD9049583 Si02
#       8
#     2   2   2   2   2   1   2   2
#     4  11  24  46  70 103 145 191 229 301 367 416
#     4  12  26  42  75 111 137 192 245 293 364 437
#     4  11  24  45  67 105 141 192 232 295 357 416
#     4  11  24  46  70 103 149 183 236 298 358 431
#     4  10  24  47  67 101 144 187 233 292 363 420
#     4  12  22  48  70 100 138 190 244 290 348 422
#     4  11  25  45  70 102 143 188 243 295 356 428
#     4  12  25  44  72 104 143 184 245 294 355 432
#
# _framework density 25.234209
#
# number of rings (size 3 to 8) (size 9 to 14) (size 15 to 20)
#    0.000    0.800    4.000    2.800    1.867    3.733 
#    4.800    0.000    0.000    0.000    0.000    0.000 
#    0.000    0.000    0.000    0.000    0.000    0.000 
#
# Total GULP energy -83654.551906 kJ/mol
# GULP energy per Si atom -5576.970127 kJ/mol
# Density = 2.517677 g / cm^3
# Si number density = 25.234209 Si / 1000 Ang^3
#
#
#
# Elastic Constant Matrix: (Units=GPa)
#
#
# Indices 1 2 3 4 5 6 
#
# 1 101.0483 20.6798 34.2647 -22.1316 19.6308 -26.3376
# 2 20.6798 163.9714 34.8892 -23.4697 -9.8367 -7.5581
# 3 34.2647 34.8892 94.0536 -21.2453 1.4279 -16.4649
# 4 -22.1316 -23.4697 -21.2453 44.5985 -15.2307 -8.4894
# 5 19.6308 -9.8367 1.4279 -15.2307 56.5688 -3.6959
# 6 -26.3376 -7.5581 -16.4649 -8.4894 -3.6959 43.7228
#
#
#
# Elastic Compliance Matrix: (Units=1/GPa)
#
#
# Indices 1 2 3 4 5 6 
#
# 1 0.015288 -0.000129 -0.002120 0.007435 -0.002645 0.009609
# 2 -0.000129 0.007268 -0.001420 0.004300 0.002613 0.001700
# 3 -0.002120 -0.001420 0.014406 0.006897 0.002338 0.005439
# 4 0.007435 0.004300 0.006897 0.037846 0.009225 0.015947
# 5 -0.002645 0.002613 0.002338 0.009225 0.021694 0.003364
# 6 0.009609 0.001700 0.005439 0.015947 0.003364 0.034382
#
#
# Mechanical properties :
#
#
# Convention : Reuss Voigt Hill
#
# Bulk Modulus (GPa) = 33.75605 59.86006 46.80805
# Shear Modulus (GPa) = 33.76179 46.92732 40.34456
#
# Velocity S-wave (km/s) = 3.66175 4.31707 4.00284
# Velocity P-wave (km/s) = 5.59321 6.97300 6.32087
#
# Compressibility (1/GPa) = 0.02962432
#
# Stress axis : x y z
#
# Youngs Moduli (GPa) = 65.41043 137.59738 69.41614
#
# Poissons Ratio (x) = 0.01769 0.14718
# Poissons Ratio (y) = 0.00841 0.09855
# Poissons Ratio (z) = 0.13869 0.19535
#
# Static dielectric constant tensor:
#      x y z
#    x 2.136490 0.141100 0.065370 
#    y 0.141100 2.154900 0.126910 
#    z 0.065370 0.126910 2.512340 
# 
# From -- ./inp_files/518743.got.cif
#   From: 2010.05.17/outbox.cif.g08.bks.cpg/sg2_260_cif.got.tgz:518743.got - 2010.06.03 11:33:40.
