data_PCOD9049324
_publ_section_title
;
Structure prediction by ZEFSAII (Michael W. Deem and Ramdas Pophale) SiO2 
 PCOD9049324
Probable space group: P -1
;
_chemical_formula_sum "Si O2"
_cell_formula_units_Z 12
_cell_length_a 11.199337
_cell_length_b 10.367876
_cell_length_c 5.014178
_cell_angle_alpha 83.408970
_cell_angle_beta 91.565013
_cell_angle_gamma 61.791241
_cell_volume 507.455988
_symmetry_space_group_name_H-M "P -1"
_symmetry_group_IT_number 2
_symmetry_cell_setting 'triclinic'
loop_
_space_group_symop_operation_xyz
x,y,z
-x,-y,-z
loop_
_atom_site_type_symbol
_atom_site_label
_atom_site_fract_x
_atom_site_fract_y
_atom_site_fract_z
Si Si1 0.571954 0.857350 0.727395
Si Si2 0.194497 0.412678 0.474097
Si Si3 0.870001 0.142127 0.840740
Si Si4 0.874069 0.381593 0.079945
Si Si5 0.304321 0.984119 0.963076
Si Si6 0.076057 0.198683 0.512419
O O1 0.659660 0.715214 0.587395
O O2 0.450332 0.861518 0.892691
O O3 0.500000 0.000000 0.500000
O O4 0.667888 0.893007 0.919046
O O5 0.191448 0.512483 0.697142
O O6 0.109873 0.328660 0.566558
O O7 0.133112 0.514930 0.187141
O O8 0.942119 0.188669 0.602806
O O9 0.807111 0.283108 0.998814
O O10 0.760153 0.085918 0.820086
O O11 0.000000 0.000000 0.000000
O O12 0.028119 0.253435 0.192536
O O13 0.201726 0.057655 0.688827
#
# Coordination Sequence:
#
# PCOD9049324 Si02
#       6
#     2   2   2   2   2   2
#     4  11  24  46  74 100 136 194 242 301 336 413
#     4  12  26  43  73 105 148 182 245 284 354 424
#     4  10  25  44  70 105 147 187 233 287 360 430
#     4  12  26  45  70 110 147 190 222 298 363 421
#     4  10  24  46  72 105 139 183 251 288 350 418
#     4  11  23  43  72 107 142 185 223 302 352 422
#
# _framework density 23.647373000000002
#
# number of rings (size 3 to 8) (size 9 to 14) (size 15 to 20)
#    0.000    1.000    3.333    2.000    9.333    4.000 
#    0.000    1.667    0.000    0.000    0.000    0.000 
#    0.000    0.000    0.000    0.000    0.000    0.000 
#
# Total GULP energy -67013.358169 kJ/mol
# GULP energy per Si atom -5584.446514 kJ/mol
# Density = 2.359355 g / cm^3
# Si number density = 23.647373 Si / 1000 Ang^3
#
#
#
# Elastic Constant Matrix: (Units=GPa)
#
#
# Indices 1 2 3 4 5 6 
#
# 1 149.9070 53.4772 39.4475 0.9335 -18.6053 -2.9160
# 2 53.4772 132.0686 57.5427 13.8047 -12.5132 -2.4921
# 3 39.4475 57.5427 129.6989 -1.0606 -11.6773 -3.8256
# 4 0.9335 13.8047 -1.0606 45.3828 4.0673 -5.4883
# 5 -18.6053 -12.5132 -11.6773 4.0673 29.1762 -2.2710
# 6 -2.9160 -2.4921 -3.8256 -5.4883 -2.2710 40.4165
#
#
#
# Elastic Compliance Matrix: (Units=1/GPa)
#
#
# Indices 1 2 3 4 5 6 
#
# 1 0.008348 -0.002597 -0.001024 0.000326 0.003801 0.000603
# 2 -0.002597 0.010869 -0.003896 -0.003547 0.001921 -0.000260
# 3 -0.001024 -0.003896 0.009925 0.001411 0.001522 0.000902
# 4 0.000326 -0.003547 0.001411 0.023842 -0.003842 0.002960
# 5 0.003801 0.001921 0.001522 -0.003842 0.038838 0.002197
# 6 0.000603 -0.000260 0.000902 0.002960 0.002197 0.025381
#
#
# Mechanical properties :
#
#
# Convention : Reuss Voigt Hill
#
# Bulk Modulus (GPa) = 70.88045 79.17878 75.02962
# Shear Modulus (GPa) = 36.51239 40.40890 38.46065
#
# Velocity S-wave (km/s) = 3.93368 4.13826 4.03727
# Velocity P-wave (km/s) = 7.11834 7.50929 7.31643
#
# Compressibility (1/GPa) = 0.01410826
#
# Stress axis : x y z
#
# Youngs Moduli (GPa) = 119.78709 92.00843 100.75154
#
# Poissons Ratio (x) = 0.23891 0.10320
# Poissons Ratio (y) = 0.31104 0.39253
# Poissons Ratio (z) = 0.12270 0.35846
#
# Static dielectric constant tensor:
#      x y z
#    x 1.916410 -0.033800 -0.013380 
#    y -0.033800 1.950840 0.052150 
#    z -0.013380 0.052150 2.009150 
# 
# From -- ./inp_files/64280.got.cif
#   From: 2010.05.17/outbox.cif.g08.bks.cpg/sg2_33_cif.got.tgz:64280.got - 2010.06.03 11:33:40.
