data_PCOD9049843
_publ_section_title
;
Structure prediction by ZEFSAII (Michael W. Deem and Ramdas Pophale) SiO2 
 PCOD9049843
Probable space group: P -1
;
_chemical_formula_sum "Si O2"
_cell_formula_units_Z 16
_cell_length_a 11.494801
_cell_length_b 18.793603
_cell_length_c 7.113296
_cell_angle_alpha 44.730666
_cell_angle_beta 95.530988
_cell_angle_gamma 127.285832
_cell_volume 690.628145
_symmetry_space_group_name_H-M "P -1"
_symmetry_group_IT_number 2
_symmetry_cell_setting 'triclinic'
loop_
_space_group_symop_operation_xyz
x,y,z
-x,-y,-z
loop_
_atom_site_type_symbol
_atom_site_label
_atom_site_fract_x
_atom_site_fract_y
_atom_site_fract_z
Si Si1 0.285735 0.660409 0.157783
Si Si2 0.326355 0.271570 0.310073
Si Si3 0.667620 0.886623 0.936565
Si Si4 0.827689 0.026250 0.277537
Si Si5 0.942994 0.300821 0.918309
Si Si6 0.252949 0.273109 0.860135
Si Si7 0.980254 0.774789 0.561574
Si Si8 0.308938 0.502562 0.190171
O O1 0.207164 0.719072 0.997637
O O2 0.349903 0.638667 0.028488
O O3 0.115770 0.480060 0.540966
O O4 0.457826 0.780257 0.099818
O O5 0.165770 0.230034 0.456550
O O6 0.283078 0.123734 0.588815
O O7 0.311000 0.294275 0.044047
O O8 0.543149 0.425211 0.083664
O O9 0.745844 0.953897 0.609239
O O10 0.674704 0.770145 0.177299
O O11 0.818046 0.048788 0.771456
O O12 0.849924 0.162086 0.015534
O O13 0.034314 0.123302 0.110357
O O14 0.015280 0.276979 0.139872
O O15 0.311733 0.419382 0.510192
O O16 0.892600 0.637409 0.663141
#
# Coordination Sequence:
#
# PCOD9049843 Si02
#       8
#     2   2   2   2   2   2   2   2
#     4  11  22  40  63  87 105 148 215 230 269 340
#     4  11  19  37  57  87 117 154 189 230 282 350
#     4  10  20  36  61  86 112 150 192 236 278 347
#     4  10  17  34  61  83 111 145 188 238 282 319
#     4  10  23  39  63  82 113 151 193 249 277 325
#     4  11  18  34  61  84 114 150 191 235 282 332
#     4  11  23  39  55  87 128 149 176 237 304 334
#     4  12  24  34  58  91 119 152 188 233 287 348
#
# _framework density 23.167313
#
# number of rings (size 3 to 8) (size 9 to 14) (size 15 to 20)
#    0.000    1.250    7.500    1.500    1.750    3.000 
#    0.000    0.000    0.000    1.500    0.000    0.000 
#    0.000    0.000    0.000    0.000    0.000    0.000 
#
# Total GULP energy -89351.374471 kJ/mol
# GULP energy per Si atom -5584.460904 kJ/mol
# Density = 2.311458 g / cm^3
# Si number density = 23.167313 Si / 1000 Ang^3
#
#
#
# Elastic Constant Matrix: (Units=GPa)
#
#
# Indices 1 2 3 4 5 6 
#
# 1 112.0559 15.3037 34.1886 -20.3046 -3.5481 5.5527
# 2 15.3037 54.2374 17.2786 -28.4821 3.3450 2.8060
# 3 34.1886 17.2786 78.3952 -16.8346 -7.0046 2.2940
# 4 -20.3046 -28.4821 -16.8346 45.9063 2.2946 -2.2602
# 5 -3.5481 3.3450 -7.0046 2.2946 27.6130 -7.0700
# 6 5.5527 2.8060 2.2940 -2.2602 -7.0700 15.6054
#
#
#
# Elastic Compliance Matrix: (Units=1/GPa)
#
#
# Indices 1 2 3 4 5 6 
#
# 1 0.010866 0.000167 -0.004038 0.003310 -0.000731 -0.003155
# 2 0.000167 0.029108 -0.003316 0.017001 -0.007193 -0.005602
# 3 -0.004038 -0.003316 0.015981 0.001897 0.004263 0.001890
# 4 0.003310 0.017001 0.001897 0.034639 -0.004415 -0.001497
# 5 -0.000731 -0.007193 0.004263 -0.004415 0.043568 0.020026
# 6 -0.003155 -0.005602 0.001890 -0.001497 0.020026 0.074788
#
#
# Mechanical properties :
#
#
# Convention : Reuss Voigt Hill
#
# Bulk Modulus (GPa) = 24.04945 42.02560 33.03752
# Shear Modulus (GPa) = 21.08063 29.68612 25.38337
#
# Velocity S-wave (km/s) = 3.01978 3.58352 3.31366
# Velocity P-wave (km/s) = 4.74995 5.94151 5.37883
#
# Compressibility (1/GPa) = 0.04158100
#
# Stress axis : x y z
#
# Youngs Moduli (GPa) = 92.02804 34.35434 62.57578
#
# Poissons Ratio (x) = -0.00574 0.25267
# Poissons Ratio (y) = -0.01536 0.20752
# Poissons Ratio (z) = 0.37159 0.11393
#
# Static dielectric constant tensor:
#      x y z
#    x 1.857760 -0.038590 -0.021910 
#    y -0.038590 1.949610 0.014800 
#    z -0.021910 0.014800 1.910540 
# 
# From -- ./inp_files/202988.got.cif
#   From: 2010.05.17/outbox.cif.g08.bks.cpg/sg2_102_cif.got.tgz:202988.got - 2010.06.03 11:33:40.
