data_PCOD9049011
_publ_section_title
;
Structure prediction by ZEFSAII (Michael W. Deem and Ramdas Pophale) SiO2 
 PCOD9049011
Probable space group: P -1
;
_chemical_formula_sum "Si O2"
_cell_formula_units_Z 16
_cell_length_a 14.507910
_cell_length_b 10.041033
_cell_length_c 5.817387
_cell_angle_alpha 89.549523
_cell_angle_beta 60.597608
_cell_angle_gamma 63.978403
_cell_volume 639.714614
_symmetry_space_group_name_H-M "P -1"
_symmetry_group_IT_number 2
_symmetry_cell_setting 'triclinic'
loop_
_space_group_symop_operation_xyz
x,y,z
-x,-y,-z
loop_
_atom_site_type_symbol
_atom_site_label
_atom_site_fract_x
_atom_site_fract_y
_atom_site_fract_z
Si Si1 0.435822 0.185016 0.095182
Si Si2 0.890154 0.048803 0.812573
Si Si3 0.153641 0.141707 0.794690
Si Si4 0.307156 0.859569 0.306645
Si Si5 0.743529 0.701827 0.988749
Si Si6 0.021399 0.559743 0.223122
Si Si7 0.699478 0.322197 0.314604
Si Si8 0.453985 0.312779 0.544198
O O1 0.425970 0.230670 0.377329
O O2 0.551530 0.219267 0.915945
O O3 0.284385 0.251593 0.240442
O O4 0.500000 0.000000 0.000000
O O5 0.777467 0.059644 0.806300
O O6 0.820556 0.215438 0.021220
O O7 0.000000 0.000000 0.500000
O O8 0.923025 0.919715 0.966451
O O9 0.208886 0.212246 0.909140
O O10 0.062871 0.260643 0.714718
O O11 0.262962 0.992262 0.548527
O O12 0.275058 0.733915 0.451174
O O13 0.600165 0.743971 0.177449
O O14 0.832645 0.524377 0.934435
O O15 0.000000 0.500000 0.500000
O O16 0.000000 0.500000 0.000000
O O17 0.589480 0.286225 0.388331
O O18 0.633804 0.504082 0.368822
#
# Coordination Sequence:
#
# PCOD9049011 Si02
#       8
#     2   2   2   2   2   2   2   2
#     4  12  25  38  72 108 146 188 245 306 385 464
#     4  11  25  46  74 105 142 202 260 317 385 452
#     4  10  25  45  72 106 153 189 250 325 380 464
#     4  11  23  42  71 103 142 189 246 316 382 452
#     4  11  25  43  70 107 140 198 242 304 397 456
#     4  10  25  45  70 104 154 202 254 311 385 468
#     4  10  24  46  66 101 148 192 254 311 377 465
#     4  11  24  44  68 102 148 194 245 312 386 462
#
# _framework density 25.011153
#
# number of rings (size 3 to 8) (size 9 to 14) (size 15 to 20)
#    0.000    1.250    2.500    1.500   10.500    6.500 
#    0.000    0.000    0.000    0.000    0.000    0.000 
#    0.000    0.000    0.000    0.000    0.000    0.000 
#
# Total GULP energy -89150.761326 kJ/mol
# GULP energy per Si atom -5571.922583 kJ/mol
# Density = 2.495423 g / cm^3
# Si number density = 25.011153 Si / 1000 Ang^3
#
#
#
# Elastic Constant Matrix: (Units=GPa)
#
#
# Indices 1 2 3 4 5 6 
#
# 1 88.2764 13.0635 11.2688 -3.6614 0.5532 -30.8442
# 2 13.0635 132.5654 34.0509 -10.1139 5.9977 -28.3371
# 3 11.2688 34.0509 100.6868 -12.3382 -16.9267 -8.0035
# 4 -3.6614 -10.1139 -12.3382 27.9968 -1.6898 -1.0344
# 5 0.5532 5.9977 -16.9267 -1.6898 36.3461 3.4844
# 6 -30.8442 -28.3371 -8.0035 -1.0344 3.4844 48.3287
#
#
#
# Elastic Compliance Matrix: (Units=1/GPa)
#
#
# Indices 1 2 3 4 5 6 
#
# 1 0.015014 0.001333 -0.001388 0.002095 -0.001987 0.010322
# 2 0.001333 0.010009 -0.003365 0.002320 -0.003753 0.006482
# 3 -0.001388 -0.003365 0.012864 0.004646 0.006891 -0.001126
# 4 0.002095 0.002320 0.004646 0.039221 0.003182 0.004077
# 5 -0.001987 -0.003753 0.006891 0.003182 0.031957 -0.004563
# 6 0.010322 0.006482 -0.001126 0.004077 -0.004563 0.031310
#
#
# Mechanical properties :
#
#
# Convention : Reuss Voigt Hill
#
# Bulk Modulus (GPa) = 32.21055 48.69944 40.45500
# Shear Modulus (GPa) = 31.73321 40.07736 35.90528
#
# Velocity S-wave (km/s) = 3.56583 4.00732 3.79300
# Velocity P-wave (km/s) = 5.46443 6.39725 5.94915
#
# Compressibility (1/GPa) = 0.03104572
#
# Stress axis : x y z
#
# Youngs Moduli (GPa) = 66.60515 99.91022 77.73897
#
# Poissons Ratio (x) = -0.13320 0.10791
# Poissons Ratio (y) = -0.08880 0.26163
# Poissons Ratio (z) = 0.09245 0.33624
#
# Static dielectric constant tensor:
#      x y z
#    x 2.115000 0.129650 -0.114170 
#    y 0.129650 2.159860 -0.237540 
#    z -0.114170 -0.237540 2.408520 
# 
# From -- ./inp_files/94888.got.cif
#   From: 2010.05.17/outbox.cif.g08.bks.cpg/sg2_48_cif.got.tgz:94888.got - 2010.06.03 11:33:40.
