data_PCOD9049439
_publ_section_title
;
Structure prediction by ZEFSAII (Michael W. Deem and Ramdas Pophale) SiO2 
 PCOD9049439
Probable space group: P -1
;
_chemical_formula_sum "Si O2"
_cell_formula_units_Z 14
_cell_length_a 8.538524
_cell_length_b 8.198935
_cell_length_c 9.525224
_cell_angle_alpha 114.432225
_cell_angle_beta 70.540025
_cell_angle_gamma 90.741502
_cell_volume 566.347806
_symmetry_space_group_name_H-M "P -1"
_symmetry_group_IT_number 2
_symmetry_cell_setting 'triclinic'
loop_
_space_group_symop_operation_xyz
x,y,z
-x,-y,-z
loop_
_atom_site_type_symbol
_atom_site_label
_atom_site_fract_x
_atom_site_fract_y
_atom_site_fract_z
Si Si1 0.111969 0.280578 0.656181
Si Si2 0.106557 0.800936 0.869998
Si Si3 0.692538 0.456787 0.484442
Si Si4 0.384707 0.993927 0.395935
Si Si5 0.593589 0.062552 0.124951
Si Si6 0.281934 0.624764 0.228252
Si Si7 0.210987 0.314792 0.958144
O O1 0.192839 0.406669 0.567812
O O2 0.177492 0.324723 0.806944
O O3 0.913811 0.298490 0.709987
O O4 0.198692 0.077880 0.524437
O O5 0.200124 0.736450 0.672310
O O6 0.275880 0.804197 0.910876
O O7 0.973014 0.672559 0.908386
O O8 0.000000 0.000000 0.000000
O O9 0.500000 0.500000 0.500000
O O10 0.692306 0.459015 0.653138
O O11 0.455485 0.120760 0.304338
O O12 0.382697 0.794881 0.263072
O O13 0.500000 0.000000 0.500000
O O14 0.699025 0.884748 0.100268
O O15 0.500000 0.000000 0.000000
O O16 0.309533 0.466536 0.047946
#
# Coordination Sequence:
#
# PCOD9049439 Si02
#       7
#     2   2   2   2   2   2   2
#     4  12  26  48  76 107 152 195 254 303 377 450
#     4  10  24  46  74 104 152 194 247 306 374 445
#     4  12  27  47  76 110 152 194 251 314 378 438
#     4  12  26  51  72 109 151 197 243 315 379 445
#     4  11  26  44  75 107 150 192 250 302 378 441
#     4  12  28  47  76 109 150 196 254 301 379 453
#     4  11  26  48  74 109 148 195 246 310 371 447
#
# _framework density 24.719792999999999
#
# number of rings (size 3 to 8) (size 9 to 14) (size 15 to 20)
#    0.000    0.571    2.857    3.857    8.000    1.714 
#    0.000    0.000    0.000    0.000    0.000    0.000 
#    0.000    0.000    0.000    0.000    0.000    0.000 
#
# Total GULP energy -78294.311903 kJ/mol
# GULP energy per Si atom -5592.450850 kJ/mol
# Density = 2.466353 g / cm^3
# Si number density = 24.719793 Si / 1000 Ang^3
#
#
#
# Elastic Constant Matrix: (Units=GPa)
#
#
# Indices 1 2 3 4 5 6 
#
# 1 115.3182 23.0442 37.1417 3.4274 11.5249 16.6016
# 2 23.0442 78.4525 26.0230 13.4875 6.6386 12.6205
# 3 37.1417 26.0230 110.9626 17.1756 6.3009 -2.9371
# 4 3.4274 13.4875 17.1756 45.2191 -5.5816 1.4268
# 5 11.5249 6.6386 6.3009 -5.5816 50.8792 5.1056
# 6 16.6016 12.6205 -2.9371 1.4268 5.1056 58.4514
#
#
#
# Elastic Compliance Matrix: (Units=1/GPa)
#
#
# Indices 1 2 3 4 5 6 
#
# 1 0.010554 -0.001600 -0.003278 0.000834 -0.001412 -0.002714
# 2 -0.001600 0.015212 -0.002471 -0.003568 -0.001433 -0.002742
# 3 -0.003278 -0.002471 0.011344 -0.003510 -0.000946 0.002203
# 4 0.000834 -0.003568 -0.003510 0.024898 0.003498 -0.000556
# 5 -0.001412 -0.001433 -0.000946 0.003498 0.020786 -0.001238
# 6 -0.002714 -0.002742 0.002203 -0.000556 -0.001238 0.018704
#
#
# Mechanical properties :
#
#
# Convention : Reuss Voigt Hill
#
# Bulk Modulus (GPa) = 44.61912 53.01679 48.81795
# Shear Modulus (GPa) = 40.43115 45.47824 42.95469
#
# Velocity S-wave (km/s) = 4.04862 4.29388 4.17305
# Velocity P-wave (km/s) = 6.32014 6.78800 6.55824
#
# Compressibility (1/GPa) = 0.02241192
#
# Stress axis : x y z
#
# Youngs Moduli (GPa) = 94.74809 65.73832 88.15164
#
# Poissons Ratio (x) = 0.10518 0.28898
# Poissons Ratio (y) = 0.15160 0.21781
# Poissons Ratio (z) = 0.31061 0.16243
#
# Static dielectric constant tensor:
#      x y z
#    x 1.925510 0.009830 -0.055670 
#    y 0.009830 2.006470 0.080290 
#    z -0.055670 0.080290 1.989250 
# 
# From -- ./inp_files/159505.got.cif
#   From: 2010.05.17/outbox.cif.g08.bks.cpg/sg2_80_cif.got.tgz:159505.got - 2010.06.03 11:33:40.
