data_PCOD9049019
_publ_section_title
;
Structure prediction by ZEFSAII (Michael W. Deem and Ramdas Pophale) SiO2 
 PCOD9049019
Probable space group: P -1
;
_chemical_formula_sum "Si O2"
_cell_formula_units_Z 16
_cell_length_a 9.689484
_cell_length_b 16.865493
_cell_length_c 6.721092
_cell_angle_alpha 59.352914
_cell_angle_beta 49.656867
_cell_angle_gamma 70.991900
_cell_volume 720.195167
_symmetry_space_group_name_H-M "P -1"
_symmetry_group_IT_number 2
_symmetry_cell_setting 'triclinic'
loop_
_space_group_symop_operation_xyz
x,y,z
-x,-y,-z
loop_
_atom_site_type_symbol
_atom_site_label
_atom_site_fract_x
_atom_site_fract_y
_atom_site_fract_z
Si Si1 0.134363 0.939019 0.323459
Si Si2 0.099218 0.197043 0.493600
Si Si3 0.436229 0.838071 0.382540
Si Si4 0.097870 0.577036 0.031756
Si Si5 0.806654 0.274306 0.935689
Si Si6 0.328090 0.053502 0.681691
Si Si7 0.605993 0.328290 0.651607
Si Si8 0.226756 0.396038 0.981847
O O1 0.319496 0.919235 0.290791
O O2 0.036309 0.841638 0.498053
O O3 0.000000 0.000000 0.500000
O O4 0.185946 0.983894 0.005988
O O5 0.239607 0.117169 0.515418
O O6 0.184211 0.293309 0.227446
O O7 0.978499 0.217451 0.773664
O O8 0.606077 0.880063 0.285331
O O9 0.468610 0.761231 0.283007
O O10 0.311987 0.787381 0.727019
O O11 0.231089 0.626253 0.683596
O O12 0.895720 0.584383 0.123418
O O13 0.128342 0.633309 0.131912
O O14 0.160775 0.471468 0.106271
O O15 0.686285 0.298898 0.825531
O O16 0.500000 0.000000 0.500000
O O17 0.439584 0.397401 0.742272
#
# Coordination Sequence:
#
# PCOD9049019 Si02
#       8
#     2   2   2   2   2   2   2   2
#     4  12  25  44  67  95 138 179 226 295 350 406
#     4  12  24  43  69  99 134 183 226 278 351 407
#     4  11  24  42  68  97 132 178 228 281 344 407
#     4  10  24  46  66 107 138 181 227 280 341 402
#     4  11  22  45  70  98 142 179 225 285 337 417
#     4  12  27  43  67 102 136 178 238 291 345 420
#     4  11  23  44  69 100 140 180 226 281 339 411
#     4  11  24  43  72 100 142 179 229 281 338 419
#
# _framework density 22.216199
#
# number of rings (size 3 to 8) (size 9 to 14) (size 15 to 20)
#    0.000    0.750    2.500    4.875    5.250    1.000 
#    0.000    0.000    0.000    0.000    0.000    0.000 
#    0.000    0.000    0.000    0.000    0.000    0.000 
#
# Total GULP energy -89617.322586 kJ/mol
# GULP energy per Si atom -5601.082662 kJ/mol
# Density = 2.216563 g / cm^3
# Si number density = 22.216199 Si / 1000 Ang^3
#
#
#
# Elastic Constant Matrix: (Units=GPa)
#
#
# Indices 1 2 3 4 5 6 
#
# 1 75.5536 19.1644 -2.6679 5.3845 3.9045 -7.6315
# 2 19.1644 107.6661 36.8640 8.8379 -4.8745 -6.4958
# 3 -2.6679 36.8640 67.0911 2.1774 4.9664 -6.3667
# 4 5.3845 8.8379 2.1774 30.7073 3.1934 -5.0374
# 5 3.9045 -4.8745 4.9664 3.1934 21.0643 3.5156
# 6 -7.6315 -6.4958 -6.3667 -5.0374 3.5156 52.8683
#
#
#
# Elastic Compliance Matrix: (Units=1/GPa)
#
#
# Indices 1 2 3 4 5 6 
#
# 1 0.014835 -0.003747 0.003238 -0.000895 -0.004627 0.002293
# 2 -0.003747 0.013130 -0.007768 -0.003309 0.006164 -0.000588
# 3 0.003238 -0.007768 0.020076 0.001479 -0.007788 0.002589
# 4 -0.000895 -0.003309 0.001479 0.034837 -0.006800 0.003414
# 5 -0.004627 0.006164 -0.007788 -0.006800 0.053468 -0.005052
# 6 0.002293 -0.000588 0.002589 0.003414 -0.005052 0.020147
#
#
# Mechanical properties :
#
#
# Convention : Reuss Voigt Hill
#
# Bulk Modulus (GPa) = 31.75915 39.67021 35.71468
# Shear Modulus (GPa) = 27.24160 34.05798 30.64979
#
# Velocity S-wave (km/s) = 3.50552 3.91963 3.71835
# Velocity P-wave (km/s) = 5.54179 6.19515 5.87756
#
# Compressibility (1/GPa) = 0.03148699
#
# Stress axis : x y z
#
# Youngs Moduli (GPa) = 67.40831 76.16239 49.80989
#
# Poissons Ratio (x) = 0.28537 -0.16128
# Poissons Ratio (y) = 0.25257 0.38693
# Poissons Ratio (z) = -0.21826 0.59164
#
# Static dielectric constant tensor:
#      x y z
#    x 1.778370 0.011530 -0.009690 
#    y 0.011530 1.811730 -0.009490 
#    z -0.009690 -0.009490 1.806040 
# 
# From -- ./inp_files/46519.got.cif
#   From: 2010.05.17/outbox.cif.g08.bks.cpg/sg2_24_cif.got.tgz:46519.got - 2010.06.03 11:33:40.
