data_PCOD9049083
_publ_section_title
;
Structure prediction by ZEFSAII (Michael W. Deem and Ramdas Pophale) SiO2 
 PCOD9049083
Probable space group: P -1
;
_chemical_formula_sum "Si O2"
_cell_formula_units_Z 12
_cell_length_a 11.438517
_cell_length_b 7.620394
_cell_length_c 5.066657
_cell_angle_alpha 71.903758
_cell_angle_beta 80.875294
_cell_angle_gamma 88.474893
_cell_volume 414.362065
_symmetry_space_group_name_H-M "P -1"
_symmetry_group_IT_number 2
_symmetry_cell_setting 'triclinic'
loop_
_space_group_symop_operation_xyz
x,y,z
-x,-y,-z
loop_
_atom_site_type_symbol
_atom_site_label
_atom_site_fract_x
_atom_site_fract_y
_atom_site_fract_z
Si Si1 0.360018 0.612880 0.078441
Si Si2 0.000000 0.500000 0.500000
Si Si3 0.746368 0.557256 0.311299
Si Si4 0.549005 0.895263 0.781918
Si Si5 0.000000 0.000000 0.500000
Si Si6 0.197230 0.127677 0.504222
Si Si7 0.131134 0.826891 0.041414
O O1 0.295375 0.481036 0.949265
O O2 0.486957 0.693379 0.909937
O O3 0.351134 0.533381 0.411902
O O4 0.269445 0.784093 0.025564
O O5 0.130790 0.526448 0.601747
O O6 0.053067 0.643616 0.180093
O O7 0.756586 0.768795 0.301674
O O8 0.689318 0.900054 0.695109
O O9 0.500000 0.000000 0.500000
O O10 0.500000 0.000000 0.000000
O O11 0.088413 0.958483 0.228297
O O12 0.922901 0.779112 0.591144
O O13 0.121558 0.939116 0.710126
#
# Coordination Sequence:
#
# PCOD9049083 Si02
#       7
#     2   1   2   2   1   2   2
#     4  11  26  48  74 111 148 201 258 304 386 446
#     4  10  24  46  68 108 152 202 242 304 386 442
#     4  11  27  46  74 110 153 201 248 320 371 458
#     4  12  26  50  81 112 151 204 254 321 379 456
#     4  12  26  46  68 116 146 194 256 318 380 450
#     4  12  28  45  78 110 152 200 257 318 381 454
#     4  11  25  44  74 104 149 197 251 313 371 464
#
# _framework density 28.960179
#
# number of rings (size 3 to 8) (size 9 to 14) (size 15 to 20)
#    0.000    0.667    3.333    2.500    7.000    4.000 
#    0.000    0.000    0.000    0.000    0.000    0.000 
#    0.000    0.000    0.000    0.000    0.000    0.000 
#
# Total GULP energy -67048.108087 kJ/mol
# GULP energy per Si atom -5587.342341 kJ/mol
# Density = 2.889426 g / cm^3
# Si number density = 28.960179 Si / 1000 Ang^3
#
#
#
# Elastic Constant Matrix: (Units=GPa)
#
#
# Indices 1 2 3 4 5 6 
#
# 1 205.2764 40.1960 67.6849 -0.6585 -52.1677 14.5845
# 2 40.1960 112.4551 50.2123 0.6133 -9.7174 20.6925
# 3 67.6849 50.2123 190.6251 -4.4358 -10.0295 -7.0503
# 4 -0.6585 0.6133 -4.4358 83.2454 6.0915 -6.2849
# 5 -52.1677 -9.7174 -10.0295 6.0915 69.7520 -12.0466
# 6 14.5845 20.6925 -7.0503 -6.2849 -12.0466 38.7074
#
#
#
# Elastic Compliance Matrix: (Units=1/GPa)
#
#
# Indices 1 2 3 4 5 6 
#
# 1 0.006993 -0.000985 -0.002031 -0.000470 0.004651 -0.001107
# 2 -0.000985 0.011817 -0.003066 -0.000726 -0.000646 -0.006824
# 3 -0.002031 -0.003066 0.006906 0.000678 -0.000381 0.003654
# 4 -0.000470 -0.000726 0.000678 0.012304 -0.001020 0.002369
# 5 0.004651 -0.000646 -0.000381 -0.001020 0.018468 0.004106
# 6 -0.001107 -0.006824 0.003654 0.002369 0.004106 0.032228
#
#
# Mechanical properties :
#
#
# Convention : Reuss Voigt Hill
#
# Bulk Modulus (GPa) = 73.78936 91.61589 82.70263
# Shear Modulus (GPa) = 47.43965 61.69185 54.56575
#
# Velocity S-wave (km/s) = 4.05173 4.62045 4.34541
# Velocity P-wave (km/s) = 6.88648 7.75684 7.33458
#
# Compressibility (1/GPa) = 0.01355209
#
# Stress axis : x y z
#
# Youngs Moduli (GPa) = 143.00149 84.62117 144.81076
#
# Poissons Ratio (x) = 0.08332 0.29408
# Poissons Ratio (y) = 0.14080 0.44406
# Poissons Ratio (z) = 0.29041 0.25949
#
# Static dielectric constant tensor:
#      x y z
#    x 2.187540 0.048330 0.104290 
#    y 0.048330 1.912810 -0.105090 
#    z 0.104290 -0.105090 2.245330 
# 
# From -- ./inp_files/59139.got.cif
#   From: 2010.05.17/outbox.cif.g08.bks.cpg/sg2_30_cif.got.tgz:59139.got - 2010.06.03 11:33:40.
