data_PCOD9049331
_publ_section_title
;
Structure prediction by ZEFSAII (Michael W. Deem and Ramdas Pophale) SiO2 
 PCOD9049331
Probable space group: P -1
;
_chemical_formula_sum "Si O2"
_cell_formula_units_Z 14
_cell_length_a 9.262813
_cell_length_b 8.482998
_cell_length_c 22.836335
_cell_angle_alpha 42.056135
_cell_angle_beta 149.925508
_cell_angle_gamma 132.516690
_cell_volume 599.382528
_symmetry_space_group_name_H-M "P -1"
_symmetry_group_IT_number 2
_symmetry_cell_setting 'triclinic'
loop_
_space_group_symop_operation_xyz
x,y,z
-x,-y,-z
loop_
_atom_site_type_symbol
_atom_site_label
_atom_site_fract_x
_atom_site_fract_y
_atom_site_fract_z
Si Si1 0.701146 0.767829 0.297963
Si Si2 0.834730 0.516134 0.598659
Si Si3 0.754802 0.002825 0.863369
Si Si4 0.815214 0.990758 0.750423
Si Si5 0.713155 0.440445 0.156936
Si Si6 0.286214 0.787381 0.900338
Si Si7 0.195886 0.755269 0.559195
O O1 0.444397 0.789758 0.248161
O O2 0.706302 0.500060 0.353818
O O3 0.012698 0.846351 0.415919
O O4 0.645433 0.957177 0.176255
O O5 0.500000 0.500000 0.500000
O O6 0.892534 0.247657 0.677654
O O7 0.016004 0.584628 0.701029
O O8 0.959835 0.696651 0.543479
O O9 0.846682 0.014563 0.824878
O O10 0.538532 0.764439 0.859528
O O11 0.000000 0.000000 0.000000
O O12 0.481574 0.909248 0.639108
O O13 0.031185 0.812134 0.849606
O O14 0.795281 0.397014 0.130519
O O15 0.573151 0.683663 0.053342
#
# Coordination Sequence:
#
# PCOD9049331 Si02
#       7
#     2   2   2   2   2   2   2
#     4  10  24  47  72  96 156 183 239 302 358 430
#     4  12  27  46  73 108 145 192 244 297 364 425
#     4  11  26  45  70 107 143 194 236 299 371 428
#     4  12  27  43  78 105 143 190 247 297 364 428
#     4  10  25  48  71 102 151 188 240 304 357 431
#     4  10  24  46  72 106 137 193 239 293 365 426
#     4  11  25  49  70 110 142 191 243 306 353 428
#
# _framework density 23.357368999999998
#
# number of rings (size 3 to 8) (size 9 to 14) (size 15 to 20)
#    0.000    1.143    2.857    0.857   12.000    6.286 
#    0.000    0.000    0.000    0.000    0.000    0.000 
#    0.000    0.000    0.000    0.000    0.000    0.000 
#
# Total GULP energy -78373.911009 kJ/mol
# GULP energy per Si atom -5598.136501 kJ/mol
# Density = 2.330421 g / cm^3
# Si number density = 23.357369 Si / 1000 Ang^3
#
#
#
# Elastic Constant Matrix: (Units=GPa)
#
#
# Indices 1 2 3 4 5 6 
#
# 1 88.5706 -1.0805 1.4118 5.2400 25.9301 1.8589
# 2 -1.0805 77.1819 23.6374 18.9152 6.9319 12.2764
# 3 1.4118 23.6374 92.2905 23.5680 7.6644 -4.6218
# 4 5.2400 18.9152 23.5680 49.4034 -6.5994 6.6354
# 5 25.9301 6.9319 7.6644 -6.5994 36.5766 -11.2206
# 6 1.8589 12.2764 -4.6218 6.6354 -11.2206 23.0846
#
#
#
# Elastic Compliance Matrix: (Units=1/GPa)
#
#
# Indices 1 2 3 4 5 6 
#
# 1 0.016760 0.004318 0.000699 -0.004624 -0.016863 -0.010373
# 2 0.004318 0.018817 -0.003233 -0.005651 -0.011572 -0.015002
# 3 0.000699 -0.003233 0.013735 -0.006388 -0.002347 0.005108
# 4 -0.004624 -0.005651 -0.006388 0.027432 0.010415 -0.000724
# 5 -0.016863 -0.011572 -0.002347 0.010415 0.053004 0.029812
# 6 -0.010373 -0.015002 0.005108 -0.000724 0.029812 0.067854
#
#
# Mechanical properties :
#
#
# Convention : Reuss Voigt Hill
#
# Bulk Modulus (GPa) = 18.91003 33.99780 26.45392
# Shear Modulus (GPa) = 23.62285 37.41787 30.52036
#
# Velocity S-wave (km/s) = 3.18365 4.00681 3.61871
# Velocity P-wave (km/s) = 4.65056 5.99942 5.36753
#
# Compressibility (1/GPa) = 0.05288198
#
# Stress axis : x y z
#
# Youngs Moduli (GPa) = 59.66546 53.14212 72.80853
#
# Poissons Ratio (x) = -0.22948 -0.05092
# Poissons Ratio (y) = -0.25764 0.23537
# Poissons Ratio (z) = -0.04173 0.17179
#
# Static dielectric constant tensor:
#      x y z
#    x 1.918480 -0.010320 -0.010350 
#    y -0.010320 1.894610 -0.016010 
#    z -0.010350 -0.016010 1.886280 
# 
# From -- ./inp_files/606376.got.cif
#   From: 2010.05.17/outbox.cif.g08.bks.cpg/sg2_304_cif.got.tgz:606376.got - 2010.06.03 11:33:40.
