data_PCOD9049813
_publ_section_title
;
Structure prediction by ZEFSAII (Michael W. Deem and Ramdas Pophale) SiO2 
 PCOD9049813
Probable space group: P -1
;
_chemical_formula_sum "Si O2"
_cell_formula_units_Z 16
_cell_length_a 5.874342
_cell_length_b 11.568214
_cell_length_c 14.541965
_cell_angle_alpha 45.700834
_cell_angle_beta 84.496912
_cell_angle_gamma 70.138757
_cell_volume 650.356957
_symmetry_space_group_name_H-M "P -1"
_symmetry_group_IT_number 2
_symmetry_cell_setting 'triclinic'
loop_
_space_group_symop_operation_xyz
x,y,z
-x,-y,-z
loop_
_atom_site_type_symbol
_atom_site_label
_atom_site_fract_x
_atom_site_fract_y
_atom_site_fract_z
Si Si1 0.343505 0.885177 0.592006
Si Si2 0.154144 0.301874 0.130799
Si Si3 0.727623 0.631043 0.230520
Si Si4 0.923787 0.019426 0.257904
Si Si5 0.706851 0.261247 0.493235
Si Si6 0.769303 0.535743 0.792989
Si Si7 0.596603 0.237754 0.011657
Si Si8 0.699386 0.601051 0.443506
O O1 0.262423 0.922437 0.679895
O O2 0.184779 0.888099 0.505316
O O3 0.514502 0.677857 0.688936
O O4 0.500000 0.000000 0.500000
O O5 0.147636 0.332648 0.222977
O O6 0.400334 0.265716 0.084200
O O7 0.064553 0.151382 0.190304
O O8 0.000000 0.500000 0.000000
O O9 0.726267 0.439884 0.359927
O O10 0.664955 0.712685 0.289041
O O11 0.010307 0.581165 0.216162
O O12 0.541164 0.731911 0.099325
O O13 0.808805 0.057975 0.138382
O O14 0.109075 0.823459 0.380606
O O15 0.431942 0.284919 0.525992
O O16 0.698473 0.392752 0.929210
O O17 0.500000 0.500000 0.500000
O O18 0.000000 0.500000 0.500000
#
# Coordination Sequence:
#
# PCOD9049813 Si02
#       8
#     2   2   2   2   2   2   2   2
#     4  12  23  38  64  96 139 180 221 274 348 422
#     4  12  21  37  58  91 133 185 224 267 336 416
#     4  11  23  42  71  98 128 175 235 290 344 411
#     4  12  25  40  60  96 143 177 221 277 349 416
#     4  11  24  44  65 100 137 178 225 290 348 409
#     4  12  21  36  64  92 131 176 227 282 332 410
#     4  12  23  39  62  94 133 174 228 276 341 406
#     4  10  24  47  75 105 135 179 238 295 348 411
#
# _framework density 24.601876000000001
#
# number of rings (size 3 to 8) (size 9 to 14) (size 15 to 20)
#    0.000    0.500    5.000    4.500    1.750    1.000 
#    0.000    0.625    0.000    3.000    0.000    0.000 
#    0.000    0.000    0.000    0.000    0.000    0.000 
#
# Total GULP energy -89163.380623 kJ/mol
# GULP energy per Si atom -5572.711289 kJ/mol
# Density = 2.454588 g / cm^3
# Si number density = 24.601876 Si / 1000 Ang^3
#
#
#
# Elastic Constant Matrix: (Units=GPa)
#
#
# Indices 1 2 3 4 5 6 
#
# 1 60.4555 20.4548 42.1371 -2.3250 -14.7702 -18.1233
# 2 20.4548 69.1517 28.7234 19.1628 -12.4343 -17.7663
# 3 42.1371 28.7234 147.9371 2.1313 11.0338 -19.1163
# 4 -2.3250 19.1628 2.1313 35.6709 -6.5594 -13.2381
# 5 -14.7702 -12.4343 11.0338 -6.5594 60.0035 3.2846
# 6 -18.1233 -17.7663 -19.1163 -13.2381 3.2846 35.9030
#
#
#
# Elastic Compliance Matrix: (Units=1/GPa)
#
#
# Indices 1 2 3 4 5 6 
#
# 1 0.028277 -0.004073 -0.006454 0.010260 0.007774 0.011894
# 2 -0.004073 0.020591 -0.002494 -0.009589 0.002508 0.003040
# 3 -0.006454 -0.002494 0.009491 -0.000029 -0.003904 0.000908
# 4 0.010260 -0.009589 -0.000029 0.040118 0.004118 0.014835
# 5 0.007774 0.002508 -0.003904 0.004118 0.020116 0.002765
# 6 0.011894 0.003040 0.000908 0.014835 0.002765 0.041061
#
#
# Mechanical properties :
#
#
# Convention : Reuss Voigt Hill
#
# Bulk Modulus (GPa) = 30.94352 51.13054 41.03703
# Shear Modulus (GPa) = 25.44937 38.73076 32.09007
#
# Velocity S-wave (km/s) = 3.21977 3.97205 3.61553
# Velocity P-wave (km/s) = 5.14078 6.47028 5.84346
#
# Compressibility (1/GPa) = 0.03231694
#
# Stress axis : x y z
#
# Youngs Moduli (GPa) = 35.36435 48.56520 105.36255
#
# Poissons Ratio (x) = 0.19781 0.68002
# Poissons Ratio (y) = 0.14404 0.26276
# Poissons Ratio (z) = 0.22824 0.12111
#
# Static dielectric constant tensor:
#      x y z
#    x 2.091380 -0.067090 0.203660 
#    y -0.067090 1.915770 0.020690 
#    z 0.203660 0.020690 2.127700 
# 
# From -- ./inp_files/80194.got.cif
#   From: 2010.05.17/outbox.cif.g08.bks.cpg/sg2_41_cif.got.tgz:80194.got - 2010.06.03 11:33:40.
