data_PCOD9049625
_publ_section_title
;
Structure prediction by ZEFSAII (Michael W. Deem and Ramdas Pophale) SiO2 
 PCOD9049625
Probable space group: P -1
;
_chemical_formula_sum "Si O2"
_cell_formula_units_Z 16
_cell_length_a 11.575767
_cell_length_b 10.772573
_cell_length_c 10.228651
_cell_angle_alpha 144.787154
_cell_angle_beta 100.618613
_cell_angle_gamma 64.933402
_cell_volume 633.410715
_symmetry_space_group_name_H-M "P -1"
_symmetry_group_IT_number 2
_symmetry_cell_setting 'triclinic'
loop_
_space_group_symop_operation_xyz
x,y,z
-x,-y,-z
loop_
_atom_site_type_symbol
_atom_site_label
_atom_site_fract_x
_atom_site_fract_y
_atom_site_fract_z
Si Si1 0.960225 0.988818 0.835403
Si Si2 0.937586 0.672329 0.954550
Si Si3 0.650194 0.285431 0.335733
Si Si4 0.339340 0.605546 0.947689
Si Si5 0.837549 0.539398 0.570171
Si Si6 0.429288 0.860273 0.558752
Si Si7 0.215839 0.337372 0.827658
Si Si8 0.373844 0.980363 0.161150
O O1 0.805326 0.191589 0.966379
O O2 0.014481 0.697481 0.593703
O O3 0.035926 0.093143 0.846350
O O4 0.000000 0.000000 0.000000
O O5 0.849839 0.681298 0.820555
O O6 0.090512 0.444913 0.794234
O O7 0.859517 0.640131 0.032643
O O8 0.500000 0.500000 0.500000
O O9 0.746936 0.404060 0.441963
O O10 0.667547 0.176803 0.391934
O O11 0.641686 0.138165 0.079919
O O12 0.447922 0.376872 0.687484
O O13 0.291457 0.498825 0.964834
O O14 0.399880 0.790528 0.121750
O O15 0.756955 0.750987 0.628692
O O16 0.331908 0.057774 0.603386
O O17 0.499466 0.974742 0.765878
#
# Coordination Sequence:
#
# PCOD9049625 Si02
#       8
#     2   2   2   2   2   2   2   2
#     4  11  23  43  68 103 140 168 219 282 335 402
#     4  10  24  47  71  97 132 179 228 276 334 392
#     4  12  24  42  68 106 139 164 217 282 337 408
#     4  11  25  43  63  98 139 176 229 279 323 396
#     4  12  24  42  73 101 132 178 218 276 347 397
#     4  12  24  43  71  98 138 182 218 275 343 397
#     4  10  24  47  69  93 135 181 232 278 318 394
#     4  12  24  41  67 105 135 175 220 273 348 400
#
# _framework density 25.260072999999998
#
# number of rings (size 3 to 8) (size 9 to 14) (size 15 to 20)
#    0.000    0.750    2.500    5.250    1.750    4.500 
#    0.000   15.000    0.000    0.000    0.000    0.000 
#    0.000    0.000    0.000    0.000    0.000    0.000 
#
# Total GULP energy -89250.438117 kJ/mol
# GULP energy per Si atom -5578.152382 kJ/mol
# Density = 2.520258 g / cm^3
# Si number density = 25.260073 Si / 1000 Ang^3
#
#
#
# Elastic Constant Matrix: (Units=GPa)
#
#
# Indices 1 2 3 4 5 6 
#
# 1 137.7816 20.9717 42.3467 20.8438 -16.3134 1.0876
# 2 20.9717 94.4844 42.5785 42.1375 -12.4790 -5.5162
# 3 42.3467 42.5785 97.7851 31.9040 -13.9156 -2.1898
# 4 20.8438 42.1375 31.9040 50.0682 -6.0985 0.2311
# 5 -16.3134 -12.4790 -13.9156 -6.0985 31.1895 8.7308
# 6 1.0876 -5.5162 -2.1898 0.2311 8.7308 62.1715
#
#
#
# Elastic Compliance Matrix: (Units=1/GPa)
#
#
# Indices 1 2 3 4 5 6 
#
# 1 0.008765 0.000642 -0.003010 -0.001864 0.003319 -0.000662
# 2 0.000642 0.018352 -0.003514 -0.013082 0.003249 0.001086
# 3 -0.003010 -0.003514 0.015113 -0.005079 0.002798 -0.000101
# 4 -0.001864 -0.013082 -0.005079 0.034841 -0.001312 -0.001252
# 5 0.003319 0.003249 0.002798 -0.001312 0.037469 -0.004928
# 6 -0.000662 0.001086 -0.000101 -0.001252 -0.004928 0.016886
#
#
# Mechanical properties :
#
#
# Convention : Reuss Voigt Hill
#
# Bulk Modulus (GPa) = 32.82313 60.20498 46.51405
# Shear Modulus (GPa) = 32.60637 43.62946 38.11792
#
# Velocity S-wave (km/s) = 3.59671 4.16048 3.88882
# Velocity P-wave (km/s) = 5.50188 6.85312 6.21434
#
# Compressibility (1/GPa) = 0.03046632
#
# Stress axis : x y z
#
# Youngs Moduli (GPa) = 114.08463 54.49144 66.16926
#
# Poissons Ratio (x) = -0.03498 0.19915
# Poissons Ratio (y) = -0.07323 0.23251
# Poissons Ratio (z) = 0.34335 0.19148
#
# Static dielectric constant tensor:
#      x y z
#    x 2.112430 0.043760 -0.072020 
#    y 0.043760 2.063750 0.074770 
#    z -0.072020 0.074770 2.320180 
# 
# From -- ./inp_files/429264.got.cif
#   From: 2010.05.17/outbox.cif.g08.bks.cpg/sg2_215_cif.got.tgz:429264.got - 2010.06.03 11:33:40.
