data_PCOD9049479
_publ_section_title
;
Structure prediction by ZEFSAII (Michael W. Deem and Ramdas Pophale) SiO2 
 PCOD9049479
Probable space group: P -1
;
_chemical_formula_sum "Si O2"
_cell_formula_units_Z 12
_cell_length_a 5.102783
_cell_length_b 5.056194
_cell_length_c 19.213527
_cell_angle_alpha 114.365567
_cell_angle_beta 82.423019
_cell_angle_gamma 86.389993
_cell_volume 443.828764
_symmetry_space_group_name_H-M "P -1"
_symmetry_group_IT_number 2
_symmetry_cell_setting 'triclinic'
loop_
_space_group_symop_operation_xyz
x,y,z
-x,-y,-z
loop_
_atom_site_type_symbol
_atom_site_label
_atom_site_fract_x
_atom_site_fract_y
_atom_site_fract_z
Si Si1 0.244465 0.729506 0.466961
Si Si2 0.323041 0.291527 0.661305
Si Si3 0.996807 0.178765 0.877239
Si Si4 0.926900 0.247811 0.373922
Si Si5 0.452572 0.711611 0.195901
Si Si6 0.721123 0.779160 0.931375
O O1 0.486911 0.815335 0.421838
O O2 0.253990 0.658736 0.540981
O O3 0.170845 0.430454 0.399957
O O4 0.000000 0.000000 0.500000
O O5 0.206060 0.615741 0.677044
O O6 0.487234 0.259302 0.722577
O O7 0.083118 0.097152 0.659355
O O8 0.813895 0.115817 0.809829
O O9 0.843717 0.496563 0.940024
O O10 0.291873 0.211041 0.847053
O O11 0.955821 0.943566 0.910966
O O12 0.413054 0.377405 0.144437
O O13 0.500000 0.000000 0.000000
#
# Coordination Sequence:
#
# PCOD9049479 Si02
#       6
#     2   2   2   2   2   2
#     4  11  25  44  67  98 128 172 232 287 340 404
#     4  12  27  41  68  93 135 179 223 280 350 401
#     4  10  25  43  69 102 143 177 233 280 343 405
#     4  11  26  42  66  94 129 171 226 281 345 398
#     4  10  28  44  70 102 146 182 232 283 345 417
#     4  10  24  46  75 105 140 185 230 283 341 408
#
# _framework density 27.037451999999998
#
# number of rings (size 3 to 8) (size 9 to 14) (size 15 to 20)
#    1.000    0.333    1.667    1.500   11.667    2.667 
#    0.000    0.000    0.000    0.000    0.000    0.000 
#    0.000    0.000    0.000    0.000    0.000    0.000 
#
# Total GULP energy -67190.477845 kJ/mol
# GULP energy per Si atom -5599.206487 kJ/mol
# Density = 2.697591 g / cm^3
# Si number density = 27.037452 Si / 1000 Ang^3
#
#
#
# Elastic Constant Matrix: (Units=GPa)
#
#
# Indices 1 2 3 4 5 6 
#
# 1 96.6511 45.1522 20.4911 3.1874 -16.2515 14.1633
# 2 45.1522 172.3189 23.3601 -6.8942 3.1654 25.9790
# 3 20.4911 23.3601 83.6032 -0.6587 3.4658 -1.4294
# 4 3.1874 -6.8942 -0.6587 28.3746 -0.2528 0.0941
# 5 -16.2515 3.1654 3.4658 -0.2528 46.3006 -12.8315
# 6 14.1633 25.9790 -1.4294 0.0941 -12.8315 43.0977
#
#
#
# Elastic Compliance Matrix: (Units=1/GPa)
#
#
# Indices 1 2 3 4 5 6 
#
# 1 0.013440 -0.003168 -0.002646 -0.002294 0.004798 -0.001162
# 2 -0.003168 0.007611 -0.001295 0.002165 -0.002746 -0.004412
# 3 -0.002646 -0.001295 0.013058 0.000268 -0.001350 0.001680
# 4 -0.002294 0.002165 0.000268 0.036027 -0.001034 -0.000929
# 5 0.004798 -0.002746 -0.001350 -0.001034 0.025695 0.007687
# 6 -0.001162 -0.004412 0.001680 -0.000929 0.007687 0.028591
#
#
# Mechanical properties :
#
#
# Convention : Reuss Voigt Hill
#
# Bulk Modulus (GPa) = 50.26986 58.95334 54.61160
# Shear Modulus (GPa) = 34.41880 41.12590 37.77235
#
# Velocity S-wave (km/s) = 3.57179 3.90432 3.74175
# Velocity P-wave (km/s) = 5.97020 6.49435 6.23778
#
# Compressibility (1/GPa) = 0.01989264
#
# Stress axis : x y z
#
# Youngs Moduli (GPa) = 74.40552 131.38896 76.57927
#
# Poissons Ratio (x) = 0.41620 0.20261
# Poissons Ratio (y) = 0.23570 0.09915
# Poissons Ratio (z) = 0.19686 0.17012
#
# Static dielectric constant tensor:
#      x y z
#    x 2.101380 -0.029220 0.063310 
#    y -0.029220 2.035370 0.072850 
#    z 0.063310 0.072850 2.180570 
# 
# From -- ./inp_files/127623.got.cif
#   From: 2010.05.17/outbox.cif.g08.bks.cpg/sg2_64_cif.got.tgz:127623.got - 2010.06.03 11:33:40.
