data_PCOD9049818
_publ_section_title
;
Structure prediction by ZEFSAII (Michael W. Deem and Ramdas Pophale) SiO2 
 PCOD9049818
Probable space group: P -1
;
_chemical_formula_sum "Si O2"
_cell_formula_units_Z 14
_cell_length_a 8.927115
_cell_length_b 14.630763
_cell_length_c 10.842881
_cell_angle_alpha 130.626358
_cell_angle_beta 149.205603
_cell_angle_gamma 57.335704
_cell_volume 549.578821
_symmetry_space_group_name_H-M "P -1"
_symmetry_group_IT_number 2
_symmetry_cell_setting 'triclinic'
loop_
_space_group_symop_operation_xyz
x,y,z
-x,-y,-z
loop_
_atom_site_type_symbol
_atom_site_label
_atom_site_fract_x
_atom_site_fract_y
_atom_site_fract_z
Si Si1 0.052636 0.129953 0.590094
Si Si2 0.589925 0.613516 0.533417
Si Si3 0.904676 0.244198 0.368932
Si Si4 0.588694 0.072398 0.746866
Si Si5 0.653974 0.642750 0.891599
Si Si6 0.852050 0.509570 0.264157
Si Si7 0.828065 0.832369 0.759259
O O1 0.336198 0.118697 0.692951
O O2 0.817468 0.154253 0.338205
O O3 0.096345 0.250988 0.811802
O O4 0.000000 0.000000 0.500000
O O5 0.556814 0.644282 0.680234
O O6 0.364746 0.503733 0.232531
O O7 0.600428 0.732527 0.562140
O O8 0.925977 0.572356 0.723457
O O9 0.615703 0.307957 0.177919
O O10 0.092749 0.360739 0.648450
O O11 0.098647 0.190312 0.352078
O O12 0.500000 0.000000 0.500000
O O13 0.729748 0.966090 0.833830
O O14 0.835692 0.169702 0.959438
O O15 0.000000 0.500000 0.500000
O O16 0.500000 0.500000 0.000000
#
# Coordination Sequence:
#
# PCOD9049818 Si02
#       7
#     2   2   2   2   2   2   2
#     4  12  28  45  70 102 145 199 244 307 381 448
#     4  10  24  47  75 106 139 198 237 313 380 449
#     4  11  24  43  71 103 142 192 245 313 368 452
#     4  11  25  43  66 102 141 180 247 302 356 445
#     4  10  25  50  67 102 151 182 254 296 383 460
#     4  11  25  44  76 115 147 192 244 311 387 446
#     4  11  23  43  73 100 138 185 245 307 375 432
#
# _framework density 25.474052
#
# number of rings (size 3 to 8) (size 9 to 14) (size 15 to 20)
#    0.000    1.143    4.286    0.000   10.000    0.571 
#    2.571    2.143    0.000    0.000    0.000    0.000 
#    0.000    0.000    0.000    0.000    0.000    0.000 
#
# Total GULP energy -78008.334674 kJ/mol
# GULP energy per Si atom -5572.023905 kJ/mol
# Density = 2.541607 g / cm^3
# Si number density = 25.474052 Si / 1000 Ang^3
#
#
#
# Elastic Constant Matrix: (Units=GPa)
#
#
# Indices 1 2 3 4 5 6 
#
# 1 88.7609 24.4564 28.9032 11.7960 -1.6452 0.8800
# 2 24.4564 94.8221 23.6806 27.2842 1.4712 17.5680
# 3 28.9032 23.6806 110.4302 31.7065 2.0499 14.0028
# 4 11.7960 27.2842 31.7065 49.6908 -7.2102 17.4022
# 5 -1.6452 1.4712 2.0499 -7.2102 30.5137 -0.2296
# 6 0.8800 17.5680 14.0028 17.4022 -0.2296 54.9848
#
#
#
# Elastic Compliance Matrix: (Units=1/GPa)
#
#
# Indices 1 2 3 4 5 6 
#
# 1 0.013050 -0.002923 -0.003016 0.000071 0.001075 0.001475
# 2 -0.002923 0.013573 -0.000006 -0.006281 -0.002313 -0.002310
# 3 -0.003016 -0.000006 0.012022 -0.007059 -0.002644 -0.000788
# 4 0.000071 -0.006281 -0.007059 0.031377 0.008149 -0.006093
# 5 0.001075 -0.002313 -0.002644 0.008149 0.035037 -0.001038
# 6 0.001475 -0.002310 -0.000788 -0.006093 -0.001038 0.021026
#
#
# Mechanical properties :
#
#
# Convention : Reuss Voigt Hill
#
# Bulk Modulus (GPa) = 37.37746 49.78819 43.58282
# Shear Modulus (GPa) = 34.03832 41.50272 37.77052
#
# Velocity S-wave (km/s) = 3.65937 4.04073 3.85477
# Velocity P-wave (km/s) = 5.70607 6.43095 6.07932
#
# Compressibility (1/GPa) = 0.02675409
#
# Stress axis : x y z
#
# Youngs Moduli (GPa) = 76.63084 73.67700 83.18019
#
# Poissons Ratio (x) = 0.21535 0.25088
# Poissons Ratio (y) = 0.22398 0.00051
# Poissons Ratio (z) = 0.23113 0.00045
#
# Static dielectric constant tensor:
#      x y z
#    x 2.039850 0.073220 -0.045550 
#    y 0.073220 2.141440 -0.043970 
#    z -0.045550 -0.043970 2.339840 
# 
# From -- ./inp_files/112756.got.cif
#   From: 2010.05.17/outbox.cif.g08.bks.cpg/sg2_57_cif.got.tgz:112756.got - 2010.06.03 11:33:40.
