data_PCOD9049508
_publ_section_title
;
Structure prediction by ZEFSAII (Michael W. Deem and Ramdas Pophale) SiO2 
 PCOD9049508
Probable space group: P -1
;
_chemical_formula_sum "Si O2"
_cell_formula_units_Z 11
_cell_length_a 9.408155
_cell_length_b 7.714653
_cell_length_c 9.763809
_cell_angle_alpha 114.012761
_cell_angle_beta 41.787118
_cell_angle_gamma 124.142357
_cell_volume 390.752264
_symmetry_space_group_name_H-M "P -1"
_symmetry_group_IT_number 2
_symmetry_cell_setting 'triclinic'
loop_
_space_group_symop_operation_xyz
x,y,z
-x,-y,-z
loop_
_atom_site_type_symbol
_atom_site_label
_atom_site_fract_x
_atom_site_fract_y
_atom_site_fract_z
Si Si1 0.624750 0.441342 0.513734
Si Si2 0.463978 0.945161 0.712081
Si Si3 0.527581 0.730168 0.864586
Si Si4 0.977297 0.072322 0.303119
Si Si5 0.000000 0.000000 0.000000
Si Si6 0.904305 0.485483 0.719391
O O1 0.500000 0.500000 0.500000
O O2 0.587471 0.209437 0.431729
O O3 0.546372 0.520512 0.731294
O O4 0.908563 0.564887 0.345851
O O5 0.427256 0.819680 0.842216
O O6 0.274646 0.036829 0.858016
O O7 0.748801 0.064317 0.540950
O O8 0.797030 0.884585 0.754311
O O9 0.355403 0.668272 0.098075
O O10 0.059019 0.272691 0.201212
O O11 0.910859 0.890533 0.182024
O O12 0.000000 0.500000 0.500000
#
# Coordination Sequence:
#
# PCOD9049508 Si02
#       6
#     2   2   2   2   1   2
#     4  10  24  46  76 106 146 188 249 303 363 435
#     4  11  27  49  74 113 148 195 245 303 371 437
#     4  11  27  49  77 108 147 198 245 307 367 435
#     4  12  27  46  76 108 150 195 245 303 369 440
#     4  12  28  44  76 106 158 188 244 298 376 430
#     4  12  26  46  76 110 145 193 252 299 372 436
#
# _framework density 28.150828000000001
#
# number of rings (size 3 to 8) (size 9 to 14) (size 15 to 20)
#    0.000    0.727    3.636    1.636    5.091    6.545 
#    0.000    0.000    0.000    0.000    0.000    0.000 
#    0.000    0.000    0.000    0.000    0.000    0.000 
#
# Total GULP energy -61375.853259 kJ/mol
# GULP energy per Si atom -5579.623024 kJ/mol
# Density = 2.808676 g / cm^3
# Si number density = 28.150828 Si / 1000 Ang^3
#
#
#
# Elastic Constant Matrix: (Units=GPa)
#
#
# Indices 1 2 3 4 5 6 
#
# 1 229.2316 30.5403 88.5303 -7.7061 -43.2926 3.1108
# 2 30.5403 74.9016 44.2511 -6.2217 -11.1226 2.0013
# 3 88.5303 44.2511 232.6651 -10.0717 -30.7523 6.2980
# 4 -7.7061 -6.2217 -10.0717 46.8867 2.4616 -3.5047
# 5 -43.2926 -11.1226 -30.7523 2.4616 57.5839 -1.3988
# 6 3.1108 2.0013 6.2980 -3.5047 -1.3988 38.2447
#
#
#
# Elastic Compliance Matrix: (Units=1/GPa)
#
#
# Indices 1 2 3 4 5 6 
#
# 1 0.005712 -0.000897 -0.001556 0.000313 0.003277 -0.000013
# 2 -0.000897 0.015389 -0.002397 0.001316 0.000957 -0.000182
# 3 -0.001556 -0.002397 0.005555 0.000509 0.001298 -0.000569
# 4 0.000313 0.001316 0.000509 0.021806 -0.000127 0.001816
# 5 0.003277 0.000957 0.001298 -0.000127 0.020718 0.000216
# 6 -0.000013 -0.000182 -0.000569 0.001816 0.000216 0.026426
#
#
# Mechanical properties :
#
#
# Convention : Reuss Voigt Hill
#
# Bulk Modulus (GPa) = 58.97553 95.93796 77.45674
# Shear Modulus (GPa) = 45.06176 53.44149 49.25162
#
# Velocity S-wave (km/s) = 4.00525 4.36179 4.18731
# Velocity P-wave (km/s) = 6.51035 7.71498 7.13812
#
# Compressibility (1/GPa) = 0.01695619
#
# Stress axis : x y z
#
# Youngs Moduli (GPa) = 175.05862 64.98101 180.01736
#
# Poissons Ratio (x) = 0.05829 0.28011
# Poissons Ratio (y) = 0.15703 0.43153
# Poissons Ratio (z) = 0.27239 0.15577
#
# Static dielectric constant tensor:
#      x y z
#    x 2.033040 -0.095260 -0.058560 
#    y -0.095260 1.986520 -0.241470 
#    z -0.058560 -0.241470 2.024550 
# 
# From -- ./inp_files/17313.got.cif
#   From: 2010.05.17/outbox.cif.g08.bks.cpg/sg2_9_cif.got.tgz:17313.got - 2010.06.03 11:33:40.
