data_PCOD9049399
_publ_section_title
;
Structure prediction by ZEFSAII (Michael W. Deem and Ramdas Pophale) SiO2 
 PCOD9049399
Probable space group: P -1
;
_chemical_formula_sum "Si O2"
_cell_formula_units_Z 16
_cell_length_a 5.936046
_cell_length_b 11.658126
_cell_length_c 26.833766
_cell_angle_alpha 32.576351
_cell_angle_beta 132.285907
_cell_angle_gamma 122.631718
_cell_volume 737.883574
_symmetry_space_group_name_H-M "P -1"
_symmetry_group_IT_number 2
_symmetry_cell_setting 'triclinic'
loop_
_space_group_symop_operation_xyz
x,y,z
-x,-y,-z
loop_
_atom_site_type_symbol
_atom_site_label
_atom_site_fract_x
_atom_site_fract_y
_atom_site_fract_z
Si Si1 0.194187 0.484268 0.832544
Si Si2 0.659975 0.286303 0.782094
Si Si3 0.852906 0.459184 0.083599
Si Si4 0.361841 0.160366 0.231300
Si Si5 0.611016 0.704113 0.472584
Si Si6 0.203993 0.584851 0.544803
Si Si7 0.500259 0.984507 0.946483
Si Si8 0.139357 0.094679 0.120459
O O1 0.080528 0.572058 0.836963
O O2 0.424308 0.656553 0.785850
O O3 0.935530 0.441094 0.769909
O O4 0.349993 0.250843 0.955592
O O5 0.364611 0.405710 0.670326
O O6 0.648387 0.187685 0.871667
O O7 0.733923 0.073940 0.838914
O O8 0.020777 0.261116 0.153074
O O9 0.500000 0.500000 0.000000
O O10 0.978860 0.680908 0.003032
O O11 0.382721 0.132401 0.185155
O O12 0.440216 0.929703 0.349845
O O13 0.500000 0.500000 0.500000
O O14 0.491718 0.672561 0.523728
O O15 0.960922 0.713290 0.499426
O O16 0.000000 0.500000 0.500000
O O17 0.160720 0.002842 0.867154
O O18 0.500000 0.000000 0.000000
#
# Coordination Sequence:
#
# PCOD9049399 Si02
#       8
#     2   2   2   2   2   2   2   2
#     4  12  25  45  63 107 151 191 236 292 374 460
#     4  12  27  42  76 103 145 198 239 307 371 434
#     4  12  24  41  65 104 153 189 241 291 366 456
#     4  12  27  42  73 102 144 193 237 310 376 438
#     4  10  24  47  74 103 138 181 252 323 370 430
#     4  10  24  46  73 107 139 180 256 322 369 428
#     4  12  24  41  67 105 153 189 242 289 357 449
#     4  12  23  40  67 104 141 192 242 290 360 444
#
# _framework density 21.683637000000001
#
# number of rings (size 3 to 8) (size 9 to 14) (size 15 to 20)
#    0.000    0.500    5.000    3.750    7.000    0.000 
#    0.000    1.250    0.000    0.000    0.000    0.000 
#    0.000    0.000    0.000    0.000    0.000    0.000 
#
# Total GULP energy -89237.806225 kJ/mol
# GULP energy per Si atom -5577.362889 kJ/mol
# Density = 2.163428 g / cm^3
# Si number density = 21.683637 Si / 1000 Ang^3
#
#
#
# Elastic Constant Matrix: (Units=GPa)
#
#
# Indices 1 2 3 4 5 6 
#
# 1 108.5876 22.5241 38.0867 -5.0099 -0.9425 -7.6218
# 2 22.5241 77.5261 46.1895 -0.3696 4.3693 -3.6844
# 3 38.0867 46.1895 133.5035 -9.4069 6.2453 -0.2779
# 4 -5.0099 -0.3696 -9.4069 24.3687 3.4578 -3.0592
# 5 -0.9425 4.3693 6.2453 3.4578 24.4552 4.7949
# 6 -7.6218 -3.6844 -0.2779 -3.0592 4.7949 31.1914
#
#
#
# Elastic Compliance Matrix: (Units=1/GPa)
#
#
# Indices 1 2 3 4 5 6 
#
# 1 0.010622 -0.001561 -0.002412 0.001446 0.000622 0.002436
# 2 -0.001561 0.016724 -0.005373 -0.001684 -0.001762 0.001652
# 3 -0.002412 -0.005373 0.010402 0.003701 -0.002229 -0.000426
# 4 0.001446 -0.001684 0.003701 0.044604 -0.008032 0.005797
# 5 0.000622 -0.001762 -0.002229 -0.008032 0.044444 -0.007696
# 6 0.002436 0.001652 -0.000426 0.005797 -0.007696 0.034598
#
#
# Mechanical properties :
#
#
# Convention : Reuss Voigt Hill
#
# Bulk Modulus (GPa) = 52.48340 59.24644 55.86492
# Shear Modulus (GPa) = 26.81841 30.19084 28.50462
#
# Velocity S-wave (km/s) = 3.52064 3.73545 3.62963
# Velocity P-wave (km/s) = 6.38617 6.78138 6.58674
#
# Compressibility (1/GPa) = 0.01905364
#
# Stress axis : x y z
#
# Youngs Moduli (GPa) = 94.14210 59.79528 96.13617
#
# Poissons Ratio (x) = 0.09336 0.23191
# Poissons Ratio (y) = 0.14699 0.51659
# Poissons Ratio (z) = 0.22710 0.32131
#
# Static dielectric constant tensor:
#      x y z
#    x 2.083270 -0.061960 -0.022840 
#    y -0.061960 1.920810 -0.007730 
#    z -0.022840 -0.007730 1.745050 
# 
# From -- ./inp_files/72328.got.cif
#   From: 2010.05.17/outbox.cif.g08.bks.cpg/sg2_37_cif.got.tgz:72328.got - 2010.06.03 11:33:40.
