data_PCOD9049189
_publ_section_title
;
Structure prediction by ZEFSAII (Michael W. Deem and Ramdas Pophale) SiO2 
 PCOD9049189
Probable space group: P -1
;
_chemical_formula_sum "Si O2"
_cell_formula_units_Z 12
_cell_length_a 13.447719
_cell_length_b 11.525569
_cell_length_c 5.027589
_cell_angle_alpha 128.331020
_cell_angle_beta 107.747922
_cell_angle_gamma 53.692729
_cell_volume 490.185395
_symmetry_space_group_name_H-M "P -1"
_symmetry_group_IT_number 2
_symmetry_cell_setting 'triclinic'
loop_
_space_group_symop_operation_xyz
x,y,z
-x,-y,-z
loop_
_atom_site_type_symbol
_atom_site_label
_atom_site_fract_x
_atom_site_fract_y
_atom_site_fract_z
Si Si1 0.693103 0.977629 0.638117
Si Si2 0.547352 0.133489 0.236684
Si Si3 0.126654 0.709056 0.275165
Si Si4 0.076727 0.499049 0.310935
Si Si5 0.084807 0.035145 0.926513
Si Si6 0.696937 0.654233 0.405520
O O1 0.677181 0.812842 0.428719
O O2 0.659414 0.050634 0.419312
O O3 0.827103 0.925702 0.777063
O O4 0.595177 0.128917 0.975449
O O5 0.429366 0.306604 0.510520
O O6 0.500000 0.000000 0.000000
O O7 0.097798 0.650830 0.448252
O O8 0.226021 0.530668 0.949538
O O9 0.002558 0.815798 0.145857
O O10 0.162548 0.850063 0.566797
O O11 0.215698 0.348837 0.291032
O O12 0.000000 0.500000 0.500000
O O13 0.000000 0.500000 0.000000
O O14 0.000000 0.000000 0.000000
#
# Coordination Sequence:
#
# PCOD9049189 Si02
#       6
#     2   2   2   2   2   2
#     4  11  26  44  75 104 143 191 244 291 368 429
#     4  10  24  46  70 107 142 188 236 308 361 423
#     4  11  26  45  71 106 149 190 240 298 371 422
#     4  12  25  40  67 109 144 182 237 299 367 421
#     4  11  27  48  72 103 157 196 239 295 367 443
#     4  11  24  43  75 104 145 179 246 308 361 419
#
# _framework density 24.480533999999999
#
# number of rings (size 3 to 8) (size 9 to 14) (size 15 to 20)
#    0.000    1.000    1.667    4.000   14.000    0.000 
#    0.000    1.667    0.000    0.000    0.000    0.000 
#    0.000    0.000    0.000    0.000    0.000    0.000 
#
# Total GULP energy -67139.386338 kJ/mol
# GULP energy per Si atom -5594.948862 kJ/mol
# Density = 2.442482 g / cm^3
# Si number density = 24.480534 Si / 1000 Ang^3
#
#
#
# Elastic Constant Matrix: (Units=GPa)
#
#
# Indices 1 2 3 4 5 6 
#
# 1 88.9181 37.4687 21.9258 5.9217 -20.7285 1.2216
# 2 37.4687 105.2799 43.8363 2.1044 -19.0509 -2.0930
# 3 21.9258 43.8363 112.2790 1.9125 -20.3651 -1.2868
# 4 5.9217 2.1044 1.9125 63.9352 -7.1842 -10.6147
# 5 -20.7285 -19.0509 -20.3651 -7.1842 38.9674 -5.4874
# 6 1.2216 -2.0930 -1.2868 -10.6147 -5.4874 35.0640
#
#
#
# Elastic Compliance Matrix: (Units=1/GPa)
#
#
# Indices 1 2 3 4 5 6 
#
# 1 0.014290 -0.003998 -0.000241 -0.000591 0.005401 -0.000079
# 2 -0.003998 0.012985 -0.003827 0.000562 0.002513 0.001337
# 3 -0.000241 -0.003827 0.011188 0.000429 0.004061 0.000956
# 4 -0.000591 0.000562 0.000429 0.017113 0.004171 0.005903
# 5 0.005401 0.002513 0.004061 0.004171 0.033589 0.006630
# 6 -0.000079 0.001337 0.000956 0.005903 0.006630 0.031461
#
#
# Mechanical properties :
#
#
# Convention : Reuss Voigt Hill
#
# Bulk Modulus (GPa) = 44.78122 56.99319 50.88721
# Shear Modulus (GPa) = 34.67346 41.14307 37.90827
#
# Velocity S-wave (km/s) = 3.76755 4.10401 3.93938
# Velocity P-wave (km/s) = 6.10395 6.76674 6.44387
#
# Compressibility (1/GPa) = 0.02233079
#
# Stress axis : x y z
#
# Youngs Moduli (GPa) = 69.97989 77.01140 89.38124
#
# Poissons Ratio (x) = 0.30788 0.02153
# Poissons Ratio (y) = 0.27977 0.34209
# Poissons Ratio (z) = 0.01686 0.29475
#
# Static dielectric constant tensor:
#      x y z
#    x 1.959140 -0.067190 -0.064600 
#    y -0.067190 1.979810 0.112090 
#    z -0.064600 0.112090 2.078560 
# 
# From -- ./inp_files/94160.got.cif
#   From: 2010.05.17/outbox.cif.g08.bks.cpg/sg2_48_cif.got.tgz:94160.got - 2010.06.03 11:33:40.
