data_PCOD9049136
_publ_section_title
;
Structure prediction by ZEFSAII (Michael W. Deem and Ramdas Pophale) SiO2 
 PCOD9049136
Probable space group: P -1
;
_chemical_formula_sum "Si O2"
_cell_formula_units_Z 14
_cell_length_a 11.201289
_cell_length_b 23.037121
_cell_length_c 13.918839
_cell_angle_alpha 19.306700
_cell_angle_beta 36.482746
_cell_angle_gamma 29.457140
_cell_volume 580.502329
_symmetry_space_group_name_H-M "P -1"
_symmetry_group_IT_number 2
_symmetry_cell_setting 'triclinic'
loop_
_space_group_symop_operation_xyz
x,y,z
-x,-y,-z
loop_
_atom_site_type_symbol
_atom_site_label
_atom_site_fract_x
_atom_site_fract_y
_atom_site_fract_z
Si Si1 0.001043 0.815505 0.845724
Si Si2 0.654977 0.226784 0.945131
Si Si3 0.298309 0.635032 0.629759
Si Si4 0.826633 0.049665 0.322003
Si Si5 0.642151 0.586091 0.871612
Si Si6 0.850906 0.816757 0.336535
Si Si7 0.479317 0.937018 0.004243
O O1 0.014190 0.868315 0.865992
O O2 0.756907 0.830819 0.954516
O O3 0.000000 0.000000 0.500000
O O4 0.239189 0.584439 0.024257
O O5 0.395123 0.449826 0.777570
O O6 0.872508 0.254978 0.737825
O O7 0.720581 0.124767 0.167985
O O8 0.691843 0.048862 0.127160
O O9 0.401418 0.772017 0.316624
O O10 0.399961 0.525464 0.838865
O O11 0.012083 0.797200 0.584586
O O12 0.602402 0.173827 0.347302
O O13 0.836938 0.643411 0.674458
O O14 0.719208 0.863752 0.244722
O O15 0.500000 0.000000 0.000000
#
# Coordination Sequence:
#
# PCOD9049136 Si02
#       7
#     2   2   2   2   2   2   2
#     4  12  22  41  68 103 135 171 223 274 333 399
#     4  10  24  46  69  94 134 179 227 275 333 389
#     4  11  23  44  68  99 135 180 220 273 336 396
#     4  11  22  44  67  95 139 174 220 275 327 402
#     4  11  25  42  69 101 135 176 219 279 340 386
#     4  11  24  46  68 100 135 171 231 281 322 402
#     4  12  23  42  72  98 136 175 219 272 339 401
#
# _framework density 24.117044
#
# number of rings (size 3 to 8) (size 9 to 14) (size 15 to 20)
#    0.000    0.857    4.286    2.143    0.000    5.143 
#    2.571    6.429    0.000    0.000    0.000    0.000 
#    0.000    0.000    0.000    0.000    0.000    0.000 
#
# Total GULP energy -78174.619762 kJ/mol
# GULP energy per Si atom -5583.901412 kJ/mol
# Density = 2.406215 g / cm^3
# Si number density = 24.117044 Si / 1000 Ang^3
#
#
#
# Elastic Constant Matrix: (Units=GPa)
#
#
# Indices 1 2 3 4 5 6 
#
# 1 48.9996 14.1439 8.0380 -2.1675 3.9521 7.0925
# 2 14.1439 138.6515 47.9740 -47.4951 -8.1821 12.0500
# 3 8.0380 47.9740 74.4216 -9.8210 3.9869 -1.8665
# 4 -2.1675 -47.4951 -9.8210 54.8412 6.1455 -5.9767
# 5 3.9521 -8.1821 3.9869 6.1455 22.9233 -4.6972
# 6 7.0925 12.0500 -1.8665 -5.9767 -4.6972 31.0812
#
#
#
# Elastic Compliance Matrix: (Units=1/GPa)
#
#
# Indices 1 2 3 4 5 6 
#
# 1 0.022345 -0.002175 -0.001021 -0.001179 -0.005228 -0.005334
# 2 -0.002175 0.013959 -0.007713 0.009915 0.003436 -0.002953
# 3 -0.001021 -0.007713 0.018499 -0.002562 -0.004458 0.003168
# 4 -0.001179 0.009915 -0.002562 0.026735 -0.002776 0.000993
# 5 -0.005228 0.003436 -0.004458 -0.002776 0.048583 0.006402
# 6 -0.005334 -0.002953 0.003168 0.000993 0.006402 0.035884
#
#
# Mechanical properties :
#
#
# Convention : Reuss Voigt Hill
#
# Bulk Modulus (GPa) = 30.31578 44.70937 37.51258
# Shear Modulus (GPa) = 25.14871 34.56361 29.85616
#
# Velocity S-wave (km/s) = 3.23271 3.78982 3.52230
# Velocity P-wave (km/s) = 5.15087 6.14240 5.66835
#
# Compressibility (1/GPa) = 0.03298612
#
# Stress axis : x y z
#
# Youngs Moduli (GPa) = 44.75234 71.64065 54.05632
#
# Poissons Ratio (x) = 0.15582 0.05517
# Poissons Ratio (y) = 0.09734 0.41693
# Poissons Ratio (z) = 0.04567 0.55255
#
# Static dielectric constant tensor:
#      x y z
#    x 1.952190 -0.064910 0.009560 
#    y -0.064910 2.009470 -0.014700 
#    z 0.009560 -0.014700 1.918110 
# 
# From -- ./inp_files/524341.got.cif
#   From: 2010.05.17/outbox.cif.g08.bks.cpg/sg2_263_cif.got.tgz:524341.got - 2010.06.03 11:33:40.
