data_PCOD9049651
_publ_section_title
;
Structure prediction by ZEFSAII (Michael W. Deem and Ramdas Pophale) SiO2 
 PCOD9049651
Probable space group: P -1
;
_chemical_formula_sum "Si O2"
_cell_formula_units_Z 14
_cell_length_a 9.136333
_cell_length_b 6.885097
_cell_length_c 11.134151
_cell_angle_alpha 56.668710
_cell_angle_beta 83.975428
_cell_angle_gamma 94.122289
_cell_volume 574.830170
_symmetry_space_group_name_H-M "P -1"
_symmetry_group_IT_number 2
_symmetry_cell_setting 'triclinic'
loop_
_space_group_symop_operation_xyz
x,y,z
-x,-y,-z
loop_
_atom_site_type_symbol
_atom_site_label
_atom_site_fract_x
_atom_site_fract_y
_atom_site_fract_z
Si Si1 0.074693 0.668924 0.118628
Si Si2 0.090579 0.213404 0.130375
Si Si3 0.397495 0.442502 0.911707
Si Si4 0.959570 0.727064 0.358203
Si Si5 0.381478 0.770379 0.195230
Si Si6 0.462869 0.056973 0.318778
Si Si7 0.327435 0.250698 0.477697
O O1 0.069225 0.400613 0.169889
O O2 0.238712 0.768424 0.121756
O O3 0.956639 0.671875 0.235220
O O4 0.036661 0.800993 0.956719
O O5 0.235946 0.329812 0.006169
O O6 0.084588 0.957681 0.273470
O O7 0.473903 0.270922 0.878456
O O8 0.414186 0.705350 0.764687
O O9 0.500000 0.500000 0.000000
O O10 0.815047 0.801781 0.406956
O O11 0.000000 0.500000 0.500000
O O12 0.416841 0.982500 0.213270
O O13 0.344779 0.527189 0.355987
O O14 0.534185 0.840522 0.438993
O O15 0.329978 0.122134 0.391736
#
# Coordination Sequence:
#
# PCOD9049651 Si02
#       7
#     2   2   2   2   2   2   2
#     4  11  26  48  74 113 150 198 249 301 384 436
#     4  11  28  50  73 107 161 194 247 313 365 455
#     4  11  25  44  72 108 140 192 245 301 379 432
#     4  12  27  48  77 108 150 198 252 303 376 450
#     4  11  23  46  75 110 145 192 249 306 369 447
#     4  10  25  45  76 104 149 190 248 316 368 441
#     4  10  24  47  70 112 143 194 252 300 384 434
#
# _framework density 24.35502
#
# number of rings (size 3 to 8) (size 9 to 14) (size 15 to 20)
#    0.000    1.143    2.857    0.857    8.000    3.429 
#    0.000    0.000    0.000    0.000    0.000    0.000 
#    0.000    0.000    0.000    0.000    0.000    0.000 
#
# Total GULP energy -78390.108998 kJ/mol
# GULP energy per Si atom -5599.293500 kJ/mol
# Density = 2.429959 g / cm^3
# Si number density = 24.355020 Si / 1000 Ang^3
#
#
#
# Elastic Constant Matrix: (Units=GPa)
#
#
# Indices 1 2 3 4 5 6 
#
# 1 85.9458 69.5854 47.5898 -7.1788 -13.8950 -5.9516
# 2 69.5854 200.3378 66.4800 29.7199 -18.2068 -2.3438
# 3 47.5898 66.4800 100.1126 -4.6218 -20.4107 4.7068
# 4 -7.1788 29.7199 -4.6218 43.9395 -21.6209 -4.9357
# 5 -13.8950 -18.2068 -20.4107 -21.6209 46.5103 16.3119
# 6 -5.9516 -2.3438 4.7068 -4.9357 16.3119 32.1739
#
#
#
# Elastic Compliance Matrix: (Units=1/GPa)
#
#
# Indices 1 2 3 4 5 6 
#
# 1 0.022033 -0.007569 -0.003657 0.011897 0.006667 0.002504
# 2 -0.007569 0.010654 -0.005500 -0.012155 -0.006767 0.001747
# 3 -0.003657 -0.005500 0.018953 0.010562 0.013091 -0.008867
# 4 0.011897 -0.012155 0.010562 0.046871 0.027704 -0.007085
# 5 0.006667 -0.006767 0.013091 0.027704 0.046690 -0.020596
# 6 0.002504 0.001747 -0.008867 -0.007085 -0.020596 0.042324
#
#
# Mechanical properties :
#
#
# Convention : Reuss Voigt Hill
#
# Bulk Modulus (GPa) = 54.97968 83.74519 69.36243
# Shear Modulus (GPa) = 22.02239 38.04079 30.03159
#
# Velocity S-wave (km/s) = 3.01029 3.95641 3.51533
# Velocity P-wave (km/s) = 5.89116 7.43846 6.70956
#
# Compressibility (1/GPa) = 0.01818854
#
# Stress axis : x y z
#
# Youngs Moduli (GPa) = 45.38546 93.85730 52.76260
#
# Poissons Ratio (x) = 0.71044 0.19294
# Poissons Ratio (y) = 0.34354 0.29019
# Poissons Ratio (z) = 0.16597 0.51621
#
# Static dielectric constant tensor:
#      x y z
#    x 1.985180 -0.008190 0.010020 
#    y -0.008190 1.935430 -0.009860 
#    z 0.010020 -0.009860 1.986850 
# 
# From -- ./inp_files/408153.got.cif
#   From: 2010.05.17/outbox.cif.g08.bks.cpg/sg2_205_cif.got.tgz:408153.got - 2010.06.03 11:33:40.
