data_PCOD9049836
_publ_section_title
;
Structure prediction by ZEFSAII (Michael W. Deem and Ramdas Pophale) SiO2 
 PCOD9049836
Probable space group: P -1
;
_chemical_formula_sum "Si O2"
_cell_formula_units_Z 16
_cell_length_a 7.746495
_cell_length_b 19.489810
_cell_length_c 20.478257
_cell_angle_alpha 157.724657
_cell_angle_beta 33.579489
_cell_angle_gamma 133.750115
_cell_volume 599.878131
_symmetry_space_group_name_H-M "P -1"
_symmetry_group_IT_number 2
_symmetry_cell_setting 'triclinic'
loop_
_space_group_symop_operation_xyz
x,y,z
-x,-y,-z
loop_
_atom_site_type_symbol
_atom_site_label
_atom_site_fract_x
_atom_site_fract_y
_atom_site_fract_z
Si Si1 0.441581 0.721539 0.336262
Si Si2 0.383961 0.505712 0.294310
Si Si3 0.769534 0.327206 0.814360
Si Si4 0.699125 0.599450 0.383198
Si Si5 0.763810 0.093112 0.857200
Si Si6 0.880926 0.367429 0.243541
Si Si7 0.089159 0.066233 0.610376
Si Si8 0.286460 0.933254 0.903702
O O1 0.478053 0.620126 0.306786
O O2 0.724262 0.805350 0.304159
O O3 0.105056 0.918717 0.617824
O O4 0.502680 0.534989 0.105468
O O5 0.345269 0.631270 0.483710
O O6 0.120302 0.426004 0.270988
O O7 0.680528 0.321823 0.072877
O O8 0.053176 0.365235 0.716223
O O9 0.947446 0.193568 0.703093
O O10 0.657378 0.159750 0.671572
O O11 0.904336 0.414292 0.201947
O O12 0.589157 0.764243 0.620280
O O13 0.463307 0.086617 0.991940
O O14 0.780835 0.050532 0.735426
O O15 0.500000 0.500000 0.500000
O O16 0.872780 0.152574 0.065030
O O17 0.000000 0.000000 0.000000
#
# Coordination Sequence:
#
# PCOD9049836 Si02
#       8
#     2   2   2   2   2   2   2   2
#     4  12  25  46  74 111 167 201 249 323 382 469
#     4  12  25  49  78 110 160 200 254 327 382 462
#     4  11  23  44  75 110 158 207 253 313 386 468
#     4  11  24  47  79 110 145 206 259 306 399 465
#     4  12  25  47  72 112 152 205 254 316 394 458
#     4  10  24  47  76 104 143 196 258 320 393 445
#     4  11  23  44  71 110 154 205 256 305 394 468
#     4  11  23  49  74 101 149 193 251 331 380 445
#
# _framework density 26.672083000000001
#
# number of rings (size 3 to 8) (size 9 to 14) (size 15 to 20)
#    0.000    0.750    5.000    3.000    0.000    2.500 
#    6.750    0.625    0.000    0.000    0.000    0.000 
#    0.000    0.000    0.000    0.000    0.000    0.000 
#
# Total GULP energy -89105.179673 kJ/mol
# GULP energy per Si atom -5569.073730 kJ/mol
# Density = 2.661138 g / cm^3
# Si number density = 26.672083 Si / 1000 Ang^3
#
#
#
# Elastic Constant Matrix: (Units=GPa)
#
#
# Indices 1 2 3 4 5 6 
#
# 1 123.7974 55.8373 4.7754 8.8895 -5.8100 5.3791
# 2 55.8373 179.0547 18.7345 36.6128 -16.1726 -5.1008
# 3 4.7754 18.7345 94.9617 23.7074 -19.6005 1.7977
# 4 8.8895 36.6128 23.7074 37.2192 -8.6746 -14.5384
# 5 -5.8100 -16.1726 -19.6005 -8.6746 30.3659 1.7724
# 6 5.3791 -5.1008 1.7977 -14.5384 1.7724 43.0090
#
#
#
# Elastic Compliance Matrix: (Units=1/GPa)
#
#
# Indices 1 2 3 4 5 6 
#
# 1 0.009509 -0.002997 0.000233 0.000028 0.000473 -0.001565
# 2 -0.002997 0.008231 0.001049 -0.008121 0.002257 -0.001531
# 3 0.000233 0.001049 0.014455 -0.010279 0.007247 -0.004282
# 4 0.000028 -0.008121 -0.010279 0.047908 0.001822 0.015582
# 5 0.000473 0.002257 0.007247 0.001822 0.039487 -0.001106
# 6 -0.001565 -0.001531 -0.004282 0.015582 -0.001106 0.028757
#
#
# Mechanical properties :
#
#
# Convention : Reuss Voigt Hill
#
# Bulk Modulus (GPa) = 34.76443 61.83424 48.29933
# Shear Modulus (GPa) = 30.98583 43.34992 37.16787
#
# Velocity S-wave (km/s) = 3.41212 4.03586 3.73703
# Velocity P-wave (km/s) = 5.34656 6.70456 6.06369
#
# Compressibility (1/GPa) = 0.02876504
#
# Stress axis : x y z
#
# Youngs Moduli (GPa) = 105.16626 121.49884 69.18081
#
# Poissons Ratio (x) = 0.36415 -0.01615
# Poissons Ratio (y) = 0.31520 -0.07258
# Poissons Ratio (z) = -0.02455 -0.12747
#
# Static dielectric constant tensor:
#      x y z
#    x 2.279710 -0.015690 0.162020 
#    y -0.015690 2.193360 0.074380 
#    z 0.162020 0.074380 2.474450 
# 
# From -- ./inp_files/608654.got.cif
#   From: 2010.05.17/outbox.cif.g08.bks.cpg/sg2_305_cif.got.tgz:608654.got - 2010.06.03 11:33:40.
