data_PCOD9049159
_publ_section_title
;
Structure prediction by ZEFSAII (Michael W. Deem and Ramdas Pophale) SiO2 
 PCOD9049159
Probable space group: P -1
;
_chemical_formula_sum "Si O2"
_cell_formula_units_Z 15
_cell_length_a 10.626576
_cell_length_b 8.989053
_cell_length_c 8.851237
_cell_angle_alpha 132.666263
_cell_angle_beta 88.100373
_cell_angle_gamma 81.463227
_cell_volume 604.326423
_symmetry_space_group_name_H-M "P -1"
_symmetry_group_IT_number 2
_symmetry_cell_setting 'triclinic'
loop_
_space_group_symop_operation_xyz
x,y,z
-x,-y,-z
loop_
_atom_site_type_symbol
_atom_site_label
_atom_site_fract_x
_atom_site_fract_y
_atom_site_fract_z
Si Si1 0.930009 0.243943 0.150732
Si Si2 0.594053 0.800574 0.429021
Si Si3 0.526135 0.779545 0.763575
Si Si4 0.103340 0.374889 0.027129
Si Si5 0.500000 0.500000 0.000000
Si Si6 0.776085 0.297217 0.877689
Si Si7 0.196994 0.005075 0.568942
Si Si8 0.296300 0.638882 0.531788
O O1 0.839830 0.333150 0.357790
O O2 0.039823 0.368942 0.188746
O O3 0.836908 0.277521 0.028243
O O4 0.000000 0.000000 0.000000
O O5 0.575953 0.798562 0.605737
O O6 0.500000 0.000000 0.500000
O O7 0.735175 0.830544 0.401796
O O8 0.560814 0.607546 0.211947
O O9 0.395257 0.699522 0.691795
O O10 0.636060 0.588728 0.692353
O O11 0.500000 0.000000 0.000000
O O12 0.216647 0.493009 0.073017
O O13 0.000000 0.500000 0.000000
O O14 0.129400 0.140742 0.804548
O O15 0.625366 0.294482 0.874200
O O16 0.859176 0.108223 0.642328
O O17 0.284553 0.808519 0.517794
#
# Coordination Sequence:
#
# PCOD9049159 Si02
#       8
#     2   2   2   2   1   2   2   2
#     4  11  24  48  76 104 154 204 254 316 381 466
#     4  12  24  42  73 110 148 198 247 308 381 473
#     4  11  27  47  71 109 160 199 250 318 395 464
#     4  10  24  46  70 101 145 196 250 309 371 452
#     4  12  22  42  76 118 148 190 258 316 394 450
#     4  11  25  42  77 105 146 198 251 315 378 458
#     4  12  24  45  71 109 144 188 260 309 379 455
#     4  11  25  47  69 107 151 198 250 320 388 453
#
# _framework density 24.821023
#
# number of rings (size 3 to 8) (size 9 to 14) (size 15 to 20)
#    0.000    0.800    5.333    0.800    3.733    7.467 
#    0.000    2.000    0.000    0.000    0.000    0.000 
#    0.000    0.000    0.000    0.000    0.000    0.000 
#
# Total GULP energy -83600.379059 kJ/mol
# GULP energy per Si atom -5573.358604 kJ/mol
# Density = 2.476453 g / cm^3
# Si number density = 24.821023 Si / 1000 Ang^3
#
#
#
# Elastic Constant Matrix: (Units=GPa)
#
#
# Indices 1 2 3 4 5 6 
#
# 1 47.1897 30.8281 29.8208 -8.5627 -7.0049 -2.2740
# 2 30.8281 134.7913 45.5191 1.1711 -2.4216 -0.2930
# 3 29.8208 45.5191 181.2424 24.3102 5.0289 10.6369
# 4 -8.5627 1.1711 24.3102 43.7670 -4.4956 -12.9099
# 5 -7.0049 -2.4216 5.0289 -4.4956 41.5002 -7.6454
# 6 -2.2740 -0.2930 10.6369 -12.9099 -7.6454 42.5990
#
#
#
# Elastic Compliance Matrix: (Units=1/GPa)
#
#
# Indices 1 2 3 4 5 6 
#
# 1 0.033465 -0.005246 -0.006932 0.014322 0.009489 0.009524
# 2 -0.005246 0.009063 -0.001317 -0.000603 -0.000285 -0.000123
# 3 -0.006932 -0.001317 0.008544 -0.008199 -0.004231 -0.005757
# 4 0.014322 -0.000603 -0.008199 0.035825 0.010108 0.015479
# 5 0.009489 -0.000285 -0.004231 0.010108 0.029103 0.009848
# 6 0.009524 -0.000123 -0.005757 0.015479 0.009848 0.031878
#
#
# Mechanical properties :
#
#
# Convention : Reuss Voigt Hill
#
# Bulk Modulus (GPa) = 41.52508 63.95103 52.73806
# Shear Modulus (GPa) = 27.33803 42.71027 35.02415
#
# Velocity S-wave (km/s) = 3.32234 4.15267 3.76049
# Velocity P-wave (km/s) = 5.61101 6.98668 6.33629
#
# Compressibility (1/GPa) = 0.02408183
#
# Stress axis : x y z
#
# Youngs Moduli (GPa) = 29.88205 110.33424 117.04368
#
# Poissons Ratio (x) = 0.57883 0.81133
# Poissons Ratio (y) = 0.15676 0.15416
# Poissons Ratio (z) = 0.20714 0.14533
#
# Static dielectric constant tensor:
#      x y z
#    x 2.239550 0.194460 -0.039460 
#    y 0.194460 2.183710 0.077500 
#    z -0.039460 0.077500 2.036760 
# 
# From -- ./inp_files/241326.got.cif
#   From: 2010.05.17/outbox.cif.g08.bks.cpg/sg2_121_cif.got.tgz:241326.got - 2010.06.03 11:33:40.
