data_PCOD9049624
_publ_section_title
;
Structure prediction by ZEFSAII (Michael W. Deem and Ramdas Pophale) SiO2 
 PCOD9049624
Probable space group: P -1
;
_chemical_formula_sum "Si O2"
_cell_formula_units_Z 16
_cell_length_a 9.072754
_cell_length_b 12.170006
_cell_length_c 15.380048
_cell_angle_alpha 152.702815
_cell_angle_beta 94.271807
_cell_angle_gamma 77.712370
_cell_volume 735.640291
_symmetry_space_group_name_H-M "P -1"
_symmetry_group_IT_number 2
_symmetry_cell_setting 'triclinic'
loop_
_space_group_symop_operation_xyz
x,y,z
-x,-y,-z
loop_
_atom_site_type_symbol
_atom_site_label
_atom_site_fract_x
_atom_site_fract_y
_atom_site_fract_z
Si Si1 0.524001 0.929801 0.825185
Si Si2 0.126318 0.589396 0.984894
Si Si3 0.903762 0.262126 0.725412
Si Si4 0.456412 0.275065 0.793500
Si Si5 0.432453 0.527429 0.225973
Si Si6 0.114755 0.671017 0.846398
Si Si7 0.233939 0.064409 0.019222
Si Si8 0.605845 0.737640 0.506845
O O1 0.651678 0.849061 0.850822
O O2 0.591474 0.764147 0.627872
O O3 0.497977 0.225198 0.007682
O O4 0.352431 0.938447 0.857370
O O5 0.271960 0.341465 0.839507
O O6 0.151820 0.696235 0.967501
O O7 0.985582 0.479322 0.885819
O O8 0.116438 0.771406 0.194873
O O9 0.745508 0.374898 0.743485
O O10 0.000000 0.000000 0.500000
O O11 0.492792 0.312186 0.721602
O O12 0.547563 0.016030 0.659408
O O13 0.500000 0.500000 0.000000
O O14 0.485210 0.595544 0.369462
O O15 0.223998 0.406195 0.626354
O O16 0.928966 0.727749 0.868756
O O17 0.173367 0.866038 0.930021
#
# Coordination Sequence:
#
# PCOD9049624 Si02
#       8
#     2   2   2   2   2   2   2   2
#     4  11  23  46  72  92 132 179 225 280 344 390
#     4  11  23  43  64  94 138 174 213 266 328 398
#     4  11  25  39  63  97 140 175 210 259 328 405
#     4  12  22  40  68  98 137 176 215 263 325 404
#     4  12  23  43  65 101 133 175 219 270 330 401
#     4  11  24  43  69 100 132 174 229 280 339 384
#     4  10  24  47  69  93 133 176 224 295 338 382
#     4  12  25  39  74 103 131 177 230 268 332 414
#
# _framework density 21.749759000000001
#
# number of rings (size 3 to 8) (size 9 to 14) (size 15 to 20)
#    0.000    0.750    5.000    1.875    1.750    4.000 
#    0.000    0.000    0.000    0.000    0.000    0.000 
#    0.000    0.000    0.000    0.000    0.000    0.000 
#
# Total GULP energy -89387.233613 kJ/mol
# GULP energy per Si atom -5586.702101 kJ/mol
# Density = 2.170026 g / cm^3
# Si number density = 21.749759 Si / 1000 Ang^3
#
#
#
# Elastic Constant Matrix: (Units=GPa)
#
#
# Indices 1 2 3 4 5 6 
#
# 1 127.2615 29.7699 31.7273 3.4001 -23.7148 -26.9004
# 2 29.7699 92.6341 44.7871 -7.7826 -25.0530 -7.0768
# 3 31.7273 44.7871 98.7645 -14.0747 -19.0313 -15.7019
# 4 3.4001 -7.7826 -14.0747 28.9196 0.4223 -4.9112
# 5 -23.7148 -25.0530 -19.0313 0.4223 33.9798 5.8200
# 6 -26.9004 -7.0768 -15.7019 -4.9112 5.8200 50.5034
#
#
#
# Elastic Compliance Matrix: (Units=1/GPa)
#
#
# Indices 1 2 3 4 5 6 
#
# 1 0.010308 -0.001118 -0.001424 -0.001568 0.004876 0.004177
# 2 -0.001118 0.015957 -0.005182 0.001656 0.008190 -0.000754
# 3 -0.001424 -0.005182 0.014989 0.006617 0.002901 0.003484
# 4 -0.001568 0.001656 0.006617 0.039239 0.002491 0.004983
# 5 0.004876 0.008190 0.002901 0.002491 0.040425 0.000230
# 6 0.004177 -0.000754 0.003484 0.004983 0.000230 0.023461
#
#
# Mechanical properties :
#
#
# Convention : Reuss Voigt Hill
#
# Bulk Modulus (GPa) = 38.75362 59.02541 48.88952
# Shear Modulus (GPa) = 29.68618 36.83894 33.26256
#
# Velocity S-wave (km/s) = 3.69846 4.12000 3.91491
# Velocity P-wave (km/s) = 6.00789 7.05903 6.55456
#
# Compressibility (1/GPa) = 0.02580404
#
# Stress axis : x y z
#
# Youngs Moduli (GPa) = 97.01405 62.66954 66.71749
#
# Poissons Ratio (x) = 0.07006 0.09502
# Poissons Ratio (y) = 0.10846 0.34576
# Poissons Ratio (z) = 0.13816 0.32478
#
# Static dielectric constant tensor:
#      x y z
#    x 1.854440 0.048040 -0.016080 
#    y 0.048040 1.872970 -0.042000 
#    z -0.016080 -0.042000 1.809340 
# 
# From -- ./inp_files/501220.got.cif
#   From: 2010.05.17/outbox.cif.g08.bks.cpg/sg2_251_cif.got.tgz:501220.got - 2010.06.03 11:33:40.
