data_PCOD9049403
_publ_section_title
;
Structure prediction by ZEFSAII (Michael W. Deem and Ramdas Pophale) SiO2 
 PCOD9049403
Probable space group: P -1
;
_chemical_formula_sum "Si O2"
_cell_formula_units_Z 14
_cell_length_a 7.760613
_cell_length_b 11.932294
_cell_length_c 16.686637
_cell_angle_alpha 34.586762
_cell_angle_beta 38.677281
_cell_angle_gamma 53.220445
_cell_volume 543.931083
_symmetry_space_group_name_H-M "P -1"
_symmetry_group_IT_number 2
_symmetry_cell_setting 'triclinic'
loop_
_space_group_symop_operation_xyz
x,y,z
-x,-y,-z
loop_
_atom_site_type_symbol
_atom_site_label
_atom_site_fract_x
_atom_site_fract_y
_atom_site_fract_z
Si Si1 0.758965 0.763810 0.795346
Si Si2 0.041547 0.932551 0.754850
Si Si3 0.399984 0.096890 0.740376
Si Si4 0.140674 0.400756 0.434541
Si Si5 0.319168 0.573927 0.862797
Si Si6 0.860331 0.432269 0.347164
Si Si7 0.174330 0.129573 0.964372
O O1 0.936129 0.873010 0.739594
O O2 0.956230 0.704501 0.689513
O O3 0.554168 0.919597 0.754915
O O4 0.611873 0.559670 0.008736
O O5 0.298234 0.804609 0.752236
O O6 0.813553 0.875210 0.941541
O O7 0.117807 0.165763 0.593701
O O8 0.552406 0.309845 0.533339
O O9 0.409903 0.088646 0.839318
O O10 0.082770 0.039509 0.863402
O O11 0.466977 0.461880 0.263212
O O12 0.000000 0.500000 0.500000
O O13 0.982110 0.445741 0.384218
O O14 0.000000 0.500000 0.000000
O O15 0.880678 0.649045 0.172562
#
# Coordination Sequence:
#
# PCOD9049403 Si02
#       7
#     2   2   2   2   2   2   2
#     4  11  24  48  75 109 144 198 253 304 377 450
#     4  11  25  49  73 110 149 195 251 312 371 454
#     4  11  26  46  75 106 154 199 250 308 382 448
#     4  12  29  47  77 112 152 196 255 314 382 451
#     4  10  24  46  73 107 148 195 247 307 373 449
#     4  12  26  50  75 107 152 199 250 313 376 455
#     4  11  27  46  74 111 150 199 250 311 381 447
#
# _framework density 25.738555999999999
#
# number of rings (size 3 to 8) (size 9 to 14) (size 15 to 20)
#    0.000    0.857    2.857    2.143    8.000    6.286 
#    0.000    0.000    0.000    0.000    0.000    0.000 
#    0.000    0.000    0.000    0.000    0.000    0.000 
#
# Total GULP energy -78501.049104 kJ/mol
# GULP energy per Si atom -5607.217793 kJ/mol
# Density = 2.567997 g / cm^3
# Si number density = 25.738556 Si / 1000 Ang^3
#
#
#
# Elastic Constant Matrix: (Units=GPa)
#
#
# Indices 1 2 3 4 5 6 
#
# 1 78.0891 44.4887 48.1260 5.7340 13.3128 35.8735
# 2 44.4887 164.4958 51.8295 23.6704 0.1054 19.4125
# 3 48.1260 51.8295 146.1089 9.9297 1.8512 7.4638
# 4 5.7340 23.6704 9.9297 54.6659 3.9639 19.5843
# 5 13.3128 0.1054 1.8512 3.9639 34.4256 7.8687
# 6 35.8735 19.4125 7.4638 19.5843 7.8687 37.9311
#
#
#
# Elastic Compliance Matrix: (Units=1/GPa)
#
#
# Indices 1 2 3 4 5 6 
#
# 1 0.040654 -0.005119 -0.010443 0.014643 -0.007750 -0.039727
# 2 -0.005119 0.008047 -0.001063 -0.003785 0.001877 0.002497
# 3 -0.010443 -0.001063 0.010400 -0.004086 0.001634 0.010145
# 4 0.014643 -0.003785 -0.004086 0.028358 -0.002951 -0.025137
# 5 -0.007750 0.001877 0.001634 -0.002951 0.032082 0.000916
# 6 -0.039727 0.002497 0.010145 -0.025137 0.000916 0.073451
#
#
# Mechanical properties :
#
#
# Convention : Reuss Voigt Hill
#
# Bulk Modulus (GPa) = 38.68024 75.28691 56.98358
# Shear Modulus (GPa) = 21.28950 41.68781 31.48866
#
# Velocity S-wave (km/s) = 2.87913 4.02887 3.50151
# Velocity P-wave (km/s) = 5.11012 7.13838 6.20765
#
# Compressibility (1/GPa) = 0.02585299
#
# Stress axis : x y z
#
# Youngs Moduli (GPa) = 24.59762 124.26668 96.15718
#
# Poissons Ratio (x) = 0.63608 1.00414
# Poissons Ratio (y) = 0.12591 0.10218
# Poissons Ratio (z) = 0.25687 0.13205
#
# Static dielectric constant tensor:
#      x y z
#    x 2.070680 0.004780 -0.028260 
#    y 0.004780 2.013470 -0.003630 
#    z -0.028260 -0.003630 2.045000 
# 
# From -- ./inp_files/559621.got.cif
#   From: 2010.05.17/outbox.cif.g08.bks.cpg/sg2_280_cif.got.tgz:559621.got - 2010.06.03 11:33:40.
