data_PCOD9049731
_publ_section_title
;
Structure prediction by ZEFSAII (Michael W. Deem and Ramdas Pophale) SiO2 
 PCOD9049731
Probable space group: P -1
;
_chemical_formula_sum "Si O2"
_cell_formula_units_Z 16
_cell_length_a 6.481814
_cell_length_b 19.550861
_cell_length_c 13.286361
_cell_angle_alpha 139.218843
_cell_angle_beta 139.113017
_cell_angle_gamma 57.006610
_cell_volume 718.329908
_symmetry_space_group_name_H-M "P -1"
_symmetry_group_IT_number 2
_symmetry_cell_setting 'triclinic'
loop_
_space_group_symop_operation_xyz
x,y,z
-x,-y,-z
loop_
_atom_site_type_symbol
_atom_site_label
_atom_site_fract_x
_atom_site_fract_y
_atom_site_fract_z
Si Si1 0.332680 0.149708 0.931972
Si Si2 0.714881 0.242073 0.733379
Si Si3 0.291055 0.625889 0.943425
Si Si4 0.405262 0.056253 0.284073
Si Si5 0.327930 0.475734 0.305459
Si Si6 0.771233 0.928322 0.980247
Si Si7 0.157803 0.681680 0.738194
Si Si8 0.505446 0.414038 0.698444
O O1 0.075114 0.213119 0.849690
O O2 0.369293 0.035602 0.768683
O O3 0.211194 0.144242 0.996366
O O4 0.681871 0.208262 0.118724
O O5 0.542462 0.138073 0.506981
O O6 0.674676 0.334338 0.741796
O O7 0.568058 0.281995 0.829040
O O8 0.127017 0.674843 0.839744
O O9 0.488759 0.527945 0.873075
O O10 0.015699 0.571822 0.850247
O O11 0.334736 0.114579 0.216758
O O12 0.090360 0.997758 0.149736
O O13 0.500000 0.500000 0.500000
O O14 0.561093 0.394496 0.257308
O O15 0.327748 0.568191 0.327879
O O16 0.500000 0.000000 0.000000
O O17 0.850276 0.633932 0.513112
#
# Coordination Sequence:
#
# PCOD9049731 Si02
#       8
#     2   2   2   2   2   2   2   2
#     4  11  25  45  69 103 138 176 223 278 340 406
#     4  12  27  44  65 101 140 185 214 273 359 398
#     4  11  23  46  64  97 136 180 225 280 336 398
#     4  10  24  47  72  99 138 171 229 285 323 405
#     4  11  19  42  72  95 129 176 232 283 327 393
#     4   9  22  46  74 100 132 172 228 284 330 388
#     4  11  23  41  72  98 129 180 234 275 328 400
#     4  11  25  42  68 101 133 173 236 283 326 399
#
# _framework density 22.273889
#
# number of rings (size 3 to 8) (size 9 to 14) (size 15 to 20)
#    0.000    1.250    3.750    1.500    7.000    2.000 
#    6.750    0.000    0.000    0.000    0.000    0.000 
#    0.000    0.000    0.000    0.000    0.000    0.000 
#
# Total GULP energy -89359.122496 kJ/mol
# GULP energy per Si atom -5584.945156 kJ/mol
# Density = 2.222319 g / cm^3
# Si number density = 22.273889 Si / 1000 Ang^3
#
#
#
# Elastic Constant Matrix: (Units=GPa)
#
#
# Indices 1 2 3 4 5 6 
#
# 1 96.0758 53.0143 32.0865 -1.5203 -5.8501 13.9826
# 2 53.0143 117.0145 42.1876 -14.8408 -20.5535 1.8914
# 3 32.0865 42.1876 130.3851 3.2463 -24.0056 13.1616
# 4 -1.5203 -14.8408 3.2463 30.2738 -5.6921 -7.6582
# 5 -5.8501 -20.5535 -24.0056 -5.6921 31.0849 6.4806
# 6 13.9826 1.8914 13.1616 -7.6582 6.4806 35.3861
#
#
#
# Elastic Compliance Matrix: (Units=1/GPa)
#
#
# Indices 1 2 3 4 5 6 
#
# 1 0.015636 -0.007657 -0.001143 -0.004839 -0.002658 -0.005905
# 2 -0.007657 0.015434 -0.002242 0.009873 0.008070 0.003694
# 3 -0.001143 -0.002242 0.010563 -0.002253 0.007121 -0.005149
# 4 -0.004839 0.009873 -0.002253 0.042096 0.009590 0.009577
# 5 -0.002658 0.008070 0.007121 0.009590 0.046008 -0.008380
# 6 -0.005905 0.003694 -0.005149 0.009577 -0.008380 0.035918
#
#
# Mechanical properties :
#
#
# Convention : Reuss Voigt Hill
#
# Bulk Modulus (GPa) = 51.15677 66.45024 58.80351
# Shear Modulus (GPa) = 25.73915 33.76141 29.75028
#
# Velocity S-wave (km/s) = 3.40306 3.89747 3.65863
# Velocity P-wave (km/s) = 6.20146 7.08179 6.65620
#
# Compressibility (1/GPa) = 0.01954775
#
# Stress axis : x y z
#
# Youngs Moduli (GPa) = 63.95325 64.79393 94.66713
#
# Poissons Ratio (x) = 0.49615 0.10823
# Poissons Ratio (y) = 0.48971 0.21226
# Poissons Ratio (z) = 0.07312 0.14528
#
# Static dielectric constant tensor:
#      x y z
#    x 1.858540 0.015000 -0.065040 
#    y 0.015000 1.891940 0.015120 
#    z -0.065040 0.015120 1.902820 
# 
# From -- ./inp_files/369551.got.cif
#   From: 2010.05.17/outbox.cif.g08.bks.cpg/sg2_185_cif.got.tgz:369551.got - 2010.06.03 11:33:40.
