data_PCOD9049160
_publ_section_title
;
Structure prediction by ZEFSAII (Michael W. Deem and Ramdas Pophale) SiO2 
 PCOD9049160
Probable space group: P -1
;
_chemical_formula_sum "Si O2"
_cell_formula_units_Z 12
_cell_length_a 9.160648
_cell_length_b 6.648903
_cell_length_c 14.382553
_cell_angle_alpha 44.138130
_cell_angle_beta 124.515112
_cell_angle_gamma 103.982709
_cell_volume 481.432364
_symmetry_space_group_name_H-M "P -1"
_symmetry_group_IT_number 2
_symmetry_cell_setting 'triclinic'
loop_
_space_group_symop_operation_xyz
x,y,z
-x,-y,-z
loop_
_atom_site_type_symbol
_atom_site_label
_atom_site_fract_x
_atom_site_fract_y
_atom_site_fract_z
Si Si1 0.810778 0.623850 0.449712
Si Si2 0.944709 0.641380 0.210824
Si Si3 0.356542 0.713872 0.787773
Si Si4 0.671866 0.111387 0.497072
Si Si5 0.650040 0.194321 0.992107
Si Si6 0.119197 0.492426 0.138729
O O1 0.681629 0.419331 0.444940
O O2 0.000000 0.500000 0.500000
O O3 0.881951 0.554037 0.603423
O O4 0.700824 0.974066 0.279314
O O5 0.797712 0.457643 0.201765
O O6 0.008468 0.698083 0.112933
O O7 0.842259 0.927693 0.142716
O O8 0.329403 0.831596 0.631783
O O9 0.558751 0.463464 0.943497
O O10 0.500000 0.000000 0.500000
O O11 0.835983 0.841183 0.689735
O O12 0.701402 0.399003 0.859701
O O13 0.500000 0.000000 0.000000
O O14 0.000000 0.500000 0.000000
#
# Coordination Sequence:
#
# PCOD9049160 Si02
#       6
#     2   2   2   2   2   2
#     4  12  24  43  79 109 143 197 244 299 372 431
#     4  11  23  47  77 107 150 194 249 306 361 445
#     4  11  23  48  73 110 150 190 245 306 363 441
#     4  12  25  46  75 110 152 186 250 308 368 438
#     4  10  24  46  70 101 148 197 239 299 368 436
#     4  12  25  47  73 109 149 192 250 305 364 437
#
# _framework density 24.925621
#
# number of rings (size 3 to 8) (size 9 to 14) (size 15 to 20)
#    0.000    0.667    5.000    3.000    0.000    0.667 
#    3.000    2.500    0.000    0.000    0.000    0.000 
#    0.000    0.000    0.000    0.000    0.000    0.000 
#
# Total GULP energy -67049.073545 kJ/mol
# GULP energy per Si atom -5587.422795 kJ/mol
# Density = 2.486889 g / cm^3
# Si number density = 24.925621 Si / 1000 Ang^3
#
#
#
# Elastic Constant Matrix: (Units=GPa)
#
#
# Indices 1 2 3 4 5 6 
#
# 1 178.4656 68.4280 20.0391 -13.7018 -9.7591 -11.6723
# 2 68.4280 153.6131 68.6134 -36.5493 12.3843 -3.4021
# 3 20.0391 68.6134 147.8901 -37.7821 18.8188 -14.6191
# 4 -13.7018 -36.5493 -37.7821 65.6390 -4.9551 -0.8218
# 5 -9.7591 12.3843 18.8188 -4.9551 39.3012 -6.2330
# 6 -11.6723 -3.4021 -14.6191 -0.8218 -6.2330 55.2493
#
#
#
# Elastic Compliance Matrix: (Units=1/GPa)
#
#
# Indices 1 2 3 4 5 6 
#
# 1 0.007223 -0.003642 0.000513 0.000022 0.002980 0.001774
# 2 -0.003642 0.010542 -0.003473 0.002914 -0.002397 -0.001266
# 3 0.000513 -0.003473 0.009792 0.003637 -0.002653 0.002240
# 4 0.000022 0.002914 0.003637 0.018971 -0.000037 0.001425
# 5 0.002980 -0.002397 -0.002653 -0.000037 0.028684 0.003015
# 6 0.001774 -0.001266 0.002240 0.001425 0.003015 0.019351
#
#
# Mechanical properties :
#
#
# Convention : Reuss Voigt Hill
#
# Bulk Modulus (GPa) = 69.67806 88.23664 78.95735
# Shear Modulus (GPa) = 44.42418 53.56379 48.99399
#
# Velocity S-wave (km/s) = 4.22627 4.64070 4.43833
# Velocity P-wave (km/s) = 7.19932 8.01197 7.61649
#
# Compressibility (1/GPa) = 0.01435172
#
# Stress axis : x y z
#
# Youngs Moduli (GPa) = 138.44788 94.85653 102.12470
#
# Poissons Ratio (x) = 0.34550 -0.05239
# Poissons Ratio (y) = 0.50427 0.35471
# Poissons Ratio (z) = -0.07102 0.32947
#
# Static dielectric constant tensor:
#      x y z
#    x 1.933340 -0.070070 0.012270 
#    y -0.070070 1.943470 -0.034890 
#    z 0.012270 -0.034890 2.124030 
# 
# From -- ./inp_files/488055.got.cif
#   From: 2010.05.17/outbox.cif.g08.bks.cpg/sg2_245_cif.got.tgz:488055.got - 2010.06.03 11:33:40.
