data_PCOD9049645
_publ_section_title
;
Structure prediction by ZEFSAII (Michael W. Deem and Ramdas Pophale) SiO2 
 PCOD9049645
Probable space group: P -1
;
_chemical_formula_sum "Si O2"
_cell_formula_units_Z 14
_cell_length_a 5.173916
_cell_length_b 12.199878
_cell_length_c 11.150722
_cell_angle_alpha 65.500548
_cell_angle_beta 121.492107
_cell_angle_gamma 94.595585
_cell_volume 537.624259
_symmetry_space_group_name_H-M "P -1"
_symmetry_group_IT_number 2
_symmetry_cell_setting 'triclinic'
loop_
_space_group_symop_operation_xyz
x,y,z
-x,-y,-z
loop_
_atom_site_type_symbol
_atom_site_label
_atom_site_fract_x
_atom_site_fract_y
_atom_site_fract_z
Si Si1 0.184157 0.008607 0.161107
Si Si2 0.266438 0.403897 0.974524
Si Si3 0.635063 0.676643 0.698832
Si Si4 0.580354 0.460143 0.674822
Si Si5 0.108395 0.860841 0.553070
Si Si6 0.399148 0.243533 0.611982
Si Si7 0.306630 0.832716 0.857934
O O1 0.469362 0.076568 0.172992
O O2 0.943023 0.092504 0.150097
O O3 0.324197 0.869367 0.293306
O O4 0.000000 0.000000 0.000000
O O5 0.937135 0.443531 0.812513
O O6 0.500000 0.500000 0.000000
O O7 0.201747 0.361073 0.116162
O O8 0.460047 0.290528 0.999140
O O9 0.425923 0.566573 0.681048
O O10 0.451988 0.813318 0.615812
O O11 0.697108 0.683585 0.568220
O O12 0.500000 0.500000 0.500000
O O13 0.473972 0.328145 0.700032
O O14 0.118205 0.794153 0.715589
O O15 0.895287 0.821347 0.416858
O O16 0.000000 0.000000 0.500000
#
# Coordination Sequence:
#
# PCOD9049645 Si02
#       7
#     2   2   2   2   2   2   2
#     4  12  26  48  74 113 154 207 250 322 392 467
#     4  11  26  47  74 112 145 201 259 325 385 466
#     4  10  25  44  76 102 147 197 257 312 386 459
#     4  10  24  47  70 105 147 195 252 316 390 458
#     4  11  23  43  71 110 141 201 249 317 382 460
#     4  11  25  45  73 104 159 193 256 320 388 458
#     4  11  27  45  77 108 155 196 265 312 390 461
#
# _framework density 26.040489000000001
#
# number of rings (size 3 to 8) (size 9 to 14) (size 15 to 20)
#    0.000    1.143    1.429    2.571   12.000    4.000 
#    5.143    0.000    0.000    0.000    0.000    0.000 
#    0.000    0.000    0.000    0.000    0.000    0.000 
#
# Total GULP energy -78084.295055 kJ/mol
# GULP energy per Si atom -5577.449647 kJ/mol
# Density = 2.598122 g / cm^3
# Si number density = 26.040489 Si / 1000 Ang^3
#
#
#
# Elastic Constant Matrix: (Units=GPa)
#
#
# Indices 1 2 3 4 5 6 
#
# 1 87.9877 15.5426 38.6446 10.3037 8.8463 -8.2998
# 2 15.5426 145.6708 48.9017 15.3823 19.1461 -5.5322
# 3 38.6446 48.9017 193.4098 14.0714 13.5783 3.7644
# 4 10.3037 15.3823 14.0714 60.1571 -0.3360 8.8314
# 5 8.8463 19.1461 13.5783 -0.3360 36.7171 -0.2664
# 6 -8.2998 -5.5322 3.7644 8.8314 -0.2664 33.9280
#
#
#
# Elastic Compliance Matrix: (Units=1/GPa)
#
#
# Indices 1 2 3 4 5 6 
#
# 1 0.013318 0.000112 -0.002433 -0.002362 -0.002359 0.004143
# 2 0.000112 0.008210 -0.001733 -0.002036 -0.003671 0.002060
# 3 -0.002433 -0.001733 0.006208 -0.000381 -0.000821 -0.001474
# 4 -0.002362 -0.002036 -0.000381 0.018479 0.001900 -0.005663
# 5 -0.002359 -0.003671 -0.000821 0.001900 0.030029 -0.001343
# 6 0.004143 0.002060 -0.001474 -0.005663 -0.001343 0.032450
#
#
# Mechanical properties :
#
#
# Convention : Reuss Voigt Hill
#
# Bulk Modulus (GPa) = 50.93815 70.36068 60.64942
# Shear Modulus (GPa) = 40.53653 47.75906 44.14780
#
# Velocity S-wave (km/s) = 3.94975 4.28720 4.12193
# Velocity P-wave (km/s) = 6.35644 7.18228 6.78194
#
# Compressibility (1/GPa) = 0.01963165
#
# Stress axis : x y z
#
# Youngs Moduli (GPa) = 75.08399 121.80009 161.06984
#
# Poissons Ratio (x) = -0.01370 0.39183
# Poissons Ratio (y) = -0.00845 0.27906
# Poissons Ratio (z) = 0.18266 0.21102
#
# Static dielectric constant tensor:
#      x y z
#    x 2.249660 0.158260 0.013090 
#    y 0.158260 2.251850 -0.103030 
#    z 0.013090 -0.103030 2.090540 
# 
# From -- ./inp_files/364179.got.cif
#   From: 2010.05.17/outbox.cif.g08.bks.cpg/sg2_183_cif.got.tgz:364179.got - 2010.06.03 11:33:40.
