data_PCOD9049998
_publ_section_title
;
Structure prediction by ZEFSAII (Michael W. Deem and Ramdas Pophale) SiO2 
 PCOD9049998
Probable space group: P -1
;
_chemical_formula_sum "Si O2"
_cell_formula_units_Z 13
_cell_length_a 9.249775
_cell_length_b 12.023204
_cell_length_c 5.676726
_cell_angle_alpha 106.245227
_cell_angle_beta 53.901866
_cell_angle_gamma 99.539751
_cell_volume 489.744518
_symmetry_space_group_name_H-M "P -1"
_symmetry_group_IT_number 2
_symmetry_cell_setting 'triclinic'
loop_
_space_group_symop_operation_xyz
x,y,z
-x,-y,-z
loop_
_atom_site_type_symbol
_atom_site_label
_atom_site_fract_x
_atom_site_fract_y
_atom_site_fract_z
Si Si1 0.115185 0.110350 0.370392
Si Si2 0.980125 0.650477 0.233337
Si Si3 0.736547 0.530621 0.059253
Si Si4 0.236079 0.773151 0.678505
Si Si5 0.503656 0.340949 0.994652
Si Si6 0.541411 0.876705 0.772822
Si Si7 0.000000 0.000000 0.000000
O O1 0.248326 0.115951 0.472675
O O2 0.039178 0.239009 0.517113
O O3 0.000000 0.000000 0.500000
O O4 0.163315 0.061549 0.040959
O O5 0.793132 0.608678 0.273932
O O6 0.081116 0.542873 0.190434
O O7 0.109367 0.699370 0.930804
O O8 0.661415 0.608228 0.964820
O O9 0.580886 0.433341 0.162916
O O10 0.329388 0.687146 0.354093
O O11 0.403569 0.830353 0.690191
O O12 0.121321 0.882941 0.768377
O O13 0.459716 0.219332 0.078614
O O14 0.500000 0.000000 0.000000
#
# Coordination Sequence:
#
# PCOD9049998 Si02
#       7
#     2   2   2   2   2   2   1
#     4  12  26  48  74 104 146 184 239 299 357 430
#     4  11  23  47  73 107 142 193 236 295 362 409
#     4  10  24  48  72 103 148 188 244 293 346 430
#     4  12  26  44  74 105 148 185 238 295 357 428
#     4  11  26  48  70 108 143 189 244 291 356 427
#     4  12  26  47  70 104 145 190 230 298 359 421
#     4  12  26  40  74 110 136 192 228 294 358 426
#
# _framework density 26.544450000000001
#
# number of rings (size 3 to 8) (size 9 to 14) (size 15 to 20)
#    0.000    0.615    4.615    1.846    4.308    3.077 
#   11.077    0.000    0.000    0.000    0.000    0.000 
#    0.000    0.000    0.000    0.000    0.000    0.000 
#
# Total GULP energy -72500.758906 kJ/mol
# GULP energy per Si atom -5576.981454 kJ/mol
# Density = 2.648403 g / cm^3
# Si number density = 26.544450 Si / 1000 Ang^3
#
#
#
# Elastic Constant Matrix: (Units=GPa)
#
#
# Indices 1 2 3 4 5 6 
#
# 1 198.6680 58.1576 29.5207 29.4414 21.6284 14.2590
# 2 58.1576 157.0348 49.4808 41.0200 14.9069 1.8261
# 3 29.5207 49.4808 119.7860 39.4896 15.2737 11.2860
# 4 29.4414 41.0200 39.4896 54.2529 10.5063 -5.2313
# 5 21.6284 14.9069 15.2737 10.5063 36.3371 17.0677
# 6 14.2590 1.8261 11.2860 -5.2313 17.0677 62.4026
#
#
#
# Elastic Compliance Matrix: (Units=1/GPa)
#
#
# Indices 1 2 3 4 5 6 
#
# 1 0.006045 -0.001588 0.000133 -0.001883 -0.002004 -0.000969
# 2 -0.001588 0.008685 -0.001710 -0.004280 -0.000791 0.000275
# 3 0.000133 -0.001710 0.011836 -0.007428 -0.001052 -0.002456
# 4 -0.001883 -0.004280 -0.007428 0.029693 -0.005333 0.005847
# 5 -0.002004 -0.000791 -0.001052 -0.005333 0.035473 -0.009478
# 6 -0.000969 0.000275 -0.002456 0.005847 -0.009478 0.019765
#
#
# Mechanical properties :
#
#
# Convention : Reuss Voigt Hill
#
# Bulk Modulus (GPa) = 49.41436 83.31187 66.36312
# Shear Modulus (GPa) = 40.13763 53.15382 46.64573
#
# Velocity S-wave (km/s) = 3.89278 4.47972 4.19653
# Velocity P-wave (km/s) = 6.23387 7.62962 6.96679
#
# Compressibility (1/GPa) = 0.02023703
#
# Stress axis : x y z
#
# Youngs Moduli (GPa) = 165.42328 115.14307 84.48832
#
# Poissons Ratio (x) = 0.18280 -0.01127
# Poissons Ratio (y) = 0.26263 0.14450
# Poissons Ratio (z) = -0.02207 0.19692
#
# Static dielectric constant tensor:
#      x y z
#    x 2.261510 -0.068490 0.030850 
#    y -0.068490 1.904970 0.113410 
#    z 0.030850 0.113410 1.974100 
# 
# From -- ./inp_files/28850.got.cif
#   From: 2010.05.17/outbox.cif.g08.bks.cpg/sg2_15_cif.got.tgz:28850.got - 2010.06.03 11:33:40.
