data_PCOD9049246
_publ_section_title
;
Structure prediction by ZEFSAII (Michael W. Deem and Ramdas Pophale) SiO2 
 PCOD9049246
Probable space group: P -1
;
_chemical_formula_sum "Si O2"
_cell_formula_units_Z 14
_cell_length_a 11.966786
_cell_length_b 7.872929
_cell_length_c 8.385227
_cell_angle_alpha 56.140066
_cell_angle_beta 94.101586
_cell_angle_gamma 103.848644
_cell_volume 635.074402
_symmetry_space_group_name_H-M "P -1"
_symmetry_group_IT_number 2
_symmetry_cell_setting 'triclinic'
loop_
_space_group_symop_operation_xyz
x,y,z
-x,-y,-z
loop_
_atom_site_type_symbol
_atom_site_label
_atom_site_fract_x
_atom_site_fract_y
_atom_site_fract_z
Si Si1 0.192365 0.214075 0.405582
Si Si2 0.412080 0.269862 0.595951
Si Si3 0.760508 0.347575 0.916962
Si Si4 0.471729 0.738966 0.701187
Si Si5 0.977981 0.542341 0.655724
Si Si6 0.499942 0.737317 0.066366
Si Si7 0.784760 0.236613 0.323891
O O1 0.284848 0.282641 0.523148
O O2 0.228823 0.399834 0.179748
O O3 0.070295 0.248296 0.433214
O O4 0.196818 0.979201 0.485894
O O5 0.500000 0.500000 0.500000
O O6 0.454432 0.163329 0.498148
O O7 0.419477 0.171633 0.822605
O O8 0.630465 0.273442 0.882341
O O9 0.870004 0.364236 0.805344
O O10 0.774215 0.217602 0.141890
O O11 0.486732 0.500322 0.828102
O O12 0.336990 0.720744 0.662410
O O13 0.511020 0.821289 0.841226
O O14 0.101205 0.579671 0.732821
O O15 0.000000 0.500000 0.500000
#
# Coordination Sequence:
#
# PCOD9049246 Si02
#       7
#     2   2   2   2   2   2   2
#     4  10  22  38  60  85 118 153 193 241 299 337
#     4  10  17  34  60  80 120 159 184 244 295 341
#     4   9  20  39  60  80 117 153 192 230 302 338
#     4   9  18  30  56  85 114 149 197 227 294 351
#     4  10  22  38  63  84 113 154 196 240 297 349
#     4   9  17  33  57  84 115 153 193 240 279 362
#     4  11  22  37  62  86 114 153 197 243 284 359
#
# _framework density 22.044661999999999
#
# number of rings (size 3 to 8) (size 9 to 14) (size 15 to 20)
#    0.857    1.429    2.857    0.857    6.000    0.571 
#    0.000    3.571    3.143    0.000    0.000    0.000 
#    0.000    0.000    0.000    0.000    0.000    0.000 
#
# Total GULP energy -77951.825074 kJ/mol
# GULP energy per Si atom -5567.987505 kJ/mol
# Density = 2.199449 g / cm^3
# Si number density = 22.044662 Si / 1000 Ang^3
#
#
#
# Elastic Constant Matrix: (Units=GPa)
#
#
# Indices 1 2 3 4 5 6 
#
# 1 110.1427 3.7251 9.8018 13.2921 12.7829 2.6240
# 2 3.7251 33.7715 14.6767 5.0417 -0.4908 2.5958
# 3 9.8018 14.6767 100.0249 4.7869 6.6240 -8.9291
# 4 13.2921 5.0417 4.7869 48.7908 3.6242 3.4632
# 5 12.7829 -0.4908 6.6240 3.6242 25.4621 11.5313
# 6 2.6240 2.5958 -8.9291 3.4632 11.5313 22.9426
#
#
#
# Elastic Compliance Matrix: (Units=1/GPa)
#
#
# Indices 1 2 3 4 5 6 
#
# 1 0.010009 -0.000914 -0.000181 -0.002345 -0.005591 0.002053
# 2 -0.000914 0.033519 -0.006017 -0.002502 0.007232 -0.009287
# 3 -0.000181 -0.006017 0.012236 -0.000642 -0.007296 0.009227
# 4 -0.002345 -0.002502 -0.000642 0.021689 -0.000576 -0.002683
# 5 -0.005591 0.007232 -0.007296 -0.000576 0.058946 -0.032559
# 6 0.002053 -0.009287 0.009227 -0.002683 -0.032559 0.064764
#
#
# Mechanical properties :
#
#
# Convention : Reuss Voigt Hill
#
# Bulk Modulus (GPa) = 24.07347 33.37180 28.72263
# Shear Modulus (GPa) = 21.81179 33.82145 27.81662
#
# Velocity S-wave (km/s) = 3.14894 3.92117 3.55608
# Velocity P-wave (km/s) = 4.91581 5.97259 5.46978
#
# Compressibility (1/GPa) = 0.04153951
#
# Stress axis : x y z
#
# Youngs Moduli (GPa) = 99.90848 29.83380 81.72788
#
# Poissons Ratio (x) = 0.02728 0.01479
# Poissons Ratio (y) = 0.09135 0.49175
# Poissons Ratio (z) = 0.01808 0.17951
#
# Static dielectric constant tensor:
#      x y z
#    x 1.836650 0.015450 0.025530 
#    y 0.015450 1.903750 -0.036720 
#    z 0.025530 -0.036720 1.882800 
# 
# From -- ./inp_files/226972.got.cif
#   From: 2010.05.17/outbox.cif.g08.bks.cpg/sg2_114_cif.got.tgz:226972.got - 2010.06.03 11:33:40.
