data_PCOD9049270
_publ_section_title
;
Structure prediction by ZEFSAII (Michael W. Deem and Ramdas Pophale) SiO2 
 PCOD9049270
Probable space group: P -1
;
_chemical_formula_sum "Si O2"
_cell_formula_units_Z 14
_cell_length_a 4.928111
_cell_length_b 8.589536
_cell_length_c 12.345621
_cell_angle_alpha 97.487156
_cell_angle_beta 96.303556
_cell_angle_gamma 86.569136
_cell_volume 514.454178
_symmetry_space_group_name_H-M "P -1"
_symmetry_group_IT_number 2
_symmetry_cell_setting 'triclinic'
loop_
_space_group_symop_operation_xyz
x,y,z
-x,-y,-z
loop_
_atom_site_type_symbol
_atom_site_label
_atom_site_fract_x
_atom_site_fract_y
_atom_site_fract_z
Si Si1 0.192118 0.523161 0.208832
Si Si2 0.542253 0.723789 0.352069
Si Si3 0.398588 0.979819 0.220609
Si Si4 0.007913 0.231218 0.944273
Si Si5 0.541327 0.249063 0.091863
Si Si6 0.108798 0.581304 0.620256
Si Si7 0.125212 0.121285 0.436645
O O1 0.237657 0.674876 0.305753
O O2 0.018514 0.613191 0.116597
O O3 0.421981 0.418267 0.144361
O O4 0.078827 0.405209 0.280856
O O5 0.600790 0.838084 0.264131
O O6 0.660888 0.543954 0.343110
O O7 0.645302 0.795703 0.473518
O O8 0.157496 0.905023 0.133225
O O9 0.533983 0.117496 0.172657
O O10 0.264623 0.046582 0.331182
O O11 0.832799 0.260140 0.049356
O O12 0.319949 0.196667 0.987927
O O13 0.000000 0.500000 0.500000
O O14 0.122606 0.758145 0.598238
O O15 0.000000 0.000000 0.500000
#
# Coordination Sequence:
#
# PCOD9049270 Si02
#       7
#     2   2   2   2   2   2   2
#     4  11  25  45  76 104 148 197 248 308 387 439
#     4  10  26  44  72 106 150 188 241 302 377 461
#     4  11  25  47  72 108 149 203 242 317 382 441
#     4  11  28  45  77 106 157 193 265 311 381 438
#     4  12  26  50  73 115 143 205 259 322 366 450
#     4  10  24  46  71 107 147 192 246 301 377 458
#     4  11  25  46  73 111 149 192 245 306 380 466
#
# _framework density 27.213311000000001
#
# number of rings (size 3 to 8) (size 9 to 14) (size 15 to 20)
#    0.000    1.143    1.429    2.143   14.000    4.571 
#    0.000    0.000    0.000    0.000    0.000    0.000 
#    0.000    0.000    0.000    0.000    0.000    0.000 
#
# Total GULP energy -78373.196965 kJ/mol
# GULP energy per Si atom -5598.085498 kJ/mol
# Density = 2.715137 g / cm^3
# Si number density = 27.213311 Si / 1000 Ang^3
#
#
#
# Elastic Constant Matrix: (Units=GPa)
#
#
# Indices 1 2 3 4 5 6 
#
# 1 71.1329 28.3437 30.0882 -3.9463 -4.8337 0.2162
# 2 28.3437 163.7564 62.4500 -45.4852 0.6295 -9.3480
# 3 30.0882 62.4500 171.3598 6.1631 3.7222 8.5058
# 4 -3.9463 -45.4852 6.1631 71.3358 12.7974 2.3861
# 5 -4.8337 0.6295 3.7222 12.7974 47.0496 -1.9658
# 6 0.2162 -9.3480 8.5058 2.3861 -1.9658 33.6861
#
#
#
# Elastic Compliance Matrix: (Units=1/GPa)
#
#
# Indices 1 2 3 4 5 6 
#
# 1 0.015876 -0.002187 -0.002007 -0.000702 0.002009 -0.000035
# 2 -0.002187 0.009898 -0.003579 0.006714 -0.001771 0.003086
# 3 -0.002007 -0.003579 0.007736 -0.002956 -0.000080 -0.002729
# 4 -0.000702 0.006714 -0.002956 0.019412 -0.005169 0.000937
# 5 0.002009 -0.001771 -0.000080 -0.005169 0.022948 0.001221
# 6 -0.000035 0.003086 -0.002729 0.000937 0.001221 0.031236
#
#
# Mechanical properties :
#
#
# Convention : Reuss Voigt Hill
#
# Bulk Modulus (GPa) = 55.67003 72.00143 63.83573
# Shear Modulus (GPa) = 38.86781 49.43880 44.15330
#
# Velocity S-wave (km/s) = 3.78334 4.26692 4.03238
# Velocity P-wave (km/s) = 6.29176 7.12678 6.72225
#
# Compressibility (1/GPa) = 0.01796299
#
# Stress axis : x y z
#
# Youngs Moduli (GPa) = 62.98670 101.02980 129.26455
#
# Poissons Ratio (x) = 0.22098 0.25946
# Poissons Ratio (y) = 0.13777 0.46268
# Poissons Ratio (z) = 0.12642 0.36162
#
# Static dielectric constant tensor:
#      x y z
#    x 2.343770 0.017440 0.082320 
#    y 0.017440 2.168860 0.050310 
#    z 0.082320 0.050310 2.082220 
# 
# From -- ./inp_files/323549.got.cif
#   From: 2010.05.17/outbox.cif.g08.bks.cpg/sg2_162_cif.got.tgz:323549.got - 2010.06.03 11:33:40.
