data_PCOD9049959
_publ_section_title
;
Structure prediction by ZEFSAII (Michael W. Deem and Ramdas Pophale) SiO2 
 PCOD9049959
Probable space group: P -1
;
_chemical_formula_sum "Si O2"
_cell_formula_units_Z 16
_cell_length_a 5.917002
_cell_length_b 23.600402
_cell_length_c 11.473774
_cell_angle_alpha 28.156317
_cell_angle_beta 57.091683
_cell_angle_gamma 56.266486
_cell_volume 622.853399
_symmetry_space_group_name_H-M "P -1"
_symmetry_group_IT_number 2
_symmetry_cell_setting 'triclinic'
loop_
_space_group_symop_operation_xyz
x,y,z
-x,-y,-z
loop_
_atom_site_type_symbol
_atom_site_label
_atom_site_fract_x
_atom_site_fract_y
_atom_site_fract_z
Si Si1 0.079009 0.228897 0.996173
Si Si2 0.563570 0.210658 0.328222
Si Si3 0.063300 0.798447 0.177537
Si Si4 0.525937 0.585922 0.707230
Si Si5 0.571974 0.015549 0.318686
Si Si6 0.154212 0.433056 0.149739
Si Si7 0.569519 0.581708 0.439412
Si Si8 0.504082 0.139888 0.706597
O O1 0.184079 0.349896 0.786971
O O2 0.049197 0.232323 0.860190
O O3 0.301717 0.106604 0.181313
O O4 0.795223 0.223279 0.149073
O O5 0.369778 0.334121 0.200304
O O6 0.684786 0.143604 0.534425
O O7 0.380087 0.120325 0.495503
O O8 0.319936 0.695360 0.319217
O O9 0.823559 0.820154 0.299559
O O10 0.179034 0.921319 0.899479
O O11 0.848037 0.575569 0.696897
O O12 0.602117 0.532204 0.652734
O O13 0.442132 0.737937 0.461424
O O14 0.153691 0.561495 0.839999
O O15 0.500000 0.000000 0.500000
O O16 0.500000 0.500000 0.000000
O O17 0.500000 0.500000 0.500000
O O18 0.500000 0.000000 0.000000
#
# Coordination Sequence:
#
# PCOD9049959 Si02
#       8
#     2   2   2   2   2   2   2   2
#     4  11  24  47  70 101 153 182 240 309 369 438
#     4  11  25  44  72 109 140 194 242 293 374 443
#     4  11  25  45  69 104 143 192 240 301 368 437
#     4  10  24  48  70 107 144 187 248 305 359 436
#     4  11  24  42  70 105 142 184 241 303 363 438
#     4  10  25  48  74 102 149 194 240 304 370 437
#     4  11  27  46  77 106 142 197 250 302 370 440
#     4  11  25  45  73 104 145 196 237 302 374 429
#
# _framework density 25.688226
#
# number of rings (size 3 to 8) (size 9 to 14) (size 15 to 20)
#    0.000    1.250    2.500    1.125    8.750    3.000 
#    9.000    0.000    0.000    0.000    0.000    0.000 
#    0.000    0.000    0.000    0.000    0.000    0.000 
#
# Total GULP energy -89127.354593 kJ/mol
# GULP energy per Si atom -5570.459662 kJ/mol
# Density = 2.562976 g / cm^3
# Si number density = 25.688226 Si / 1000 Ang^3
#
#
#
# Elastic Constant Matrix: (Units=GPa)
#
#
# Indices 1 2 3 4 5 6 
#
# 1 77.0968 35.5298 51.5292 -2.8461 15.8465 27.2088
# 2 35.5298 108.0889 49.9897 -1.9759 -9.4578 28.0916
# 3 51.5292 49.9897 155.8426 -4.2806 -24.7456 12.2275
# 4 -2.8461 -1.9759 -4.2806 50.2570 9.8362 -6.8933
# 5 15.8465 -9.4578 -24.7456 9.8362 70.4024 1.0682
# 6 27.2088 28.0916 12.2275 -6.8933 1.0682 57.5069
#
#
#
# Elastic Compliance Matrix: (Units=1/GPa)
#
#
# Indices 1 2 3 4 5 6 
#
# 1 0.024168 -0.003018 -0.007728 0.001176 -0.008604 -0.008016
# 2 -0.003018 0.012652 -0.002473 -0.000812 0.001689 -0.004356
# 3 -0.007728 -0.002473 0.010361 -0.000294 0.005051 0.002532
# 4 0.001176 -0.000812 -0.000294 0.020920 -0.003437 0.002474
# 5 -0.008604 0.001689 0.005051 -0.003437 0.018602 0.001414
# 6 -0.008016 -0.004356 0.002532 0.002474 0.001414 0.023042
#
#
# Mechanical properties :
#
#
# Convention : Reuss Voigt Hill
#
# Bulk Modulus (GPa) = 48.20923 68.34728 58.27826
# Shear Modulus (GPa) = 34.94170 49.23191 42.08680
#
# Velocity S-wave (km/s) = 3.69212 4.38255 4.05207
# Velocity P-wave (km/s) = 6.08140 7.23002 6.68045
#
# Compressibility (1/GPa) = 0.02074292
#
# Stress axis : x y z
#
# Youngs Moduli (GPa) = 41.37756 79.03682 96.52033
#
# Poissons Ratio (x) = 0.23854 0.74590
# Poissons Ratio (y) = 0.12488 0.23869
# Poissons Ratio (z) = 0.31976 0.19545
#
# Static dielectric constant tensor:
#      x y z
#    x 0.127270 -0.443100 1.361280 
#    y -0.443100 1.867390 0.247950 
#    z 1.361280 0.247950 1.303030 
# 
# From -- ./inp_files/370940.got.cif
#   From: 2010.05.17/outbox.cif.g08.bks.cpg/sg2_186_cif.got.tgz:370940.got - 2010.06.03 11:33:40.
