data_PCOD9049096
_publ_section_title
;
Structure prediction by ZEFSAII (Michael W. Deem and Ramdas Pophale) SiO2 
 PCOD9049096
Probable space group: P -1
;
_chemical_formula_sum "Si O2"
_cell_formula_units_Z 16
_cell_length_a 17.228635
_cell_length_b 5.410268
_cell_length_c 8.329775
_cell_angle_alpha 93.293282
_cell_angle_beta 72.203447
_cell_angle_gamma 57.225625
_cell_volume 597.012037
_symmetry_space_group_name_H-M "P -1"
_symmetry_group_IT_number 2
_symmetry_cell_setting 'triclinic'
loop_
_space_group_symop_operation_xyz
x,y,z
-x,-y,-z
loop_
_atom_site_type_symbol
_atom_site_label
_atom_site_fract_x
_atom_site_fract_y
_atom_site_fract_z
Si Si1 0.272069 0.537293 0.508875
Si Si2 0.241580 0.290374 0.802736
Si Si3 0.415755 0.744708 0.853886
Si Si4 0.903450 0.423255 0.531495
Si Si5 0.274579 0.888023 0.243527
Si Si6 0.127935 0.767837 0.154740
Si Si7 0.521461 0.038216 0.674696
Si Si8 0.029727 0.589660 0.826395
O O1 0.273481 0.487065 0.698052
O O2 0.158441 0.680102 0.531426
O O3 0.302589 0.722425 0.393755
O O4 0.357857 0.185814 0.389266
O O5 0.151415 0.350296 0.754092
O O6 0.330031 0.948426 0.779643
O O7 0.187270 0.456556 0.007638
O O8 0.474364 0.388030 0.759693
O O9 0.477338 0.892519 0.805616
O O10 0.364170 0.807914 0.063935
O O11 0.939004 0.229996 0.663240
O O12 0.978272 0.426407 0.362485
O O13 0.811397 0.758491 0.658643
O O14 0.214162 0.784251 0.177240
O O15 0.050176 0.042258 0.098527
O O16 0.500000 0.000000 0.500000
O O17 0.000000 0.500000 0.000000
#
# Coordination Sequence:
#
# PCOD9049096 Si02
#       8
#     2   2   2   2   2   2   2   2
#     4  10  26  44  71 104 140 188 239 301 363 428
#     4  11  23  47  72 101 144 190 237 302 364 437
#     4  12  26  46  75 105 147 196 242 297 370 433
#     4  10  24  46  68  97 144 190 234 294 368 434
#     4  11  25  45  72 100 143 193 237 296 364 438
#     4  11  23  46  69 100 141 189 240 292 365 436
#     4  12  27  46  76 112 145 190 247 308 360 437
#     4  11  25  41  69 107 136 183 243 303 359 429
#
# _framework density 26.800128000000001
#
# number of rings (size 3 to 8) (size 9 to 14) (size 15 to 20)
#    0.000    1.000    2.500    2.625    5.250    2.500 
#    2.250    0.000    0.000    0.000    0.000    0.000 
#    0.000    0.000    0.000    0.000    0.000    0.000 
#
# Total GULP energy -89425.022258 kJ/mol
# GULP energy per Si atom -5589.063891 kJ/mol
# Density = 2.673913 g / cm^3
# Si number density = 26.800128 Si / 1000 Ang^3
#
#
#
# Elastic Constant Matrix: (Units=GPa)
#
#
# Indices 1 2 3 4 5 6 
#
# 1 70.5501 30.4888 24.4647 -6.9908 -19.1295 -1.8805
# 2 30.4888 166.7847 51.7400 -27.3996 -15.3224 -16.9701
# 3 24.4647 51.7400 198.2329 -50.8226 -21.6272 10.8879
# 4 -6.9908 -27.3996 -50.8226 67.1094 3.0352 -7.4997
# 5 -19.1295 -15.3224 -21.6272 3.0352 31.8284 4.3907
# 6 -1.8805 -16.9701 10.8879 -7.4997 4.3907 40.0568
#
#
#
# Elastic Compliance Matrix: (Units=1/GPa)
#
#
# Indices 1 2 3 4 5 6 
#
# 1 0.017895 -0.002359 -0.000516 -0.000034 0.009418 -0.001058
# 2 -0.002359 0.007647 -0.001245 0.002332 0.000667 0.003831
# 3 -0.000516 -0.001245 0.007087 0.004404 0.003772 -0.002067
# 4 -0.000034 0.002332 0.004404 0.019465 0.001792 0.003237
# 5 0.009418 0.000667 0.003772 0.001792 0.040398 -0.004393
# 6 -0.001058 0.003831 -0.002067 0.003237 -0.004393 0.028187
#
#
# Mechanical properties :
#
#
# Convention : Reuss Voigt Hill
#
# Bulk Modulus (GPa) = 41.00034 72.10610 56.55322
# Shear Modulus (GPa) = 36.48328 49.72386 43.10357
#
# Velocity S-wave (km/s) = 3.69360 4.31206 4.01476
# Velocity P-wave (km/s) = 5.78982 7.19412 6.52983
#
# Compressibility (1/GPa) = 0.02439004
#
# Stress axis : x y z
#
# Youngs Moduli (GPa) = 55.88184 130.76565 141.10150
#
# Poissons Ratio (x) = 0.30850 0.07278
# Poissons Ratio (y) = 0.13184 0.17562
# Poissons Ratio (z) = 0.02882 0.16275
#
# Static dielectric constant tensor:
#      x y z
#    x 2.276130 0.040400 -0.043840 
#    y 0.040400 2.070380 -0.025230 
#    z -0.043840 -0.025230 2.155640 
# 
# From -- ./inp_files/107269.got.cif
#   From: 2010.05.17/outbox.cif.g08.bks.cpg/sg2_54_cif.got.tgz:107269.got - 2010.06.03 11:33:40.
