data_PCOD9049856
_publ_section_title
;
Structure prediction by ZEFSAII (Michael W. Deem and Ramdas Pophale) SiO2 
 PCOD9049856
Probable space group: P -1
;
_chemical_formula_sum "Si O2"
_cell_formula_units_Z 12
_cell_length_a 9.728529
_cell_length_b 9.957168
_cell_length_c 9.756005
_cell_angle_alpha 102.337343
_cell_angle_beta 71.914268
_cell_angle_gamma 150.852342
_cell_volume 434.173520
_symmetry_space_group_name_H-M "P -1"
_symmetry_group_IT_number 2
_symmetry_cell_setting 'triclinic'
loop_
_space_group_symop_operation_xyz
x,y,z
-x,-y,-z
loop_
_atom_site_type_symbol
_atom_site_label
_atom_site_fract_x
_atom_site_fract_y
_atom_site_fract_z
Si Si1 0.664363 0.351928 0.970250
Si Si2 0.310998 0.774669 0.394964
Si Si3 0.667217 0.510070 0.636968
Si Si4 0.194315 0.159655 0.113210
Si Si5 0.708005 0.193664 0.151902
Si Si6 0.105587 0.199308 0.624579
O O1 0.571570 0.284176 0.675354
O O2 0.754494 0.374118 0.098024
O O3 0.398738 0.028093 0.947930
O O4 0.523758 0.385277 0.021820
O O5 0.000000 0.500000 0.500000
O O6 0.031932 0.423342 0.157861
O O7 0.500000 0.000000 0.500000
O O8 0.415191 0.959336 0.281243
O O9 0.827117 0.724249 0.756212
O O10 0.399508 0.384524 0.645194
O O11 0.831312 0.625609 0.464037
O O12 0.101874 0.968938 0.216371
O O13 0.000000 0.000000 0.000000
O O14 0.000000 0.000000 0.500000
#
# Coordination Sequence:
#
# PCOD9049856 Si02
#       6
#     2   2   2   2   2   2
#     4  10  24  47  77 104 154 205 252 315 397 465
#     4  12  29  47  79 110 148 208 265 326 392 465
#     4  10  25  48  73 111 157 201 260 332 391 471
#     4  11  26  43  78 121 157 209 260 325 404 478
#     4  10  24  49  72 109 150 200 261 323 377 470
#     4   9  22  46  73 104 155 202 253 327 389 467
#
# _framework density 27.638717
#
# number of rings (size 3 to 8) (size 9 to 14) (size 15 to 20)
#    0.000    1.667    0.000    1.000   11.667    4.667 
#    0.000    0.833    0.000    0.000    0.000    0.000 
#    0.000    0.000    0.000    0.000    0.000    0.000 
#
# Total GULP energy -66998.291704 kJ/mol
# GULP energy per Si atom -5583.190975 kJ/mol
# Density = 2.757581 g / cm^3
# Si number density = 27.638717 Si / 1000 Ang^3
#
#
#
# Elastic Constant Matrix: (Units=GPa)
#
#
# Indices 1 2 3 4 5 6 
#
# 1 122.5042 32.3635 24.3433 -0.4151 18.3774 9.1781
# 2 32.3635 149.9073 32.9410 -0.8764 2.7126 19.2630
# 3 24.3433 32.9410 161.8931 -16.3894 15.9054 12.9471
# 4 -0.4151 -0.8764 -16.3894 69.7101 1.1631 -5.1081
# 5 18.3774 2.7126 15.9054 1.1631 43.0005 -9.4868
# 6 9.1781 19.2630 12.9471 -5.1081 -9.4868 47.3323
#
#
#
# Elastic Compliance Matrix: (Units=1/GPa)
#
#
# Indices 1 2 3 4 5 6 
#
# 1 0.009459 -0.001605 -0.000555 -0.000163 -0.004146 -0.001878
# 2 -0.001605 0.007585 -0.001150 -0.000368 0.000095 -0.002482
# 3 -0.000555 -0.001150 0.007059 0.001560 -0.002726 -0.001733
# 4 -0.000163 -0.000368 0.001560 0.014807 -0.000614 0.001229
# 5 -0.004146 0.000095 -0.002726 -0.000614 0.027585 0.006973
# 6 -0.001878 -0.002482 -0.001733 0.001229 0.006973 0.024506
#
#
# Mechanical properties :
#
#
# Convention : Reuss Voigt Hill
#
# Bulk Modulus (GPa) = 57.19700 68.17781 62.68740
# Shear Modulus (GPa) = 48.33350 54.98570 51.65960
#
# Velocity S-wave (km/s) = 4.18636 4.46516 4.32800
# Velocity P-wave (km/s) = 6.64130 7.16272 6.90693
#
# Compressibility (1/GPa) = 0.01748344
#
# Stress axis : x y z
#
# Youngs Moduli (GPa) = 105.71573 131.83850 141.66846
#
# Poissons Ratio (x) = 0.21159 0.07859
# Poissons Ratio (y) = 0.16966 0.16294
# Poissons Ratio (z) = 0.05865 0.15164
#
# Static dielectric constant tensor:
#      x y z
#    x 2.112410 -0.029480 0.124870 
#    y -0.029480 2.194200 -0.075660 
#    z 0.124870 -0.075660 2.057030 
# 
# From -- ./inp_files/311591.got.cif
#   From: 2010.05.17/outbox.cif.g08.bks.cpg/sg2_156_cif.got.tgz:311591.got - 2010.06.03 11:33:40.
