data_PCOD9049742
_publ_section_title
;
Structure prediction by ZEFSAII (Michael W. Deem and Ramdas Pophale) SiO2 
 PCOD9049742
Probable space group: P -1
;
_chemical_formula_sum "Si O2"
_cell_formula_units_Z 16
_cell_length_a 6.347982
_cell_length_b 7.644258
_cell_length_c 14.503894
_cell_angle_alpha 65.832489
_cell_angle_beta 96.237753
_cell_angle_gamma 89.504086
_cell_volume 637.224841
_symmetry_space_group_name_H-M "P -1"
_symmetry_group_IT_number 2
_symmetry_cell_setting 'triclinic'
loop_
_space_group_symop_operation_xyz
x,y,z
-x,-y,-z
loop_
_atom_site_type_symbol
_atom_site_label
_atom_site_fract_x
_atom_site_fract_y
_atom_site_fract_z
Si Si1 0.125988 0.677146 0.933231
Si Si2 0.988551 0.873081 0.383238
Si Si3 0.532015 0.296561 0.910200
Si Si4 0.652207 0.409135 0.605160
Si Si5 0.119489 0.249097 0.395925
Si Si6 0.297273 0.653536 0.739729
Si Si7 0.256385 0.065774 0.074063
Si Si8 0.436594 0.020895 0.730573
O O1 0.171971 0.671850 0.828255
O O2 0.971830 0.859095 0.917066
O O3 0.344761 0.646434 0.005338
O O4 0.000000 0.500000 0.000000
O O5 0.132390 0.685875 0.407329
O O6 0.868832 0.833876 0.481919
O O7 0.812851 0.914667 0.287199
O O8 0.120982 0.062058 0.369154
O O9 0.445263 0.464685 0.804156
O O10 0.709756 0.157482 0.899714
O O11 0.335350 0.178928 0.963503
O O12 0.500000 0.500000 0.500000
O O13 0.717505 0.582991 0.636595
O O14 0.545936 0.218517 0.676708
O O15 0.882833 0.346919 0.345889
O O16 0.421382 0.848125 0.693440
O O17 0.435143 0.082806 0.157728
#
# Coordination Sequence:
#
# PCOD9049742 Si02
#       8
#     2   2   2   2   2   2   2   2
#     4  12  23  43  71  99 142 187 236 293 359 420
#     4  10  24  49  71 103 147 181 235 307 352 427
#     4  11  24  46  68  99 145 181 236 299 363 420
#     4  12  26  45  74 105 142 191 238 295 365 422
#     4  10  24  47  73 103 142 189 238 292 360 425
#     4  11  24  46  73 103 142 195 240 296 359 432
#     4  11  25  42  70 105 137 184 237 298 355 432
#     4  11  25  45  70 104 138 189 236 292 360 427
#
# _framework density 25.108877
#
# number of rings (size 3 to 8) (size 9 to 14) (size 15 to 20)
#    0.000    1.000    3.750    1.875    5.250    1.500 
#    4.500    0.000    0.000    0.000    0.000    0.000 
#    0.000    0.000    0.000    0.000    0.000    0.000 
#
# Total GULP energy -89485.876218 kJ/mol
# GULP energy per Si atom -5592.867264 kJ/mol
# Density = 2.505173 g / cm^3
# Si number density = 25.108877 Si / 1000 Ang^3
#
#
#
# Elastic Constant Matrix: (Units=GPa)
#
#
# Indices 1 2 3 4 5 6 
#
# 1 81.0907 55.7730 39.7694 -10.1501 10.9776 0.5246
# 2 55.7730 135.3641 36.8071 -28.6561 -0.3496 1.9849
# 3 39.7694 36.8071 104.9739 -29.2536 19.3698 11.4271
# 4 -10.1501 -28.6561 -29.2536 46.1984 3.9079 2.4592
# 5 10.9776 -0.3496 19.3698 3.9079 54.1433 -10.3796
# 6 0.5246 1.9849 11.4271 2.4592 -10.3796 66.0351
#
#
#
# Elastic Compliance Matrix: (Units=1/GPa)
#
#
# Indices 1 2 3 4 5 6 
#
# 1 0.020115 -0.007531 -0.005889 -0.003903 -0.001549 0.000988
# 2 -0.007531 0.011637 0.000178 0.005605 0.001064 -0.000362
# 3 -0.005889 0.000178 0.015907 0.009606 -0.005957 -0.004005
# 4 -0.003903 0.005605 0.009606 0.031024 -0.005583 -0.003833
# 5 -0.001549 0.001064 -0.005957 -0.005583 0.022228 0.004713
# 6 0.000988 -0.000362 -0.004005 -0.003833 0.004713 0.016723
#
#
# Mechanical properties :
#
#
# Convention : Reuss Voigt Hill
#
# Bulk Modulus (GPa) = 47.22702 65.12530 56.17616
# Shear Modulus (GPa) = 33.07410 45.88065 39.47738
#
# Velocity S-wave (km/s) = 3.63330 4.27929 3.96946
# Velocity P-wave (km/s) = 6.03746 7.10000 6.59018
#
# Compressibility (1/GPa) = 0.02117432
#
# Stress axis : x y z
#
# Youngs Moduli (GPa) = 49.71526 85.93490 62.86563
#
# Poissons Ratio (x) = 0.64718 0.37022
# Poissons Ratio (y) = 0.37441 -0.01119
# Poissons Ratio (z) = 0.29277 -0.01530
#
# Static dielectric constant tensor:
#      x y z
#    x 2.004460 -0.007030 -0.031740 
#    y -0.007030 2.032400 0.028540 
#    z -0.031740 0.028540 1.961230 
# 
# From -- ./inp_files/547007.got.cif
#   From: 2010.05.17/outbox.cif.g08.bks.cpg/sg2_274_cif.got.tgz:547007.got - 2010.06.03 11:33:40.
