data_PCOD9049195
_publ_section_title
;
Structure prediction by ZEFSAII (Michael W. Deem and Ramdas Pophale) SiO2 
 PCOD9049195
Probable space group: P -1
;
_chemical_formula_sum "Si O2"
_cell_formula_units_Z 13
_cell_length_a 11.807860
_cell_length_b 4.921590
_cell_length_c 10.377564
_cell_angle_alpha 80.095599
_cell_angle_beta 63.946286
_cell_angle_gamma 63.318076
_cell_volume 483.860217
_symmetry_space_group_name_H-M "P -1"
_symmetry_group_IT_number 2
_symmetry_cell_setting 'triclinic'
loop_
_space_group_symop_operation_xyz
x,y,z
-x,-y,-z
loop_
_atom_site_type_symbol
_atom_site_label
_atom_site_fract_x
_atom_site_fract_y
_atom_site_fract_z
Si Si1 0.163712 0.279002 0.174770
Si Si2 0.000000 0.500000 0.000000
Si Si3 0.602440 0.221187 0.059645
Si Si4 0.819638 0.658014 0.556232
Si Si5 0.254843 0.615493 0.801000
Si Si6 0.920143 0.091671 0.366443
Si Si7 0.515685 0.065409 0.635137
O O1 0.191144 0.403641 0.283611
O O2 0.068910 0.093556 0.262785
O O3 0.060985 0.527642 0.108418
O O4 0.308211 0.058135 0.055420
O O5 0.154897 0.440676 0.869164
O O6 0.716229 0.287698 0.080417
O O7 0.524619 0.121464 0.218882
O O8 0.500000 0.500000 0.000000
O O9 0.835864 0.394295 0.469742
O O10 0.677674 0.961801 0.580347
O O11 0.931936 0.793662 0.459914
O O12 0.166188 0.877887 0.724201
O O13 0.406610 0.408275 0.688105
O O14 0.500000 0.000000 0.500000
#
# Coordination Sequence:
#
# PCOD9049195 Si02
#       7
#     2   1   2   2   2   2   2
#     4  11  26  47  77 111 157 206 269 328 405 472
#     4  10  24  46  70 108 152 196 256 328 388 478
#     4  12  29  48  77 117 158 209 265 338 406 482
#     4  12  27  47  79 113 163 207 269 326 403 479
#     4  11  25  45  77 108 154 205 268 320 406 470
#     4  11  27  49  78 117 154 212 263 334 394 487
#     4  12  26  48  75 109 157 207 268 321 401 481
#
# _framework density 26.867263999999999
#
# number of rings (size 3 to 8) (size 9 to 14) (size 15 to 20)
#    0.000    0.615    3.077    2.769    6.462    7.385 
#    0.000    0.000    0.000    0.000    0.000    0.000 
#    0.000    0.000    0.000    0.000    0.000    0.000 
#
# Total GULP energy -72598.875108 kJ/mol
# GULP energy per Si atom -5584.528854 kJ/mol
# Density = 2.680611 g / cm^3
# Si number density = 26.867264 Si / 1000 Ang^3
#
#
#
# Elastic Constant Matrix: (Units=GPa)
#
#
# Indices 1 2 3 4 5 6 
#
# 1 94.0728 11.0278 39.3889 -2.5311 5.7937 -10.1638
# 2 11.0278 101.5269 52.6114 11.2262 2.5846 -5.8737
# 3 39.3889 52.6114 168.5549 13.6888 11.8066 -12.0396
# 4 -2.5311 11.2262 13.6888 48.9824 -15.6539 5.6349
# 5 5.7937 2.5846 11.8066 -15.6539 53.6123 -13.7601
# 6 -10.1638 -5.8737 -12.0396 5.6349 -13.7601 44.8239
#
#
#
# Elastic Compliance Matrix: (Units=1/GPa)
#
#
# Indices 1 2 3 4 5 6 
#
# 1 0.012024 0.000128 -0.002825 0.001214 0.000153 0.001879
# 2 0.000128 0.011925 -0.003529 -0.001883 -0.000147 0.000835
# 3 -0.002825 -0.003529 0.008056 -0.002239 -0.001746 0.000806
# 4 0.001214 -0.001883 -0.002239 0.023963 0.007088 -0.001409
# 5 0.000153 -0.000147 -0.001746 0.007088 0.022527 0.005571
# 6 0.001879 0.000835 0.000806 -0.001409 0.005571 0.024949
#
#
# Mechanical properties :
#
#
# Convention : Reuss Voigt Hill
#
# Bulk Modulus (GPa) = 51.14188 63.35675 57.24931
# Shear Modulus (GPa) = 40.84522 46.89215 43.86869
#
# Velocity S-wave (km/s) = 3.90328 4.18224 4.04517
# Velocity P-wave (km/s) = 6.27618 6.85231 6.57056
#
# Compressibility (1/GPa) = 0.01955345
#
# Stress axis : x y z
#
# Youngs Moduli (GPa) = 83.16612 83.85878 124.12675
#
# Poissons Ratio (x) = -0.01077 0.35067
# Poissons Ratio (y) = -0.01068 0.43807
# Poissons Ratio (z) = 0.23495 0.29596
#
# Static dielectric constant tensor:
#      x y z
#    x 2.045790 0.075150 -0.051240 
#    y 0.075150 2.112050 -0.070570 
#    z -0.051240 -0.070570 2.114010 
# 
# From -- ./inp_files/47107.got.cif
#   From: 2010.05.17/outbox.cif.g08.bks.cpg/sg2_24_cif.got.tgz:47107.got - 2010.06.03 11:33:40.
