data_PCOD9049068
_publ_section_title
;
Structure prediction by ZEFSAII (Michael W. Deem and Ramdas Pophale) SiO2 
 PCOD9049068
Probable space group: P -1
;
_chemical_formula_sum "Si O2"
_cell_formula_units_Z 14
_cell_length_a 22.327279
_cell_length_b 9.032869
_cell_length_c 4.972861
_cell_angle_alpha 111.058790
_cell_angle_beta 93.898250
_cell_angle_gamma 43.192505
_cell_volume 610.348966
_symmetry_space_group_name_H-M "P -1"
_symmetry_group_IT_number 2
_symmetry_cell_setting 'triclinic'
loop_
_space_group_symop_operation_xyz
x,y,z
-x,-y,-z
loop_
_atom_site_type_symbol
_atom_site_label
_atom_site_fract_x
_atom_site_fract_y
_atom_site_fract_z
Si Si1 0.942444 0.049843 0.760268
Si Si2 0.524143 0.701717 0.975765
Si Si3 0.378867 0.261890 0.381515
Si Si4 0.263106 0.408154 0.935077
Si Si5 0.621153 0.277304 0.138888
Si Si6 0.057554 0.319633 0.645147
Si Si7 0.736898 0.960527 0.460827
O O1 0.840210 0.322934 0.932823
O O2 0.934288 0.881416 0.565724
O O3 0.000000 0.000000 0.500000
O O4 0.000000 0.000000 0.000000
O O5 0.578522 0.676522 0.732060
O O6 0.458594 0.694328 0.836715
O O7 0.578572 0.509296 0.110547
O O8 0.458589 0.971251 0.246022
O O9 0.303351 0.347153 0.204595
O O10 0.327048 0.376981 0.724652
O O11 0.303430 0.939450 0.189229
O O12 0.267225 0.215553 0.733115
O O13 0.673050 0.185052 0.378215
O O14 0.159779 0.183836 0.613321
O O15 0.000000 0.500000 0.500000
O O16 0.000000 0.500000 0.000000
#
# Coordination Sequence:
#
# PCOD9049068 Si02
#       7
#     2   2   2   2   2   2   2
#     4  12  27  50  80 113 150 196 247 311 384 463
#     4  10  24  46  68 104 144 202 256 314 376 442
#     4  11  25  43  71 102 148 194 252 310 376 435
#     4  12  24  45  72 109 148 192 248 310 380 446
#     4  11  25  43  71 102 148 194 252 310 376 435
#     4  12  27  50  80 113 150 196 247 311 384 463
#     4  12  24  45  72 109 148 192 248 310 380 446
#
# _framework density 22.937698000000001
#
# number of rings (size 3 to 8) (size 9 to 14) (size 15 to 20)
#    0.000    0.571    2.857    4.286    2.000    8.000 
#    0.000    0.000    0.000    0.000    0.000    0.000 
#    0.000    0.000    0.000    0.000    0.000    0.000 
#
# Total GULP energy -78409.126788 kJ/mol
# GULP energy per Si atom -5600.651913 kJ/mol
# Density = 2.288549 g / cm^3
# Si number density = 22.937698 Si / 1000 Ang^3
#
#
#
# Elastic Constant Matrix: (Units=GPa)
#
#
# Indices 1 2 3 4 5 6 
#
# 1 140.0022 67.1332 20.2916 9.7300 11.4563 -2.3513
# 2 67.1332 130.0442 26.1716 15.3447 -0.1814 1.6067
# 3 20.2916 26.1716 102.5378 -8.2820 -9.6088 -0.9149
# 4 9.7300 15.3447 -8.2820 50.5933 -2.2273 -0.3655
# 5 11.4563 -0.1814 -9.6088 -2.2273 43.2915 -0.0335
# 6 -2.3513 1.6067 -0.9149 -0.3655 -0.0335 39.1668
#
#
#
# Elastic Compliance Matrix: (Units=1/GPa)
#
#
# Indices 1 2 3 4 5 6 
#
# 1 0.009916 -0.004833 -0.001055 -0.000737 -0.002916 0.000760
# 2 -0.004833 0.010910 -0.001982 -0.002677 0.000746 -0.000808
# 3 -0.001055 -0.001982 0.010956 0.002725 0.002843 0.000302
# 4 -0.000737 -0.002677 0.002725 0.021250 0.001882 0.000329
# 5 -0.002916 0.000746 0.002843 0.001882 0.024602 -0.000101
# 6 0.000760 -0.000808 0.000302 0.000329 -0.000101 0.025621
#
#
# Mechanical properties :
#
#
# Convention : Reuss Voigt Hill
#
# Bulk Modulus (GPa) = 62.33123 66.64190 64.48656
# Shear Modulus (GPa) = 40.21173 43.87615 42.04394
#
# Velocity S-wave (km/s) = 4.19153 4.37835 4.28596
# Velocity P-wave (km/s) = 7.11747 7.39435 7.25723
#
# Compressibility (1/GPa) = 0.01604332
#
# Stress axis : x y z
#
# Youngs Moduli (GPa) = 100.85032 91.65526 91.27234
#
# Poissons Ratio (x) = 0.44298 0.09626
# Poissons Ratio (y) = 0.48742 0.18088
# Poissons Ratio (z) = 0.10636 0.18164
#
# Static dielectric constant tensor:
#      x y z
#    x 1.820720 0.014410 0.020670 
#    y 0.014410 1.819410 0.020190 
#    z 0.020670 0.020190 1.831430 
# 
# From -- ./inp_files/126345.got.cif
#   From: 2010.05.17/outbox.cif.g08.bks.cpg/sg2_64_cif.got.tgz:126345.got - 2010.06.03 11:33:40.
