data_PCOD9049743
_publ_section_title
;
Structure prediction by ZEFSAII (Michael W. Deem and Ramdas Pophale) SiO2 
 PCOD9049743
Probable space group: P -1
;
_chemical_formula_sum "Si O2"
_cell_formula_units_Z 10
_cell_length_a 8.751865
_cell_length_b 11.805013
_cell_length_c 9.344334
_cell_angle_alpha 61.795583
_cell_angle_beta 32.695145
_cell_angle_gamma 53.467339
_cell_volume 418.131147
_symmetry_space_group_name_H-M "P -1"
_symmetry_group_IT_number 2
_symmetry_cell_setting 'triclinic'
loop_
_space_group_symop_operation_xyz
x,y,z
-x,-y,-z
loop_
_atom_site_type_symbol
_atom_site_label
_atom_site_fract_x
_atom_site_fract_y
_atom_site_fract_z
Si Si1 0.723856 0.766395 0.410470
Si Si2 0.961154 0.281316 0.530935
Si Si3 0.750606 0.066738 0.780933
Si Si4 0.637047 0.065407 0.176180
Si Si5 0.192737 0.480543 0.715010
O O1 0.416599 0.819346 0.724448
O O2 0.728257 0.668122 0.335985
O O3 0.711799 0.856463 0.659120
O O4 0.712396 0.913734 0.273721
O O5 0.689600 0.233013 0.727686
O O6 0.967542 0.401518 0.351428
O O7 0.986663 0.310761 0.661971
O O8 0.852932 0.039487 0.883475
O O9 0.000000 0.000000 0.500000
O O10 0.500000 0.000000 0.000000
O O11 0.500000 0.500000 0.500000
O O12 0.000000 0.500000 0.000000
#
# Coordination Sequence:
#
# PCOD9049743 Si02
#       5
#     2   2   2   2   2
#     4   9  22  51  72 110 144 192 246 294 356 451
#     4  10  24  47  73 103 145 196 241 287 371 423
#     4  12  24  40  70 109 149 183 237 303 365 420
#     4   9  22  44  77 104 139 191 246 290 362 416
#     4  12  30  47  73 108 150 193 241 299 366 426
#
# _framework density 23.915939999999999
#
# number of rings (size 3 to 8) (size 9 to 14) (size 15 to 20)
#    1.200    0.400    2.000    0.600    8.400    2.400 
#    0.000    3.000    0.000    0.000    0.000    0.000 
#    0.000    0.000    0.000    0.000    0.000    0.000 
#
# Total GULP energy -55698.771646 kJ/mol
# GULP energy per Si atom -5569.877165 kJ/mol
# Density = 2.386151 g / cm^3
# Si number density = 23.915940 Si / 1000 Ang^3
#
#
#
# Elastic Constant Matrix: (Units=GPa)
#
#
# Indices 1 2 3 4 5 6 
#
# 1 95.0330 77.8892 44.7656 20.6374 15.4050 26.9858
# 2 77.8892 114.1327 62.1271 -3.1855 21.6928 29.0728
# 3 44.7656 62.1271 171.6443 15.8022 34.1754 19.8232
# 4 20.6374 -3.1855 15.8022 33.4741 3.3441 18.3002
# 5 15.4050 21.6928 34.1754 3.3441 56.3246 3.7898
# 6 26.9858 29.0728 19.8232 18.3002 3.7898 64.9513
#
#
#
# Elastic Compliance Matrix: (Units=1/GPa)
#
#
# Indices 1 2 3 4 5 6 
#
# 1 0.040523 -0.031879 0.003161 -0.032667 0.000838 0.005623
# 2 -0.031879 0.038519 -0.006735 0.032838 -0.003239 -0.011004
# 3 0.003161 -0.006735 0.008565 -0.006999 -0.003135 0.001242
# 4 -0.032667 0.032838 -0.006999 0.066246 -0.002220 -0.017526
# 5 0.000838 -0.003239 -0.003135 -0.002220 0.020707 0.001476
# 6 0.005623 -0.011004 0.001242 -0.017526 0.001476 0.022458
#
#
# Mechanical properties :
#
#
# Convention : Reuss Voigt Hill
#
# Bulk Modulus (GPa) = 59.87862 83.37486 71.62674
# Shear Modulus (GPa) = 18.28223 44.01854 31.15038
#
# Velocity S-wave (km/s) = 2.76785 4.29482 3.61292
# Velocity P-wave (km/s) = 5.94189 7.71565 6.88612
#
# Compressibility (1/GPa) = 0.01670045
#
# Stress axis : x y z
#
# Youngs Moduli (GPa) = 24.67743 25.96141 116.76095
#
# Poissons Ratio (x) = 0.82762 -0.36912
# Poissons Ratio (y) = 0.78669 0.78643
# Poissons Ratio (z) = -0.07801 0.17486
#
# Static dielectric constant tensor:
#      x y z
#    x 1.939610 0.024580 -0.012740 
#    y 0.024580 1.830890 -0.046050 
#    z -0.012740 -0.046050 2.013280 
# 
# From -- ./inp_files/184591.got.cif
#   From: 2010.05.17/outbox.cif.g08.bks.cpg/sg2_93_cif.got.tgz:184591.got - 2010.06.03 11:33:40.
