data_PCOD9049758
_publ_section_title
;
Structure prediction by ZEFSAII (Michael W. Deem and Ramdas Pophale) SiO2 
 PCOD9049758
Probable space group: P -1
;
_chemical_formula_sum "Si O2"
_cell_formula_units_Z 16
_cell_length_a 8.715931
_cell_length_b 10.526199
_cell_length_c 19.769316
_cell_angle_alpha 32.533146
_cell_angle_beta 128.116709
_cell_angle_gamma 138.860055
_cell_volume 640.923201
_symmetry_space_group_name_H-M "P -1"
_symmetry_group_IT_number 2
_symmetry_cell_setting 'triclinic'
loop_
_space_group_symop_operation_xyz
x,y,z
-x,-y,-z
loop_
_atom_site_type_symbol
_atom_site_label
_atom_site_fract_x
_atom_site_fract_y
_atom_site_fract_z
Si Si1 0.256524 0.536995 0.689593
Si Si2 0.851175 0.821982 0.603117
Si Si3 0.436378 0.858982 0.463924
Si Si4 0.466319 0.832360 0.206951
Si Si5 0.041961 0.711466 0.836577
Si Si6 0.244647 0.128260 0.968651
Si Si7 0.736600 0.615975 0.921874
Si Si8 0.253681 0.831588 0.284896
O O1 0.263628 0.611799 0.579112
O O2 0.260943 0.272625 0.836773
O O3 0.995907 0.435872 0.687615
O O4 0.489112 0.815531 0.658024
O O5 0.688141 0.934422 0.523820
O O6 0.654974 0.498421 0.677640
O O7 0.997301 0.815277 0.707682
O O8 0.000000 0.000000 0.500000
O O9 0.351143 0.764774 0.407357
O O10 0.430900 0.915881 0.234589
O O11 0.740273 0.022048 0.184635
O O12 0.320776 0.907150 0.084910
O O13 0.823492 0.605243 0.874491
O O14 0.121307 0.490339 0.949669
O O15 0.458840 0.386716 0.953474
O O16 0.000000 0.000000 0.000000
O O17 0.781647 0.916178 0.819440
#
# Coordination Sequence:
#
# PCOD9049758 Si02
#       8
#     2   2   2   2   2   2   2   2
#     4  11  24  44  68 106 137 182 235 298 351 415
#     4  12  27  45  71  98 148 196 233 290 358 433
#     4  11  26  45  69 101 145 187 240 288 355 425
#     4  11  27  44  70 110 140 192 238 293 358 431
#     4  10  25  49  71 102 148 186 239 290 361 431
#     4  11  22  44  72 104 145 177 241 299 351 421
#     4  10  24  47  73 107 142 186 233 306 359 416
#     4  12  24  44  74 105 141 184 241 298 353 415
#
# _framework density 24.963988000000001
#
# number of rings (size 3 to 8) (size 9 to 14) (size 15 to 20)
#    0.000    1.000    2.500    2.625    5.250    6.000 
#    0.000    2.500    0.000    0.000    0.000    0.000 
#    0.000    0.000    0.000    0.000    0.000    0.000 
#
# Total GULP energy -89435.047334 kJ/mol
# GULP energy per Si atom -5589.690458 kJ/mol
# Density = 2.490717 g / cm^3
# Si number density = 24.963988 Si / 1000 Ang^3
#
#
#
# Elastic Constant Matrix: (Units=GPa)
#
#
# Indices 1 2 3 4 5 6 
#
# 1 63.7996 17.7620 23.5857 -5.0214 -2.4255 24.0348
# 2 17.7620 90.8843 33.2826 7.2553 -0.7835 20.1264
# 3 23.5857 33.2826 164.4844 11.6696 -13.5856 4.5463
# 4 -5.0214 7.2553 11.6696 49.9832 0.4630 -0.8217
# 5 -2.4255 -0.7835 -13.5856 0.4630 40.1643 -3.1495
# 6 24.0348 20.1264 4.5463 -0.8217 -3.1495 39.8434
#
#
#
# Elastic Compliance Matrix: (Units=1/GPa)
#
#
# Indices 1 2 3 4 5 6 
#
# 1 0.021834 -0.000662 -0.002905 0.002768 -0.000689 -0.012503
# 2 -0.000662 0.013533 -0.002449 -0.001552 -0.001078 -0.006275
# 3 -0.002905 -0.002449 0.007242 -0.001611 0.002427 0.002322
# 4 0.002768 -0.001552 -0.001611 0.020887 -0.000674 -0.000325
# 5 -0.000689 -0.001078 0.002427 -0.000674 0.025877 0.002715
# 6 -0.012503 -0.006275 0.002322 -0.000325 0.002715 0.035753
#
#
# Mechanical properties :
#
#
# Convention : Reuss Voigt Hill
#
# Bulk Modulus (GPa) = 32.70243 52.04765 42.37504
# Shear Modulus (GPa) = 33.93281 42.30073 38.11677
#
# Velocity S-wave (km/s) = 3.69083 4.12086 3.91176
# Velocity P-wave (km/s) = 5.59386 6.59821 6.11668
#
# Compressibility (1/GPa) = 0.03057877
#
# Stress axis : x y z
#
# Youngs Moduli (GPa) = 45.80062 73.89135 138.07777
#
# Poissons Ratio (x) = 0.04889 0.40107
# Poissons Ratio (y) = 0.03030 0.33816
# Poissons Ratio (z) = 0.13304 0.18096
#
# Static dielectric constant tensor:
#      x y z
#    x 1.995140 -0.012150 0.014960 
#    y -0.012150 1.978000 -0.035390 
#    z 0.014960 -0.035390 2.105070 
# 
# From -- ./inp_files/570804.got.cif
#   From: 2010.05.17/outbox.cif.g08.bks.cpg/sg2_286_cif.got.tgz:570804.got - 2010.06.03 11:33:40.
