data_PCOD9049990
_publ_section_title
;
Structure prediction by ZEFSAII (Michael W. Deem and Ramdas Pophale) SiO2 
 PCOD9049990
Probable space group: P -1
;
_chemical_formula_sum "Si O2"
_cell_formula_units_Z 15
_cell_length_a 25.558909
_cell_length_b 8.833329
_cell_length_c 11.706053
_cell_angle_alpha 35.997224
_cell_angle_beta 31.088173
_cell_angle_gamma 30.429198
_cell_volume 665.481772
_symmetry_space_group_name_H-M "P -1"
_symmetry_group_IT_number 2
_symmetry_cell_setting 'triclinic'
loop_
_space_group_symop_operation_xyz
x,y,z
-x,-y,-z
loop_
_atom_site_type_symbol
_atom_site_label
_atom_site_fract_x
_atom_site_fract_y
_atom_site_fract_z
Si Si1 0.714182 0.755780 0.422680
Si Si2 0.912097 0.365682 0.442004
Si Si3 0.930164 0.345798 0.681077
Si Si4 0.369999 0.768324 0.526531
Si Si5 0.764391 0.542299 0.077050
Si Si6 0.525241 0.173183 0.116124
Si Si7 0.071520 0.619935 0.922524
Si Si8 0.500000 0.000000 0.000000
O O1 0.787953 0.468489 0.547888
O O2 0.576923 0.851399 0.610500
O O3 0.803389 0.632258 0.223712
O O4 0.706000 0.028827 0.345076
O O5 0.892864 0.453067 0.556126
O O6 0.000000 0.000000 0.500000
O O7 0.977677 0.514184 0.166479
O O8 0.000000 0.500000 0.500000
O O9 0.811409 0.478895 0.898797
O O10 0.010750 0.968500 0.774666
O O11 0.500000 0.500000 0.500000
O O12 0.302207 0.633773 0.673728
O O13 0.400306 0.946300 0.272017
O O14 0.881732 0.400717 0.023838
O O15 0.661461 0.902719 0.064556
O O16 0.500000 0.500000 0.000000
O O17 0.512981 0.118248 0.037618
#
# Coordination Sequence:
#
# PCOD9049990 Si02
#       8
#     2   2   2   2   2   2   2   1
#     4  11  26  47  75 108 149 192 246 317 373 459
#     4  12  27  49  76 109 144 197 256 312 383 445
#     4  12  28  49  75 109 148 198 255 312 383 447
#     4  11  24  48  69 109 147 194 248 297 384 453
#     4  12  27  47  78 109 155 196 249 317 382 460
#     4  11  28  48  74 118 149 201 256 305 389 459
#     4  12  28  50  73 112 150 194 255 319 376 461
#     4  10  24  48  72 100 154 196 248 304 366 456
#
# _framework density 22.540063
#
# number of rings (size 3 to 8) (size 9 to 14) (size 15 to 20)
#    0.000    0.533    5.333    1.600   13.067    1.600 
#    0.000    0.000    0.000    0.000    0.000    0.000 
#    0.000    0.000    0.000    0.000    0.000    0.000 
#
# Total GULP energy -83604.291280 kJ/mol
# GULP energy per Si atom -5573.619419 kJ/mol
# Density = 2.248876 g / cm^3
# Si number density = 22.540063 Si / 1000 Ang^3
#
#
#
# Elastic Constant Matrix: (Units=GPa)
#
#
# Indices 1 2 3 4 5 6 
#
# 1 48.6672 -9.8218 17.2788 -2.0717 11.1614 3.2622
# 2 -9.8218 115.0142 28.7271 8.3016 -2.2183 6.4380
# 3 17.2788 28.7271 120.4095 6.4318 9.8033 13.6306
# 4 -2.0717 8.3016 6.4318 40.2029 12.6013 -8.1969
# 5 11.1614 -2.2183 9.8033 12.6013 41.7681 2.8379
# 6 3.2622 6.4380 13.6306 -8.1969 2.8379 32.8925
#
#
#
# Elastic Compliance Matrix: (Units=1/GPa)
#
#
# Indices 1 2 3 4 5 6 
#
# 1 0.024006 0.002618 -0.003728 0.003304 -0.006400 0.000027
# 2 0.002618 0.009828 -0.002494 -0.002244 0.001208 -0.001813
# 3 -0.003728 -0.002494 0.010004 -0.001813 -0.000687 -0.003680
# 4 0.003304 -0.002244 -0.001813 0.031058 -0.010593 0.009516
# 5 -0.006400 0.001208 -0.000687 -0.010593 0.029379 -0.004491
# 6 0.000027 -0.001813 -0.003680 0.009516 -0.004491 0.035038
#
#
# Mechanical properties :
#
#
# Convention : Reuss Voigt Hill
#
# Bulk Modulus (GPa) = 27.29962 39.60655 33.45309
# Shear Modulus (GPa) = 31.49981 39.49982 35.49981
#
# Velocity S-wave (km/s) = 3.74237 4.19074 3.97289
# Velocity P-wave (km/s) = 5.55083 6.40517 5.99324
#
# Compressibility (1/GPa) = 0.03663054
#
# Stress axis : x y z
#
# Youngs Moduli (GPa) = 41.65598 101.75344 99.95724
#
# Poissons Ratio (x) = -0.26636 0.37264
# Poissons Ratio (y) = -0.10904 0.24925
# Poissons Ratio (z) = 0.15529 0.25373
#
# Static dielectric constant tensor:
#      x y z
#    x 1.896350 -0.048770 0.023720 
#    y -0.048770 2.046010 -0.007240 
#    z 0.023720 -0.007240 1.820260 
# 
# From -- ./inp_files/476304.got.cif
#   From: 2010.05.17/outbox.cif.g08.bks.cpg/sg2_239_cif.got.tgz:476304.got - 2010.06.03 11:33:40.
