data_PCOD9049013
_publ_section_title
;
Structure prediction by ZEFSAII (Michael W. Deem and Ramdas Pophale) SiO2 
 PCOD9049013
Probable space group: P -1
;
_chemical_formula_sum "Si O2"
_cell_formula_units_Z 15
_cell_length_a 12.037316
_cell_length_b 11.687045
_cell_length_c 6.521683
_cell_angle_alpha 59.413912
_cell_angle_beta 108.264248
_cell_angle_gamma 121.651598
_cell_volume 670.991557
_symmetry_space_group_name_H-M "P -1"
_symmetry_group_IT_number 2
_symmetry_cell_setting 'triclinic'
loop_
_space_group_symop_operation_xyz
x,y,z
-x,-y,-z
loop_
_atom_site_type_symbol
_atom_site_label
_atom_site_fract_x
_atom_site_fract_y
_atom_site_fract_z
Si Si1 0.923008 0.027966 0.243755
Si Si2 0.215580 0.586591 0.040393
Si Si3 0.651953 0.594436 0.938007
Si Si4 0.500000 0.000000 0.500000
Si Si5 0.016187 0.601468 0.614585
Si Si6 0.463292 0.839196 0.034681
Si Si7 0.655595 0.868499 0.433570
Si Si8 0.100512 0.223986 0.842473
O O1 0.786618 0.996618 0.294564
O O2 0.887886 0.909895 0.144902
O O3 0.000000 0.000000 0.500000
O O4 0.020964 0.179576 0.051863
O O5 0.152097 0.636803 0.770683
O O6 0.298518 0.504657 0.078563
O O7 0.315321 0.726263 0.098982
O O8 0.097539 0.482504 0.210643
O O9 0.674296 0.743019 0.688741
O O10 0.500000 0.500000 0.000000
O O11 0.754822 0.650053 0.137180
O O12 0.593349 0.949828 0.464648
O O13 0.480213 0.866081 0.779178
O O14 0.000000 0.500000 0.500000
O O15 0.989601 0.734523 0.396216
O O16 0.559165 0.790033 0.257565
O O17 0.500000 0.000000 0.000000
#
# Coordination Sequence:
#
# PCOD9049013 Si02
#       8
#     2   2   2   1   2   2   2   2
#     4  11  25  46  72 106 145 187 240 305 359 429
#     4  11  26  47  72 106 144 189 242 304 362 429
#     4  12  26  46  75 106 147 192 245 301 362 439
#     4  10  24  46  66 102 142 182 234 288 352 434
#     4  11  25  46  76 104 144 189 243 297 357 436
#     4  10  25  45  68 103 143 186 235 291 363 428
#     4  11  25  44  73 105 148 189 240 294 368 427
#     4  11  26  46  73 110 143 192 247 295 368 426
#
# _framework density 22.354975
#
# number of rings (size 3 to 8) (size 9 to 14) (size 15 to 20)
#    0.000    1.067    2.667    1.600    5.600    8.000 
#    0.000    0.000    0.000    0.000    0.000    0.000 
#    0.000    0.000    0.000    0.000    0.000    0.000 
#
# Total GULP energy -83558.774536 kJ/mol
# GULP energy per Si atom -5570.584969 kJ/mol
# Density = 2.230409 g / cm^3
# Si number density = 22.354975 Si / 1000 Ang^3
#
#
#
# Elastic Constant Matrix: (Units=GPa)
#
#
# Indices 1 2 3 4 5 6 
#
# 1 166.6175 45.6433 52.7506 -2.1179 -13.1993 7.2508
# 2 45.6433 66.6021 -14.7577 0.2086 -2.7704 9.1416
# 3 52.7506 -14.7577 99.9435 -5.0413 3.3857 9.3059
# 4 -2.1179 0.2086 -5.0413 15.9138 0.3826 7.7656
# 5 -13.1993 -2.7704 3.3857 0.3826 46.4305 1.9659
# 6 7.2508 9.1416 9.3059 7.7656 1.9659 37.2720
#
#
#
# Elastic Compliance Matrix: (Units=1/GPa)
#
#
# Indices 1 2 3 4 5 6 
#
# 1 0.011198 -0.009584 -0.007757 -0.002076 0.003094 0.002378
# 2 -0.009584 0.024701 0.009738 0.005249 -0.001681 -0.007630
# 3 -0.007757 0.009738 0.016590 0.007282 -0.002623 -0.006400
# 4 -0.002076 0.005249 0.007282 0.073600 -0.000652 -0.018002
# 5 0.003094 -0.001681 -0.002623 -0.000652 0.022538 -0.000588
# 6 0.002378 -0.007630 -0.006400 -0.018002 -0.000588 0.033618
#
#
# Mechanical properties :
#
#
# Convention : Reuss Voigt Hill
#
# Bulk Modulus (GPa) = 26.82107 55.60395 41.21251
# Shear Modulus (GPa) = 23.82323 36.55839 30.19081
#
# Velocity S-wave (km/s) = 3.26802 4.04834 3.67893
# Velocity P-wave (km/s) = 5.12482 6.83954 6.04330
#
# Compressibility (1/GPa) = 0.03728412
#
# Stress axis : x y z
#
# Youngs Moduli (GPa) = 89.30024 40.48343 60.27842
#
# Poissons Ratio (x) = 0.38800 0.46756
# Poissons Ratio (y) = 0.85587 -0.58701
# Poissons Ratio (z) = 0.69267 -0.39424
#
# Static dielectric constant tensor:
#      x y z
#    x 1.856270 0.002050 0.042850 
#    y 0.002050 1.850610 -0.095090 
#    z 0.042850 -0.095090 1.608250 
# 
# From -- ./inp_files/68718.got.cif
#   From: 2010.05.17/outbox.cif.g08.bks.cpg/sg2_35_cif.got.tgz:68718.got - 2010.06.03 11:33:40.
