data_PCOD9049085
_publ_section_title
;
Structure prediction by ZEFSAII (Michael W. Deem and Ramdas Pophale) SiO2 
 PCOD9049085
Probable space group: P -1
;
_chemical_formula_sum "Si O2"
_cell_formula_units_Z 16
_cell_length_a 13.864518
_cell_length_b 6.771732
_cell_length_c 13.477932
_cell_angle_alpha 118.745746
_cell_angle_beta 45.189338
_cell_angle_gamma 110.334065
_cell_volume 787.016975
_symmetry_space_group_name_H-M "P -1"
_symmetry_group_IT_number 2
_symmetry_cell_setting 'triclinic'
loop_
_space_group_symop_operation_xyz
x,y,z
-x,-y,-z
loop_
_atom_site_type_symbol
_atom_site_label
_atom_site_fract_x
_atom_site_fract_y
_atom_site_fract_z
Si Si1 0.350755 0.582426 0.101244
Si Si2 0.949800 0.295289 0.345451
Si Si3 0.331646 0.965553 0.503355
Si Si4 0.800890 0.850166 0.965687
Si Si5 0.366727 0.764331 0.911420
Si Si6 0.376345 0.250209 0.737051
Si Si7 0.923898 0.787920 0.550961
Si Si8 0.338184 0.045407 0.302276
O O1 0.258508 0.361318 0.105950
O O2 0.308368 0.776803 0.254100
O O3 0.500000 0.500000 0.000000
O O4 0.350247 0.705568 0.024780
O O5 0.797098 0.199957 0.431371
O O6 0.952608 0.565112 0.412648
O O7 0.038612 0.186429 0.167291
O O8 0.021279 0.231159 0.382266
O O9 0.472922 0.829664 0.359787
O O10 0.343051 0.126652 0.628882
O O11 0.315177 0.106883 0.448203
O O12 0.729859 0.823041 0.117626
O O13 0.751753 0.081085 0.007991
O O14 0.374358 0.520262 0.795210
O O15 0.507343 0.900528 0.825658
O O16 0.763559 0.831299 0.667793
O O17 0.000000 0.000000 0.500000
#
# Coordination Sequence:
#
# PCOD9049085 Si02
#       8
#     2   2   2   2   2   2   2   2
#     4  11  22  35  59  96 135 161 203 263 320 377
#     4  11  25  41  65  92 133 171 202 260 325 380
#     4  11  23  46  66  93 128 167 216 268 315 372
#     4  11  23  42  63  93 129 168 211 260 319 378
#     4  11  22  40  64  95 124 168 212 265 315 368
#     4  10  24  46  68  90 125 165 223 274 305 366
#     4  11  23  40  60  94 135 168 207 249 318 394
#     4  12  21  38  67  95 128 167 213 256 319 383
#
# _framework density 20.329930000000001
#
# number of rings (size 3 to 8) (size 9 to 14) (size 15 to 20)
#    0.000    1.000    3.750    3.375    3.500    2.000 
#    2.250    0.625    0.000    0.000    0.000    0.000 
#    0.000    0.000    0.000    0.000    0.000    0.000 
#
# Total GULP energy -89480.371719 kJ/mol
# GULP energy per Si atom -5592.523232 kJ/mol
# Density = 2.028366 g / cm^3
# Si number density = 20.329930 Si / 1000 Ang^3
#
#
#
# Elastic Constant Matrix: (Units=GPa)
#
#
# Indices 1 2 3 4 5 6 
#
# 1 68.3411 19.2926 29.6532 5.8463 7.7813 3.4965
# 2 19.2926 86.4114 26.4241 10.1805 6.2902 -3.3254
# 3 29.6532 26.4241 114.1179 4.1857 -2.9369 3.2205
# 4 5.8463 10.1805 4.1857 36.7862 2.1983 -7.5371
# 5 7.7813 6.2902 -2.9369 2.1983 28.0733 0.9812
# 6 3.4965 -3.3254 3.2205 -7.5371 0.9812 21.2821
#
#
#
# Elastic Compliance Matrix: (Units=1/GPa)
#
#
# Indices 1 2 3 4 5 6 
#
# 1 0.017919 -0.002293 -0.004074 -0.002137 -0.004599 -0.003230
# 2 -0.002293 0.013418 -0.002544 -0.002480 -0.002516 0.002096
# 3 -0.004074 -0.002544 0.010542 -0.000344 0.002884 -0.001578
# 4 -0.002137 -0.002480 -0.000344 0.030587 -0.001665 0.010925
# 5 -0.004599 -0.002516 0.002884 -0.001665 0.037976 -0.002414
# 6 -0.003230 0.002096 -0.001578 0.010925 -0.002414 0.052065
#
#
# Mechanical properties :
#
#
# Convention : Reuss Voigt Hill
#
# Bulk Modulus (GPa) = 41.56718 46.62334 44.09526
# Shear Modulus (GPa) = 26.54641 30.12837 28.33739
#
# Velocity S-wave (km/s) = 3.61748 3.85381 3.73751
# Velocity P-wave (km/s) = 6.15945 6.54107 6.35313
#
# Compressibility (1/GPa) = 0.02405744
#
# Stress axis : x y z
#
# Youngs Moduli (GPa) = 55.80594 74.52442 94.85834
#
# Poissons Ratio (x) = 0.17086 0.38647
# Poissons Ratio (y) = 0.12794 0.24134
# Poissons Ratio (z) = 0.22737 0.18961
#
# Static dielectric constant tensor:
#      x y z
#    x 1.714690 0.003180 -0.009540 
#    y 0.003180 1.699760 -0.001520 
#    z -0.009540 -0.001520 1.753840 
# 
# From -- ./inp_files/95073.got.cif
#   From: 2010.05.17/outbox.cif.g08.bks.cpg/sg2_48_cif.got.tgz:95073.got - 2010.06.03 11:33:40.
