data_PCOD9049157
_publ_section_title
;
Structure prediction by ZEFSAII (Michael W. Deem and Ramdas Pophale) SiO2 
 PCOD9049157
Probable space group: P -1
;
_chemical_formula_sum "Si O2"
_cell_formula_units_Z 16
_cell_length_a 5.568379
_cell_length_b 10.659712
_cell_length_c 11.441814
_cell_angle_alpha 113.643257
_cell_angle_beta 90.976707
_cell_angle_gamma 77.645593
_cell_volume 605.943238
_symmetry_space_group_name_H-M "P -1"
_symmetry_group_IT_number 2
_symmetry_cell_setting 'triclinic'
loop_
_space_group_symop_operation_xyz
x,y,z
-x,-y,-z
loop_
_atom_site_type_symbol
_atom_site_label
_atom_site_fract_x
_atom_site_fract_y
_atom_site_fract_z
Si Si1 0.685412 0.407813 0.055187
Si Si2 0.806658 0.483871 0.596099
Si Si3 0.095141 0.201851 0.884067
Si Si4 0.198486 0.340324 0.716856
Si Si5 0.162708 0.790129 0.616543
Si Si6 0.098973 0.048933 0.139104
Si Si7 0.613020 0.759805 0.860934
Si Si8 0.400740 0.129116 0.461625
O O1 0.752874 0.513663 0.187493
O O2 0.597333 0.286664 0.081117
O O3 0.500000 0.500000 0.000000
O O4 0.894773 0.345306 0.942368
O O5 0.702335 0.368285 0.477988
O O6 0.694844 0.632862 0.717617
O O7 0.000000 0.500000 0.500000
O O8 0.932933 0.385718 0.669293
O O9 0.239261 0.226457 0.779023
O O10 0.948733 0.077504 0.827368
O O11 0.219132 0.216038 0.016120
O O12 0.378336 0.268499 0.590760
O O13 0.370908 0.875078 0.624136
O O14 0.087166 0.812827 0.759683
O O15 0.884998 0.850003 0.579513
O O16 0.361028 0.093632 0.147752
O O17 0.000000 0.000000 0.000000
O O18 0.500000 0.000000 0.500000
#
# Coordination Sequence:
#
# PCOD9049157 Si02
#       8
#     2   2   2   2   2   2   2   2
#     4  12  23  38  69 102 137 177 231 300 356 422
#     4  11  22  43  73  97 142 184 237 299 352 431
#     4  11  23  44  66  99 143 178 234 293 351 430
#     4  11  23  43  69 108 135 185 235 297 367 419
#     4  11  24  48  69 109 140 192 243 294 365 432
#     4  10  24  46  70 101 142 190 237 294 363 435
#     4  11  22  44  67 100 137 182 238 286 362 419
#     4  11  25  45  75 103 147 189 240 299 364 438
#
# _framework density 26.405113
#
# number of rings (size 3 to 8) (size 9 to 14) (size 15 to 20)
#    0.000    1.000    3.750    3.000    0.000    3.500 
#   11.250    1.875    0.000    0.000    0.000    0.000 
#    0.000    0.000    0.000    0.000    0.000    0.000 
#
# Total GULP energy -89124.159234 kJ/mol
# GULP energy per Si atom -5570.259952 kJ/mol
# Density = 2.634501 g / cm^3
# Si number density = 26.405113 Si / 1000 Ang^3
#
#
#
# Elastic Constant Matrix: (Units=GPa)
#
#
# Indices 1 2 3 4 5 6 
#
# 1 73.6039 41.1259 37.9081 -12.0442 -4.8823 13.9009
# 2 41.1259 96.0695 18.2715 3.3969 20.8071 19.9203
# 3 37.9081 18.2715 164.6124 11.1791 -1.2423 6.2340
# 4 -12.0442 3.3969 11.1791 48.7381 0.6574 -5.0935
# 5 -4.8823 20.8071 -1.2423 0.6574 32.7740 0.6567
# 6 13.9009 19.9203 6.2340 -5.0935 0.6567 45.6557
#
#
#
# Elastic Compliance Matrix: (Units=1/GPa)
#
#
# Indices 1 2 3 4 5 6 
#
# 1 0.025270 -0.012452 -0.004861 0.007984 0.011343 -0.000870
# 2 -0.012452 0.019919 0.001100 -0.005091 -0.014248 -0.005413
# 3 -0.004861 0.001100 0.007277 -0.002965 -0.001081 -0.000309
# 4 0.007984 -0.005091 -0.002965 0.023766 0.003776 0.002792
# 5 0.011343 -0.014248 -0.001081 0.003776 0.041076 0.002741
# 6 -0.000870 -0.005413 -0.000309 0.002792 0.002741 0.024844
#
#
# Mechanical properties :
#
#
# Convention : Reuss Voigt Hill
#
# Bulk Modulus (GPa) = 49.90005 58.76631 54.33318
# Shear Modulus (GPa) = 27.58490 41.23225 34.40857
#
# Velocity S-wave (km/s) = 3.23566 3.95590 3.61377
# Velocity P-wave (km/s) = 5.73570 6.57035 6.16716
#
# Compressibility (1/GPa) = 0.02004006
#
# Stress axis : x y z
#
# Youngs Moduli (GPa) = 39.57213 50.20388 137.41763
#
# Poissons Ratio (x) = 0.62513 0.66798
# Poissons Ratio (y) = 0.49275 -0.15113
# Poissons Ratio (z) = 0.19236 -0.05521
#
# Static dielectric constant tensor:
#      x y z
#    x 2.172670 0.018850 0.042150 
#    y 0.018850 2.140070 -0.009100 
#    z 0.042150 -0.009100 2.161030 
# 
# From -- ./inp_files/363881.got.cif
#   From: 2010.05.17/outbox.cif.g08.bks.cpg/sg2_182_cif.got.tgz:363881.got - 2010.06.03 11:33:40.
