data_PCOD9049118
_publ_section_title
;
Structure prediction by ZEFSAII (Michael W. Deem and Ramdas Pophale) SiO2 
 PCOD9049118
Probable space group: P -1
;
_chemical_formula_sum "Si O2"
_cell_formula_units_Z 14
_cell_length_a 11.514125
_cell_length_b 10.270138
_cell_length_c 6.722393
_cell_angle_alpha 108.895912
_cell_angle_beta 134.619511
_cell_angle_gamma 72.525173
_cell_volume 532.191938
_symmetry_space_group_name_H-M "P -1"
_symmetry_group_IT_number 2
_symmetry_cell_setting 'triclinic'
loop_
_space_group_symop_operation_xyz
x,y,z
-x,-y,-z
loop_
_atom_site_type_symbol
_atom_site_label
_atom_site_fract_x
_atom_site_fract_y
_atom_site_fract_z
Si Si1 0.638520 0.602149 0.170432
Si Si2 0.663590 0.424895 0.757400
Si Si3 0.868352 0.451057 0.664440
Si Si4 0.753398 0.966845 0.104665
Si Si5 0.146580 0.750981 0.813803
Si Si6 0.093299 0.129618 0.107668
Si Si7 0.388921 0.082615 0.692280
O O1 0.754702 0.580551 0.492591
O O2 0.572463 0.761016 0.139441
O O3 0.500000 0.500000 0.000000
O O4 0.721001 0.544294 0.033311
O O5 0.500000 0.500000 0.500000
O O6 0.760351 0.374028 0.651748
O O7 0.689700 0.298974 0.882778
O O8 0.898953 0.355395 0.461419
O O9 0.000000 0.500000 0.000000
O O10 0.818774 0.108551 0.181835
O O11 0.746858 0.950955 0.324996
O O12 0.554881 0.980601 0.838320
O O13 0.880034 0.853065 0.087481
O O14 0.003799 0.758252 0.811695
O O15 0.283384 0.089497 0.371041
O O16 0.000000 0.000000 0.000000
#
# Coordination Sequence:
#
# PCOD9049118 Si02
#       7
#     2   2   2   2   2   2   2
#     4  11  24  47  70 107 147 188 245 299 359 451
#     4  11  24  43  72 107 138 193 238 289 375 435
#     4  11  26  43  72 108 144 185 243 302 371 431
#     4  10  24  47  71 106 141 189 246 300 361 428
#     4  10  25  46  74 104 151 191 242 302 363 445
#     4  10  24  46  69 102 146 193 239 294 364 433
#     4  11  24  43  74 104 144 185 243 301 361 433
#
# _framework density 26.3063
#
# number of rings (size 3 to 8) (size 9 to 14) (size 15 to 20)
#    0.000    1.429    1.429    2.143    4.000    8.000 
#    5.143    0.000    0.000    0.000    0.000    0.000 
#    0.000    0.000    0.000    0.000    0.000    0.000 
#
# Total GULP energy -78142.961609 kJ/mol
# GULP energy per Si atom -5581.640115 kJ/mol
# Density = 2.624643 g / cm^3
# Si number density = 26.306300 Si / 1000 Ang^3
#
#
#
# Elastic Constant Matrix: (Units=GPa)
#
#
# Indices 1 2 3 4 5 6 
#
# 1 171.9197 41.8826 39.3914 16.5796 -47.5986 -14.4535
# 2 41.8826 62.2093 32.4454 -7.3102 -16.4247 5.1037
# 3 39.3914 32.4454 151.6742 -24.2407 -11.4100 -8.5594
# 4 16.5796 -7.3102 -24.2407 37.2914 0.6967 -6.9690
# 5 -47.5986 -16.4247 -11.4100 0.6967 53.8862 13.7792
# 6 -14.4535 5.1037 -8.5594 -6.9690 13.7792 45.2938
#
#
#
# Elastic Compliance Matrix: (Units=1/GPa)
#
#
# Indices 1 2 3 4 5 6 
#
# 1 0.010083 -0.004582 -0.002207 -0.006932 0.007110 0.000087
# 2 -0.004582 0.022501 -0.003109 0.003410 0.003412 -0.005099
# 3 -0.002207 -0.003109 0.008940 0.006766 -0.001842 0.002937
# 4 -0.006932 0.003410 0.006766 0.036185 -0.005645 0.005967
# 5 0.007110 0.003412 -0.001842 -0.005645 0.027532 -0.007708
# 6 0.000087 -0.005099 0.002937 0.005967 -0.007708 0.026499
#
#
# Mechanical properties :
#
#
# Convention : Reuss Voigt Hill
#
# Bulk Modulus (GPa) = 46.02344 68.13801 57.08072
# Shear Modulus (GPa) = 31.49059 45.43319 38.46189
#
# Velocity S-wave (km/s) = 3.46363 4.16033 3.82786
# Velocity P-wave (km/s) = 5.79041 7.00256 6.42513
#
# Compressibility (1/GPa) = 0.02172806
#
# Stress axis : x y z
#
# Youngs Moduli (GPa) = 99.17913 44.44183 111.85972
#
# Poissons Ratio (x) = 0.20363 0.24682
# Poissons Ratio (y) = 0.45444 0.34781
# Poissons Ratio (z) = 0.21884 0.13819
#
# Static dielectric constant tensor:
#      x y z
#    x 2.150530 -0.075530 0.036050 
#    y -0.075530 2.148580 0.006000 
#    z 0.036050 0.006000 2.067990 
# 
# From -- ./inp_files/72083.got.cif
#   From: 2010.05.17/outbox.cif.g08.bks.cpg/sg2_37_cif.got.tgz:72083.got - 2010.06.03 11:33:40.
