data_PCOD9049602
_publ_section_title
;
Structure prediction by ZEFSAII (Michael W. Deem and Ramdas Pophale) SiO2 
 PCOD9049602
Probable space group: P -1
;
_chemical_formula_sum "Si O2"
_cell_formula_units_Z 15
_cell_length_a 8.475743
_cell_length_b 21.370866
_cell_length_c 5.388589
_cell_angle_alpha 88.870661
_cell_angle_beta 106.048230
_cell_angle_gamma 40.354376
_cell_volume 564.223247
_symmetry_space_group_name_H-M "P -1"
_symmetry_group_IT_number 2
_symmetry_cell_setting 'triclinic'
loop_
_space_group_symop_operation_xyz
x,y,z
-x,-y,-z
loop_
_atom_site_type_symbol
_atom_site_label
_atom_site_fract_x
_atom_site_fract_y
_atom_site_fract_z
Si Si1 0.000000 0.500000 0.500000
Si Si2 0.069025 0.911475 0.144995
Si Si3 0.349419 0.190326 0.156255
Si Si4 0.513841 0.069363 0.722825
Si Si5 0.195794 0.670046 0.294735
Si Si6 0.030968 0.835657 0.522937
Si Si7 0.717143 0.464482 0.287273
Si Si8 0.480804 0.277159 0.960625
O O1 0.072311 0.545512 0.688821
O O2 0.219945 0.395167 0.766234
O O3 0.036591 0.904956 0.418732
O O4 0.367377 0.801913 0.196660
O O5 0.000000 0.000000 0.000000
O O6 0.817396 0.950435 0.903473
O O7 0.488326 0.121998 0.469207
O O8 0.444304 0.124549 0.951883
O O9 0.406925 0.244975 0.122087
O O10 0.022094 0.279574 0.017366
O O11 0.277373 0.090995 0.576695
O O12 0.134126 0.757565 0.357446
O O13 0.512284 0.565480 0.374636
O O14 0.145282 0.633672 0.490920
O O15 0.273205 0.754839 0.829134
O O16 0.500000 0.500000 0.000000
#
# Coordination Sequence:
#
# PCOD9049602 Si02
#       8
#     1   2   2   2   2   2   2   2
#     4  12  26  48  74 124 150 216 278 338 410 502
#     4  12  26  49  77 114 160 208 268 336 410 499
#     4  11  25  48  77 112 155 211 258 332 405 492
#     4  11  27  47  80 113 156 204 271 330 411 487
#     4  10  24  47  68 108 150 204 266 329 406 483
#     4  11  27  47  77 116 154 211 264 344 409 498
#     4  11  24  46  77 104 155 210 274 341 408 482
#     4  12  27  47  77 110 165 206 275 335 411 493
#
# _framework density 26.58522
#
# number of rings (size 3 to 8) (size 9 to 14) (size 15 to 20)
#    0.000    0.800    2.667    2.800   11.200    1.600 
#    2.400    4.000    0.000    0.000    0.000    0.000 
#    0.000    0.000    0.000    0.000    0.000    0.000 
#
# Total GULP energy -83781.418592 kJ/mol
# GULP energy per Si atom -5585.427906 kJ/mol
# Density = 2.652471 g / cm^3
# Si number density = 26.585220 Si / 1000 Ang^3
#
#
#
# Elastic Constant Matrix: (Units=GPa)
#
#
# Indices 1 2 3 4 5 6 
#
# 1 105.5703 23.7707 23.9764 -2.2322 -11.5930 19.2290
# 2 23.7707 77.0982 29.3155 -19.5740 -23.1152 2.2975
# 3 23.9764 29.3155 156.4260 -27.0948 1.6262 10.1803
# 4 -2.2322 -19.5740 -27.0948 45.2178 9.1777 -1.2923
# 5 -11.5930 -23.1152 1.6262 9.1777 54.4370 -4.1704
# 6 19.2290 2.2975 10.1803 -1.2923 -4.1704 35.3073
#
#
#
# Elastic Compliance Matrix: (Units=1/GPa)
#
#
# Indices 1 2 3 4 5 6 
#
# 1 0.011546 -0.003107 -0.001146 -0.001837 0.001047 -0.005699
# 2 -0.003107 0.017874 -0.002201 0.005045 0.006303 0.002093
# 3 -0.001146 -0.002201 0.007815 0.004078 -0.002222 -0.001599
# 4 -0.001837 0.005045 0.004078 0.027256 -0.002955 0.000145
# 5 0.001047 0.006303 -0.002222 -0.002955 0.021999 0.002151
# 6 -0.005699 0.002093 -0.001599 0.000145 0.002151 0.032011
#
#
# Mechanical properties :
#
#
# Convention : Reuss Voigt Hill
#
# Bulk Modulus (GPa) = 41.10665 54.80219 47.95442
# Shear Modulus (GPa) = 35.83779 44.46119 40.14949
#
# Velocity S-wave (km/s) = 3.67554 4.09394 3.89037
# Velocity P-wave (km/s) = 5.78866 6.55787 6.18523
#
# Compressibility (1/GPa) = 0.02432696
#
# Stress axis : x y z
#
# Youngs Moduli (GPa) = 86.60734 55.94762 127.96638
#
# Poissons Ratio (x) = 0.17383 0.14660
# Poissons Ratio (y) = 0.26908 0.28170
# Poissons Ratio (z) = 0.09922 0.12316
#
# Static dielectric constant tensor:
#      x y z
#    x 2.183470 -0.080430 0.067390 
#    y -0.080430 2.085900 0.124150 
#    z 0.067390 0.124150 2.068710 
# 
# From -- ./inp_files/54948.got.cif
#   From: 2010.05.17/outbox.cif.g08.bks.cpg/sg2_28_cif.got.tgz:54948.got - 2010.06.03 11:33:40.
