data_PCOD9049864
_publ_section_title
;
Structure prediction by ZEFSAII (Michael W. Deem and Ramdas Pophale) SiO2 
 PCOD9049864
Probable space group: P -1
;
_chemical_formula_sum "Si O2"
_cell_formula_units_Z 16
_cell_length_a 23.618348
_cell_length_b 5.236477
_cell_length_c 16.999937
_cell_angle_alpha 69.236901
_cell_angle_beta 19.509884
_cell_angle_gamma 76.547429
_cell_volume 620.911404
_symmetry_space_group_name_H-M "P -1"
_symmetry_group_IT_number 2
_symmetry_cell_setting 'triclinic'
loop_
_space_group_symop_operation_xyz
x,y,z
-x,-y,-z
loop_
_atom_site_type_symbol
_atom_site_label
_atom_site_fract_x
_atom_site_fract_y
_atom_site_fract_z
Si Si1 0.091514 0.571327 0.996716
Si Si2 0.211102 0.505930 0.690508
Si Si3 0.833587 0.719156 0.547330
Si Si4 0.398172 0.118243 0.305686
Si Si5 0.500379 0.890159 0.424331
Si Si6 0.658347 0.043571 0.851411
Si Si7 0.816747 0.774419 0.957695
Si Si8 0.577679 0.452436 0.176501
O O1 0.097228 0.380461 0.931930
O O2 0.288616 0.786311 0.698394
O O3 0.087126 0.432240 0.102405
O O4 0.915337 0.652350 0.199616
O O5 0.401126 0.460691 0.452876
O O6 0.273217 0.845241 0.547113
O O7 0.718604 0.792708 0.618158
O O8 0.786647 0.376273 0.646926
O O9 0.765787 0.838356 0.702365
O O10 0.040997 0.910695 0.250185
O O11 0.506224 0.390447 0.187877
O O12 0.550835 0.006248 0.077976
O O13 0.500000 0.000000 0.500000
O O14 0.594894 0.147009 0.212503
O O15 0.636152 0.709501 0.254284
O O16 0.500000 0.000000 0.000000
O O17 0.747768 0.687871 0.968649
#
# Coordination Sequence:
#
# PCOD9049864 Si02
#       8
#     2   2   2   2   2   2   2   2
#     4  11  22  44  62 100 140 187 242 293 346 434
#     4  11  24  41  66 101 143 179 243 296 359 419
#     4  11  26  46  78 112 140 192 246 303 366 446
#     4  11  23  43  71 105 138 186 233 311 369 428
#     4  12  24  41  67  95 141 199 245 290 355 431
#     4  10  24  47  77 110 143 183 246 306 372 438
#     4  12  25  45  70 101 149 193 240 298 363 443
#     4  12  25  41  68 100 144 192 234 301 367 432
#
# _framework density 25.768573
#
# number of rings (size 3 to 8) (size 9 to 14) (size 15 to 20)
#    0.000    0.750    5.000    2.625    7.000    1.500 
#    0.000    1.250    0.000    0.000    0.000    0.000 
#    0.000    0.000    0.000    0.000    0.000    0.000 
#
# Total GULP energy -89356.036559 kJ/mol
# GULP energy per Si atom -5584.752285 kJ/mol
# Density = 2.570992 g / cm^3
# Si number density = 25.768573 Si / 1000 Ang^3
#
#
#
# Elastic Constant Matrix: (Units=GPa)
#
#
# Indices 1 2 3 4 5 6 
#
# 1 123.2662 26.7949 72.3910 -7.9048 -30.6481 25.5169
# 2 26.7949 64.0776 29.3978 -23.4426 -5.9891 15.9662
# 3 72.3910 29.3978 151.5572 -26.3986 -19.0520 11.6768
# 4 -7.9048 -23.4426 -26.3986 41.7672 5.2722 -6.2325
# 5 -30.6481 -5.9891 -19.0520 5.2722 51.7450 -0.2424
# 6 25.5169 15.9662 11.6768 -6.2325 -0.2424 37.5750
#
#
#
# Elastic Compliance Matrix: (Units=1/GPa)
#
#
# Indices 1 2 3 4 5 6 
#
# 1 0.015425 -0.002598 -0.006143 -0.004523 0.006996 -0.008167
# 2 -0.002598 0.022396 -0.000839 0.010743 -0.000377 -0.005712
# 3 -0.006143 -0.000839 0.010399 0.005319 -0.000439 0.002176
# 4 -0.004523 0.010743 0.005319 0.033186 -0.002848 0.002340
# 5 0.006996 -0.000377 -0.000439 -0.002848 0.023532 -0.004775
# 6 -0.008167 -0.005712 0.002176 0.002340 -0.004775 0.034268
#
#
# Mechanical properties :
#
#
# Convention : Reuss Voigt Hill
#
# Bulk Modulus (GPa) = 34.41215 66.22982 50.32099
# Shear Modulus (GPa) = 29.75271 40.23860 34.99565
#
# Velocity S-wave (km/s) = 3.40164 3.95592 3.68920
# Velocity P-wave (km/s) = 5.36764 6.82812 6.14145
#
# Compressibility (1/GPa) = 0.02905950
#
# Stress axis : x y z
#
# Youngs Moduli (GPa) = 64.83056 44.65122 96.16515
#
# Poissons Ratio (x) = 0.11599 0.59073
# Poissons Ratio (y) = 0.16841 0.08072
# Poissons Ratio (z) = 0.39825 0.03748
#
# Static dielectric constant tensor:
#      x y z
#    x 2.242960 0.036140 -0.055000 
#    y 0.036140 2.181500 -0.035680 
#    z -0.055000 -0.035680 2.042730 
# 
# From -- ./inp_files/578683.got.cif
#   From: 2010.05.17/outbox.cif.g08.bks.cpg/sg2_290_cif.got.tgz:578683.got - 2010.06.03 11:33:40.
