data_PCOD9049377
_publ_section_title
;
Structure prediction by ZEFSAII (Michael W. Deem and Ramdas Pophale) SiO2 
 PCOD9049377
Probable space group: P -1
;
_chemical_formula_sum "Si O2"
_cell_formula_units_Z 12
_cell_length_a 8.286126
_cell_length_b 7.831572
_cell_length_c 8.654689
_cell_angle_alpha 70.363689
_cell_angle_beta 70.234698
_cell_angle_gamma 59.202598
_cell_volume 444.695939
_symmetry_space_group_name_H-M "P -1"
_symmetry_group_IT_number 2
_symmetry_cell_setting 'triclinic'
loop_
_space_group_symop_operation_xyz
x,y,z
-x,-y,-z
loop_
_atom_site_type_symbol
_atom_site_label
_atom_site_fract_x
_atom_site_fract_y
_atom_site_fract_z
Si Si1 0.426081 0.302457 0.758465
Si Si2 0.232395 0.058123 0.286379
Si Si3 0.306949 0.494458 0.435078
Si Si4 0.647853 0.084329 0.380764
Si Si5 0.168141 0.477418 0.067922
Si Si6 0.038126 0.835967 0.223320
O O1 0.540835 0.061440 0.794283
O O2 0.279720 0.402778 0.633629
O O3 0.594228 0.356166 0.629092
O O4 0.350250 0.391059 0.921673
O O5 0.121360 0.988061 0.215589
O O6 0.216613 0.982646 0.487492
O O7 0.181299 0.294569 0.229463
O O8 0.106554 0.645445 0.379033
O O9 0.488283 0.315662 0.340580
O O10 0.810433 0.971144 0.237106
O O11 0.500000 0.000000 0.500000
O O12 0.129167 0.692928 0.087930
O O13 0.000000 0.500000 0.000000
#
# Coordination Sequence:
#
# PCOD9049377 Si02
#       6
#     2   2   2   2   2   2
#     4   9  21  45  69 102 139 181 232 288 353 411
#     4  10  24  46  73 101 140 190 233 295 347 424
#     4   9  21  43  75  99 135 183 234 291 341 418
#     4  11  24  42  75 108 140 183 241 296 349 417
#     4  12  28  42  68 105 147 185 233 292 353 423
#     4  11  26  47  73 105 140 190 237 290 357 416
#
# _framework density 26.984729999999999
#
# number of rings (size 3 to 8) (size 9 to 14) (size 15 to 20)
#    0.000    1.667    0.000    3.000    9.333    4.667 
#    3.000    0.000    0.000    0.000    0.000    0.000 
#    0.000    0.000    0.000    0.000    0.000    0.000 
#
# Total GULP energy -66906.699744 kJ/mol
# GULP energy per Si atom -5575.558312 kJ/mol
# Density = 2.692331 g / cm^3
# Si number density = 26.984730 Si / 1000 Ang^3
#
#
#
# Elastic Constant Matrix: (Units=GPa)
#
#
# Indices 1 2 3 4 5 6 
#
# 1 101.2538 32.7194 2.4497 -0.2851 8.5411 3.9252
# 2 32.7194 188.8394 40.8321 20.0706 -11.2849 -17.8759
# 3 2.4497 40.8321 61.0385 14.3298 -7.1927 -2.6459
# 4 -0.2851 20.0706 14.3298 54.4947 0.0635 -1.2802
# 5 8.5411 -11.2849 -7.1927 0.0635 19.2860 1.1648
# 6 3.9252 -17.8759 -2.6459 -1.2802 1.1648 46.2054
#
#
#
# Elastic Compliance Matrix: (Units=1/GPa)
#
#
# Indices 1 2 3 4 5 6 
#
# 1 0.011345 -0.002679 0.000287 0.000936 -0.006379 -0.001797
# 2 -0.002679 0.007232 -0.003779 -0.001626 0.003853 0.002667
# 3 0.000287 -0.003779 0.020443 -0.004002 0.005333 -0.000561
# 4 0.000936 -0.001626 -0.004002 0.020002 -0.002905 -0.000310
# 5 -0.006379 0.003853 0.005333 -0.002905 0.058882 0.000773
# 6 -0.001797 0.002667 -0.000561 -0.000310 0.000773 0.022767
#
#
# Mechanical properties :
#
#
# Convention : Reuss Voigt Hill
#
# Bulk Modulus (GPa) = 37.48181 55.90379 46.69280
# Shear Modulus (GPa) = 30.88202 42.33926 36.61064
#
# Velocity S-wave (km/s) = 3.38661 3.96537 3.68736
# Velocity P-wave (km/s) = 5.40484 6.45967 5.95565
#
# Compressibility (1/GPa) = 0.02667961
#
# Stress axis : x y z
#
# Youngs Moduli (GPa) = 88.14313 138.26882 48.91578
#
# Poissons Ratio (x) = 0.37037 -0.01405
# Poissons Ratio (y) = 0.23610 0.18487
# Poissons Ratio (z) = -0.02532 0.52256
#
# Static dielectric constant tensor:
#      x y z
#    x 2.278430 -0.006730 0.126700 
#    y -0.006730 2.289590 0.023130 
#    z 0.126700 0.023130 2.274390 
# 
# From -- ./inp_files/149057.got.cif
#   From: 2010.05.17/outbox.cif.g08.bks.cpg/sg2_75_cif.got.tgz:149057.got - 2010.06.03 11:33:40.
