data_PCOD9049148
_publ_section_title
;
Structure prediction by ZEFSAII (Michael W. Deem and Ramdas Pophale) SiO2 
 PCOD9049148
Probable space group: P -1
;
_chemical_formula_sum "Si O2"
_cell_formula_units_Z 16
_cell_length_a 10.658901
_cell_length_b 15.512129
_cell_length_c 9.236125
_cell_angle_alpha 70.277407
_cell_angle_beta 101.908607
_cell_angle_gamma 41.510087
_cell_volume 645.165844
_symmetry_space_group_name_H-M "P -1"
_symmetry_group_IT_number 2
_symmetry_cell_setting 'triclinic'
loop_
_space_group_symop_operation_xyz
x,y,z
-x,-y,-z
loop_
_atom_site_type_symbol
_atom_site_label
_atom_site_fract_x
_atom_site_fract_y
_atom_site_fract_z
Si Si1 0.955924 0.016852 0.806526
Si Si2 0.552100 0.180367 0.449666
Si Si3 0.078492 0.652002 0.611745
Si Si4 0.794132 0.433260 0.970725
Si Si5 0.239548 0.283664 0.104657
Si Si6 0.731461 0.711996 0.401799
Si Si7 0.405615 0.594608 0.578179
Si Si8 0.505564 0.222321 0.941683
O O1 0.859679 0.990488 0.703721
O O2 0.681359 0.248333 0.572333
O O3 0.212585 0.909920 0.862975
O O4 0.000000 0.000000 0.000000
O O5 0.440422 0.335633 0.234009
O O6 0.501774 0.124050 0.366494
O O7 0.336838 0.300436 0.462814
O O8 0.146085 0.702449 0.517988
O O9 0.803361 0.770246 0.431791
O O10 0.132379 0.626703 0.810096
O O11 0.323785 0.427355 0.744713
O O12 0.648204 0.444284 0.841178
O O13 0.078720 0.290406 0.046485
O O14 0.342416 0.265121 0.994064
O O15 0.000000 0.500000 0.000000
O O16 0.000000 0.500000 0.500000
O O17 0.474956 0.853968 0.152177
O O18 0.500000 0.500000 0.500000
#
# Coordination Sequence:
#
# PCOD9049148 Si02
#       8
#     2   2   2   2   2   2   2   2
#     4  11  23  41  59  85 126 154 198 246 293 354
#     4  10  18  34  56  87 119 150 195 243 291 341
#     4  11  20  38  61  90 120 150 197 243 296 350
#     4  10  19  36  59  85 120 152 192 249 285 351
#     4  10  17  34  59  94 118 143 202 248 291 341
#     4  10  19  30  60  92 115 152 199 243 285 343
#     4  11  26  39  60  86 116 161 200 241 298 351
#     4  11  21  35  65  93 117 158 196 247 296 341
#
# _framework density 24.799821999999999
#
# number of rings (size 3 to 8) (size 9 to 14) (size 15 to 20)
#    0.000    1.500    5.000    3.375    7.000    0.500 
#    0.000    0.625    0.000    0.750    0.000    0.000 
#    0.000    0.000    0.000    0.000    0.000    0.000 
#
# Total GULP energy -89266.399586 kJ/mol
# GULP energy per Si atom -5579.149974 kJ/mol
# Density = 2.474338 g / cm^3
# Si number density = 24.799822 Si / 1000 Ang^3
#
#
#
# Elastic Constant Matrix: (Units=GPa)
#
#
# Indices 1 2 3 4 5 6 
#
# 1 116.5170 6.7252 34.3483 18.4945 28.9751 -18.0497
# 2 6.7252 31.9821 15.8415 21.9303 -1.8073 -4.5733
# 3 34.3483 15.8415 107.3566 23.1163 31.2453 7.2340
# 4 18.4945 21.9303 23.1163 38.9446 3.6037 -0.6783
# 5 28.9751 -1.8073 31.2453 3.6037 59.9795 13.0822
# 6 -18.0497 -4.5733 7.2340 -0.6783 13.0822 29.6685
#
#
#
# Elastic Compliance Matrix: (Units=1/GPa)
#
#
# Indices 1 2 3 4 5 6 
#
# 1 0.014088 0.004214 -0.002236 -0.006770 -0.007970 0.013125
# 2 0.004214 0.054818 -0.003941 -0.030450 0.001149 0.010772
# 3 -0.002236 -0.003941 0.013153 -0.004120 -0.004972 -0.003077
# 4 -0.006770 -0.030450 -0.004120 0.048026 0.003404 -0.008211
# 5 -0.007970 0.001149 -0.004972 0.003404 0.026200 -0.014934
# 6 0.013125 0.010772 -0.003077 -0.008211 -0.014934 0.050499
#
#
# Mechanical properties :
#
#
# Convention : Reuss Voigt Hill
#
# Bulk Modulus (GPa) = 12.79880 41.07618 26.93749
# Shear Modulus (GPa) = 21.11880 38.98123 30.05002
#
# Velocity S-wave (km/s) = 2.92133 3.96894 3.48473
# Velocity P-wave (km/s) = 4.06829 6.13208 5.20352
#
# Compressibility (1/GPa) = 0.07813231
#
# Stress axis : x y z
#
# Youngs Moduli (GPa) = 70.98129 18.24216 76.02744
#
# Poissons Ratio (x) = -0.07687 0.17003
# Poissons Ratio (y) = -0.29910 0.29962
# Poissons Ratio (z) = 0.15875 0.07189
#
# Static dielectric constant tensor:
#      x y z
#    x 2.550630 0.359500 0.302070 
#    y 0.359500 2.185080 0.156230 
#    z 0.302070 0.156230 2.199330 
# 
# From -- ./inp_files/277729.got.cif
#   From: 2010.05.17/outbox.cif.g08.bks.cpg/sg2_139_cif.got.tgz:277729.got - 2010.06.03 11:33:40.
