data_PCOD9049443
_publ_section_title
;
Structure prediction by ZEFSAII (Michael W. Deem and Ramdas Pophale) SiO2 
 PCOD9049443
Probable space group: P -1
;
_chemical_formula_sum "Si O2"
_cell_formula_units_Z 12
_cell_length_a 12.852177
_cell_length_b 8.327817
_cell_length_c 5.509075
_cell_angle_alpha 85.536229
_cell_angle_beta 103.307602
_cell_angle_gamma 60.453166
_cell_volume 486.268453
_symmetry_space_group_name_H-M "P -1"
_symmetry_group_IT_number 2
_symmetry_cell_setting 'triclinic'
loop_
_space_group_symop_operation_xyz
x,y,z
-x,-y,-z
loop_
_atom_site_type_symbol
_atom_site_label
_atom_site_fract_x
_atom_site_fract_y
_atom_site_fract_z
Si Si1 0.204553 0.205548 0.592385
Si Si2 0.292526 0.434789 0.866758
Si Si3 0.338180 0.076597 0.176244
Si Si4 0.186489 0.787212 0.068091
Si Si5 0.528520 0.332687 0.716742
Si Si6 0.002761 0.849109 0.337668
O O1 0.226709 0.376134 0.634844
O O2 0.248833 0.122286 0.357488
O O3 0.065394 0.250556 0.570985
O O4 0.292637 0.068185 0.876306
O O5 0.192044 0.638741 0.894297
O O6 0.416558 0.424191 0.838840
O O7 0.341025 0.267940 0.115793
O O8 0.459532 0.868934 0.317215
O O9 0.095008 0.008455 0.936825
O O10 0.326635 0.741847 0.145964
O O11 0.137143 0.745003 0.292734
O O12 0.500000 0.500000 0.500000
O O13 0.000000 0.000000 0.500000
#
# Coordination Sequence:
#
# PCOD9049443 Si02
#       6
#     2   2   2   2   2   2
#     4  10  24  46  74 106 145 198 244 303 369 439
#     4  10  26  45  74 107 151 194 243 311 370 447
#     4  10  24  47  72 106 151 192 246 297 378 434
#     4  11  25  46  68 112 142 192 256 297 380 433
#     4  12  26  44  76 110 152 197 247 309 368 450
#     4  11  25  45  78 100 151 194 246 316 362 449
#
# _framework density 24.677727000000001
#
# number of rings (size 3 to 8) (size 9 to 14) (size 15 to 20)
#    1.000    0.333    1.667    2.000    9.333    2.667 
#    0.000    1.667    0.000    0.000    0.000    0.000 
#    0.000    0.000    0.000    0.000    0.000    0.000 
#
# Total GULP energy -66909.441311 kJ/mol
# GULP energy per Si atom -5575.786776 kJ/mol
# Density = 2.462156 g / cm^3
# Si number density = 24.677727 Si / 1000 Ang^3
#
#
#
# Elastic Constant Matrix: (Units=GPa)
#
#
# Indices 1 2 3 4 5 6 
#
# 1 148.4520 16.1125 41.9619 12.1776 -40.0335 0.2150
# 2 16.1125 100.4251 28.1272 -6.3743 -23.1644 2.8175
# 3 41.9619 28.1272 110.0213 2.7392 -35.9907 7.3329
# 4 12.1776 -6.3743 2.7392 55.5195 -1.7599 -13.0157
# 5 -40.0335 -23.1644 -35.9907 -1.7599 52.7894 7.8496
# 6 0.2150 2.8175 7.3329 -13.0157 7.8496 25.2780
#
#
#
# Elastic Compliance Matrix: (Units=1/GPa)
#
#
# Indices 1 2 3 4 5 6 
#
# 1 0.008987 0.000317 -0.001089 -0.002393 0.006590 -0.003075
# 2 0.000317 0.011490 -0.001475 0.001062 0.004569 -0.001727
# 3 -0.001089 -0.001475 0.013229 -0.002041 0.008576 -0.007378
# 4 -0.002393 0.001062 -0.002041 0.021650 -0.003931 0.012862
# 5 0.006590 0.004569 0.008576 -0.003931 0.033986 -0.015631
# 6 -0.003075 -0.001727 -0.007378 0.012862 -0.015631 0.053396
#
#
# Mechanical properties :
#
#
# Convention : Reuss Voigt Hill
#
# Bulk Modulus (GPa) = 34.23030 59.03353 46.63191
# Shear Modulus (GPa) = 31.85348 44.89717 38.37532
#
# Velocity S-wave (km/s) = 3.59664 4.27000 3.94770
# Velocity P-wave (km/s) = 5.58111 6.94869 6.30210
#
# Compressibility (1/GPa) = 0.02921388
#
# Stress axis : x y z
#
# Youngs Moduli (GPa) = 111.26683 87.03465 75.58962
#
# Poissons Ratio (x) = -0.02763 0.08229
# Poissons Ratio (y) = -0.03532 0.11150
# Poissons Ratio (z) = 0.12112 0.12838
#
# Static dielectric constant tensor:
#      x y z
#    x 1.977720 0.053500 0.096920 
#    y 0.053500 2.040760 -0.014150 
#    z 0.096920 -0.014150 2.045120 
# 
# From -- ./inp_files/59193.got.cif
#   From: 2010.05.17/outbox.cif.g08.bks.cpg/sg2_30_cif.got.tgz:59193.got - 2010.06.03 11:33:40.
