data_PCOD9049180
_publ_section_title
;
Structure prediction by ZEFSAII (Michael W. Deem and Ramdas Pophale) SiO2 
 PCOD9049180
Probable space group: P -1
;
_chemical_formula_sum "Si O2"
_cell_formula_units_Z 15
_cell_length_a 6.679946
_cell_length_b 20.500902
_cell_length_c 5.286749
_cell_angle_alpha 69.489572
_cell_angle_beta 73.690875
_cell_angle_gamma 58.524931
_cell_volume 573.970147
_symmetry_space_group_name_H-M "P -1"
_symmetry_group_IT_number 2
_symmetry_cell_setting 'triclinic'
loop_
_space_group_symop_operation_xyz
x,y,z
-x,-y,-z
loop_
_atom_site_type_symbol
_atom_site_label
_atom_site_fract_x
_atom_site_fract_y
_atom_site_fract_z
Si Si1 0.709740 0.038941 0.872321
Si Si2 0.063185 0.606495 0.900274
Si Si3 0.488650 0.594010 0.453117
Si Si4 0.000000 0.500000 0.500000
Si Si5 0.769463 0.832842 0.322825
Si Si6 0.168816 0.715327 0.011840
Si Si7 0.887669 0.936476 0.448019
Si Si8 0.381158 0.301795 0.398888
O O1 0.175136 0.027121 0.300624
O O2 0.756920 0.004513 0.185832
O O3 0.436179 0.092502 0.845175
O O4 0.843258 0.090506 0.692807
O O5 0.324364 0.583706 0.734563
O O6 0.855198 0.626508 0.739354
O O7 0.055047 0.546410 0.184789
O O8 0.003980 0.692131 0.928732
O O9 0.316374 0.635448 0.227986
O O10 0.571480 0.658529 0.427161
O O11 0.740759 0.519897 0.432835
O O12 0.818577 0.868099 0.512625
O O13 0.681091 0.768305 0.461203
O O14 0.011398 0.788665 0.143514
O O15 0.373471 0.727417 0.793719
#
# Coordination Sequence:
#
# PCOD9049180 Si02
#       8
#     2   2   2   1   2   2   2   2
#     4  10  24  46  70 105 149 186 243 302 360 434
#     4  11  25  46  69 102 137 183 234 294 348 431
#     4  11  25  48  65 103 138 181 233 292 345 432
#     4  12  24  44  76  96 140 190 226 290 368 404
#     4  12  25  42  76 101 135 191 232 288 366 421
#     4  11  26  46  69 101 146 176 238 291 352 424
#     4  10  24  46  70 107 145 187 246 301 353 444
#     4  11  26  46  69 101 144 179 236 296 350 424
#
# _framework density 26.133766000000001
#
# number of rings (size 3 to 8) (size 9 to 14) (size 15 to 20)
#    0.000    1.067    2.667    2.000    1.867    6.400 
#    0.000    0.000    0.000    0.000    0.000    0.000 
#    0.000    0.000    0.000    0.000    0.000    0.000 
#
# Total GULP energy -83819.829506 kJ/mol
# GULP energy per Si atom -5587.988634 kJ/mol
# Density = 2.607428 g / cm^3
# Si number density = 26.133766 Si / 1000 Ang^3
#
#
#
# Elastic Constant Matrix: (Units=GPa)
#
#
# Indices 1 2 3 4 5 6 
#
# 1 85.0034 18.0925 18.7480 0.7890 -21.9362 14.0126
# 2 18.0925 64.0778 2.6241 2.5703 -10.8769 12.9135
# 3 18.7480 2.6241 84.8972 -8.1274 -23.9532 12.4695
# 4 0.7890 2.5703 -8.1274 26.8929 1.4763 -0.8473
# 5 -21.9362 -10.8769 -23.9532 1.4763 48.5618 -7.8591
# 6 14.0126 12.9135 12.4695 -0.8473 -7.8591 51.1992
#
#
#
# Elastic Compliance Matrix: (Units=1/GPa)
#
#
# Indices 1 2 3 4 5 6 
#
# 1 0.014262 -0.002683 -0.001491 -0.000943 0.004788 -0.002144
# 2 -0.002683 0.017571 0.001221 -0.001498 0.002790 -0.003591
# 3 -0.001491 0.001221 0.014571 0.003910 0.006277 -0.002420
# 4 -0.000943 -0.001498 0.003910 0.038545 0.000049 0.000329
# 5 0.004788 0.002790 0.006277 0.000049 0.026561 0.000535
# 6 -0.002144 -0.003591 -0.002420 0.000329 0.000535 0.021701
#
#
# Mechanical properties :
#
#
# Convention : Reuss Voigt Hill
#
# Bulk Modulus (GPa) = 24.69329 34.76752 29.73041
# Shear Modulus (GPa) = 32.76168 38.29837 35.53002
#
# Velocity S-wave (km/s) = 3.54448 3.83230 3.69120
# Velocity P-wave (km/s) = 5.12059 5.73713 5.43761
#
# Compressibility (1/GPa) = 0.04049682
#
# Stress axis : x y z
#
# Youngs Moduli (GPa) = 70.11689 56.91170 68.62852
#
# Poissons Ratio (x) = 0.15271 0.10233
# Poissons Ratio (y) = 0.18814 -0.08377
# Poissons Ratio (z) = 0.10455 -0.06947
#
# Static dielectric constant tensor:
#      x y z
#    x 2.017590 -0.000290 -0.028530 
#    y -0.000290 2.087370 -0.057800 
#    z -0.028530 -0.057800 2.004800 
# 
# From -- ./inp_files/12695.got.cif
#   From: 2010.05.17/outbox.cif.g08.bks.cpg/sg2_7_cif.got.tgz:12695.got - 2010.06.03 11:33:40.
