data_PCOD9049470
_publ_section_title
;
Structure prediction by ZEFSAII (Michael W. Deem and Ramdas Pophale) SiO2 
 PCOD9049470
Probable space group: P -1
;
_chemical_formula_sum "Si O2"
_cell_formula_units_Z 13
_cell_length_a 8.125005
_cell_length_b 10.020126
_cell_length_c 12.599840
_cell_angle_alpha 144.673222
_cell_angle_beta 80.133257
_cell_angle_gamma 105.730549
_cell_volume 568.647851
_symmetry_space_group_name_H-M "P -1"
_symmetry_group_IT_number 2
_symmetry_cell_setting 'triclinic'
loop_
_space_group_symop_operation_xyz
x,y,z
-x,-y,-z
loop_
_atom_site_type_symbol
_atom_site_label
_atom_site_fract_x
_atom_site_fract_y
_atom_site_fract_z
Si Si1 0.726686 0.551651 0.336123
Si Si2 0.454991 0.977096 0.788647
Si Si3 0.369921 0.960037 0.392047
Si Si4 0.949928 0.475579 0.864345
Si Si5 0.500000 0.000000 0.000000
Si Si6 0.832274 0.813220 0.938857
Si Si7 0.197741 0.492270 0.461801
O O1 0.767240 0.603696 0.489424
O O2 0.888936 0.535973 0.235299
O O3 0.660576 0.779080 0.454881
O O4 0.601821 0.292582 0.177255
O O5 0.538731 0.125029 0.776427
O O6 0.329312 0.746637 0.607781
O O7 0.332298 0.070784 0.950140
O O8 0.595224 0.954949 0.845023
O O9 0.194272 0.764692 0.297241
O O10 0.500000 0.000000 0.500000
O O11 0.874256 0.691639 0.964148
O O12 0.000000 0.500000 0.000000
O O13 0.786409 0.628073 0.729624
O O14 0.000000 0.000000 0.000000
O O15 0.000000 0.500000 0.500000
#
# Coordination Sequence:
#
# PCOD9049470 Si02
#       7
#     2   2   2   2   1   2   2
#     4  11  26  49  80 109 157 200 261 327 378 479
#     4  11  26  43  71 110 148 195 243 312 383 458
#     4  12  30  48  73 110 160 212 255 311 395 466
#     4  12  28  49  75 113 151 212 261 313 393 464
#     4  10  24  46  74 114 144 188 254 318 400 424
#     4  12  25  44  79 107 150 195 259 320 378 460
#     4  11  22  45  74 114 143 191 257 316 394 437
#
# _framework density 22.861249999999998
#
# number of rings (size 3 to 8) (size 9 to 14) (size 15 to 20)
#    0.000    0.615    3.077    3.231   10.769    1.846 
#    0.000    0.000    0.000    0.000    0.000    0.000 
#    0.000    0.000    0.000    0.000    0.000    0.000 
#
# Total GULP energy -72498.978038 kJ/mol
# GULP energy per Si atom -5576.844464 kJ/mol
# Density = 2.280922 g / cm^3
# Si number density = 22.861250 Si / 1000 Ang^3
#
#
#
# Elastic Constant Matrix: (Units=GPa)
#
#
# Indices 1 2 3 4 5 6 
#
# 1 71.6072 50.0239 32.3903 8.2731 8.3596 -11.9567
# 2 50.0239 145.0172 46.6597 1.8670 16.5028 -5.6811
# 3 32.3903 46.6597 143.0936 -7.3006 27.9750 2.7303
# 4 8.2731 1.8670 -7.3006 49.7195 -2.6207 -13.1896
# 5 8.3596 16.5028 27.9750 -2.6207 46.2682 -11.3190
# 6 -11.9567 -5.6811 2.7303 -13.1896 -11.3190 38.2624
#
#
#
# Elastic Compliance Matrix: (Units=1/GPa)
#
#
# Indices 1 2 3 4 5 6 
#
# 1 0.020603 -0.006006 -0.003233 -0.002129 0.001603 0.005518
# 2 -0.006006 0.009580 -0.001417 0.000132 -0.001663 -0.000800
# 3 -0.003233 -0.001417 0.009315 0.000845 -0.005266 -0.003152
# 4 -0.002129 0.000132 0.000845 0.022901 0.003107 0.008107
# 5 0.001603 -0.001663 -0.005266 0.003107 0.027697 0.009894
# 6 0.005518 -0.000800 -0.003152 0.008107 0.009894 0.033687
#
#
# Mechanical properties :
#
#
# Convention : Reuss Voigt Hill
#
# Bulk Modulus (GPa) = 54.98610 68.65177 61.81893
# Shear Modulus (GPa) = 33.07840 42.22629 37.65234
#
# Velocity S-wave (km/s) = 3.80797 4.30242 4.06272
# Velocity P-wave (km/s) = 6.59079 7.40108 7.00765
#
# Compressibility (1/GPa) = 0.01818642
#
# Stress axis : x y z
#
# Youngs Moduli (GPa) = 48.53662 104.38798 107.35403
#
# Poissons Ratio (x) = 0.62694 0.34704
# Poissons Ratio (y) = 0.29150 0.15213
# Poissons Ratio (z) = 0.15690 0.14793
#
# Static dielectric constant tensor:
#      x y z
#    x -0.184490 0.965330 -0.224320 
#    y 0.965330 1.341810 0.069230 
#    z -0.224320 0.069230 1.865310 
# 
# From -- ./inp_files/60848.got.cif
#   From: 2010.05.17/outbox.cif.g08.bks.cpg/sg2_31_cif.got.tgz:60848.got - 2010.06.03 11:33:40.
