data_PCOD9049749
_publ_section_title
;
Structure prediction by ZEFSAII (Michael W. Deem and Ramdas Pophale) SiO2 
 PCOD9049749
Probable space group: P -1
;
_chemical_formula_sum "Si O2"
_cell_formula_units_Z 16
_cell_length_a 9.254081
_cell_length_b 10.512457
_cell_length_c 13.157217
_cell_angle_alpha 53.095504
_cell_angle_beta 90.979868
_cell_angle_gamma 127.280506
_cell_volume 682.928769
_symmetry_space_group_name_H-M "P -1"
_symmetry_group_IT_number 2
_symmetry_cell_setting 'triclinic'
loop_
_space_group_symop_operation_xyz
x,y,z
-x,-y,-z
loop_
_atom_site_type_symbol
_atom_site_label
_atom_site_fract_x
_atom_site_fract_y
_atom_site_fract_z
Si Si1 0.432522 0.719652 0.775812
Si Si2 0.671610 0.599137 0.253371
Si Si3 0.956603 0.548967 0.365317
Si Si4 0.198685 0.155800 0.508334
Si Si5 0.185286 0.782725 0.654911
Si Si6 0.726862 0.934003 0.967562
Si Si7 0.745141 0.460413 0.920259
Si Si8 0.156865 0.100444 0.230300
O O1 0.342334 0.508162 0.802692
O O2 0.385515 0.842320 0.661705
O O3 0.681074 0.890262 0.720180
O O4 0.307098 0.634737 0.920873
O O5 0.422401 0.427991 0.362797
O O6 0.785028 0.558998 0.347631
O O7 0.771414 0.855691 0.103321
O O8 0.000000 0.500000 0.500000
O O9 0.886388 0.343981 0.393107
O O10 0.154858 0.802303 0.185606
O O11 0.255898 0.019036 0.563041
O O12 0.000000 0.000000 0.500000
O O13 0.087865 0.113657 0.632683
O O14 0.967544 0.582137 0.817214
O O15 0.797681 0.886791 0.892993
O O16 0.468789 0.748932 0.047224
O O17 0.766330 0.667379 0.837407
#
# Coordination Sequence:
#
# PCOD9049749 Si02
#       8
#     2   2   2   2   2   2   2   2
#     4  10  17  34  61 100 133 159 210 267 334 389
#     4  11  21  41  69 100 125 171 224 270 319 382
#     4  11  28  45  62  89 136 187 221 259 321 391
#     4  11  22  39  68 101 133 158 212 282 338 384
#     4  10  24  38  61  97 133 171 213 267 335 389
#     4  11  21  42  71  90 129 174 227 260 316 398
#     4  10  18  36  65  98 131 159 213 277 332 377
#     4  10  19  36  67 102 129 166 207 275 334 383
#
# _framework density 23.428505999999999
#
# number of rings (size 3 to 8) (size 9 to 14) (size 15 to 20)
#    0.000    1.500    3.750    2.250    1.750    4.500 
#    0.000    0.625    2.750    0.000    0.000    0.000 
#    0.000    0.000    0.000    0.000    0.000    0.000 
#
# Total GULP energy -89255.496317 kJ/mol
# GULP energy per Si atom -5578.468520 kJ/mol
# Density = 2.337518 g / cm^3
# Si number density = 23.428506 Si / 1000 Ang^3
#
#
#
# Elastic Constant Matrix: (Units=GPa)
#
#
# Indices 1 2 3 4 5 6 
#
# 1 94.6949 33.2718 55.6363 11.5056 14.8695 12.6433
# 2 33.2718 53.8418 37.2601 -2.8988 5.3464 0.0149
# 3 55.6363 37.2601 153.8355 -4.5298 16.0194 12.0008
# 4 11.5056 -2.8988 -4.5298 36.7776 5.8949 -4.8326
# 5 14.8695 5.3464 16.0194 5.8949 31.5647 -0.8102
# 6 12.6433 0.0149 12.0008 -4.8326 -0.8102 29.9430
#
#
#
# Elastic Compliance Matrix: (Units=1/GPa)
#
#
# Indices 1 2 3 4 5 6 
#
# 1 0.018342 -0.008743 -0.003712 -0.007213 -0.004122 -0.007528
# 2 -0.008743 0.026743 -0.003705 0.005066 0.000677 0.005999
# 3 -0.003712 -0.003705 0.009238 0.002208 -0.002772 -0.001852
# 4 -0.007213 0.005066 0.002208 0.031753 -0.004327 0.007166
# 5 -0.004122 0.000677 -0.002772 -0.004327 0.035803 0.003122
# 6 -0.007528 0.005999 -0.001852 0.007166 0.003122 0.038556
#
#
# Mechanical properties :
#
#
# Convention : Reuss Voigt Hill
#
# Bulk Modulus (GPa) = 45.44457 61.63429 53.53943
# Shear Modulus (GPa) = 24.98886 31.40398 28.19642
#
# Velocity S-wave (km/s) = 3.26943 3.66514 3.47293
# Velocity P-wave (km/s) = 5.80443 6.65399 6.24368
#
# Compressibility (1/GPa) = 0.02200483
#
# Stress axis : x y z
#
# Youngs Moduli (GPa) = 54.52096 37.39269 108.24375
#
# Poissons Ratio (x) = 0.32691 0.40178
# Poissons Ratio (y) = 0.47665 0.40102
# Poissons Ratio (z) = 0.20237 0.13853
#
# Static dielectric constant tensor:
#      x y z
#    x 1.915160 0.070570 0.035860 
#    y 0.070570 1.958020 0.010450 
#    z 0.035860 0.010450 2.014800 
# 
# From -- ./inp_files/498865.got.cif
#   From: 2010.05.17/outbox.cif.g08.bks.cpg/sg2_250_cif.got.tgz:498865.got - 2010.06.03 11:33:40.
