data_PCOD9049752
_publ_section_title
;
Structure prediction by ZEFSAII (Michael W. Deem and Ramdas Pophale) SiO2 
 PCOD9049752
Probable space group: P -1
;
_chemical_formula_sum "Si O2"
_cell_formula_units_Z 12
_cell_length_a 7.578140
_cell_length_b 10.965367
_cell_length_c 8.590180
_cell_angle_alpha 77.645219
_cell_angle_beta 93.148904
_cell_angle_gamma 45.205745
_cell_volume 472.541018
_symmetry_space_group_name_H-M "P -1"
_symmetry_group_IT_number 2
_symmetry_cell_setting 'triclinic'
loop_
_space_group_symop_operation_xyz
x,y,z
-x,-y,-z
loop_
_atom_site_type_symbol
_atom_site_label
_atom_site_fract_x
_atom_site_fract_y
_atom_site_fract_z
Si Si1 0.921076 0.858970 0.566026
Si Si2 0.226745 0.209068 0.984393
Si Si3 0.567961 0.322819 0.519745
Si Si4 0.492331 0.792592 0.745086
Si Si5 0.153635 0.462812 0.669090
Si Si6 0.938510 0.128532 0.100089
O O1 0.892811 0.931729 0.717161
O O2 0.035055 0.660808 0.645722
O O3 0.861690 0.179469 0.512954
O O4 0.671425 0.012677 0.404318
O O5 0.150337 0.355812 0.821666
O O6 0.295504 0.247239 0.134054
O O7 0.990505 0.234103 0.988768
O O8 0.500000 0.000000 0.000000
O O9 0.500000 0.500000 0.500000
O O10 0.427408 0.335632 0.359807
O O11 0.456694 0.318287 0.670775
O O12 0.323753 0.791739 0.854597
O O13 0.000000 0.500000 0.500000
O O14 0.000000 0.000000 0.000000
#
# Coordination Sequence:
#
# PCOD9049752 Si02
#       6
#     2   2   2   2   2   2
#     4  10  24  47  73 106 138 192 235 289 360 422
#     4  12  27  45  72 108 141 190 239 292 360 420
#     4   9  21  45  73 104 142 189 238 287 355 425
#     4  11  24  46  77 108 141 187 241 297 351 426
#     4  11  26  48  69 103 145 185 237 294 355 424
#     4  11  24  45  71 104 147 181 236 293 351 416
#
# _framework density 25.394621999999998
#
# number of rings (size 3 to 8) (size 9 to 14) (size 15 to 20)
#    0.000    1.333    1.667    3.000    7.000    1.333 
#    6.000    4.167    0.000    0.000    0.000    0.000 
#    0.000    0.000    0.000    0.000    0.000    0.000 
#
# Total GULP energy -67067.035828 kJ/mol
# GULP energy per Si atom -5588.919652 kJ/mol
# Density = 2.533682 g / cm^3
# Si number density = 25.394622 Si / 1000 Ang^3
#
#
#
# Elastic Constant Matrix: (Units=GPa)
#
#
# Indices 1 2 3 4 5 6 
#
# 1 117.3645 55.6761 70.2350 -12.6728 -39.9226 23.7709
# 2 55.6761 184.0899 87.1250 -0.6904 -11.8821 20.2933
# 3 70.2350 87.1250 178.0759 -11.9133 -28.6893 16.1484
# 4 -12.6728 -0.6904 -11.9133 44.6787 8.0065 -2.0173
# 5 -39.9226 -11.8821 -28.6893 8.0065 65.4527 1.7485
# 6 23.7709 20.2933 16.1484 -2.0173 1.7485 51.6223
#
#
#
# Elastic Compliance Matrix: (Units=1/GPa)
#
#
# Indices 1 2 3 4 5 6 
#
# 1 0.015207 -0.001999 -0.003211 0.001853 0.007423 -0.005391
# 2 -0.001999 0.007523 -0.003031 -0.001127 -0.001015 -0.001098
# 3 -0.003211 -0.003031 0.008626 0.001138 0.001133 -0.000022
# 4 0.001853 -0.001127 0.001138 0.023463 -0.001451 0.000200
# 5 0.007423 -0.001015 0.001133 -0.001451 0.020406 -0.004121
# 6 -0.005391 -0.001098 -0.000022 0.000200 -0.004121 0.022440
#
#
# Mechanical properties :
#
#
# Convention : Reuss Voigt Hill
#
# Bulk Modulus (GPa) = 67.23808 100.62250 83.93029
# Shear Modulus (GPa) = 41.97960 50.11701 46.04831
#
# Velocity S-wave (km/s) = 4.07023 4.44726 4.26292
# Velocity P-wave (km/s) = 6.97308 8.12899 7.57312
#
# Compressibility (1/GPa) = 0.01487252
#
# Stress axis : x y z
#
# Youngs Moduli (GPa) = 65.75747 132.92998 115.92884
#
# Poissons Ratio (x) = 0.26576 0.37226
# Poissons Ratio (y) = 0.13146 0.35143
# Poissons Ratio (z) = 0.21116 0.40297
#
# Static dielectric constant tensor:
#      x y z
#    x 2.090820 -0.098200 -0.003200 
#    y -0.098200 2.071840 -0.055700 
#    z -0.003200 -0.055700 2.003730 
# 
# From -- ./inp_files/153399.got.cif
#   From: 2010.05.17/outbox.cif.g08.bks.cpg/sg2_77_cif.got.tgz:153399.got - 2010.06.03 11:33:40.
