data_PCOD9049579
_publ_section_title
;
Structure prediction by ZEFSAII (Michael W. Deem and Ramdas Pophale) SiO2 
 PCOD9049579
Probable space group: P -1
;
_chemical_formula_sum "Si O2"
_cell_formula_units_Z 14
_cell_length_a 5.104604
_cell_length_b 12.215369
_cell_length_c 16.013980
_cell_angle_alpha 46.349184
_cell_angle_beta 48.384840
_cell_angle_gamma 62.990851
_cell_volume 540.145939
_symmetry_space_group_name_H-M "P -1"
_symmetry_group_IT_number 2
_symmetry_cell_setting 'triclinic'
loop_
_space_group_symop_operation_xyz
x,y,z
-x,-y,-z
loop_
_atom_site_type_symbol
_atom_site_label
_atom_site_fract_x
_atom_site_fract_y
_atom_site_fract_z
Si Si1 0.570339 0.170035 0.865588
Si Si2 0.557023 0.399163 0.372979
Si Si3 0.330060 0.997142 0.226252
Si Si4 0.745834 0.859055 0.512987
Si Si5 0.930410 0.417057 0.731758
Si Si6 0.903526 0.205560 0.077931
Si Si7 0.307423 0.380397 0.197821
O O1 0.613042 0.144307 0.772869
O O2 0.898064 0.243242 0.805946
O O3 0.223420 0.257518 0.923308
O O4 0.500000 0.000000 0.000000
O O5 0.375427 0.235925 0.493071
O O6 0.256937 0.507027 0.346873
O O7 0.725886 0.485730 0.370236
O O8 0.905892 0.379475 0.249775
O O9 0.127913 0.929095 0.383579
O O10 0.671113 0.086406 0.137166
O O11 0.081282 0.116583 0.165426
O O12 0.717419 0.746417 0.656519
O O13 0.500000 0.000000 0.500000
O O14 0.676324 0.459834 0.841350
O O15 0.634215 0.333954 0.097634
#
# Coordination Sequence:
#
# PCOD9049579 Si02
#       7
#     2   2   2   2   2   2   2
#     4  10  24  47  66  89 123 168 217 258 304 369
#     4   9  21  38  59  95 127 162 198 253 314 372
#     4  11  25  38  62  96 125 164 208 257 310 361
#     4  11  20  37  66  95 131 161 203 256 311 371
#     4   9  21  40  64  87 130 161 205 258 308 372
#     4  11  23  39  63  92 127 161 209 262 305 366
#     4   9  21  38  62  96 129 155 206 248 327 359
#
# _framework density 25.918921999999998
#
# number of rings (size 3 to 8) (size 9 to 14) (size 15 to 20)
#    0.857    1.143    1.429    1.286    4.000    6.286 
#    0.000    4.286    0.000    0.000    0.000    0.000 
#    0.000    0.000    0.000    0.000    0.000    0.000 
#
# Total GULP energy -78223.942808 kJ/mol
# GULP energy per Si atom -5587.424486 kJ/mol
# Density = 2.585993 g / cm^3
# Si number density = 25.918922 Si / 1000 Ang^3
#
#
#
# Elastic Constant Matrix: (Units=GPa)
#
#
# Indices 1 2 3 4 5 6 
#
# 1 146.9467 17.7182 11.6027 -23.5560 -17.1041 9.0281
# 2 17.7182 99.3282 2.0495 -23.1167 0.2926 12.7354
# 3 11.6027 2.0495 56.9120 2.8279 -3.6040 5.0804
# 4 -23.5560 -23.1167 2.8279 48.2467 9.0907 -12.6040
# 5 -17.1041 0.2926 -3.6040 9.0907 31.5897 -12.4339
# 6 9.0281 12.7354 5.0804 -12.6040 -12.4339 41.1731
#
#
#
# Elastic Compliance Matrix: (Units=1/GPa)
#
#
# Indices 1 2 3 4 5 6 
#
# 1 0.007880 -0.000750 -0.001576 0.003109 0.003474 0.000699
# 2 -0.000750 0.011782 -0.000479 0.005173 -0.003157 -0.002791
# 3 -0.001576 -0.000479 0.018333 -0.002895 0.001170 -0.002301
# 4 0.003109 0.005173 -0.002895 0.027048 -0.004514 0.004992
# 5 0.003474 -0.003157 0.001170 -0.004514 0.039134 0.010507
# 6 0.000699 -0.002791 -0.002301 0.004992 0.010507 0.029983
#
#
# Mechanical properties :
#
#
# Convention : Reuss Voigt Hill
#
# Bulk Modulus (GPa) = 30.87878 40.65863 35.76871
# Shear Modulus (GPa) = 33.20829 42.32300 37.76565
#
# Velocity S-wave (km/s) = 3.58332 4.04530 3.82130
# Velocity P-wave (km/s) = 5.39071 6.12700 5.77061
#
# Compressibility (1/GPa) = 0.03238470
#
# Stress axis : x y z
#
# Youngs Moduli (GPa) = 126.90738 84.87307 54.54640
#
# Poissons Ratio (x) = 0.06361 0.08598
# Poissons Ratio (y) = 0.09512 0.02615
# Poissons Ratio (z) = 0.20005 0.04068
#
# Static dielectric constant tensor:
#      x y z
#    x 2.261640 0.084260 0.231180 
#    y 0.084260 2.240210 0.159100 
#    z 0.231180 0.159100 2.210950 
# 
# From -- ./inp_files/549132.got.cif
#   From: 2010.05.17/outbox.cif.g08.bks.cpg/sg2_275_cif.got.tgz:549132.got - 2010.06.03 11:33:40.
