data_PCOD9049629
_publ_section_title
;
Structure prediction by ZEFSAII (Michael W. Deem and Ramdas Pophale) SiO2 
 PCOD9049629
Probable space group: P -1
;
_chemical_formula_sum "Si O2"
_cell_formula_units_Z 16
_cell_length_a 9.516092
_cell_length_b 11.075993
_cell_length_c 12.815381
_cell_angle_alpha 45.567854
_cell_angle_beta 59.417595
_cell_angle_gamma 37.688547
_cell_volume 586.517681
_symmetry_space_group_name_H-M "P -1"
_symmetry_group_IT_number 2
_symmetry_cell_setting 'triclinic'
loop_
_space_group_symop_operation_xyz
x,y,z
-x,-y,-z
loop_
_atom_site_type_symbol
_atom_site_label
_atom_site_fract_x
_atom_site_fract_y
_atom_site_fract_z
Si Si1 0.683621 0.942907 0.256301
Si Si2 0.891143 0.516599 0.119280
Si Si3 0.720300 0.195669 0.669177
Si Si4 0.451673 0.024198 0.105307
Si Si5 0.211355 0.465264 0.178687
Si Si6 0.723434 0.285069 0.394642
Si Si7 0.582028 0.765276 0.555839
Si Si8 0.953791 0.063137 0.102607
O O1 0.433337 0.201771 0.218971
O O2 0.844802 0.964216 0.232873
O O3 0.657555 0.965057 0.127835
O O4 0.711238 0.740652 0.419790
O O5 0.607404 0.806905 0.078505
O O6 0.832822 0.360279 0.242871
O O7 0.003947 0.505127 0.189520
O O8 0.835533 0.684507 0.934640
O O9 0.600224 0.110123 0.731155
O O10 0.845952 0.165830 0.533893
O O11 0.528431 0.464734 0.620148
O O12 0.862016 0.042028 0.812232
O O13 0.245251 0.455122 0.296097
O O14 0.200796 0.654610 0.012707
O O15 0.638253 0.188073 0.417692
O O16 0.500000 0.000000 0.500000
O O17 0.000000 0.000000 0.000000
#
# Coordination Sequence:
#
# PCOD9049629 Si02
#       8
#     2   2   2   2   2   2   2   2
#     4  11  25  45  69  97 145 191 231 289 355 420
#     4  12  26  42  73 106 138 181 234 295 353 427
#     4  11  24  45  72 105 142 189 236 296 356 419
#     4  12  22  44  69  99 142 183 238 294 350 414
#     4  11  25  45  68 102 143 184 231 290 360 417
#     4  11  25  47  72 105 144 184 238 296 359 423
#     4  10  24  47  69  97 138 189 233 282 352 421
#     4  12  26  43  70 108 141 186 240 293 350 427
#
# _framework density 27.279655999999999
#
# number of rings (size 3 to 8) (size 9 to 14) (size 15 to 20)
#    0.000    0.750    5.000    1.875    3.500    2.000 
#    0.000    4.375    0.000    0.000    0.000    0.000 
#    0.000    0.000    0.000    0.000    0.000    0.000 
#
# Total GULP energy -89378.030377 kJ/mol
# GULP energy per Si atom -5586.126899 kJ/mol
# Density = 2.721757 g / cm^3
# Si number density = 27.279656 Si / 1000 Ang^3
#
#
#
# Elastic Constant Matrix: (Units=GPa)
#
#
# Indices 1 2 3 4 5 6 
#
# 1 177.0499 9.6031 67.0392 16.2742 -6.0751 11.0283
# 2 9.6031 88.0300 31.7944 8.5669 1.1776 5.0617
# 3 67.0392 31.7944 163.5394 19.6439 6.9541 11.2278
# 4 16.2742 8.5669 19.6439 53.9745 8.4547 -5.0839
# 5 -6.0751 1.1776 6.9541 8.4547 57.1729 8.2367
# 6 11.0283 5.0617 11.2278 -5.0839 8.2367 27.1644
#
#
#
# Elastic Compliance Matrix: (Units=1/GPa)
#
#
# Indices 1 2 3 4 5 6 
#
# 1 0.007010 0.000493 -0.002648 -0.001748 0.001702 -0.002687
# 2 0.000493 0.012402 -0.002312 -0.001561 0.000602 -0.002030
# 3 -0.002648 -0.002312 0.008033 -0.001840 -0.000656 -0.001960
# 4 -0.001748 -0.001561 -0.001840 0.021268 -0.004080 0.006979
# 5 0.001702 0.000602 -0.000656 -0.004080 0.019376 -0.007171
# 6 -0.002687 -0.002030 -0.001960 0.006979 -0.007171 0.042573
#
#
# Mechanical properties :
#
#
# Convention : Reuss Voigt Hill
#
# Bulk Modulus (GPa) = 54.01720 71.72141 62.86930
# Shear Modulus (GPa) = 39.75673 49.00785 44.38229
#
# Velocity S-wave (km/s) = 3.82170 4.24311 4.03791
# Velocity P-wave (km/s) = 6.27042 7.09602 6.69596
#
# Compressibility (1/GPa) = 0.01851262
#
# Stress axis : x y z
#
# Youngs Moduli (GPa) = 142.64636 80.63481 124.48609
#
# Poissons Ratio (x) = -0.03978 0.32958
# Poissons Ratio (y) = -0.07038 0.28781
# Poissons Ratio (z) = 0.37766 0.18643
#
# Static dielectric constant tensor:
#      x y z
#    x 2.575430 -0.278850 -0.752200 
#    y -0.278850 2.687900 0.322540 
#    z -0.752200 0.322540 3.255100 
# 
# From -- ./inp_files/243352.got.cif
#   From: 2010.05.17/outbox.cif.g08.bks.cpg/sg2_122_cif.got.tgz:243352.got - 2010.06.03 11:33:40.
