data_PCOD9049807
_publ_section_title
;
Structure prediction by ZEFSAII (Michael W. Deem and Ramdas Pophale) SiO2 
 PCOD9049807
Probable space group: P -1
;
_chemical_formula_sum "Si O2"
_cell_formula_units_Z 14
_cell_length_a 23.933298
_cell_length_b 12.055159
_cell_length_c 9.090026
_cell_angle_alpha 145.595799
_cell_angle_beta 27.148118
_cell_angle_gamma 149.221973
_cell_volume 591.402930
_symmetry_space_group_name_H-M "P -1"
_symmetry_group_IT_number 2
_symmetry_cell_setting 'triclinic'
loop_
_space_group_symop_operation_xyz
x,y,z
-x,-y,-z
loop_
_atom_site_type_symbol
_atom_site_label
_atom_site_fract_x
_atom_site_fract_y
_atom_site_fract_z
Si Si1 0.911282 0.723547 0.511848
Si Si2 0.446569 0.365857 0.329501
Si Si3 0.966876 0.879512 0.102300
Si Si4 0.340003 0.937591 0.275991
Si Si5 0.113425 0.722084 0.782782
Si Si6 0.700112 0.429154 0.250727
Si Si7 0.617625 0.462865 0.773616
O O1 0.883661 0.502597 0.426058
O O2 0.764730 0.668486 0.715191
O O3 0.971362 0.926152 0.707587
O O4 0.030105 0.762658 0.155339
O O5 0.500000 0.500000 0.500000
O O6 0.431999 0.559532 0.489960
O O7 0.333701 0.126041 0.395478
O O8 0.543082 0.322707 0.940939
O O9 0.805211 0.697311 0.295463
O O10 0.030172 0.717362 0.824224
O O11 0.000000 0.000000 0.000000
O O12 0.266385 0.904391 0.569863
O O13 0.270082 0.714187 0.093985
O O14 0.500000 0.000000 0.000000
O O15 0.673593 0.352426 0.397852
O O16 0.500000 0.500000 0.000000
#
# Coordination Sequence:
#
# PCOD9049807 Si02
#       7
#     2   2   2   2   2   2   2
#     4  11  25  49  73 107 147 193 240 298 368 424
#     4  11  24  43  73 100 134 189 237 294 361 419
#     4  12  26  44  74 106 148 192 238 300 362 434
#     4  12  25  43  70 100 140 184 234 296 356 418
#     4  11  26  45  74 106 145 192 242 294 361 438
#     4  11  25  45  65 106 139 182 246 288 357 430
#     4  10  24  47  75 103 146 186 242 303 351 438
#
# _framework density 23.672525
#
# number of rings (size 3 to 8) (size 9 to 14) (size 15 to 20)
#    0.000    0.857    2.857    3.000    4.000    4.000 
#    2.571    0.000    0.000    0.000    0.000    0.000 
#    0.000    0.000    0.000    0.000    0.000    0.000 
#
# Total GULP energy -77954.113233 kJ/mol
# GULP energy per Si atom -5568.150945 kJ/mol
# Density = 2.361865 g / cm^3
# Si number density = 23.672525 Si / 1000 Ang^3
#
#
#
# Elastic Constant Matrix: (Units=GPa)
#
#
# Indices 1 2 3 4 5 6 
#
# 1 122.6939 50.8098 43.6236 6.5001 32.3418 -6.9646
# 2 50.8098 105.6548 49.7166 -3.9441 29.1331 -8.1798
# 3 43.6236 49.7166 91.6644 -13.3001 31.9662 -9.4751
# 4 6.5001 -3.9441 -13.3001 38.0907 -11.1351 10.8577
# 5 32.3418 29.1331 31.9662 -11.1351 31.7047 -2.6657
# 6 -6.9646 -8.1798 -9.4751 10.8577 -2.6657 48.4586
#
#
#
# Elastic Compliance Matrix: (Units=1/GPa)
#
#
# Indices 1 2 3 4 5 6 
#
# 1 0.013488 -0.002432 -0.001675 -0.007332 -0.012228 0.002171
# 2 -0.002432 0.014758 -0.004521 -0.002106 -0.007148 0.001336
# 3 -0.001675 -0.004521 0.018937 0.002426 -0.012253 0.001481
# 4 -0.007332 -0.002106 0.002426 0.035928 0.018919 -0.007944
# 5 -0.012228 -0.007148 -0.012253 0.018919 0.069094 -0.005798
# 6 0.002171 0.001336 0.001481 -0.007944 -0.005798 0.022924
#
#
# Mechanical properties :
#
#
# Convention : Reuss Voigt Hill
#
# Bulk Modulus (GPa) = 33.41641 67.59033 50.50337
# Shear Modulus (GPa) = 24.70810 35.37500 30.04155
#
# Velocity S-wave (km/s) = 3.23421 3.86987 3.56623
# Velocity P-wave (km/s) = 5.30034 6.97009 6.19176
#
# Compressibility (1/GPa) = 0.02992541
#
# Stress axis : x y z
#
# Youngs Moduli (GPa) = 74.14017 67.75989 52.80657
#
# Poissons Ratio (x) = 0.16481 0.08846
# Poissons Ratio (y) = 0.18032 0.23876
# Poissons Ratio (z) = 0.12419 0.30637
#
# Static dielectric constant tensor:
#      x y z
#    x 2.055690 0.040860 -0.132430 
#    y 0.040860 1.956440 -0.072060 
#    z -0.132430 -0.072060 2.096130 
# 
# From -- ./inp_files/353847.got.cif
#   From: 2010.05.17/outbox.cif.g08.bks.cpg/sg2_177_cif.got.tgz:353847.got - 2010.06.03 11:33:40.
