data_PCOD9049383
_publ_section_title
;
Structure prediction by ZEFSAII (Michael W. Deem and Ramdas Pophale) SiO2 
 PCOD9049383
Probable space group: P -1
;
_chemical_formula_sum "Si O2"
_cell_formula_units_Z 15
_cell_length_a 13.876395
_cell_length_b 14.620305
_cell_length_c 9.182870
_cell_angle_alpha 104.465153
_cell_angle_beta 128.318794
_cell_angle_gamma 34.416003
_cell_volume 666.902472
_symmetry_space_group_name_H-M "P -1"
_symmetry_group_IT_number 2
_symmetry_cell_setting 'triclinic'
loop_
_space_group_symop_operation_xyz
x,y,z
-x,-y,-z
loop_
_atom_site_type_symbol
_atom_site_label
_atom_site_fract_x
_atom_site_fract_y
_atom_site_fract_z
Si Si1 0.801791 0.991198 0.061366
Si Si2 0.045952 0.457842 0.196724
Si Si3 0.194437 0.183588 0.810602
Si Si4 0.373614 0.683341 0.501568
Si Si5 0.209652 0.931723 0.231309
Si Si6 0.500000 0.000000 0.500000
Si Si7 0.611997 0.614994 0.981906
Si Si8 0.934487 0.798853 0.612511
O O1 0.829325 0.863723 0.085102
O O2 0.067858 0.866579 0.291646
O O3 0.584381 0.189618 0.031035
O O4 0.729183 0.047595 0.845584
O O5 0.985690 0.601280 0.267248
O O6 0.313972 0.220143 0.378444
O O7 0.000000 0.500000 0.000000
O O8 0.817123 0.546409 0.075410
O O9 0.111662 0.177314 0.592394
O O10 0.500000 0.000000 0.000000
O O11 0.500000 0.500000 0.500000
O O12 0.422808 0.726604 0.436551
O O13 0.475209 0.651015 0.737771
O O14 0.087469 0.081377 0.298175
O O15 0.000000 0.000000 0.000000
O O16 0.713079 0.889251 0.527313
O O17 0.782265 0.432017 0.171164
#
# Coordination Sequence:
#
# PCOD9049383 Si02
#       8
#     2   2   2   2   2   1   2   2
#     4  11  25  45  74 107 145 191 243 307 371 438
#     4  11  26  45  72 104 148 196 251 306 374 441
#     4  12  26  47  74 111 149 195 249 309 375 445
#     4  11  25  46  74 104 141 193 247 303 373 447
#     4  10  24  46  73 103 142 188 241 302 365 441
#     4  10  26  42  70 104 146 198 248 298 370 438
#     4  11  24  46  68 106 146 189 247 306 368 446
#     4  11  26  45  71 105 149 189 246 302 372 440
#
# _framework density 22.492045000000001
#
# number of rings (size 3 to 8) (size 9 to 14) (size 15 to 20)
#    0.000    1.067    1.333    3.600    9.333    5.333 
#    0.000    4.000    0.000    0.000    0.000    0.000 
#    0.000    0.000    0.000    0.000    0.000    0.000 
#
# Total GULP energy -83715.352697 kJ/mol
# GULP energy per Si atom -5581.023513 kJ/mol
# Density = 2.244085 g / cm^3
# Si number density = 22.492045 Si / 1000 Ang^3
#
#
#
# Elastic Constant Matrix: (Units=GPa)
#
#
# Indices 1 2 3 4 5 6 
#
# 1 75.0775 11.5135 31.0923 -17.1524 -19.5966 14.4762
# 2 11.5135 153.9020 54.4146 -16.2949 -11.9431 19.3260
# 3 31.0923 54.4146 120.1520 -4.3246 -8.7806 2.0543
# 4 -17.1524 -16.2949 -4.3246 48.9998 2.2955 -0.7511
# 5 -19.5966 -11.9431 -8.7806 2.2955 35.0553 -11.5706
# 6 14.4762 19.3260 2.0543 -0.7511 -11.5706 41.0649
#
#
#
# Elastic Compliance Matrix: (Units=1/GPa)
#
#
# Indices 1 2 3 4 5 6 
#
# 1 0.019955 0.002447 -0.005317 0.006852 0.008418 -0.005423
# 2 0.002447 0.008861 -0.004333 0.003277 0.001673 -0.004285
# 3 -0.005317 -0.004333 0.011500 -0.002221 -0.000369 0.003194
# 4 0.006852 0.003277 -0.002221 0.023568 0.001896 -0.002881
# 5 0.008418 0.001673 -0.000369 0.001896 0.035682 0.006352
# 6 -0.005423 -0.004285 0.003194 -0.002881 0.006352 0.029857
#
#
# Mechanical properties :
#
#
# Convention : Reuss Voigt Hill
#
# Bulk Modulus (GPa) = 38.59651 60.35246 49.47448
# Shear Modulus (GPa) = 32.79416 41.83142 37.31279
#
# Velocity S-wave (km/s) = 3.82256 4.31726 4.07742
# Velocity P-wave (km/s) = 6.05640 7.19324 6.64916
#
# Compressibility (1/GPa) = 0.02590908
#
# Stress axis : x y z
#
# Youngs Moduli (GPa) = 50.11311 112.84901 86.95951
#
# Poissons Ratio (x) = -0.27614 0.46240
# Poissons Ratio (y) = -0.12262 0.37679
# Poissons Ratio (z) = 0.26647 0.48897
#
# Static dielectric constant tensor:
#      x y z
#    x 1.870330 0.069730 0.005130 
#    y 0.069730 1.789730 -0.023850 
#    z 0.005130 -0.023850 1.839600 
# 
# From -- ./inp_files/315711.got.cif
#   From: 2010.05.17/outbox.cif.g08.bks.cpg/sg2_158_cif.got.tgz:315711.got - 2010.06.03 11:33:40.
