data_PCOD9049296
_publ_section_title
;
Structure prediction by ZEFSAII (Michael W. Deem and Ramdas Pophale) SiO2 
 PCOD9049296
Probable space group: P -1
;
_chemical_formula_sum "Si O2"
_cell_formula_units_Z 14
_cell_length_a 10.420544
_cell_length_b 11.273184
_cell_length_c 9.255850
_cell_angle_alpha 116.384402
_cell_angle_beta 55.617050
_cell_angle_gamma 139.048796
_cell_volume 587.807655
_symmetry_space_group_name_H-M "P -1"
_symmetry_group_IT_number 2
_symmetry_cell_setting 'triclinic'
loop_
_space_group_symop_operation_xyz
x,y,z
-x,-y,-z
loop_
_atom_site_type_symbol
_atom_site_label
_atom_site_fract_x
_atom_site_fract_y
_atom_site_fract_z
Si Si1 0.070698 0.193547 0.919136
Si Si2 0.583244 0.878368 0.747899
Si Si3 0.933760 0.597972 0.519485
Si Si4 0.385218 0.036311 0.895543
Si Si5 0.181214 0.005472 0.603265
Si Si6 0.492356 0.318576 0.780440
Si Si7 0.855951 0.524110 0.188349
O O1 0.294449 0.304129 0.920190
O O2 0.114243 0.323175 0.835243
O O3 0.029814 0.024721 0.785770
O O4 0.855231 0.106536 0.091024
O O5 0.499590 0.963065 0.767068
O O6 0.387390 0.664473 0.765007
O O7 0.772867 0.935317 0.560833
O O8 0.643397 0.957891 0.912486
O O9 0.705147 0.502384 0.681363
O O10 0.919468 0.572604 0.341764
O O11 0.000000 0.500000 0.500000
O O12 0.095667 0.809355 0.562861
O O13 0.515378 0.234902 0.856317
O O14 0.402119 0.166172 0.631499
O O15 0.000000 0.500000 0.000000
#
# Coordination Sequence:
#
# PCOD9049296 Si02
#       7
#     2   2   2   2   2   2   2
#     4  10  24  46  72 100 140 185 231 288 357 403
#     4  11  24  42  70 104 138 189 230 290 344 413
#     4  12  27  45  73 108 138 185 238 282 351 418
#     4  11  23  43  70 100 144 185 232 280 357 413
#     4  10  25  46  72 100 139 182 229 289 345 411
#     4  10  25  46  69 104 140 184 229 292 347 408
#     4  12  25  44  71 102 142 180 239 288 342 426
#
# _framework density 23.817316000000002
#
# number of rings (size 3 to 8) (size 9 to 14) (size 15 to 20)
#    0.857    0.286    2.857    2.143    6.000    6.857 
#    0.000    1.429    0.000    0.000    0.000    0.000 
#    0.000    0.000    0.000    0.000    0.000    0.000 
#
# Total GULP energy -78343.796972 kJ/mol
# GULP energy per Si atom -5595.985498 kJ/mol
# Density = 2.376311 g / cm^3
# Si number density = 23.817316 Si / 1000 Ang^3
#
#
#
# Elastic Constant Matrix: (Units=GPa)
#
#
# Indices 1 2 3 4 5 6 
#
# 1 60.9384 13.0417 23.3175 4.4486 2.4915 -13.0256
# 2 13.0417 113.7527 7.2588 -10.9090 4.8232 -6.5516
# 3 23.3175 7.2588 77.2899 -14.0377 3.3006 6.6030
# 4 4.4486 -10.9090 -14.0377 34.1802 -2.6982 0.4909
# 5 2.4915 4.8232 3.3006 -2.6982 23.2230 -10.1427
# 6 -13.0256 -6.5516 6.6030 0.4909 -10.1427 41.0104
#
#
#
# Elastic Compliance Matrix: (Units=1/GPa)
#
#
# Indices 1 2 3 4 5 6 
#
# 1 0.022590 -0.002311 -0.008769 -0.007221 0.002344 0.008884
# 2 -0.002311 0.009425 0.000450 0.003392 -0.001224 0.000356
# 3 -0.008769 0.000450 0.017780 0.008399 -0.003568 -0.006559
# 4 -0.007221 0.003392 0.008399 0.034897 0.001562 -0.003136
# 5 0.002344 -0.001224 -0.003568 0.001562 0.049591 0.013370
# 6 0.008884 0.000356 -0.006559 -0.003136 0.013370 0.031663
#
#
# Mechanical properties :
#
#
# Convention : Reuss Voigt Hill
#
# Bulk Modulus (GPa) = 35.04406 37.69078 36.36742
# Shear Modulus (GPa) = 25.41725 33.57358 29.49542
#
# Velocity S-wave (km/s) = 3.27031 3.75858 3.52291
# Velocity P-wave (km/s) = 5.38568 5.89026 5.64361
#
# Compressibility (1/GPa) = 0.02853551
#
# Stress axis : x y z
#
# Youngs Moduli (GPa) = 44.26724 106.10202 56.24369
#
# Poissons Ratio (x) = 0.24516 0.49319
# Poissons Ratio (y) = 0.10229 -0.02530
# Poissons Ratio (z) = 0.38817 -0.04773
#
# Static dielectric constant tensor:
#      x y z
#    x 1.950680 0.040580 0.019990 
#    y 0.040580 1.856510 0.003280 
#    z 0.019990 0.003280 1.891520 
# 
# From -- ./inp_files/262990.got.cif
#   From: 2010.05.17/outbox.cif.g08.bks.cpg/sg2_132_cif.got.tgz:262990.got - 2010.06.03 11:33:40.
