data_PCOD9049681
_publ_section_title
;
Structure prediction by ZEFSAII (Michael W. Deem and Ramdas Pophale) SiO2 
 PCOD9049681
Probable space group: P -1
;
_chemical_formula_sum "Si O2"
_cell_formula_units_Z 14
_cell_length_a 15.822506
_cell_length_b 5.359764
_cell_length_c 21.076731
_cell_angle_alpha 60.303966
_cell_angle_beta 156.124866
_cell_angle_gamma 107.433830
_cell_volume 565.459269
_symmetry_space_group_name_H-M "P -1"
_symmetry_group_IT_number 2
_symmetry_cell_setting 'triclinic'
loop_
_space_group_symop_operation_xyz
x,y,z
-x,-y,-z
loop_
_atom_site_type_symbol
_atom_site_label
_atom_site_fract_x
_atom_site_fract_y
_atom_site_fract_z
Si Si1 0.859462 0.767427 0.516279
Si Si2 0.565074 0.175741 0.938184
Si Si3 0.634861 0.742778 0.859510
Si Si4 0.636724 0.211027 0.558724
Si Si5 0.733679 0.124185 0.783096
Si Si6 0.954414 0.689619 0.194096
Si Si7 0.129611 0.139979 0.696006
O O1 0.893423 0.651006 0.627872
O O2 0.964849 0.452294 0.584444
O O3 0.995397 0.989057 0.579987
O O4 0.587521 0.977468 0.295058
O O5 0.590789 0.434670 0.878319
O O6 0.305324 0.232678 0.765305
O O7 0.719686 0.838797 0.054447
O O8 0.698693 0.132947 0.102691
O O9 0.659618 0.855295 0.791820
O O10 0.867277 0.687885 0.063927
O O11 0.706189 0.215981 0.679190
O O12 0.453530 0.539145 0.359852
O O13 0.887709 0.119987 0.711101
O O14 0.500000 0.000000 0.500000
O O15 0.000000 0.000000 0.000000
#
# Coordination Sequence:
#
# PCOD9049681 Si02
#       7
#     2   2   2   2   2   2   2
#     4  11  25  45  73 102 149 187 244 300 362 426
#     4  10  25  41  73  99 140 189 237 297 361 427
#     4  12  25  43  70 102 139 186 240 296 361 431
#     4  11  26  45  72 100 141 189 235 295 366 435
#     4  11  25  45  68 103 140 180 237 296 358 436
#     4  11  24  45  65 104 140 184 239 297 363 432
#     4  10  24  47  71 105 145 195 239 299 362 431
#
# _framework density 24.758634000000001
#
# number of rings (size 3 to 8) (size 9 to 14) (size 15 to 20)
#    0.000    1.143    4.286    0.000    6.000    6.857 
#    0.000    0.000    0.000    0.000    0.000    0.000 
#    0.000    0.000    0.000    0.000    0.000    0.000 
#
# Total GULP energy -78210.505550 kJ/mol
# GULP energy per Si atom -5586.464682 kJ/mol
# Density = 2.470228 g / cm^3
# Si number density = 24.758634 Si / 1000 Ang^3
#
#
#
# Elastic Constant Matrix: (Units=GPa)
#
#
# Indices 1 2 3 4 5 6 
#
# 1 51.6659 16.5240 27.9108 3.7292 4.1321 17.6074
# 2 16.5240 115.4233 45.6130 10.2348 5.5319 25.2160
# 3 27.9108 45.6130 154.2215 7.7119 -0.7171 9.5100
# 4 3.7292 10.2348 7.7119 40.8084 13.4587 0.8823
# 5 4.1321 5.5319 -0.7171 13.4587 36.6486 -0.4707
# 6 17.6074 25.2160 9.5100 0.8823 -0.4707 38.8624
#
#
#
# Elastic Compliance Matrix: (Units=1/GPa)
#
#
# Indices 1 2 3 4 5 6 
#
# 1 0.025357 0.000536 -0.004068 -0.000462 -0.002989 -0.010866
# 2 0.000536 0.011508 -0.002988 -0.001796 -0.001286 -0.006953
# 3 -0.004068 -0.002988 0.008042 -0.000908 0.001424 0.001852
# 4 -0.000462 -0.001796 -0.000908 0.028499 -0.010150 0.000827
# 5 -0.002989 -0.001286 0.001424 -0.010150 0.031604 0.002453
# 6 -0.010866 -0.006953 0.001852 0.000827 0.002453 0.034724
#
#
# Mechanical properties :
#
#
# Convention : Reuss Voigt Hill
#
# Bulk Modulus (GPa) = 31.38146 55.71183 43.54665
# Shear Modulus (GPa) = 30.60036 38.68142 34.64089
#
# Velocity S-wave (km/s) = 3.51942 3.95693 3.74457
# Velocity P-wave (km/s) = 5.40533 6.58994 6.02681
#
# Compressibility (1/GPa) = 0.03186595
#
# Stress axis : x y z
#
# Youngs Moduli (GPa) = 39.43665 86.89797 124.34681
#
# Poissons Ratio (x) = -0.04655 0.50588
# Poissons Ratio (y) = -0.02113 0.37154
# Poissons Ratio (z) = 0.16044 0.25964
#
# Static dielectric constant tensor:
#      x y z
#    x 1.998390 0.128120 -0.041350 
#    y 0.128120 1.498120 0.082640 
#    z -0.041350 0.082640 1.935090 
# 
# From -- ./inp_files/46901.got.cif
#   From: 2010.05.17/outbox.cif.g08.bks.cpg/sg2_24_cif.got.tgz:46901.got - 2010.06.03 11:33:40.
