data_PCOD9049754
_publ_section_title
;
Structure prediction by ZEFSAII (Michael W. Deem and Ramdas Pophale) SiO2 
 PCOD9049754
Probable space group: P -1
;
_chemical_formula_sum "Si O2"
_cell_formula_units_Z 14
_cell_length_a 18.958782
_cell_length_b 13.974637
_cell_length_c 5.346305
_cell_angle_alpha 100.453669
_cell_angle_beta 86.946566
_cell_angle_gamma 159.442097
_cell_volume 460.403702
_symmetry_space_group_name_H-M "P -1"
_symmetry_group_IT_number 2
_symmetry_cell_setting 'triclinic'
loop_
_space_group_symop_operation_xyz
x,y,z
-x,-y,-z
loop_
_atom_site_type_symbol
_atom_site_label
_atom_site_fract_x
_atom_site_fract_y
_atom_site_fract_z
Si Si1 0.876857 0.027966 0.342511
Si Si2 0.781092 0.564050 0.146794
Si Si3 0.000000 0.000000 0.000000
Si Si4 0.257580 0.842679 0.617826
Si Si5 0.473746 0.659409 0.518245
Si Si6 0.677744 0.232476 0.849391
Si Si7 0.153637 0.852060 0.007840
Si Si8 0.500000 0.500000 0.500000
O O1 0.900266 0.153502 0.226165
O O2 0.006892 0.203598 0.659751
O O3 0.637760 0.695108 0.313481
O O4 0.976402 0.071958 0.186750
O O5 0.646063 0.414312 0.344218
O O6 0.816660 0.710933 0.077335
O O7 0.685293 0.359667 0.882770
O O8 0.332949 0.846279 0.440465
O O9 0.268185 0.899426 0.927967
O O10 0.000000 0.500000 0.500000
O O11 0.370371 0.080005 0.568769
O O12 0.329823 0.377236 0.371566
O O13 0.651002 0.834000 0.746734
O O14 0.926031 0.532301 0.026438
O O15 0.500000 0.000000 0.000000
#
# Coordination Sequence:
#
# PCOD9049754 Si02
#       8
#     2   2   1   2   2   2   2   1
#     4  12  27  48  75 107 150 188 243 298 363 433
#     4  12  27  49  73 110 147 190 241 301 363 430
#     4  12  26  46  78 104 146 194 238 298 364 432
#     4  10  24  47  73 106 145 195 241 298 358 430
#     4  12  26  47  75 109 149 188 245 297 363 430
#     4  11  23  48  74 106 146 191 239 302 360 424
#     4  11  26  48  74 109 145 193 241 297 363 430
#     4  12  26  44  76 108 144 188 242 304 356 426
#
# _framework density 30.408099
#
# number of rings (size 3 to 8) (size 9 to 14) (size 15 to 20)
#    0.000    0.571    5.714    1.286    0.000    5.143 
#    2.571    1.429    0.000    0.000    0.000    0.000 
#    0.000    0.000    0.000    0.000    0.000    0.000 
#
# Total GULP energy -77937.471080 kJ/mol
# GULP energy per Si atom -5566.962220 kJ/mol
# Density = 3.033889 g / cm^3
# Si number density = 30.408099 Si / 1000 Ang^3
#
#
#
# Elastic Constant Matrix: (Units=GPa)
#
#
# Indices 1 2 3 4 5 6 
#
# 1 165.9985 39.0657 39.2341 -23.1311 -45.8134 -18.3581
# 2 39.0657 187.2228 51.6531 -43.3195 0.3254 -7.3637
# 3 39.2341 51.6531 118.7052 11.6551 -25.6745 6.5573
# 4 -23.1311 -43.3195 11.6551 68.0034 8.0656 -15.0002
# 5 -45.8134 0.3254 -25.6745 8.0656 75.0507 -34.9779
# 6 -18.3581 -7.3637 6.5573 -15.0002 -34.9779 66.9019
#
#
#
# Elastic Compliance Matrix: (Units=1/GPa)
#
#
# Indices 1 2 3 4 5 6 
#
# 1 0.011139 -0.000072 -0.002554 0.005130 0.009848 0.009598
# 2 -0.000072 0.008268 -0.004649 0.006670 -0.001405 0.002106
# 3 -0.002554 -0.004649 0.012596 -0.006876 0.002182 -0.002848
# 4 0.005130 0.006670 -0.006876 0.023660 0.002634 0.009498
# 5 0.009848 -0.001405 0.002182 0.002634 0.027988 0.017557
# 6 0.009598 0.002106 -0.002848 0.009498 0.017557 0.029401
#
#
# Mechanical properties :
#
#
# Convention : Reuss Voigt Hill
#
# Bulk Modulus (GPa) = 57.30097 81.31470 69.30783
# Shear Modulus (GPa) = 37.47618 64.78943 51.13281
#
# Velocity S-wave (km/s) = 3.51442 4.62092 4.10512
# Velocity P-wave (km/s) = 5.94585 7.43436 6.73137
#
# Compressibility (1/GPa) = 0.01745171
#
# Stress axis : x y z
#
# Youngs Moduli (GPa) = 89.77480 120.95543 79.39334
#
# Poissons Ratio (x) = 0.00876 0.20277
# Poissons Ratio (y) = 0.00650 0.36909
# Poissons Ratio (z) = 0.22928 0.56230
#
# Static dielectric constant tensor:
#      x y z
#    x 0.837690 0.805830 -0.073660 
#    y 0.805830 1.816820 -0.010300 
#    z -0.073660 -0.010300 2.342720 
# 
# From -- ./inp_files/119473.got.cif
#   From: 2010.05.17/outbox.cif.g08.bks.cpg/sg2_60_cif.got.tgz:119473.got - 2010.06.03 11:33:40.
