data_PCOD9049480
_publ_section_title
;
Structure prediction by ZEFSAII (Michael W. Deem and Ramdas Pophale) SiO2 
 PCOD9049480
Probable space group: P -1
;
_chemical_formula_sum "Si O2"
_cell_formula_units_Z 14
_cell_length_a 10.049543
_cell_length_b 16.105595
_cell_length_c 16.243580
_cell_angle_alpha 154.249866
_cell_angle_beta 144.536285
_cell_angle_gamma 34.355565
_cell_volume 617.024160
_symmetry_space_group_name_H-M "P -1"
_symmetry_group_IT_number 2
_symmetry_cell_setting 'triclinic'
loop_
_space_group_symop_operation_xyz
x,y,z
-x,-y,-z
loop_
_atom_site_type_symbol
_atom_site_label
_atom_site_fract_x
_atom_site_fract_y
_atom_site_fract_z
Si Si1 0.061344 0.437817 0.569274
Si Si2 0.268181 0.685427 0.014076
Si Si3 0.719970 0.510803 0.855717
Si Si4 0.876412 0.168155 0.755248
Si Si5 0.502678 0.982270 0.617797
Si Si6 0.391122 0.031196 0.796440
Si Si7 0.452138 0.413969 0.484626
O O1 0.283298 0.222737 0.487350
O O2 0.000000 0.500000 0.500000
O O3 0.811319 0.437607 0.482961
O O4 0.138317 0.603228 0.805061
O O5 0.093605 0.773132 0.083784
O O6 0.386859 0.843223 0.181590
O O7 0.500000 0.500000 0.000000
O O8 0.697900 0.373035 0.798892
O O9 0.659630 0.411734 0.654279
O O10 0.562051 0.754246 0.985435
O O11 0.000000 0.500000 0.000000
O O12 0.739240 0.006148 0.543910
O O13 0.123591 0.084145 0.751103
O O14 0.419114 0.978964 0.667108
O O15 0.550774 0.816467 0.727645
O O16 0.500000 0.500000 0.500000
#
# Coordination Sequence:
#
# PCOD9049480 Si02
#       7
#     2   2   2   2   2   2   2
#     4  12  28  52  70 104 152 197 240 292 370 440
#     4  12  28  46  76 109 147 188 249 301 357 434
#     4  10  24  46  75 105 142 183 238 298 363 430
#     4  11  23  47  75 115 140 183 250 311 357 419
#     4  12  25  46  75 107 145 196 240 298 367 430
#     4  11  25  44  76 104 145 190 239 298 369 420
#     4  12  29  48  72 107 148 190 243 301 357 433
#
# _framework density 22.689550000000001
#
# number of rings (size 3 to 8) (size 9 to 14) (size 15 to 20)
#    0.000    0.571    4.286    1.714   10.000    2.286 
#    0.000    0.000    0.000    0.000    0.000    0.000 
#    0.000    0.000    0.000    0.000    0.000    0.000 
#
# Total GULP energy -78268.239479 kJ/mol
# GULP energy per Si atom -5590.588534 kJ/mol
# Density = 2.263791 g / cm^3
# Si number density = 22.689550 Si / 1000 Ang^3
#
#
#
# Elastic Constant Matrix: (Units=GPa)
#
#
# Indices 1 2 3 4 5 6 
#
# 1 189.9694 53.4626 66.9046 -9.4266 -21.6348 -4.0944
# 2 53.4626 49.3471 43.2487 3.6551 -5.4857 -4.6454
# 3 66.9046 43.2487 151.5684 -4.0111 -2.5433 17.8437
# 4 -9.4266 3.6551 -4.0111 38.4485 -2.8608 -6.5165
# 5 -21.6348 -5.4857 -2.5433 -2.8608 25.8237 -7.3362
# 6 -4.0944 -4.6454 17.8437 -6.5165 -7.3362 42.9569
#
#
#
# Elastic Compliance Matrix: (Units=1/GPa)
#
#
# Indices 1 2 3 4 5 6 
#
# 1 0.009067 -0.007294 -0.002021 0.003680 0.007015 0.002671
# 2 -0.007294 0.036306 -0.007958 -0.004879 0.002022 0.006142
# 3 -0.002021 -0.007958 0.010407 0.000014 -0.004081 -0.006071
# 4 0.003680 -0.004879 0.000014 0.028784 0.006753 0.005337
# 5 0.007015 0.002022 -0.004081 0.006753 0.048767 0.011936
# 6 0.002671 0.006142 -0.006071 0.005337 0.011936 0.029568
#
#
# Mechanical properties :
#
#
# Convention : Reuss Voigt Hill
#
# Bulk Modulus (GPa) = 47.09241 79.79073 63.44157
# Shear Modulus (GPa) = 24.44713 36.59708 30.52210
#
# Velocity S-wave (km/s) = 3.28603 4.02051 3.67168
# Velocity P-wave (km/s) = 5.93275 7.53627 6.78207
#
# Compressibility (1/GPa) = 0.02123484
#
# Stress axis : x y z
#
# Youngs Moduli (GPa) = 110.28430 27.54360 96.08981
#
# Poissons Ratio (x) = 0.20091 0.19415
# Poissons Ratio (y) = 0.80444 0.76469
# Poissons Ratio (z) = 0.22283 0.21919
#
# Static dielectric constant tensor:
#      x y z
#    x 1.850310 -0.023960 0.012390 
#    y -0.023960 1.914430 0.027380 
#    z 0.012390 0.027380 1.864840 
# 
# From -- ./inp_files/506001.got.cif
#   From: 2010.05.17/outbox.cif.g08.bks.cpg/sg2_254_cif.got.tgz:506001.got - 2010.06.03 11:33:40.
