data_PCOD9049537
_publ_section_title
;
Structure prediction by ZEFSAII (Michael W. Deem and Ramdas Pophale) SiO2 
 PCOD9049537
Probable space group: P -1
;
_chemical_formula_sum "Si O2"
_cell_formula_units_Z 13
_cell_length_a 24.079346
_cell_length_b 8.999495
_cell_length_c 15.117386
_cell_angle_alpha 35.457733
_cell_angle_beta 20.213294
_cell_angle_gamma 31.693328
_cell_volume 592.332550
_symmetry_space_group_name_H-M "P -1"
_symmetry_group_IT_number 2
_symmetry_cell_setting 'triclinic'
loop_
_space_group_symop_operation_xyz
x,y,z
-x,-y,-z
loop_
_atom_site_type_symbol
_atom_site_label
_atom_site_fract_x
_atom_site_fract_y
_atom_site_fract_z
Si Si1 0.595492 0.298586 0.369438
Si Si2 0.362279 0.176695 0.997447
Si Si3 0.753734 0.872075 0.483607
Si Si4 0.107871 0.159774 0.520895
Si Si5 0.960561 0.730119 0.695538
Si Si6 0.902136 0.793313 0.952945
Si Si7 0.500000 0.000000 0.500000
O O1 0.500000 0.500000 0.500000
O O2 0.487330 0.174017 0.531153
O O3 0.747942 0.040396 0.320471
O O4 0.639112 0.514908 0.139122
O O5 0.299374 0.071738 0.230015
O O6 0.201960 0.230806 0.143359
O O7 0.550997 0.967088 0.774496
O O8 0.855968 0.921131 0.390972
O O9 0.860445 0.541414 0.465609
O O10 0.000000 0.500000 0.500000
O O11 0.005714 0.990412 0.714422
O O12 0.907266 0.709876 0.884350
O O13 0.000000 0.000000 0.500000
O O14 0.703969 0.954216 0.207442
O O15 0.000000 0.500000 0.000000
#
# Coordination Sequence:
#
# PCOD9049537 Si02
#       7
#     2   2   2   2   2   2   1
#     4  10  24  46  77 111 146 195 256 305 373 458
#     4  11  24  46  74 108 149 203 244 310 384 456
#     4  11  25  45  75 108 147 201 246 307 381 454
#     4  12  24  48  72 108 151 198 247 313 377 453
#     4  12  25  48  70 107 152 186 254 317 373 454
#     4  12  28  46  72 108 143 194 253 309 377 448
#     4  12  26  50  74 108 152 196 244 318 378 444
#
# _framework density 21.947130000000001
#
# number of rings (size 3 to 8) (size 9 to 14) (size 15 to 20)
#    0.000    0.615    3.077    4.154    6.462    1.231 
#    5.538    0.000    0.000    0.000    0.000    0.000 
#    0.000    0.000    0.000    0.000    0.000    0.000 
#
# Total GULP energy -72420.420857 kJ/mol
# GULP energy per Si atom -5570.801604 kJ/mol
# Density = 2.189718 g / cm^3
# Si number density = 21.947130 Si / 1000 Ang^3
#
#
#
# Elastic Constant Matrix: (Units=GPa)
#
#
# Indices 1 2 3 4 5 6 
#
# 1 102.5349 37.2767 24.8399 -15.3337 -5.9648 11.4940
# 2 37.2767 110.3187 36.9288 19.4126 -14.4543 11.4117
# 3 24.8399 36.9288 107.7164 21.8164 -3.8836 3.6743
# 4 -15.3337 19.4126 21.8164 35.6353 5.1267 1.9603
# 5 -5.9648 -14.4543 -3.8836 5.1267 37.3436 -0.2486
# 6 11.4940 11.4117 3.6743 1.9603 -0.2486 28.1064
#
#
#
# Elastic Compliance Matrix: (Units=1/GPa)
#
#
# Indices 1 2 3 4 5 6 
#
# 1 0.015058 -0.005809 -0.003960 0.012587 -0.002011 -0.004177
# 2 -0.005809 0.014248 -0.001174 -0.010248 0.005855 -0.002490
# 3 -0.003960 -0.001174 0.012424 -0.008939 0.001440 0.001108
# 4 0.012587 -0.010248 -0.008939 0.046032 -0.009226 -0.003110
# 5 -0.002011 0.005855 0.001440 -0.009226 0.030134 -0.000833
# 6 -0.004177 -0.002490 0.001108 -0.003110 -0.000833 0.038363
#
#
# Mechanical properties :
#
#
# Convention : Reuss Voigt Hill
#
# Bulk Modulus (GPa) = 50.39141 57.62900 54.01020
# Shear Modulus (GPa) = 27.06230 34.98535 31.02383
#
# Velocity S-wave (km/s) = 3.51532 3.99692 3.76383
# Velocity P-wave (km/s) = 6.28385 6.90040 6.59933
#
# Compressibility (1/GPa) = 0.01984465
#
# Stress axis : x y z
#
# Youngs Moduli (GPa) = 66.41191 70.18372 80.49054
#
# Poissons Ratio (x) = 0.40766 0.31877
# Poissons Ratio (y) = 0.38575 0.09447
# Poissons Ratio (z) = 0.26301 0.08237
#
# Static dielectric constant tensor:
#      x y z
#    x 1.822950 0.011300 0.066780 
#    y 0.011300 1.795370 -0.007580 
#    z 0.066780 -0.007580 1.805020 
# 
# From -- ./inp_files/379763.got.cif
#   From: 2010.05.17/outbox.cif.g08.bks.cpg/sg2_190_cif.got.tgz:379763.got - 2010.06.03 11:33:40.
