data_PCOD9049723
_publ_section_title
;
Structure prediction by ZEFSAII (Michael W. Deem and Ramdas Pophale) SiO2 
 PCOD9049723
Probable space group: P -1
;
_chemical_formula_sum "Si O2"
_cell_formula_units_Z 14
_cell_length_a 11.824743
_cell_length_b 7.860643
_cell_length_c 11.091766
_cell_angle_alpha 140.152317
_cell_angle_beta 51.653683
_cell_angle_gamma 124.618784
_cell_volume 509.375522
_symmetry_space_group_name_H-M "P -1"
_symmetry_group_IT_number 2
_symmetry_cell_setting 'triclinic'
loop_
_space_group_symop_operation_xyz
x,y,z
-x,-y,-z
loop_
_atom_site_type_symbol
_atom_site_label
_atom_site_fract_x
_atom_site_fract_y
_atom_site_fract_z
Si Si1 0.663093 0.186214 0.046455
Si Si2 0.164723 0.932243 0.356693
Si Si3 0.464079 0.191723 0.393360
Si Si4 0.832416 0.061385 0.278628
Si Si5 0.764956 0.484635 0.743587
Si Si6 0.105034 0.880068 0.998564
Si Si7 0.463992 0.340378 0.735834
O O1 0.551638 0.060162 0.160008
O O2 0.579904 0.385553 0.137320
O O3 0.746811 0.027231 0.807259
O O4 0.803925 0.315008 0.101820
O O5 0.174650 0.632940 0.238234
O O6 0.289025 0.098523 0.453148
O O7 0.000000 0.000000 0.500000
O O8 0.500000 0.500000 0.500000
O O9 0.513135 0.200809 0.505010
O O10 0.687298 0.846408 0.229854
O O11 0.824678 0.313492 0.505452
O O12 0.895606 0.180755 0.174707
O O13 0.947407 0.887902 0.159825
O O14 0.813892 0.804092 0.872297
O O15 0.589784 0.397428 0.784799
#
# Coordination Sequence:
#
# PCOD9049723 Si02
#       7
#     2   2   2   2   2   2   2
#     4  11  26  46  72 107 146 191 242 300 360 440
#     4  12  27  48  73 106 147 190 243 302 368 435
#     4  10  24  47  72 108 141 192 243 299 363 430
#     4  11  24  49  69 107 144 194 245 304 363 429
#     4  12  26  47  74 105 148 191 242 300 367 437
#     4  11  27  45  73 106 149 192 244 298 370 434
#     4  11  25  47  76 103 143 195 245 302 361 431
#
# _framework density 27.484634
#
# number of rings (size 3 to 8) (size 9 to 14) (size 15 to 20)
#    0.000    0.857    1.429    3.857    8.000    1.714 
#   12.857    0.000    0.000    0.000    0.000    0.000 
#    0.000    0.000    0.000    0.000    0.000    0.000 
#
# Total GULP energy -78302.298212 kJ/mol
# GULP energy per Si atom -5593.021301 kJ/mol
# Density = 2.742208 g / cm^3
# Si number density = 27.484634 Si / 1000 Ang^3
#
#
#
# Elastic Constant Matrix: (Units=GPa)
#
#
# Indices 1 2 3 4 5 6 
#
# 1 171.0829 49.1887 54.7888 -11.6486 -47.6222 -2.1776
# 2 49.1887 95.3391 38.1897 -5.9849 -2.5014 11.0633
# 3 54.7888 38.1897 180.0833 -28.8186 -11.1325 -0.0179
# 4 -11.6486 -5.9849 -28.8186 38.1514 1.4986 1.5472
# 5 -47.6222 -2.5014 -11.1325 1.4986 55.1940 -5.7446
# 6 -2.1776 11.0633 -0.0179 1.5472 -5.7446 48.4359
#
#
#
# Elastic Compliance Matrix: (Units=1/GPa)
#
#
# Indices 1 2 3 4 5 6 
#
# 1 0.010069 -0.004639 -0.001424 0.000839 0.008426 0.002484
# 2 -0.004639 0.013946 -0.001852 -0.000308 -0.004139 -0.003876
# 3 -0.001424 -0.001852 0.007124 0.004646 0.000020 0.000215
# 4 0.000839 -0.000308 0.004646 0.029930 0.000756 -0.000757
# 5 0.008426 -0.004139 0.000020 0.000756 0.025636 0.004341
# 6 0.002484 -0.003876 0.000215 -0.000757 0.004341 0.022182
#
#
# Mechanical properties :
#
#
# Convention : Reuss Voigt Hill
#
# Bulk Modulus (GPa) = 65.32063 81.20440 73.26251
# Shear Modulus (GPa) = 38.51500 48.64547 43.58024
#
# Velocity S-wave (km/s) = 3.74749 4.21160 3.98631
# Velocity P-wave (km/s) = 6.52248 7.29792 6.92107
#
# Compressibility (1/GPa) = 0.01530910
#
# Stress axis : x y z
#
# Youngs Moduli (GPa) = 99.31174 71.70591 140.37512
#
# Poissons Ratio (x) = 0.33265 0.19993
# Poissons Ratio (y) = 0.46072 0.25991
# Poissons Ratio (z) = 0.14145 0.13276
#
# Static dielectric constant tensor:
#      x y z
#    x 2.236250 -0.027950 0.016710 
#    y -0.027950 2.186220 -0.029480 
#    z 0.016710 -0.029480 2.203780 
# 
# From -- ./inp_files/420161.got.cif
#   From: 2010.05.17/outbox.cif.g08.bks.cpg/sg2_211_cif.got.tgz:420161.got - 2010.06.03 11:33:40.
