data_PCOD9049413
_publ_section_title
;
Structure prediction by ZEFSAII (Michael W. Deem and Ramdas Pophale) SiO2 
 PCOD9049413
Probable space group: P -1
;
_chemical_formula_sum "Si O2"
_cell_formula_units_Z 12
_cell_length_a 6.467193
_cell_length_b 14.104325
_cell_length_c 9.431913
_cell_angle_alpha 35.471611
_cell_angle_beta 77.375618
_cell_angle_gamma 81.689430
_cell_volume 486.331320
_symmetry_space_group_name_H-M "P -1"
_symmetry_group_IT_number 2
_symmetry_cell_setting 'triclinic'
loop_
_space_group_symop_operation_xyz
x,y,z
-x,-y,-z
loop_
_atom_site_type_symbol
_atom_site_label
_atom_site_fract_x
_atom_site_fract_y
_atom_site_fract_z
Si Si1 0.802542 0.501057 0.136969
Si Si2 0.085368 0.600743 0.229536
Si Si3 0.554067 0.772228 0.711184
Si Si4 0.096102 0.100915 0.994721
Si Si5 0.391545 0.317209 0.489127
Si Si6 0.779434 0.027395 0.571708
O O1 0.646078 0.355513 0.403576
O O2 0.908160 0.589901 0.148137
O O3 0.635810 0.603174 0.953833
O O4 0.000000 0.500000 0.000000
O O5 0.278586 0.491307 0.288722
O O6 0.000000 0.500000 0.500000
O O7 0.089765 0.788748 0.049570
O O8 0.658803 0.789485 0.517013
O O9 0.310553 0.802260 0.674982
O O10 0.622235 0.891949 0.684360
O O11 0.288168 0.218832 0.756790
O O12 0.188945 0.998967 0.234578
O O13 0.000000 0.000000 0.000000
O O14 0.000000 0.000000 0.500000
#
# Coordination Sequence:
#
# PCOD9049413 Si02
#       6
#     2   2   2   2   2   2
#     4  12  25  45  79 109 149 194 249 316 374 439
#     4  10  24  46  73 109 148 192 250 310 374 442
#     4  11  25  44  73 113 142 198 250 305 381 441
#     4  11  25  49  77 109 153 203 246 309 378 449
#     4  11  26  46  75 113 145 194 255 307 380 444
#     4  11  26  46  74 106 154 196 249 305 373 455
#
# _framework density 24.674536
#
# number of rings (size 3 to 8) (size 9 to 14) (size 15 to 20)
#    0.000    1.000    3.333    1.500    4.667    6.000 
#    0.000    1.667    0.000    0.000    0.000    0.000 
#    0.000    0.000    0.000    0.000    0.000    0.000 
#
# Total GULP energy -66987.651024 kJ/mol
# GULP energy per Si atom -5582.304252 kJ/mol
# Density = 2.461838 g / cm^3
# Si number density = 24.674536 Si / 1000 Ang^3
#
#
#
# Elastic Constant Matrix: (Units=GPa)
#
#
# Indices 1 2 3 4 5 6 
#
# 1 146.2634 68.6234 82.8481 5.7145 9.5275 -17.0755
# 2 68.6234 153.9944 39.1916 13.1345 18.3198 14.2836
# 3 82.8481 39.1916 131.0959 23.1574 19.5574 -15.5705
# 4 5.7145 13.1345 23.1574 45.0190 -0.0492 9.2073
# 5 9.5275 18.3198 19.5574 -0.0492 45.5858 -2.1619
# 6 -17.0755 14.2836 -15.5705 9.2073 -2.1619 46.7313
#
#
#
# Elastic Compliance Matrix: (Units=1/GPa)
#
#
# Indices 1 2 3 4 5 6 
#
# 1 0.013623 -0.005024 -0.007593 0.002923 0.002600 0.003528
# 2 -0.005024 0.009513 0.000559 -0.001528 -0.003223 -0.004406
# 3 -0.007593 0.000559 0.014655 -0.007392 -0.004783 0.003173
# 4 0.002923 -0.001528 -0.007392 0.027358 0.002911 -0.006183
# 5 0.002600 -0.003223 -0.004783 0.002911 0.024787 0.000915
# 6 0.003528 -0.004406 0.003173 -0.006183 0.000915 0.026353
#
#
# Mechanical properties :
#
#
# Convention : Reuss Voigt Hill
#
# Bulk Modulus (GPa) = 73.12575 90.29776 81.71175
# Shear Modulus (GPa) = 34.49139 43.51324 39.00232
#
# Velocity S-wave (km/s) = 3.74284 4.20395 3.98008
# Velocity P-wave (km/s) = 6.95550 7.76139 7.36947
#
# Compressibility (1/GPa) = 0.01367507
#
# Stress axis : x y z
#
# Youngs Moduli (GPa) = 73.40335 105.12049 68.23437
#
# Poissons Ratio (x) = 0.52817 0.51808
# Poissons Ratio (y) = 0.36881 -0.03813
# Poissons Ratio (z) = 0.55732 -0.05874
#
# Static dielectric constant tensor:
#      x y z
#    x 2.344940 0.723500 0.362210 
#    y 0.723500 3.602130 0.780630 
#    z 0.362210 0.780630 2.462940 
# 
# From -- ./inp_files/134725.got.cif
#   From: 2010.05.17/outbox.cif.g08.bks.cpg/sg2_68_cif.got.tgz:134725.got - 2010.06.03 11:33:40.
