data_PCOD9049077
_publ_section_title
;
Structure prediction by ZEFSAII (Michael W. Deem and Ramdas Pophale) SiO2 
 PCOD9049077
Probable space group: P -1
;
_chemical_formula_sum "Si O2"
_cell_formula_units_Z 13
_cell_length_a 11.920355
_cell_length_b 5.300199
_cell_length_c 11.626298
_cell_angle_alpha 129.336732
_cell_angle_beta 67.909909
_cell_angle_gamma 93.710022
_cell_volume 510.732394
_symmetry_space_group_name_H-M "P -1"
_symmetry_group_IT_number 2
_symmetry_cell_setting 'triclinic'
loop_
_space_group_symop_operation_xyz
x,y,z
-x,-y,-z
loop_
_atom_site_type_symbol
_atom_site_label
_atom_site_fract_x
_atom_site_fract_y
_atom_site_fract_z
Si Si1 0.829297 0.333264 0.732926
Si Si2 0.707394 0.466220 0.589433
Si Si3 0.500000 0.500000 0.500000
Si Si4 0.521829 0.103497 0.889809
Si Si5 0.076851 0.396214 0.580212
Si Si6 0.277300 0.177142 0.882024
Si Si7 0.255337 0.461004 0.717282
O O1 0.725043 0.355124 0.681747
O O2 0.931944 0.523877 0.699885
O O3 0.904297 0.947655 0.598967
O O4 0.771500 0.523830 0.923421
O O5 0.603040 0.353600 0.523494
O O6 0.841380 0.387398 0.454094
O O7 0.654243 0.871685 0.737235
O O8 0.386146 0.370645 0.572982
O O9 0.423515 0.008538 0.809247
O O10 0.500000 0.500000 0.000000
O O11 0.500000 0.000000 0.000000
O O12 0.151103 0.324119 0.650975
O O13 0.266173 0.334093 0.806320
O O14 0.215051 0.869581 0.841832
#
# Coordination Sequence:
#
# PCOD9049077 Si02
#       7
#     2   2   1   2   2   2   2
#     4  11  25  46  75 103 146 192 255 305 361 430
#     4  11  23  43  70 103 139 191 239 302 351 445
#     4  10  24  46  68 106 142 194 230 292 362 454
#     4  12  24  41  68 104 142 182 230 297 365 424
#     4  10  26  47  71 104 141 204 248 301 361 440
#     4  12  26  46  73 112 146 191 241 309 367 434
#     4  11  27  48  73 107 150 194 243 295 375 437
#
# _framework density 25.453638999999999
#
# number of rings (size 3 to 8) (size 9 to 14) (size 15 to 20)
#    0.000    0.923    3.077    2.308    6.462    1.846 
#    0.000    0.000    0.000    0.000    0.000    0.000 
#    0.000    0.000    0.000    0.000    0.000    0.000 
#
# Total GULP energy -72573.428427 kJ/mol
# GULP energy per Si atom -5582.571417 kJ/mol
# Density = 2.539571 g / cm^3
# Si number density = 25.453639 Si / 1000 Ang^3
#
#
#
# Elastic Constant Matrix: (Units=GPa)
#
#
# Indices 1 2 3 4 5 6 
#
# 1 135.1835 28.7787 26.6224 -29.3393 12.3845 -15.4379
# 2 28.7787 158.2414 55.3410 -20.1852 27.1689 -23.5274
# 3 26.6224 55.3410 97.1368 -21.7559 9.0804 -17.2298
# 4 -29.3393 -20.1852 -21.7559 50.8558 -1.1485 22.7670
# 5 12.3845 27.1689 9.0804 -1.1485 37.8791 -8.1681
# 6 -15.4379 -23.5274 -17.2298 22.7670 -8.1681 33.9169
#
#
#
# Elastic Compliance Matrix: (Units=1/GPa)
#
#
# Indices 1 2 3 4 5 6 
#
# 1 0.008853 -0.000297 -0.001064 0.004671 -0.002376 -0.000425
# 2 -0.000297 0.009078 -0.004078 0.000385 -0.004850 0.002663
# 3 -0.001064 -0.004078 0.013844 0.002839 0.000455 0.001923
# 4 0.004671 0.000385 0.002839 0.032149 -0.005628 -0.019100
# 5 -0.002376 -0.004850 0.000455 -0.005628 0.031940 0.007255
# 6 -0.000425 0.002663 0.001923 -0.019100 0.007255 0.046684
#
#
# Mechanical properties :
#
#
# Convention : Reuss Voigt Hill
#
# Bulk Modulus (GPa) = 47.85636 68.00511 57.93074
# Shear Modulus (GPa) = 31.17355 43.18501 37.17928
#
# Velocity S-wave (km/s) = 3.50339 4.12347 3.82601
# Velocity P-wave (km/s) = 5.93357 7.03178 6.50589
#
# Compressibility (1/GPa) = 0.02089586
#
# Stress axis : x y z
#
# Youngs Moduli (GPa) = 112.95506 110.16107 72.23151
#
# Poissons Ratio (x) = 0.03275 0.07686
# Poissons Ratio (y) = 0.03358 0.29457
# Poissons Ratio (z) = 0.12019 0.44926
#
# Static dielectric constant tensor:
#      x y z
#    x 2.008220 0.029590 0.023080 
#    y 0.029590 2.055690 0.022170 
#    z 0.023080 0.022170 1.926500 
# 
# From -- ./inp_files/57886.got.cif
#   From: 2010.05.17/outbox.cif.g08.bks.cpg/sg2_29_cif.got.tgz:57886.got - 2010.06.03 11:33:40.
