data_PCOD9049205
_publ_section_title
;
Structure prediction by ZEFSAII (Michael W. Deem and Ramdas Pophale) SiO2 
 PCOD9049205
Probable space group: P -1
;
_chemical_formula_sum "Si O2"
_cell_formula_units_Z 15
_cell_length_a 9.273857
_cell_length_b 13.628925
_cell_length_c 12.783566
_cell_angle_alpha 46.584306
_cell_angle_beta 34.383729
_cell_angle_gamma 44.026890
_cell_volume 615.742866
_symmetry_space_group_name_H-M "P -1"
_symmetry_group_IT_number 2
_symmetry_cell_setting 'triclinic'
loop_
_space_group_symop_operation_xyz
x,y,z
-x,-y,-z
loop_
_atom_site_type_symbol
_atom_site_label
_atom_site_fract_x
_atom_site_fract_y
_atom_site_fract_z
Si Si1 0.795483 0.759140 0.366665
Si Si2 0.189177 0.038711 0.064823
Si Si3 0.000000 0.000000 0.000000
Si Si4 0.648298 0.386815 0.258476
Si Si5 0.771360 0.957091 0.725162
Si Si6 0.980580 0.319188 0.324668
Si Si7 0.808888 0.436256 0.905104
Si Si8 0.233461 0.712062 0.308392
O O1 0.000789 0.655859 0.233429
O O2 0.950623 0.724882 0.410819
O O3 0.531625 0.714851 0.557054
O O4 0.786932 0.918711 0.225636
O O5 0.461864 0.067561 0.846969
O O6 0.971882 0.079024 0.073329
O O7 0.279182 0.860143 0.143077
O O8 0.122436 0.086857 0.188122
O O9 0.816756 0.366147 0.280232
O O10 0.455768 0.559735 0.248163
O O11 0.812603 0.361398 0.070007
O O12 0.767198 0.825718 0.751631
O O13 0.000000 0.000000 0.500000
O O14 0.797186 0.289697 0.547263
O O15 0.085058 0.436756 0.222629
O O16 0.500000 0.500000 0.000000
#
# Coordination Sequence:
#
# PCOD9049205 Si02
#       8
#     2   2   1   2   2   2   2   2
#     4  11  25  46  69  97 138 179 228 276 344 401
#     4  10  24  46  70  93 138 180 225 280 332 404
#     4  10  26  46  70 100 132 180 226 280 332 392
#     4  12  25  43  69 104 138 173 225 288 335 398
#     4  11  24  44  67  96 135 182 225 268 343 403
#     4  12  26  42  70 105 137 176 228 282 336 405
#     4  12  25  45  70  98 134 182 227 273 342 408
#     4  11  21  45  67  97 136 183 220 277 343 395
#
# _framework density 24.36082
#
# number of rings (size 3 to 8) (size 9 to 14) (size 15 to 20)
#    0.000    0.800    4.000    2.800    5.600    0.000 
#    0.000    1.333    0.000    0.000    0.000    0.000 
#    0.000    0.000    0.000    0.000    0.000    0.000 
#
# Total GULP energy -83652.310513 kJ/mol
# GULP energy per Si atom -5576.820701 kJ/mol
# Density = 2.430537 g / cm^3
# Si number density = 24.360820 Si / 1000 Ang^3
#
#
#
# Elastic Constant Matrix: (Units=GPa)
#
#
# Indices 1 2 3 4 5 6 
#
# 1 127.6313 4.7287 4.8130 2.6785 12.5008 20.6679
# 2 4.7287 50.4623 7.4903 -6.7376 -8.2248 26.0214
# 3 4.8130 7.4903 115.6643 -0.9358 -1.6596 14.6196
# 4 2.6785 -6.7376 -0.9358 37.0723 15.0348 1.0944
# 5 12.5008 -8.2248 -1.6596 15.0348 51.0554 -3.4507
# 6 20.6679 26.0214 14.6196 1.0944 -3.4507 37.6738
#
#
#
# Elastic Compliance Matrix: (Units=1/GPa)
#
#
# Indices 1 2 3 4 5 6 
#
# 1 0.009117 0.002482 0.000330 0.001073 -0.002618 -0.007115
# 2 0.002482 0.033222 0.000939 0.006080 0.001313 -0.024729
# 3 0.000330 0.000939 0.009130 0.000544 -0.000090 -0.004397
# 4 0.001073 0.006080 0.000544 0.031914 -0.009121 -0.006761
# 5 -0.002618 0.001313 -0.000090 -0.009121 0.023323 0.002966
# 6 -0.007115 -0.024729 -0.004397 -0.006761 0.002966 0.049702
#
#
# Mechanical properties :
#
#
# Convention : Reuss Voigt Hill
#
# Bulk Modulus (GPa) = 16.95727 36.42466 26.69096
# Shear Modulus (GPa) = 29.66270 43.60870 36.63570
#
# Velocity S-wave (km/s) = 3.49325 4.23557 3.88219
# Velocity P-wave (km/s) = 4.82146 6.23736 5.57454
#
# Compressibility (1/GPa) = 0.05897176
#
# Stress axis : x y z
#
# Youngs Moduli (GPa) = 109.68811 30.10018 109.52902
#
# Poissons Ratio (x) = -0.07471 -0.03618
# Poissons Ratio (y) = -0.27225 -0.10284
# Poissons Ratio (z) = -0.03623 -0.02826
#
# Static dielectric constant tensor:
#      x y z
#    x 1.738210 -0.083510 0.142130 
#    y -0.083510 2.017020 -0.058230 
#    z 0.142130 -0.058230 1.833120 
# 
# From -- ./inp_files/398507.got.cif
#   From: 2010.05.17/outbox.cif.g08.bks.cpg/sg2_200_cif.got.tgz:398507.got - 2010.06.03 11:33:40.
