data_PCOD9049242
_publ_section_title
;
Structure prediction by ZEFSAII (Michael W. Deem and Ramdas Pophale) SiO2 
 PCOD9049242
Probable space group: P -1
;
_chemical_formula_sum "Si O2"
_cell_formula_units_Z 14
_cell_length_a 8.963126
_cell_length_b 13.505772
_cell_length_c 7.565728
_cell_angle_alpha 100.623700
_cell_angle_beta 104.032595
_cell_angle_gamma 38.258636
_cell_volume 550.160903
_symmetry_space_group_name_H-M "P -1"
_symmetry_group_IT_number 2
_symmetry_cell_setting 'triclinic'
loop_
_space_group_symop_operation_xyz
x,y,z
-x,-y,-z
loop_
_atom_site_type_symbol
_atom_site_label
_atom_site_fract_x
_atom_site_fract_y
_atom_site_fract_z
Si Si1 0.189284 0.815940 0.044294
Si Si2 0.986643 0.258834 0.289921
Si Si3 0.145242 0.445434 0.200117
Si Si4 0.003781 0.835230 0.376244
Si Si5 0.519856 0.369449 0.426473
Si Si6 0.699401 0.604001 0.279349
Si Si7 0.456686 0.083646 0.196519
O O1 0.109998 0.794230 0.193263
O O2 0.454307 0.729124 0.133467
O O3 0.165872 0.751963 0.852492
O O4 0.000000 0.000000 0.000000
O O5 0.980495 0.260571 0.500979
O O6 0.851269 0.425100 0.230821
O O7 0.269476 0.110933 0.265648
O O8 0.337496 0.438499 0.238471
O O9 0.312558 0.261362 0.200161
O O10 0.911197 0.578275 0.307686
O O11 0.000000 0.500000 0.000000
O O12 0.197692 0.807757 0.529160
O O13 0.716053 0.984208 0.316640
O O14 0.500000 0.500000 0.500000
O O15 0.391857 0.365263 0.537706
O O16 0.500000 0.000000 0.000000
#
# Coordination Sequence:
#
# PCOD9049242 Si02
#       7
#     2   2   2   2   2   2   2
#     4  11  26  42  68 108 148 194 239 310 366 444
#     4  11  23  45  73 102 143 195 247 302 369 443
#     4  11  28  43  74 106 146 195 246 302 372 447
#     4  11  25  45  74 102 146 190 250 297 376 432
#     4  11  24  46  73 108 143 189 245 307 365 445
#     4  10  24  46  71 102 144 191 246 295 370 441
#     4  11  25  47  70 107 148 193 246 310 375 439
#
# _framework density 25.447099000000001
#
# number of rings (size 3 to 8) (size 9 to 14) (size 15 to 20)
#    0.000    1.143    2.857    1.286    6.000    4.571 
#    0.000    0.000    0.000    0.000    0.000    0.000 
#    0.000    0.000    0.000    0.000    0.000    0.000 
#
# Total GULP energy -78035.891001 kJ/mol
# GULP energy per Si atom -5573.992214 kJ/mol
# Density = 2.538918 g / cm^3
# Si number density = 25.447099 Si / 1000 Ang^3
#
#
#
# Elastic Constant Matrix: (Units=GPa)
#
#
# Indices 1 2 3 4 5 6 
#
# 1 139.9023 65.0386 62.5457 -17.6294 26.2038 -40.9591
# 2 65.0386 133.0226 61.2772 -40.2336 30.9010 -35.6422
# 3 62.5457 61.2772 125.9451 -33.6299 8.6566 -6.0077
# 4 -17.6294 -40.2336 -33.6299 52.2667 -19.0978 21.4700
# 5 26.2038 30.9010 8.6566 -19.0978 64.7205 -5.8241
# 6 -40.9591 -35.6422 -6.0077 21.4700 -5.8241 63.3908
#
#
#
# Elastic Compliance Matrix: (Units=1/GPa)
#
#
# Indices 1 2 3 4 5 6 
#
# 1 0.013963 -0.002143 -0.006977 -0.006952 -0.004933 0.009057
# 2 -0.002143 0.013589 -0.003989 0.004203 -0.003475 0.004135
# 3 -0.006977 -0.003989 0.015133 0.009351 0.004740 -0.008048
# 4 -0.006952 0.004203 0.009351 0.034090 0.008536 -0.012004
# 5 -0.004933 -0.003475 0.004740 0.008536 0.020479 -0.005702
# 6 0.009057 0.004135 -0.008048 -0.012004 -0.005702 0.026732
#
#
# Mechanical properties :
#
#
# Convention : Reuss Voigt Hill
#
# Bulk Modulus (GPa) = 60.72680 86.28812 73.50746
# Shear Modulus (GPa) = 32.11478 50.07616 41.09547
#
# Velocity S-wave (km/s) = 3.55635 4.44086 4.02299
# Velocity P-wave (km/s) = 6.38586 7.76385 7.10833
#
# Compressibility (1/GPa) = 0.01646719
#
# Stress axis : x y z
#
# Youngs Moduli (GPa) = 71.61974 73.58765 66.08207
#
# Poissons Ratio (x) = 0.15769 0.46103
# Poissons Ratio (y) = 0.15347 0.26362
# Poissons Ratio (z) = 0.49966 0.29356
#
# Static dielectric constant tensor:
#      x y z
#    x 2.152980 -0.035580 -0.076030 
#    y -0.035580 2.027400 0.046220 
#    z -0.076030 0.046220 2.119880 
# 
# From -- ./inp_files/207869.got.cif
#   From: 2010.05.17/outbox.cif.g08.bks.cpg/sg2_104_cif.got.tgz:207869.got - 2010.06.03 11:33:40.
