data_PCOD9049171
_publ_section_title
;
Structure prediction by ZEFSAII (Michael W. Deem and Ramdas Pophale) SiO2 
 PCOD9049171
Probable space group: P -1
;
_chemical_formula_sum "Si O2"
_cell_formula_units_Z 10
_cell_length_a 16.385178
_cell_length_b 6.713932
_cell_length_c 5.046484
_cell_angle_alpha 93.361151
_cell_angle_beta 90.831811
_cell_angle_gamma 138.265758
_cell_volume 367.499274
_symmetry_space_group_name_H-M "P -1"
_symmetry_group_IT_number 2
_symmetry_cell_setting 'triclinic'
loop_
_space_group_symop_operation_xyz
x,y,z
-x,-y,-z
loop_
_atom_site_type_symbol
_atom_site_label
_atom_site_fract_x
_atom_site_fract_y
_atom_site_fract_z
Si Si1 0.685615 0.362281 0.403264
Si Si2 0.087443 0.194906 0.268497
Si Si3 0.253113 0.911593 0.889759
Si Si4 0.872815 0.274661 0.636000
Si Si5 0.528574 0.749949 0.688921
O O1 0.781177 0.655391 0.620550
O O2 0.594076 0.349072 0.254765
O O3 0.605126 0.054936 0.544695
O O4 0.757757 0.347533 0.200909
O O5 0.131210 0.500537 0.280821
O O6 0.000000 0.000000 0.500000
O O7 0.000000 0.000000 0.000000
O O8 0.156906 0.849184 0.078070
O O9 0.384688 0.157595 0.056620
O O10 0.228296 0.961200 0.606594
O O11 0.000000 0.500000 0.500000
O O12 0.500000 0.500000 0.500000
#
# Coordination Sequence:
#
# PCOD9049171 Si02
#       5
#     2   2   2   2   2
#     4  10  24  46  70 104 147 184 235 298 351 421
#     4  11  23  42  68  97 135 182 228 276 353 418
#     4  11  21  46  68  97 144 182 229 292 357 412
#     4  11  24  42  70  98 139 184 228 289 348 414
#     4  11  24  44  76 105 139 189 239 295 355 421
#
# _framework density 27.210937000000001
#
# number of rings (size 3 to 8) (size 9 to 14) (size 15 to 20)
#    0.000    1.200    4.000    3.600    0.000    4.000 
#    0.000    0.000    4.400    0.000    0.000    0.000 
#    0.000    0.000    0.000    0.000    0.000    0.000 
#
# Total GULP energy -55831.031469 kJ/mol
# GULP energy per Si atom -5583.103147 kJ/mol
# Density = 2.714900 g / cm^3
# Si number density = 27.210937 Si / 1000 Ang^3
#
#
#
# Elastic Constant Matrix: (Units=GPa)
#
#
# Indices 1 2 3 4 5 6 
#
# 1 111.2828 28.9900 43.4730 9.5207 2.7490 15.8796
# 2 28.9900 103.4084 65.6098 20.8484 3.5689 16.4827
# 3 43.4730 65.6098 246.8038 23.6959 11.6215 13.4768
# 4 9.5207 20.8484 23.6959 60.1443 18.7698 -3.7933
# 5 2.7490 3.5689 11.6215 18.7698 42.9930 1.9629
# 6 15.8796 16.4827 13.4768 -3.7933 1.9629 50.6009
#
#
#
# Elastic Compliance Matrix: (Units=1/GPa)
#
#
# Indices 1 2 3 4 5 6 
#
# 1 0.010279 -0.001570 -0.001189 -0.000859 0.000282 -0.002473
# 2 -0.001570 0.013123 -0.002723 -0.003951 0.001628 -0.003416
# 3 -0.001189 -0.002723 0.005089 -0.000633 -0.000792 -0.000112
# 4 -0.000859 -0.003951 -0.000633 0.021410 -0.008961 0.003678
# 5 0.000282 0.001628 -0.000792 -0.008961 0.027331 -0.002140
# 6 -0.002473 -0.003416 -0.000112 0.003678 -0.002140 0.022040
#
#
# Mechanical properties :
#
#
# Convention : Reuss Voigt Hill
#
# Bulk Modulus (GPa) = 57.05165 81.96006 69.50586
# Shear Modulus (GPa) = 43.07463 52.30912 47.69187
#
# Velocity S-wave (km/s) = 3.98300 4.38923 4.19104
# Velocity P-wave (km/s) = 6.49340 7.47481 7.00132
#
# Compressibility (1/GPa) = 0.01752798
#
# Stress axis : x y z
#
# Youngs Moduli (GPa) = 97.28651 76.20227 196.49148
#
# Poissons Ratio (x) = 0.11961 0.23365
# Poissons Ratio (y) = 0.15270 0.53502
# Poissons Ratio (z) = 0.11569 0.20749
#
# Static dielectric constant tensor:
#      x y z
#    x 2.290440 0.149930 -0.007930 
#    y 0.149930 2.402660 -0.203350 
#    z -0.007930 -0.203350 2.217370 
# 
# From -- ./inp_files/22543.got.cif
#   From: 2010.05.17/outbox.cif.g08.bks.cpg/sg2_12_cif.got.tgz:22543.got - 2010.06.03 11:33:40.
