data_PCOD9049704
_publ_section_title
;
Structure prediction by ZEFSAII (Michael W. Deem and Ramdas Pophale) SiO2 
 PCOD9049704
Probable space group: P -1
;
_chemical_formula_sum "Si O2"
_cell_formula_units_Z 14
_cell_length_a 17.606852
_cell_length_b 8.958573
_cell_length_c 4.914287
_cell_angle_alpha 81.740436
_cell_angle_beta 97.163549
_cell_angle_gamma 135.155462
_cell_volume 540.658926
_symmetry_space_group_name_H-M "P -1"
_symmetry_group_IT_number 2
_symmetry_cell_setting 'triclinic'
loop_
_space_group_symop_operation_xyz
x,y,z
-x,-y,-z
loop_
_atom_site_type_symbol
_atom_site_label
_atom_site_fract_x
_atom_site_fract_y
_atom_site_fract_z
Si Si1 0.595192 0.048658 0.377570
Si Si2 0.908254 0.262762 0.402271
Si Si3 0.567079 0.815815 0.905955
Si Si4 0.919944 0.714602 0.644616
Si Si5 0.662844 0.638397 0.212069
Si Si6 0.810436 0.851299 0.731864
Si Si7 0.189699 0.570386 0.838447
O O1 0.444378 0.084592 0.878846
O O2 0.692687 0.289349 0.267774
O O3 0.500000 0.000000 0.500000
O O4 0.629902 0.973256 0.637482
O O5 0.831264 0.277813 0.222715
O O6 0.000000 0.500000 0.500000
O O7 0.970576 0.225172 0.255103
O O8 0.850891 0.077901 0.647120
O O9 0.628224 0.757916 0.073306
O O10 0.448268 0.605080 0.806466
O O11 0.905190 0.868214 0.676153
O O12 0.891050 0.631973 0.343712
O O13 0.828974 0.509452 0.845147
O O14 0.761605 0.738426 0.028400
O O15 0.710793 0.694882 0.518782
#
# Coordination Sequence:
#
# PCOD9049704 Si02
#       7
#     2   2   2   2   2   2   2
#     4  12  26  41  70 102 142 181 229 284 340 404
#     4  10  24  47  72 102 136 181 230 284 345 422
#     4  11  24  45  65 100 139 179 240 275 338 403
#     4  11  25  43  69 102 139 177 229 287 342 404
#     4  11  25  43  72  97 136 187 224 287 335 416
#     4  12  25  43  72 101 139 176 234 283 354 401
#     4  11  24  44  69  99 140 185 227 277 347 408
#
# _framework density 25.894327000000001
#
# number of rings (size 3 to 8) (size 9 to 14) (size 15 to 20)
#    0.000    0.857    0.000    6.429    6.000    8.000 
#    0.000    5.000    0.000    0.000    0.000    0.000 
#    0.000    0.000    0.000    0.000    0.000    0.000 
#
# Total GULP energy -78507.842332 kJ/mol
# GULP energy per Si atom -5607.703024 kJ/mol
# Density = 2.583539 g / cm^3
# Si number density = 25.894327 Si / 1000 Ang^3
#
#
#
# Elastic Constant Matrix: (Units=GPa)
#
#
# Indices 1 2 3 4 5 6 
#
# 1 129.6295 7.9220 -9.4498 -4.4361 -0.0011 -11.9991
# 2 7.9220 81.1571 26.2428 1.6160 -1.0624 -6.8226
# 3 -9.4498 26.2428 92.4673 0.2490 2.2991 -3.2107
# 4 -4.4361 1.6160 0.2490 39.7535 0.0069 6.2619
# 5 -0.0011 -1.0624 2.2991 0.0069 36.6017 -12.8675
# 6 -11.9991 -6.8226 -3.2107 6.2619 -12.8675 39.4188
#
#
#
# Elastic Compliance Matrix: (Units=1/GPa)
#
#
# Indices 1 2 3 4 5 6 
#
# 1 0.008115 -0.000953 0.001168 0.000531 0.000806 0.002579
# 2 -0.000953 0.013958 -0.004008 -0.001037 0.001522 0.002461
# 3 0.001168 -0.004008 0.012103 0.000158 -0.000743 0.000380
# 4 0.000531 -0.001037 0.000158 0.025994 -0.001693 -0.004687
# 5 0.000806 0.001522 -0.000743 -0.001693 0.031251 0.010918
# 6 0.002579 0.002461 0.000380 -0.004687 0.010918 0.030919
#
#
# Mechanical properties :
#
#
# Convention : Reuss Voigt Hill
#
# Bulk Modulus (GPa) = 37.61005 39.18711 38.39858
# Shear Modulus (GPa) = 36.02575 41.72408 38.87491
#
# Velocity S-wave (km/s) = 3.73401 4.01848 3.87885
# Velocity P-wave (km/s) = 5.75729 6.05783 5.90947
#
# Compressibility (1/GPa) = 0.02658864
#
# Stress axis : x y z
#
# Youngs Moduli (GPa) = 123.23547 71.64133 82.62519
#
# Poissons Ratio (x) = 0.06827 -0.09649
# Poissons Ratio (y) = 0.11743 0.33120
# Poissons Ratio (z) = -0.14391 0.28717
#
# Static dielectric constant tensor:
#      x y z
#    x 2.116060 -0.026040 0.019610 
#    y -0.026040 2.033290 -0.021860 
#    z 0.019610 -0.021860 1.951840 
# 
# From -- ./inp_files/106712.got.cif
#   From: 2010.05.17/outbox.cif.g08.bks.cpg/sg2_54_cif.got.tgz:106712.got - 2010.06.03 11:33:40.
