data_PCOD9049504
_publ_section_title
;
Structure prediction by ZEFSAII (Michael W. Deem and Ramdas Pophale) SiO2 
 PCOD9049504
Probable space group: P -1
;
_chemical_formula_sum "Si O2"
_cell_formula_units_Z 13
_cell_length_a 9.553696
_cell_length_b 7.772810
_cell_length_c 11.240885
_cell_angle_alpha 101.394247
_cell_angle_beta 54.447132
_cell_angle_gamma 130.780535
_cell_volume 491.233677
_symmetry_space_group_name_H-M "P -1"
_symmetry_group_IT_number 2
_symmetry_cell_setting 'triclinic'
loop_
_space_group_symop_operation_xyz
x,y,z
-x,-y,-z
loop_
_atom_site_type_symbol
_atom_site_label
_atom_site_fract_x
_atom_site_fract_y
_atom_site_fract_z
Si Si1 0.946129 0.195137 0.368808
Si Si2 0.163712 0.107011 0.046163
Si Si3 0.777246 0.192159 0.876136
Si Si4 0.574452 0.492523 0.732764
Si Si5 0.640393 0.925897 0.687662
Si Si6 0.220841 0.662041 0.710101
Si Si7 0.500000 0.500000 0.500000
O O1 0.782814 0.226353 0.392439
O O2 0.067897 0.174961 0.200129
O O3 0.166521 0.407389 0.366697
O O4 0.782067 0.963255 0.504091
O O5 0.146988 0.910094 0.090111
O O6 0.417184 0.320056 0.895306
O O7 0.000000 0.000000 0.000000
O O8 0.949116 0.470054 0.856374
O O9 0.797958 0.159299 0.721422
O O10 0.500000 0.000000 0.000000
O O11 0.595867 0.720824 0.757643
O O12 0.475547 0.400795 0.636761
O O13 0.403909 0.851027 0.745822
O O14 0.307344 0.522789 0.628832
#
# Coordination Sequence:
#
# PCOD9049504 Si02
#       7
#     2   2   2   2   2   2   1
#     4  12  26  47  76 110 147 193 255 303 376 437
#     4  12  28  45  74 111 148 198 248 308 371 446
#     4  12  28  48  74 111 150 197 251 301 378 443
#     4  11  24  46  78 101 153 193 243 310 371 437
#     4  11  26  47  75 108 147 199 245 309 368 444
#     4  11  27  47  76 108 151 194 243 314 365 438
#     4  10  24  46  76 104 142 192 244 290 382 426
#
# _framework density 26.463982999999999
#
# number of rings (size 3 to 8) (size 9 to 14) (size 15 to 20)
#    0.000    0.615    1.538    5.077   12.923    4.308 
#    0.000    0.000    0.000    0.000    0.000    0.000 
#    0.000    0.000    0.000    0.000    0.000    0.000 
#
# Total GULP energy -72600.291967 kJ/mol
# GULP energy per Si atom -5584.637844 kJ/mol
# Density = 2.640375 g / cm^3
# Si number density = 26.463983 Si / 1000 Ang^3
#
#
#
# Elastic Constant Matrix: (Units=GPa)
#
#
# Indices 1 2 3 4 5 6 
#
# 1 135.3872 17.6283 -2.1601 -3.0445 9.0367 17.3125
# 2 17.6283 38.0943 27.5690 -14.0622 11.9382 22.8952
# 3 -2.1601 27.5690 139.9331 -16.6282 10.3779 10.7388
# 4 -3.0445 -14.0622 -16.6282 49.0241 5.5143 3.8613
# 5 9.0367 11.9382 10.3779 5.5143 39.3711 -2.3139
# 6 17.3125 22.8952 10.7388 3.8613 -2.3139 51.3370
#
#
#
# Elastic Compliance Matrix: (Units=1/GPa)
#
#
# Indices 1 2 3 4 5 6 
#
# 1 0.008095 -0.002833 0.000958 0.000310 -0.001398 -0.001753
# 2 -0.002833 0.063806 -0.006355 0.020661 -0.021603 -0.028699
# 3 0.000958 -0.006355 0.008556 0.001167 -0.000676 0.000603
# 4 0.000310 0.020661 0.001167 0.028990 -0.011425 -0.012259
# 5 -0.001398 -0.021603 -0.000676 -0.011425 0.034794 0.012675
# 6 -0.001753 -0.028699 0.000603 -0.012259 0.012675 0.034237
#
#
# Mechanical properties :
#
#
# Convention : Reuss Voigt Hill
#
# Bulk Modulus (GPa) = 15.62564 44.38767 30.00666
# Shear Modulus (GPa) = 23.11938 45.97162 34.54550
#
# Velocity S-wave (km/s) = 2.95891 4.17242 3.61692
# Velocity P-wave (km/s) = 4.19414 6.32625 5.36713
#
# Compressibility (1/GPa) = 0.06399738
#
# Stress axis : x y z
#
# Youngs Moduli (GPa) = 123.53503 15.67254 116.88221
#
# Poissons Ratio (x) = 0.04440 -0.11200
# Poissons Ratio (y) = 0.34997 0.74276
# Poissons Ratio (z) = -0.11837 0.09960
#
# Static dielectric constant tensor:
#      x y z
#    x 2.020270 0.119120 -0.069150 
#    y 0.119120 2.158600 0.122070 
#    z -0.069150 0.122070 2.087210 
# 
# From -- ./inp_files/152782.got.cif
#   From: 2010.05.17/outbox.cif.g08.bks.cpg/sg2_77_cif.got.tgz:152782.got - 2010.06.03 11:33:40.
