data_PCOD9049858
_publ_section_title
;
Structure prediction by ZEFSAII (Michael W. Deem and Ramdas Pophale) SiO2 
 PCOD9049858
Probable space group: P -1
;
_chemical_formula_sum "Si O2"
_cell_formula_units_Z 16
_cell_length_a 9.759267
_cell_length_b 26.058885
_cell_length_c 14.959424
_cell_angle_alpha 17.490120
_cell_angle_beta 137.807041
_cell_angle_gamma 136.202562
_cell_volume 765.762709
_symmetry_space_group_name_H-M "P -1"
_symmetry_group_IT_number 2
_symmetry_cell_setting 'triclinic'
loop_
_space_group_symop_operation_xyz
x,y,z
-x,-y,-z
loop_
_atom_site_type_symbol
_atom_site_label
_atom_site_fract_x
_atom_site_fract_y
_atom_site_fract_z
Si Si1 0.142434 0.852496 0.844484
Si Si2 0.523181 0.774360 0.036615
Si Si3 0.470403 0.357506 0.403456
Si Si4 0.570005 0.899355 0.336122
Si Si5 0.376599 0.481944 0.335306
Si Si6 0.905793 0.457544 0.152831
Si Si7 0.788226 0.068061 0.752576
Si Si8 0.206082 0.400293 0.951586
O O1 0.984371 0.687233 0.050507
O O2 0.270346 0.935271 0.851811
O O3 0.307440 0.817467 0.905265
O O4 0.000000 0.000000 0.500000
O O5 0.482694 0.667004 0.105286
O O6 0.618620 0.642074 0.370825
O O7 0.674072 0.944775 0.828550
O O8 0.474289 0.176214 0.657565
O O9 0.487387 0.386643 0.468425
O O10 0.247202 0.418951 0.170416
O O11 0.636505 0.485184 0.222058
O O12 0.366783 0.936114 0.231099
O O13 0.670406 0.746815 0.695104
O O14 0.139781 0.500342 0.169784
O O15 0.832789 0.262341 0.420077
O O16 0.879762 0.486890 0.197901
O O17 0.000000 0.000000 0.000000
#
# Coordination Sequence:
#
# PCOD9049858 Si02
#       8
#     2   2   2   2   2   2   2   2
#     4   9  18  33  60  83 108 148 195 230 270 338
#     4  10  22  39  59  81 111 155 195 224 283 342
#     4  11  21  36  59  89 116 144 187 244 282 322
#     4   9  18  34  57  87 109 144 190 234 280 333
#     4  11  23  39  58  82 119 152 187 233 284 341
#     4  11  19  37  60  87 111 152 194 226 280 341
#     4  11  19  34  62  84 109 149 193 231 274 343
#     4  10  17  34  61  84 109 146 194 233 273 330
#
# _framework density 20.894200999999999
#
# number of rings (size 3 to 8) (size 9 to 14) (size 15 to 20)
#    0.000    1.750    5.000    1.125    0.000    0.000 
#    0.000    5.000    0.000    0.000    0.000    0.000 
#    0.000    0.000    0.000    0.000    0.000    0.000 
#
# Total GULP energy -89363.723424 kJ/mol
# GULP energy per Si atom -5585.232714 kJ/mol
# Density = 2.084664 g / cm^3
# Si number density = 20.894201 Si / 1000 Ang^3
#
#
#
# Elastic Constant Matrix: (Units=GPa)
#
#
# Indices 1 2 3 4 5 6 
#
# 1 79.2449 58.1892 12.0069 -13.3061 13.2612 3.1117
# 2 58.1892 143.9932 41.9452 -53.7362 4.5618 5.7400
# 3 12.0069 41.9452 73.9525 -25.4255 11.8261 9.5765
# 4 -13.3061 -53.7362 -25.4255 39.2620 2.0298 9.4500
# 5 13.2612 4.5618 11.8261 2.0298 19.9898 3.2478
# 6 3.1117 5.7400 9.5765 9.4500 3.2478 32.6226
#
#
#
# Elastic Compliance Matrix: (Units=1/GPa)
#
#
# Indices 1 2 3 4 5 6 
#
# 1 0.021893 -0.012070 0.002384 -0.007567 -0.012868 0.002809
# 2 -0.012070 0.024347 0.001140 0.033097 0.000546 -0.013109
# 3 0.002384 0.001140 0.024195 0.021825 -0.016386 -0.012221
# 4 -0.007567 0.033097 0.021825 0.092050 -0.018896 -0.036292
# 5 -0.012868 0.000546 -0.016386 -0.018896 0.069317 0.004514
# 6 0.002809 -0.013109 -0.012221 -0.036292 0.004514 0.046344
#
#
# Mechanical properties :
#
#
# Convention : Reuss Voigt Hill
#
# Bulk Modulus (GPa) = 18.74656 57.94145 38.34400
# Shear Modulus (GPa) = 15.97343 30.71150 23.34247
#
# Velocity S-wave (km/s) = 2.76794 3.83803 3.34604
# Velocity P-wave (km/s) = 4.38257 6.88707 5.77229
#
# Compressibility (1/GPa) = 0.05334312
#
# Stress axis : x y z
#
# Youngs Moduli (GPa) = 45.67623 41.07274 41.33022
#
# Poissons Ratio (x) = 0.49574 -0.09853
# Poissons Ratio (y) = 0.55130 -0.04710
# Poissons Ratio (z) = -0.10889 -0.04681
#
# Static dielectric constant tensor:
#      x y z
#    x 1.719240 -0.031300 0.004640 
#    y -0.031300 1.802470 -0.005750 
#    z 0.004640 -0.005750 1.770690 
# 
# From -- ./inp_files/303125.got.cif
#   From: 2010.05.17/outbox.cif.g08.bks.cpg/sg2_152_cif.got.tgz:303125.got - 2010.06.03 11:33:40.
