data_PCOD9049266
_publ_section_title
;
Structure prediction by ZEFSAII (Michael W. Deem and Ramdas Pophale) SiO2 
 PCOD9049266
Probable space group: P -1
;
_chemical_formula_sum "Si O2"
_cell_formula_units_Z 14
_cell_length_a 5.501337
_cell_length_b 16.562249
_cell_length_c 8.619447
_cell_angle_alpha 63.542170
_cell_angle_beta 116.432814
_cell_angle_gamma 122.764688
_cell_volume 569.110491
_symmetry_space_group_name_H-M "P -1"
_symmetry_group_IT_number 2
_symmetry_cell_setting 'triclinic'
loop_
_space_group_symop_operation_xyz
x,y,z
-x,-y,-z
loop_
_atom_site_type_symbol
_atom_site_label
_atom_site_fract_x
_atom_site_fract_y
_atom_site_fract_z
Si Si1 0.282803 0.219126 0.518537
Si Si2 0.387412 0.890291 0.480024
Si Si3 0.272333 0.605180 0.008366
Si Si4 0.271575 0.596513 0.664874
Si Si5 0.851574 0.620623 0.292267
Si Si6 0.309588 0.774090 0.079142
Si Si7 0.337164 0.013944 0.090971
O O1 0.387124 0.159726 0.464944
O O2 0.450106 0.335601 0.422487
O O3 0.419369 0.209299 0.734920
O O4 0.926349 0.178527 0.468757
O O5 0.317389 0.924176 0.267060
O O6 0.500000 0.000000 0.500000
O O7 0.508685 0.598839 0.203183
O O8 0.197313 0.687679 0.993652
O O9 0.380938 0.629272 0.842001
O O10 0.000000 0.500000 0.000000
O O11 0.151692 0.477697 0.710148
O O12 0.009017 0.623714 0.498294
O O13 0.030381 0.725234 0.162658
O O14 0.441341 0.870341 0.921290
O O15 0.500000 0.000000 0.000000
O O16 0.000000 0.000000 0.000000
#
# Coordination Sequence:
#
# PCOD9049266 Si02
#       7
#     2   2   2   2   2   2   2
#     4  11  26  47  73 106 147 197 242 302 377 447
#     4  12  26  48  71 107 147 189 246 311 365 441
#     4  12  26  44  73 109 149 193 252 313 366 450
#     4  10  24  46  71 107 142 196 247 301 380 442
#     4  10  24  48  68 101 152 189 248 305 376 447
#     4  11  25  44  72 104 142 196 245 304 376 437
#     4  12  25  46  74 103 138 190 244 298 368 431
#
# _framework density 24.599793999999999
#
# number of rings (size 3 to 8) (size 9 to 14) (size 15 to 20)
#    0.000    0.857    4.286    0.857    8.000    2.857 
#    0.000    0.000    0.000    0.000    0.000    0.000 
#    0.000    0.000    0.000    0.000    0.000    0.000 
#
# Total GULP energy -78069.467295 kJ/mol
# GULP energy per Si atom -5576.390521 kJ/mol
# Density = 2.454380 g / cm^3
# Si number density = 24.599794 Si / 1000 Ang^3
#
#
#
# Elastic Constant Matrix: (Units=GPa)
#
#
# Indices 1 2 3 4 5 6 
#
# 1 124.3455 55.7619 23.7384 -0.8580 -12.4115 14.5552
# 2 55.7619 169.5498 13.1274 -4.8350 -6.8042 12.8703
# 3 23.7384 13.1274 42.8605 -8.6136 -7.2765 6.0400
# 4 -0.8580 -4.8350 -8.6136 42.7794 -0.6473 -15.8800
# 5 -12.4115 -6.8042 -7.2765 -0.6473 15.2686 6.2054
# 6 14.5552 12.8703 6.0400 -15.8800 6.2054 42.9092
#
#
#
# Elastic Compliance Matrix: (Units=1/GPa)
#
#
# Indices 1 2 3 4 5 6 
#
# 1 0.011358 -0.002847 -0.003955 -0.002431 0.007792 -0.004469
# 2 -0.002847 0.006992 -0.000131 0.000285 0.001234 -0.001186
# 3 -0.003955 -0.000131 0.028914 0.004957 0.011755 -0.002555
# 4 -0.002431 0.000285 0.004957 0.028376 -0.002729 0.010938
# 5 0.007792 0.001234 0.011755 -0.002729 0.085178 -0.017996
# 6 -0.004469 -0.001186 -0.002555 0.010938 -0.017996 0.032187
#
#
# Mechanical properties :
#
#
# Convention : Reuss Voigt Hill
#
# Bulk Modulus (GPa) = 29.94094 58.00123 43.97108
# Shear Modulus (GPa) = 22.93565 36.46665 29.70115
#
# Velocity S-wave (km/s) = 3.05676 3.85437 3.47850
# Velocity P-wave (km/s) = 4.96548 6.59070 5.83495
#
# Compressibility (1/GPa) = 0.03339909
#
# Stress axis : x y z
#
# Youngs Moduli (GPa) = 88.04604 143.02134 34.58565
#
# Poissons Ratio (x) = 0.40712 0.13677
# Poissons Ratio (y) = 0.25063 0.00453
# Poissons Ratio (z) = 0.34818 0.01874
#
# Static dielectric constant tensor:
#      x y z
#    x 2.062800 -0.132110 0.049580 
#    y -0.132110 2.032220 0.031580 
#    z 0.049580 0.031580 2.046080 
# 
# From -- ./inp_files/40073.got.cif
#   From: 2010.05.17/outbox.cif.g08.bks.cpg/sg2_21_cif.got.tgz:40073.got - 2010.06.03 11:33:40.
