data_PCOD9049447
_publ_section_title
;
Structure prediction by ZEFSAII (Michael W. Deem and Ramdas Pophale) SiO2 
 PCOD9049447
Probable space group: P -1
;
_chemical_formula_sum "Si O2"
_cell_formula_units_Z 12
_cell_length_a 8.374834
_cell_length_b 7.905761
_cell_length_c 8.640873
_cell_angle_alpha 99.460981
_cell_angle_beta 108.406877
_cell_angle_gamma 72.004647
_cell_volume 514.865071
_symmetry_space_group_name_H-M "P -1"
_symmetry_group_IT_number 2
_symmetry_cell_setting 'triclinic'
loop_
_space_group_symop_operation_xyz
x,y,z
-x,-y,-z
loop_
_atom_site_type_symbol
_atom_site_label
_atom_site_fract_x
_atom_site_fract_y
_atom_site_fract_z
Si Si1 0.252722 0.581995 0.864460
Si Si2 0.692355 0.007322 0.514613
Si Si3 0.991697 0.044416 0.182405
Si Si4 0.123474 0.244666 0.721958
Si Si5 0.520640 0.360140 0.342384
Si Si6 0.831736 0.474471 0.849593
O O1 0.086287 0.743647 0.787580
O O2 0.234528 0.381542 0.818408
O O3 0.396730 0.593679 0.785059
O O4 0.260236 0.614111 0.057255
O O5 0.648114 0.177994 0.415371
O O6 0.500000 0.000000 0.500000
O O7 0.808019 0.834558 0.433795
O O8 0.817264 0.023451 0.695097
O O9 0.868514 0.930186 0.199681
O O10 0.000000 0.000000 0.000000
O O11 0.924319 0.360798 0.713166
O O12 0.500000 0.500000 0.500000
O O13 0.321488 0.361393 0.236380
O O14 0.000000 0.500000 0.000000
#
# Coordination Sequence:
#
# PCOD9049447 Si02
#       6
#     2   2   2   2   2   2
#     4  11  25  46  78 109 148 196 244 307 370 433
#     4  12  29  48  72 113 150 193 249 307 369 437
#     4  12  26  49  78 109 149 194 248 304 370 444
#     4  11  24  48  76 110 145 193 249 297 373 440
#     4  12  26  46  73 109 150 189 246 307 361 436
#     4  10  24  46  74 107 143 196 243 292 371 437
#
# _framework density 23.307075999999999
#
# number of rings (size 3 to 8) (size 9 to 14) (size 15 to 20)
#    0.000    0.667    3.333    3.000    7.000    0.667 
#    6.000    4.167    0.000    0.000    0.000    0.000 
#    0.000    0.000    0.000    0.000    0.000    0.000 
#
# Total GULP energy -66916.919316 kJ/mol
# GULP energy per Si atom -5576.409943 kJ/mol
# Density = 2.325403 g / cm^3
# Si number density = 23.307076 Si / 1000 Ang^3
#
#
#
# Elastic Constant Matrix: (Units=GPa)
#
#
# Indices 1 2 3 4 5 6 
#
# 1 130.7340 39.9069 82.4961 2.6980 -17.2394 -19.3285
# 2 39.9069 103.2227 55.3629 0.3970 12.8649 -17.0260
# 3 82.4961 55.3629 96.6389 2.6782 5.4450 -38.6189
# 4 2.6980 0.3970 2.6782 44.2022 -16.2751 -0.9355
# 5 -17.2394 12.8649 5.4450 -16.2751 47.1157 -0.6042
# 6 -19.3285 -17.0260 -38.6189 -0.9355 -0.6042 42.7124
#
#
#
# Elastic Compliance Matrix: (Units=1/GPa)
#
#
# Indices 1 2 3 4 5 6 
#
# 1 0.024618 0.001755 -0.028266 0.004800 0.013281 -0.013425
# 2 0.001755 0.014720 -0.011184 -0.000481 -0.002295 -0.003494
# 3 -0.028266 -0.011184 0.054640 -0.006497 -0.015440 0.031793
# 4 0.004800 -0.000481 -0.006497 0.027060 0.011946 -0.003132
# 5 0.013281 -0.002295 -0.015440 0.011946 0.032517 -0.008143
# 6 -0.013425 -0.003494 0.031793 -0.003132 -0.008143 0.044507
#
#
# Mechanical properties :
#
#
# Convention : Reuss Voigt Hill
#
# Bulk Modulus (GPa) = 53.80468 76.23636 65.02052
# Shear Modulus (GPa) = 17.87963 36.99471 27.43717
#
# Velocity S-wave (km/s) = 2.77272 3.98838 3.43476
# Velocity P-wave (km/s) = 5.77805 7.34780 6.60969
#
# Compressibility (1/GPa) = 0.01858575
#
# Stress axis : x y z
#
# Youngs Moduli (GPa) = 40.62138 67.93677 18.30159
#
# Poissons Ratio (x) = -0.11924 0.51732
# Poissons Ratio (y) = -0.07130 0.20469
# Poissons Ratio (z) = 1.14822 0.75983
#
# Static dielectric constant tensor:
#      x y z
#    x 1.936830 0.030570 -0.016320 
#    y 0.030570 1.926130 0.047830 
#    z -0.016320 0.047830 1.967530 
# 
# From -- ./inp_files/155665.got.cif
#   From: 2010.05.17/outbox.cif.g08.bks.cpg/sg2_78_cif.got.tgz:155665.got - 2010.06.03 11:33:40.
