data_PCOD9049895
_publ_section_title
;
Structure prediction by ZEFSAII (Michael W. Deem and Ramdas Pophale) SiO2 
 PCOD9049895
Probable space group: P -1
;
_chemical_formula_sum "Si O2"
_cell_formula_units_Z 16
_cell_length_a 8.112641
_cell_length_b 16.549264
_cell_length_c 5.372539
_cell_angle_alpha 91.468707
_cell_angle_beta 64.454024
_cell_angle_gamma 74.944082
_cell_volume 620.559712
_symmetry_space_group_name_H-M "P -1"
_symmetry_group_IT_number 2
_symmetry_cell_setting 'triclinic'
loop_
_space_group_symop_operation_xyz
x,y,z
-x,-y,-z
loop_
_atom_site_type_symbol
_atom_site_label
_atom_site_fract_x
_atom_site_fract_y
_atom_site_fract_z
Si Si1 0.579891 0.444933 0.192488
Si Si2 0.630920 0.975101 0.162479
Si Si3 0.969387 0.216912 0.427998
Si Si4 0.630228 0.270164 0.970528
Si Si5 0.885823 0.503136 0.828297
Si Si6 0.238974 0.876994 0.790354
Si Si7 0.240302 0.306559 0.008283
Si Si8 0.699863 0.818621 0.399345
O O1 0.500000 0.500000 0.500000
O O2 0.563641 0.350858 0.201519
O O3 0.500000 0.500000 0.000000
O O4 0.796982 0.430329 0.963187
O O5 0.723582 0.875655 0.149772
O O6 0.500000 0.000000 0.500000
O O7 0.780766 0.028843 0.092286
O O8 0.500000 0.000000 0.000000
O O9 0.890594 0.144387 0.343229
O O10 0.060941 0.281511 0.228378
O O11 0.149044 0.172556 0.492115
O O12 0.766855 0.281324 0.661667
O O13 0.775423 0.187704 0.992543
O O14 0.441941 0.250879 0.990107
O O15 0.751294 0.600062 0.935930
O O16 0.000000 0.500000 0.500000
O O17 0.000000 0.500000 0.000000
O O18 0.471238 0.844094 0.591308
O O19 0.243099 0.280052 0.717783
#
# Coordination Sequence:
#
# PCOD9049895 Si02
#       8
#     2   2   2   2   2   2   2   2
#     4  12  28  48  74 110 147 200 261 321 388 462
#     4  10  24  47  80 114 154 202 256 315 389 459
#     4  12  27  46  75 118 149 208 259 318 387 468
#     4  12  26  48  76 107 156 201 261 322 393 468
#     4  12  29  49  74 111 155 202 260 325 391 466
#     4  11  25  46  79 110 155 203 254 317 390 460
#     4  12  26  48  78 105 156 207 256 324 391 463
#     4  11  25  47  77 111 155 199 259 317 385 462
#
# _framework density 25.783175
#
# number of rings (size 3 to 8) (size 9 to 14) (size 15 to 20)
#    0.000    0.500    3.750    3.000   12.250    0.500 
#    0.000    2.500    0.000    0.000    0.000    0.000 
#    0.000    0.000    0.000    0.000    0.000    0.000 
#
# Total GULP energy -89142.918226 kJ/mol
# GULP energy per Si atom -5571.432389 kJ/mol
# Density = 2.572449 g / cm^3
# Si number density = 25.783175 Si / 1000 Ang^3
#
#
#
# Elastic Constant Matrix: (Units=GPa)
#
#
# Indices 1 2 3 4 5 6 
#
# 1 179.5991 20.8961 48.8074 -6.6250 16.7285 32.1712
# 2 20.8961 84.8015 18.2812 4.8686 7.1998 29.9087
# 3 48.8074 18.2812 120.3054 -1.1013 4.2579 13.3350
# 4 -6.6250 4.8686 -1.1013 40.3197 -2.0678 9.5742
# 5 16.7285 7.1998 4.2579 -2.0678 49.0908 -3.0156
# 6 32.1712 29.9087 13.3350 9.5742 -3.0156 45.3786
#
#
#
# Elastic Compliance Matrix: (Units=1/GPa)
#
#
# Indices 1 2 3 4 5 6 
#
# 1 0.007511 0.000824 -0.002408 0.002313 -0.002732 -0.005829
# 2 0.000824 0.016036 -0.001425 0.000628 -0.003163 -0.011077
# 3 -0.002408 -0.001425 0.009517 0.000083 0.000198 -0.000154
# 4 0.002313 0.000628 0.000083 0.026943 -0.000230 -0.007778
# 5 -0.002732 -0.003163 0.000198 -0.000230 0.022075 0.005479
# 6 -0.005829 -0.011077 -0.000154 -0.007778 0.005479 0.035521
#
#
# Mechanical properties :
#
#
# Convention : Reuss Voigt Hill
#
# Bulk Modulus (GPa) = 36.97827 62.29726 49.63777
# Shear Modulus (GPa) = 37.69717 46.73923 42.21820
#
# Velocity S-wave (km/s) = 3.82787 4.26229 4.05091
# Velocity P-wave (km/s) = 5.82322 6.95969 6.41667
#
# Compressibility (1/GPa) = 0.02704291
#
# Stress axis : x y z
#
# Youngs Moduli (GPa) = 133.14639 62.36074 105.07967
#
# Poissons Ratio (x) = -0.05136 0.25305
# Poissons Ratio (y) = -0.10965 0.14978
# Poissons Ratio (z) = 0.32063 0.08889
#
# Static dielectric constant tensor:
#      x y z
#    x 2.029780 -0.170330 -0.017280 
#    y -0.170330 2.224970 0.112890 
#    z -0.017280 0.112890 2.379390 
# 
# From -- ./inp_files/48188.got.cif
#   From: 2010.05.17/outbox.cif.g08.bks.cpg/sg2_25_cif.got.tgz:48188.got - 2010.06.03 11:33:40.
