data_PCOD9049627
_publ_section_title
;
Structure prediction by ZEFSAII (Michael W. Deem and Ramdas Pophale) SiO2 
 PCOD9049627
Probable space group: P -1
;
_chemical_formula_sum "Si O2"
_cell_formula_units_Z 14
_cell_length_a 9.484934
_cell_length_b 19.068806
_cell_length_c 13.329614
_cell_angle_alpha 158.764832
_cell_angle_beta 136.258712
_cell_angle_gamma 38.221561
_cell_volume 539.741959
_symmetry_space_group_name_H-M "P -1"
_symmetry_group_IT_number 2
_symmetry_cell_setting 'triclinic'
loop_
_space_group_symop_operation_xyz
x,y,z
-x,-y,-z
loop_
_atom_site_type_symbol
_atom_site_label
_atom_site_fract_x
_atom_site_fract_y
_atom_site_fract_z
Si Si1 0.040057 0.917355 0.271419
Si Si2 0.409319 0.738854 0.074546
Si Si3 0.731329 0.587980 0.230980
Si Si4 0.553963 0.624147 0.550446
Si Si5 0.685680 0.826999 0.176996
Si Si6 0.852995 0.388348 0.580407
Si Si7 0.490211 0.871031 0.673966
O O1 0.151637 0.877847 0.165326
O O2 0.835048 0.955137 0.440098
O O3 0.118171 0.671941 0.025392
O O4 0.772144 0.061942 0.341517
O O5 0.555838 0.639705 0.118548
O O6 0.528675 0.859530 0.235222
O O7 0.426318 0.554571 0.760102
O O8 0.604838 0.688754 0.404550
O O9 0.885731 0.709396 0.446094
O O10 0.726871 0.501687 0.563977
O O11 0.300696 0.714695 0.588849
O O12 0.615049 0.785750 0.730408
O O13 0.534901 0.920250 0.123012
O O14 0.831956 0.573168 0.896247
#
# Coordination Sequence:
#
# PCOD9049627 Si02
#       7
#     2   2   2   2   2   2   2
#     4  12  24  43  65 105 139 168 218 291 321 402
#     4  11  24  42  71  99 136 177 223 274 342 389
#     4  12  25  43  69 102 136 180 217 277 340 396
#     4  10  24  47  69  97 134 184 222 272 336 404
#     4  11  24  40  66 104 135 169 225 278 327 401
#     4  10  25  46  68  97 139 176 228 272 330 405
#     4  12  25  41  70 100 138 174 222 272 342 391
#
# _framework density 25.938320000000001
#
# number of rings (size 3 to 8) (size 9 to 14) (size 15 to 20)
#    0.000    0.857    4.286    2.143    4.000    2.286 
#    0.000    0.000    0.000    5.143    0.000    0.000 
#    0.000    0.000    0.000    0.000    0.000    0.000 
#
# Total GULP energy -78314.260520 kJ/mol
# GULP energy per Si atom -5593.875751 kJ/mol
# Density = 2.587928 g / cm^3
# Si number density = 25.938320 Si / 1000 Ang^3
#
#
#
# Elastic Constant Matrix: (Units=GPa)
#
#
# Indices 1 2 3 4 5 6 
#
# 1 167.5159 32.3330 30.5955 -7.5195 -39.6582 5.0948
# 2 32.3330 67.7891 24.8167 -0.9428 -26.9993 12.0546
# 3 30.5955 24.8167 89.7172 -11.8020 -14.7145 -8.8818
# 4 -7.5195 -0.9428 -11.8020 24.6042 -0.0243 -7.0554
# 5 -39.6582 -26.9993 -14.7145 -0.0243 40.4148 1.1746
# 6 5.0948 12.0546 -8.8818 -7.0554 1.1746 52.3034
#
#
#
# Elastic Compliance Matrix: (Units=1/GPa)
#
#
# Indices 1 2 3 4 5 6 
#
# 1 0.008097 -0.000269 -0.001378 0.001548 0.007291 -0.000916
# 2 -0.000269 0.023514 -0.005370 -0.003786 0.013694 -0.007123
# 3 -0.001378 -0.005370 0.014657 0.007812 0.000259 0.004909
# 4 0.001548 -0.003786 0.007812 0.047120 0.001619 0.008368
# 5 0.007291 0.013694 0.000259 0.001619 0.041274 -0.004531
# 6 -0.000916 -0.007123 0.004909 0.008368 -0.004531 0.022914
#
#
# Mechanical properties :
#
#
# Convention : Reuss Voigt Hill
#
# Bulk Modulus (GPa) = 31.02239 55.61252 43.31745
# Shear Modulus (GPa) = 27.41919 39.28294 33.35106
#
# Velocity S-wave (km/s) = 3.25482 3.89585 3.58967
# Velocity P-wave (km/s) = 5.10991 6.45939 5.82387
#
# Compressibility (1/GPa) = 0.03223478
#
# Stress axis : x y z
#
# Youngs Moduli (GPa) = 123.50793 42.52784 68.22486
#
# Poissons Ratio (x) = 0.01144 0.09401
# Poissons Ratio (y) = 0.03323 0.36634
# Poissons Ratio (z) = 0.17018 0.22836
#
# Static dielectric constant tensor:
#      x y z
#    x 2.064580 0.034910 0.036090 
#    y 0.034910 2.079610 0.063260 
#    z 0.036090 0.063260 2.076450 
# 
# From -- ./inp_files/403586.got.cif
#   From: 2010.05.17/outbox.cif.g08.bks.cpg/sg2_202_cif.got.tgz:403586.got - 2010.06.03 11:33:40.
