data_PCOD9049373
_publ_section_title
;
Structure prediction by ZEFSAII (Michael W. Deem and Ramdas Pophale) SiO2 
 PCOD9049373
Probable space group: P -1
;
_chemical_formula_sum "Si O2"
_cell_formula_units_Z 16
_cell_length_a 18.143363
_cell_length_b 8.677023
_cell_length_c 11.819289
_cell_angle_alpha 38.984502
_cell_angle_beta 43.830195
_cell_angle_gamma 40.141178
_cell_volume 716.593489
_symmetry_space_group_name_H-M "P -1"
_symmetry_group_IT_number 2
_symmetry_cell_setting 'triclinic'
loop_
_space_group_symop_operation_xyz
x,y,z
-x,-y,-z
loop_
_atom_site_type_symbol
_atom_site_label
_atom_site_fract_x
_atom_site_fract_y
_atom_site_fract_z
Si Si1 0.089730 0.386875 0.295116
Si Si2 0.130143 0.858242 0.101635
Si Si3 0.486618 0.433550 0.424817
Si Si4 0.577962 0.783011 0.699136
Si Si5 0.079155 0.563440 0.967477
Si Si6 0.606633 0.412647 0.088179
Si Si7 0.207861 0.758333 0.544239
Si Si8 0.843866 0.399267 0.545518
O O1 0.120710 0.600325 0.204373
O O2 0.947185 0.488293 0.397911
O O3 0.154741 0.080093 0.450235
O O4 0.127422 0.361404 0.135944
O O5 0.135479 0.821590 0.252374
O O6 0.257230 0.830204 0.936911
O O7 0.014128 0.142914 0.041491
O O8 0.500000 0.500000 0.500000
O O9 0.571405 0.490367 0.212328
O O10 0.347963 0.621493 0.439514
O O11 0.522548 0.110070 0.564765
O O12 0.488405 0.685813 0.795064
O O13 0.708834 0.639445 0.577780
O O14 0.595593 0.660616 0.877170
O O15 0.180452 0.599321 0.766006
O O16 0.000000 0.500000 0.000000
O O17 0.143249 0.727949 0.520266
#
# Coordination Sequence:
#
# PCOD9049373 Si02
#       8
#     2   2   2   2   2   2   2   2
#     4  12  26  45  70 103 147 183 227 294 348 408
#     4  11  26  44  72 105 140 185 234 291 347 407
#     4  12  29  44  71 104 141 181 230 293 353 414
#     4  10  24  46  73 100 131 189 234 287 339 413
#     4  12  26  43  70 105 137 187 232 285 344 414
#     4  10  24  47  70 100 135 181 238 281 347 410
#     4  12  27  47  68 104 142 187 234 282 354 418
#     4  11  22  46  73  98 141 184 234 280 343 421
#
# _framework density 22.327860000000001
#
# number of rings (size 3 to 8) (size 9 to 14) (size 15 to 20)
#    0.000    0.750    3.750    2.250    8.750    1.500 
#    0.000    0.000    0.000    0.000    0.000    0.000 
#    0.000    0.000    0.000    0.000    0.000    0.000 
#
# Total GULP energy -89602.050566 kJ/mol
# GULP energy per Si atom -5600.128160 kJ/mol
# Density = 2.227704 g / cm^3
# Si number density = 22.327860 Si / 1000 Ang^3
#
#
#
# Elastic Constant Matrix: (Units=GPa)
#
#
# Indices 1 2 3 4 5 6 
#
# 1 45.8465 9.4492 8.9233 0.8114 8.8533 4.9829
# 2 9.4492 70.3429 17.2858 4.8525 -19.2514 0.1418
# 3 8.9233 17.2858 103.0873 30.6266 8.9871 6.5075
# 4 0.8114 4.8525 30.6266 36.2207 10.4221 -4.3814
# 5 8.8533 -19.2514 8.9871 10.4221 31.9721 11.5680
# 6 4.9829 0.1418 6.5075 -4.3814 11.5680 26.2834
#
#
#
# Elastic Compliance Matrix: (Units=1/GPa)
#
#
# Indices 1 2 3 4 5 6 
#
# 1 0.026033 -0.007408 -0.001870 0.006467 -0.014318 0.002948
# 2 -0.007408 0.022449 -0.001817 -0.008944 0.022488 -0.009655
# 3 -0.001870 -0.001817 0.014281 -0.013092 0.001920 -0.006199
# 4 0.006467 -0.008944 -0.013092 0.050661 -0.028323 0.022974
# 5 -0.014318 0.022488 0.001920 -0.028323 0.069482 -0.033185
# 6 0.002948 -0.009655 -0.006199 0.022974 -0.033185 0.057510
#
#
# Mechanical properties :
#
#
# Convention : Reuss Voigt Hill
#
# Bulk Modulus (GPa) = 24.64785 32.28816 28.46801
# Shear Modulus (GPa) = 18.10748 31.13647 24.62197
#
# Velocity S-wave (km/s) = 2.85086 3.73837 3.32437
# Velocity P-wave (km/s) = 4.67970 5.75553 5.24527
#
# Compressibility (1/GPa) = 0.04057148
#
# Stress axis : x y z
#
# Youngs Moduli (GPa) = 38.41292 44.54637 70.02530
#
# Poissons Ratio (x) = 0.33000 0.13098
# Poissons Ratio (y) = 0.28456 0.12722
# Poissons Ratio (z) = 0.07185 0.08093
#
# Static dielectric constant tensor:
#      x y z
#    x 1.864490 -0.021570 0.023660 
#    y -0.021570 1.807370 0.006000 
#    z 0.023660 0.006000 1.826000 
# 
# From -- ./inp_files/278473.got.cif
#   From: 2010.05.17/outbox.cif.g08.bks.cpg/sg2_140_cif.got.tgz:278473.got - 2010.06.03 11:33:40.
