data_PCOD9049761
_publ_section_title
;
Structure prediction by ZEFSAII (Michael W. Deem and Ramdas Pophale) SiO2 
 PCOD9049761
Probable space group: P -1
;
_chemical_formula_sum "Si O2"
_cell_formula_units_Z 12
_cell_length_a 11.826436
_cell_length_b 5.142355
_cell_length_c 12.456223
_cell_angle_alpha 109.879060
_cell_angle_beta 126.520016
_cell_angle_gamma 49.380904
_cell_volume 460.709275
_symmetry_space_group_name_H-M "P -1"
_symmetry_group_IT_number 2
_symmetry_cell_setting 'triclinic'
loop_
_space_group_symop_operation_xyz
x,y,z
-x,-y,-z
loop_
_atom_site_type_symbol
_atom_site_label
_atom_site_fract_x
_atom_site_fract_y
_atom_site_fract_z
Si Si1 0.938602 0.294661 0.376054
Si Si2 0.704377 0.761641 0.110756
Si Si3 0.147481 0.568426 0.080311
Si Si4 0.702996 0.006035 0.753591
Si Si5 0.316693 0.868767 0.472783
Si Si6 0.337743 0.721408 0.692030
O O1 0.805416 0.494829 0.228463
O O2 0.826347 0.286860 0.406042
O O3 0.000000 0.500000 0.500000
O O4 0.120848 0.962563 0.383247
O O5 0.714285 0.063052 0.198616
O O6 0.788238 0.564246 0.021461
O O7 0.500000 0.000000 0.000000
O O8 0.159424 0.891727 0.143413
O O9 0.270391 0.299344 0.204992
O O10 0.000000 0.500000 0.000000
O O11 0.698863 0.929612 0.614878
O O12 0.521378 0.351163 0.741077
O O13 0.500000 0.500000 0.500000
O O14 0.344937 0.913765 0.619906
#
# Coordination Sequence:
#
# PCOD9049761 Si02
#       6
#     2   2   2   2   2   2
#     4  12  26  45  78 113 147 200 264 323 390 464
#     4  12  26  46  75 109 155 200 255 321 388 467
#     4  12  27  45  72 107 153 204 258 315 389 467
#     4  11  26  48  71 107 154 203 257 317 391 463
#     4  10  24  47  73 108 149 196 254 324 387 459
#     4  11  25  45  74 109 150 196 260 319 390 458
#
# _framework density 26.046796000000001
#
# number of rings (size 3 to 8) (size 9 to 14) (size 15 to 20)
#    0.000    0.667    3.333    3.000    4.667    2.667 
#    0.000    4.167    0.000    0.000    0.000    0.000 
#    0.000    0.000    0.000    0.000    0.000    0.000 
#
# Total GULP energy -66827.484272 kJ/mol
# GULP energy per Si atom -5568.957023 kJ/mol
# Density = 2.598751 g / cm^3
# Si number density = 26.046796 Si / 1000 Ang^3
#
#
#
# Elastic Constant Matrix: (Units=GPa)
#
#
# Indices 1 2 3 4 5 6 
#
# 1 132.9239 56.9053 65.8574 -1.3568 -4.1759 -8.1993
# 2 56.9053 99.2542 26.4533 -15.5725 0.1959 -9.8391
# 3 65.8574 26.4533 114.7518 -6.6993 -19.1051 9.1397
# 4 -1.3568 -15.5725 -6.6993 53.1062 -5.7393 11.3841
# 5 -4.1759 0.1959 -19.1051 -5.7393 72.9918 -6.6096
# 6 -8.1993 -9.8391 9.1397 11.3841 -6.6096 50.8830
#
#
#
# Elastic Compliance Matrix: (Units=1/GPa)
#
#
# Indices 1 2 3 4 5 6 
#
# 1 0.013801 -0.006230 -0.007062 -0.003086 -0.001027 0.002845
# 2 -0.006230 0.014211 0.000483 0.003910 0.000111 0.000797
# 3 -0.007062 0.000483 0.013623 0.002807 0.003044 -0.003724
# 4 -0.003086 0.003910 0.002807 0.021479 0.001800 -0.004817
# 5 -0.001027 0.000111 0.003044 0.001800 0.014653 0.000810
# 6 0.002845 0.000797 -0.003724 -0.004817 0.000810 0.022117
#
#
# Mechanical properties :
#
#
# Convention : Reuss Voigt Hill
#
# Bulk Modulus (GPa) = 62.43600 71.70688 67.07144
# Shear Modulus (GPa) = 38.21412 48.57714 43.39563
#
# Velocity S-wave (km/s) = 3.83447 4.32324 4.08617
# Velocity P-wave (km/s) = 6.60507 7.24640 6.93316
#
# Compressibility (1/GPa) = 0.01601640
#
# Stress axis : x y z
#
# Youngs Moduli (GPa) = 72.45867 70.36943 73.40346
#
# Poissons Ratio (x) = 0.43844 0.51838
# Poissons Ratio (y) = 0.45145 -0.03547
# Poissons Ratio (z) = 0.51170 -0.03400
#
# Static dielectric constant tensor:
#      x y z
#    x 1.940520 0.013090 -0.026290 
#    y 0.013090 2.180890 -0.080050 
#    z -0.026290 -0.080050 2.039510 
# 
# From -- ./inp_files/21999.got.cif
#   From: 2010.05.17/outbox.cif.g08.bks.cpg/sg2_11_cif.got.tgz:21999.got - 2010.06.03 11:33:40.
