data_PCOD9049253
_publ_section_title
;
Structure prediction by ZEFSAII (Michael W. Deem and Ramdas Pophale) SiO2 
 PCOD9049253
Probable space group: P -1
;
_chemical_formula_sum "Si O2"
_cell_formula_units_Z 14
_cell_length_a 12.806420
_cell_length_b 9.751155
_cell_length_c 15.533346
_cell_angle_alpha 40.548114
_cell_angle_beta 25.826768
_cell_angle_gamma 45.276009
_cell_volume 548.028050
_symmetry_space_group_name_H-M "P -1"
_symmetry_group_IT_number 2
_symmetry_cell_setting 'triclinic'
loop_
_space_group_symop_operation_xyz
x,y,z
-x,-y,-z
loop_
_atom_site_type_symbol
_atom_site_label
_atom_site_fract_x
_atom_site_fract_y
_atom_site_fract_z
Si Si1 0.765883 0.103359 0.679306
Si Si2 0.564826 0.817740 0.723905
Si Si3 0.416624 0.744379 0.434236
Si Si4 0.886065 0.687893 0.861662
Si Si5 0.335238 0.711392 0.776902
Si Si6 0.846098 0.846708 0.337399
Si Si7 0.091341 0.436920 0.292132
O O1 0.591832 0.186973 0.692687
O O2 0.867265 0.304196 0.555468
O O3 0.720998 0.901769 0.867266
O O4 0.000000 0.000000 0.500000
O O5 0.398945 0.699427 0.837391
O O6 0.794854 0.836383 0.481532
O O7 0.668171 0.688970 0.790764
O O8 0.465818 0.056075 0.705112
O O9 0.500000 0.500000 0.500000
O O10 0.143897 0.749876 0.671449
O O11 0.939260 0.583523 0.777559
O O12 0.756589 0.500973 0.091759
O O13 0.593078 0.773611 0.518859
O O14 0.145234 0.910770 0.810657
O O15 0.052915 0.674406 0.240883
#
# Coordination Sequence:
#
# PCOD9049253 Si02
#       7
#     2   2   2   2   2   2   2
#     4   8  16  32  53  77 109 135 172 221 279 306
#     4  10  18  36  56  77 109 144 183 212 271 329
#     4  10  19  33  58  83 107 142 181 224 275 323
#     4  10  19  37  56  81 110 139 180 235 270 303
#     4   9  22  36  53  78 114 146 177 226 270 314
#     4   9  21  36  54  76 115 152 178 206 284 325
#     4  10  17  34  60  81 102 149 180 220 266 332
#
# _framework density 25.546137999999999
#
# number of rings (size 3 to 8) (size 9 to 14) (size 15 to 20)
#    0.857    2.000    4.286    0.429    4.000    1.143 
#    0.000    1.429    0.000    0.000    0.000    0.000 
#    0.000    0.000    0.000    0.000    0.000    0.000 
#
# Total GULP energy -78095.804506 kJ/mol
# GULP energy per Si atom -5578.271750 kJ/mol
# Density = 2.548799 g / cm^3
# Si number density = 25.546138 Si / 1000 Ang^3
#
#
#
# Elastic Constant Matrix: (Units=GPa)
#
#
# Indices 1 2 3 4 5 6 
#
# 1 41.5188 -7.2341 -2.5045 2.6912 6.1221 -7.5452
# 2 -7.2341 143.4598 18.4681 -21.6261 6.7517 -8.1919
# 3 -2.5045 18.4681 76.8707 -24.4379 -16.2341 0.8022
# 4 2.6912 -21.6261 -24.4379 25.5965 4.6870 10.7798
# 5 6.1221 6.7517 -16.2341 4.6870 29.5751 -7.9314
# 6 -7.5452 -8.1919 0.8022 10.7798 -7.9314 22.9604
#
#
#
# Elastic Compliance Matrix: (Units=1/GPa)
#
#
# Indices 1 2 3 4 5 6 
#
# 1 0.027605 0.001151 -0.003362 -0.010413 -0.002520 0.013618
# 2 0.001151 0.008397 -0.000148 0.008423 -0.004106 -0.001994
# 3 -0.003362 -0.000148 0.022425 0.025629 0.005764 -0.011983
# 4 -0.010413 0.008423 0.025629 0.096168 -0.014768 -0.051564
# 5 -0.002520 -0.004106 0.005764 -0.014768 0.046251 0.020416
# 6 0.013618 -0.001994 -0.011983 -0.051564 0.020416 0.078997
#
#
# Mechanical properties :
#
#
# Convention : Reuss Voigt Hill
#
# Bulk Modulus (GPa) = 18.61904 31.03425 24.82664
# Shear Modulus (GPa) = 16.53090 32.50107 24.51599
#
# Velocity S-wave (km/s) = 2.54658 3.57073 3.10122
# Velocity P-wave (km/s) = 3.99386 5.40137 4.75004
#
# Compressibility (1/GPa) = 0.05370847
#
# Stress axis : x y z
#
# Youngs Moduli (GPa) = 36.22579 119.09095 44.59304
#
# Poissons Ratio (x) = -0.13711 0.14992
# Poissons Ratio (y) = -0.04171 0.00662
# Poissons Ratio (z) = 0.12179 0.01767
#
# Static dielectric constant tensor:
#      x y z
#    x 2.000600 -0.011450 0.069750 
#    y -0.011450 2.010470 0.035420 
#    z 0.069750 0.035420 2.223890 
# 
# From -- ./inp_files/310682.got.cif
#   From: 2010.05.17/outbox.cif.g08.bks.cpg/sg2_156_cif.got.tgz:310682.got - 2010.06.03 11:33:40.
