data_PCOD9049375
_publ_section_title
;
Structure prediction by ZEFSAII (Michael W. Deem and Ramdas Pophale) SiO2 
 PCOD9049375
Probable space group: P -1
;
_chemical_formula_sum "Si O2"
_cell_formula_units_Z 16
_cell_length_a 14.060300
_cell_length_b 24.685288
_cell_length_c 5.563594
_cell_angle_alpha 79.133812
_cell_angle_beta 76.159953
_cell_angle_gamma 21.108598
_cell_volume 671.921099
_symmetry_space_group_name_H-M "P -1"
_symmetry_group_IT_number 2
_symmetry_cell_setting 'triclinic'
loop_
_space_group_symop_operation_xyz
x,y,z
-x,-y,-z
loop_
_atom_site_type_symbol
_atom_site_label
_atom_site_fract_x
_atom_site_fract_y
_atom_site_fract_z
Si Si1 0.197063 0.590544 0.030900
Si Si2 0.764141 0.111402 0.732899
Si Si3 0.651744 0.278274 0.953114
Si Si4 0.651799 0.638504 0.584799
Si Si5 0.764433 0.693012 0.668607
Si Si6 0.649728 0.812336 0.147611
Si Si7 0.079607 0.096523 0.141222
Si Si8 0.370816 0.608063 0.677625
O O1 0.389546 0.448547 0.872786
O O2 0.200915 0.651442 0.893480
O O3 0.376561 0.499985 0.239650
O O4 0.898477 0.723546 0.110532
O O5 0.765587 0.164646 0.851736
O O6 0.481127 0.263272 0.644107
O O7 0.814564 0.021986 0.849451
O O8 0.000000 0.000000 0.500000
O O9 0.539064 0.307458 0.237603
O O10 0.882158 0.201389 0.942325
O O11 0.685432 0.669692 0.733263
O O12 0.931419 0.466805 0.478527
O O13 0.615306 0.801045 0.441921
O O14 0.736048 0.733043 0.918455
O O15 0.349972 0.989112 0.107975
O O16 0.858860 0.226001 0.373573
O O17 0.500000 0.500000 0.500000
#
# Coordination Sequence:
#
# PCOD9049375 Si02
#       8
#     2   2   2   2   2   2   2   2
#     4  10  24  46  73 101 130 181 242 286 356 418
#     4  12  24  36  64 101 139 187 229 289 351 414
#     4  11  23  41  68  98 142 185 238 288 344 424
#     4  11  23  39  62  96 142 195 240 277 344 418
#     4  11  26  41  67 101 148 194 235 284 346 431
#     4  12  25  45  70 104 143 185 233 294 360 414
#     4  11  25  43  64 105 141 179 236 289 362 410
#     4  10  25  49  76  99 130 181 240 300 346 425
#
# _framework density 23.812318000000001
#
# number of rings (size 3 to 8) (size 9 to 14) (size 15 to 20)
#    0.000    1.000    3.750    1.875    5.250    1.500 
#    4.500    0.625    0.000    0.000    0.000    0.000 
#    0.000    0.000    0.000    0.000    0.000    0.000 
#
# Total GULP energy -89196.597270 kJ/mol
# GULP energy per Si atom -5574.787329 kJ/mol
# Density = 2.375812 g / cm^3
# Si number density = 23.812318 Si / 1000 Ang^3
#
#
#
# Elastic Constant Matrix: (Units=GPa)
#
#
# Indices 1 2 3 4 5 6 
#
# 1 135.9350 51.1506 39.2109 11.6195 17.0348 -17.3344
# 2 51.1506 139.3424 9.8201 7.5050 21.4229 -20.7401
# 3 39.2109 9.8201 59.4120 7.5387 16.7580 2.7773
# 4 11.6195 7.5050 7.5387 27.6728 10.3781 8.0473
# 5 17.0348 21.4229 16.7580 10.3781 30.5904 0.8503
# 6 -17.3344 -20.7401 2.7773 8.0473 0.8503 54.4798
#
#
#
# Elastic Compliance Matrix: (Units=1/GPa)
#
#
# Indices 1 2 3 4 5 6 
#
# 1 0.011020 -0.003034 -0.006700 -0.003131 0.000633 0.003146
# 2 -0.003034 0.009494 0.002057 -0.000383 -0.006031 0.002695
# 3 -0.006700 0.002057 0.024065 0.000552 -0.011011 -0.002485
# 4 -0.003131 -0.000383 0.000552 0.044547 -0.013193 -0.007545
# 5 0.000633 -0.006031 -0.011011 -0.013193 0.047078 -0.000319
# 6 0.003146 0.002695 -0.002485 -0.007545 -0.000319 0.021628
#
#
# Mechanical properties :
#
#
# Convention : Reuss Voigt Hill
#
# Bulk Modulus (GPa) = 34.21597 59.45029 46.83313
# Shear Modulus (GPa) = 27.33303 38.18244 32.75774
#
# Velocity S-wave (km/s) = 3.39167 4.00868 3.71302
# Velocity P-wave (km/s) = 5.45327 6.81516 6.17190
#
# Compressibility (1/GPa) = 0.02922612
#
# Stress axis : x y z
#
# Youngs Moduli (GPa) = 90.74378 105.32698 41.55340
#
# Poissons Ratio (x) = 0.31952 0.27840
# Poissons Ratio (y) = 0.27528 -0.08546
# Poissons Ratio (z) = 0.60797 -0.21662
#
# Static dielectric constant tensor:
#      x y z
#    x 1.980950 0.051680 0.021380 
#    y 0.051680 1.952090 -0.002810 
#    z 0.021380 -0.002810 2.065710 
# 
# From -- ./inp_files/101526.got.cif
#   From: 2010.05.17/outbox.cif.g08.bks.cpg/sg2_51_cif.got.tgz:101526.got - 2010.06.03 11:33:40.
