data_PCOD9049666
_publ_section_title
;
Structure prediction by ZEFSAII (Michael W. Deem and Ramdas Pophale) SiO2 
 PCOD9049666
Probable space group: P -1
;
_chemical_formula_sum "Si O2"
_cell_formula_units_Z 16
_cell_length_a 11.344853
_cell_length_b 10.660105
_cell_length_c 11.705705
_cell_angle_alpha 54.498299
_cell_angle_beta 128.444997
_cell_angle_gamma 142.505273
_cell_volume 663.440717
_symmetry_space_group_name_H-M "P -1"
_symmetry_group_IT_number 2
_symmetry_cell_setting 'triclinic'
loop_
_space_group_symop_operation_xyz
x,y,z
-x,-y,-z
loop_
_atom_site_type_symbol
_atom_site_label
_atom_site_fract_x
_atom_site_fract_y
_atom_site_fract_z
Si Si1 0.894344 0.075433 0.834598
Si Si2 0.820502 0.142036 0.317838
Si Si3 0.414653 0.050628 0.087011
Si Si4 0.517254 0.732596 0.639606
Si Si5 0.859863 0.455150 0.337584
Si Si6 0.526807 0.702350 0.403591
Si Si7 0.024518 0.699102 0.902787
Si Si8 0.600843 0.442882 0.849791
O O1 0.060492 0.324157 0.776043
O O2 0.727226 0.027092 0.847609
O O3 0.750966 0.938032 0.709182
O O4 0.000000 0.000000 0.000000
O O5 0.589950 0.045329 0.203029
O O6 0.886942 0.330874 0.334777
O O7 0.983021 0.250567 0.257481
O O8 0.760970 0.927478 0.428482
O O9 0.526534 0.283667 0.991067
O O10 0.249310 0.897559 0.972536
O O11 0.365501 0.696711 0.661764
O O12 0.455734 0.721920 0.475015
O O13 0.493312 0.531897 0.742121
O O14 0.000000 0.500000 0.500000
O O15 0.500000 0.500000 0.500000
O O16 0.435114 0.661541 0.241055
O O17 0.843042 0.640344 0.899120
O O18 0.000000 0.500000 0.000000
#
# Coordination Sequence:
#
# PCOD9049666 Si02
#       8
#     2   2   2   2   2   2   2   2
#     4  12  27  46  75 111 151 200 250 305 373 450
#     4  12  24  44  72 104 148 187 243 309 366 435
#     4  12  24  42  70 106 146 187 243 302 375 423
#     4  11  26  49  72 103 154 194 247 308 369 445
#     4  12  29  48  74 112 147 201 256 305 375 450
#     4  10  24  47  71 101 141 197 239 299 373 431
#     4  12  23  39  67 107 144 184 243 298 365 443
#     4  11  24  45  72 106 146 195 240 306 373 438
#
# _framework density 24.116699000000001
#
# number of rings (size 3 to 8) (size 9 to 14) (size 15 to 20)
#    0.000    0.500    3.750    4.125    5.250    2.000 
#    0.000    1.250    0.000    0.000    0.000    0.000 
#    0.000    0.000    0.000    0.000    0.000    0.000 
#
# Total GULP energy -89341.136436 kJ/mol
# GULP energy per Si atom -5583.821027 kJ/mol
# Density = 2.406181 g / cm^3
# Si number density = 24.116699 Si / 1000 Ang^3
#
#
#
# Elastic Constant Matrix: (Units=GPa)
#
#
# Indices 1 2 3 4 5 6 
#
# 1 36.2498 16.2790 3.7771 -2.4531 -11.4776 0.7818
# 2 16.2790 130.3639 18.2372 -11.9320 -7.6285 -11.3359
# 3 3.7771 18.2372 48.3676 -5.0426 -6.2410 -7.4930
# 4 -2.4531 -11.9320 -5.0426 53.2965 0.6102 -4.0279
# 5 -11.4776 -7.6285 -6.2410 0.6102 37.7671 -0.7305
# 6 0.7818 -11.3359 -7.4930 -4.0279 -0.7305 44.4243
#
#
#
# Elastic Compliance Matrix: (Units=1/GPa)
#
#
# Indices 1 2 3 4 5 6 
#
# 1 0.032092 -0.003529 -0.000170 0.000470 0.008979 -0.001304
# 2 -0.003529 0.008817 -0.002512 0.001725 0.000305 0.002050
# 3 -0.000170 -0.002512 0.022772 0.001806 0.003241 0.003420
# 4 0.000470 0.001725 0.001806 0.019526 0.000523 0.002516
# 5 0.008979 0.000305 0.003241 0.000523 0.029815 0.001004
# 6 -0.001304 0.002050 0.003420 0.002516 0.001004 0.023878
#
#
# Mechanical properties :
#
#
# Convention : Reuss Voigt Hill
#
# Bulk Modulus (GPa) = 19.50881 32.39644 25.95262
# Shear Modulus (GPa) = 30.04695 38.87677 34.46186
#
# Velocity S-wave (km/s) = 3.53356 4.01936 3.78426
# Velocity P-wave (km/s) = 4.97543 5.91631 5.46615
#
# Compressibility (1/GPa) = 0.05125890
#
# Stress axis : x y z
#
# Youngs Moduli (GPa) = 31.16083 113.41870 43.91409
#
# Poissons Ratio (x) = 0.40020 0.00746
# Poissons Ratio (y) = 0.10995 0.11032
# Poissons Ratio (z) = 0.00530 0.28492
#
# Static dielectric constant tensor:
#      x y z
#    x 2.042630 -0.073050 0.079020 
#    y -0.073050 2.015230 -0.007220 
#    z 0.079020 -0.007220 2.095710 
# 
# From -- ./inp_files/427855.got.cif
#   From: 2010.05.17/outbox.cif.g08.bks.cpg/sg2_214_cif.got.tgz:427855.got - 2010.06.03 11:33:40.
