data_PCOD9049918
_publ_section_title
;
Structure prediction by ZEFSAII (Michael W. Deem and Ramdas Pophale) SiO2 
 PCOD9049918
Probable space group: P -1
;
_chemical_formula_sum "Si O2"
_cell_formula_units_Z 16
_cell_length_a 13.344283
_cell_length_b 13.462880
_cell_length_c 8.910492
_cell_angle_alpha 104.089753
_cell_angle_beta 57.268322
_cell_angle_gamma 146.855967
_cell_volume 655.606151
_symmetry_space_group_name_H-M "P -1"
_symmetry_group_IT_number 2
_symmetry_cell_setting 'triclinic'
loop_
_space_group_symop_operation_xyz
x,y,z
-x,-y,-z
loop_
_atom_site_type_symbol
_atom_site_label
_atom_site_fract_x
_atom_site_fract_y
_atom_site_fract_z
Si Si1 0.072422 0.236659 0.529610
Si Si2 0.055332 0.111928 0.208029
Si Si3 0.260750 0.303490 0.702697
Si Si4 0.502134 0.076098 0.670986
Si Si5 0.257542 0.840929 0.230655
Si Si6 0.486811 0.677224 0.199884
Si Si7 0.972769 0.360903 0.952963
Si Si8 0.784703 0.579720 0.965475
O O1 0.077166 0.214992 0.696098
O O2 0.299016 0.474570 0.380631
O O3 0.816152 0.097705 0.649566
O O4 0.096145 0.157762 0.369239
O O5 0.821266 0.873170 0.277261
O O6 0.730754 0.798547 0.001941
O O7 0.032920 0.211640 0.199111
O O8 0.500000 0.500000 0.500000
O O9 0.310865 0.397312 0.851284
O O10 0.719913 0.206859 0.653064
O O11 0.489435 0.189522 0.708050
O O12 0.500000 0.000000 0.500000
O O13 0.267862 0.867444 0.873254
O O14 0.042462 0.660283 0.222345
O O15 0.500000 0.000000 0.000000
O O16 0.360582 0.586202 0.104187
O O17 0.154406 0.448464 0.956643
O O18 0.000000 0.500000 0.000000
#
# Coordination Sequence:
#
# PCOD9049918 Si02
#       8
#     2   2   2   2   2   2   2   2
#     4  11  24  45  73 107 148 193 247 302 369 440
#     4  11  25  46  73 104 154 194 241 306 376 436
#     4  12  24  43  69 110 146 190 247 302 365 444
#     4  11  27  45  74 103 142 193 254 300 365 433
#     4  10  24  48  68 101 150 190 243 301 371 427
#     4  11  25  47  74 104 150 196 241 310 374 438
#     4  11  24  46  69 100 142 191 241 304 368 434
#     4  11  23  44  72 105 143 191 242 297 377 434
#
# _framework density 24.404895
#
# number of rings (size 3 to 8) (size 9 to 14) (size 15 to 20)
#    0.000    1.000    1.250    5.250    7.000    1.500 
#    4.500    0.000    0.000    0.000    0.000    0.000 
#    0.000    0.000    0.000    0.000    0.000    0.000 
#
# Total GULP energy -89173.001792 kJ/mol
# GULP energy per Si atom -5573.312612 kJ/mol
# Density = 2.434935 g / cm^3
# Si number density = 24.404895 Si / 1000 Ang^3
#
#
#
# Elastic Constant Matrix: (Units=GPa)
#
#
# Indices 1 2 3 4 5 6 
#
# 1 131.9522 30.1233 22.0182 15.3201 2.6152 -12.1008
# 2 30.1233 109.4454 36.7595 19.3479 -6.9923 -20.9654
# 3 22.0182 36.7595 116.4134 28.0171 2.3207 -2.2132
# 4 15.3201 19.3479 28.0171 44.8881 10.2151 1.7802
# 5 2.6152 -6.9923 2.3207 10.2151 36.4584 12.8390
# 6 -12.1008 -20.9654 -2.2132 1.7802 12.8390 32.8225
#
#
#
# Elastic Compliance Matrix: (Units=1/GPa)
#
#
# Indices 1 2 3 4 5 6 
#
# 1 0.008485 -0.001346 -0.000692 -0.001689 -0.001350 0.002841
# 2 -0.001346 0.012507 -0.002663 -0.003836 0.001265 0.007026
# 3 -0.000692 -0.002663 0.010852 -0.005531 0.000839 -0.001253
# 4 -0.001689 -0.003836 -0.005531 0.029842 -0.007933 -0.001961
# 5 -0.001350 0.001265 0.000839 -0.007933 0.034394 -0.012657
# 6 0.002841 0.007026 -0.001253 -0.001961 -0.012657 0.040975
#
#
# Mechanical properties :
#
#
# Convention : Reuss Voigt Hill
#
# Bulk Modulus (GPa) = 44.56191 59.51258 52.03724
# Shear Modulus (GPa) = 32.48036 40.76115 36.62076
#
# Velocity S-wave (km/s) = 3.65210 4.09125 3.87790
# Velocity P-wave (km/s) = 6.00690 6.83785 6.43580
#
# Compressibility (1/GPa) = 0.02244069
#
# Stress axis : x y z
#
# Youngs Moduli (GPa) = 117.85854 79.95679 92.14493
#
# Poissons Ratio (x) = 0.10764 0.06379
# Poissons Ratio (y) = 0.15866 0.24539
# Poissons Ratio (z) = 0.08159 0.21293
#
# Static dielectric constant tensor:
#      x y z
#    x 1.729840 0.202860 -0.720860 
#    y 0.202860 1.930870 0.307660 
#    z -0.720860 0.307660 0.935670 
# 
# From -- ./inp_files/313663.got.cif
#   From: 2010.05.17/outbox.cif.g08.bks.cpg/sg2_157_cif.got.tgz:313663.got - 2010.06.03 11:33:40.
