data_PCOD9049902
_publ_section_title
;
Structure prediction by ZEFSAII (Michael W. Deem and Ramdas Pophale) SiO2 
 PCOD9049902
Probable space group: P -1
;
_chemical_formula_sum "Si O2"
_cell_formula_units_Z 14
_cell_length_a 11.307560
_cell_length_b 8.444464
_cell_length_c 8.111415
_cell_angle_alpha 64.413479
_cell_angle_beta 132.373936
_cell_angle_gamma 106.580322
_cell_volume 516.061015
_symmetry_space_group_name_H-M "P -1"
_symmetry_group_IT_number 2
_symmetry_cell_setting 'triclinic'
loop_
_space_group_symop_operation_xyz
x,y,z
-x,-y,-z
loop_
_atom_site_type_symbol
_atom_site_label
_atom_site_fract_x
_atom_site_fract_y
_atom_site_fract_z
Si Si1 0.446370 0.050065 0.107378
Si Si2 0.156980 0.342821 0.182004
Si Si3 0.972722 0.209151 0.394864
Si Si4 0.678713 0.016706 0.588433
Si Si5 0.340121 0.684948 0.133066
Si Si6 0.378313 0.414868 0.794556
Si Si7 0.087974 0.685186 0.338097
O O1 0.614744 0.100896 0.321895
O O2 0.367057 0.867606 0.173699
O O3 0.336471 0.222323 0.916379
O O4 0.500000 0.000000 0.000000
O O5 0.919726 0.715577 0.689680
O O6 0.033977 0.364797 0.901375
O O7 0.265213 0.180810 0.297749
O O8 0.259704 0.518736 0.218939
O O9 0.986910 0.275684 0.568021
O O10 0.793764 0.263075 0.149187
O O11 0.000000 0.000000 0.500000
O O12 0.500000 0.000000 0.500000
O O13 0.826778 0.135548 0.722108
O O14 0.508341 0.624186 0.239454
O O15 0.229211 0.541272 0.562668
O O16 0.500000 0.500000 0.000000
#
# Coordination Sequence:
#
# PCOD9049902 Si02
#       7
#     2   2   2   2   2   2   2
#     4  10  24  47  84 118 158 216 284 347 413 494
#     4  12  30  51  80 127 171 224 282 341 434 512
#     4  12  27  51  82 116 175 221 277 342 426 507
#     4  12  26  48  80 121 166 213 283 353 412 499
#     4  11  26  52  77 125 165 217 288 344 414 511
#     4  11  21  49  88 120 161 216 293 343 422 501
#     4  12  26  53  86 123 170 225 276 357 427 502
#
# _framework density 27.128575000000001
#
# number of rings (size 3 to 8) (size 9 to 14) (size 15 to 20)
#    0.000    0.571    4.286    2.571    2.000    2.286 
#    7.714    0.000    0.000    0.857    0.000    0.000 
#    0.000    0.000    0.000    0.000    0.000    0.000 
#
# Total GULP energy -78375.064524 kJ/mol
# GULP energy per Si atom -5598.218895 kJ/mol
# Density = 2.706683 g / cm^3
# Si number density = 27.128575 Si / 1000 Ang^3
#
#
#
# Elastic Constant Matrix: (Units=GPa)
#
#
# Indices 1 2 3 4 5 6 
#
# 1 165.4311 91.4378 79.0236 -18.9716 12.5598 9.7452
# 2 91.4378 216.5021 72.1728 -32.1990 -6.2451 28.0562
# 3 79.0236 72.1728 149.6617 -27.6386 16.7688 -8.1147
# 4 -18.9716 -32.1990 -27.6386 66.1385 -17.3877 6.2368
# 5 12.5598 -6.2451 16.7688 -17.3877 43.3097 -10.6080
# 6 9.7452 28.0562 -8.1147 6.2368 -10.6080 45.1015
#
#
#
# Elastic Compliance Matrix: (Units=1/GPa)
#
#
# Indices 1 2 3 4 5 6 
#
# 1 0.009496 -0.002786 -0.003599 -0.000622 -0.002364 -0.001437
# 2 -0.002786 0.007643 -0.002192 0.003197 0.002993 -0.004285
# 3 -0.003599 -0.002192 0.010288 0.001390 -0.001875 0.003359
# 4 -0.000622 0.003197 0.001390 0.019210 0.007186 -0.002570
# 5 -0.002364 0.002993 -0.001875 0.007186 0.028821 0.004097
# 6 -0.001437 -0.004285 0.003359 -0.002570 0.004097 0.027072
#
#
# Mechanical properties :
#
#
# Convention : Reuss Voigt Hill
#
# Bulk Modulus (GPa) = 97.33067 112.98482 105.15774
# Shear Modulus (GPa) = 40.61450 50.17399 45.39424
#
# Velocity S-wave (km/s) = 3.87345 4.30523 4.09504
# Velocity P-wave (km/s) = 7.48066 8.15179 7.82342
#
# Compressibility (1/GPa) = 0.01027425
#
# Stress axis : x y z
#
# Youngs Moduli (GPa) = 105.30450 130.83395 97.19936
#
# Poissons Ratio (x) = 0.36444 0.34980
# Poissons Ratio (y) = 0.29333 0.21310
# Poissons Ratio (z) = 0.37897 0.28684
#
# Static dielectric constant tensor:
#      x y z
#    x 2.453000 0.019330 -0.298130 
#    y 0.019330 2.135230 0.016000 
#    z -0.298130 0.016000 2.297700 
# 
# From -- ./inp_files/242762.got.cif
#   From: 2010.05.17/outbox.cif.g08.bks.cpg/sg2_122_cif.got.tgz:242762.got - 2010.06.03 11:33:40.
