data_PCOD9049669
_publ_section_title
;
Structure prediction by ZEFSAII (Michael W. Deem and Ramdas Pophale) SiO2 
 PCOD9049669
Probable space group: P -1
;
_chemical_formula_sum "Si O2"
_cell_formula_units_Z 10
_cell_length_a 8.609296
_cell_length_b 9.459723
_cell_length_c 13.238339
_cell_angle_alpha 147.987465
_cell_angle_beta 44.966087
_cell_angle_gamma 119.504748
_cell_volume 386.929065
_symmetry_space_group_name_H-M "P -1"
_symmetry_group_IT_number 2
_symmetry_cell_setting 'triclinic'
loop_
_space_group_symop_operation_xyz
x,y,z
-x,-y,-z
loop_
_atom_site_type_symbol
_atom_site_label
_atom_site_fract_x
_atom_site_fract_y
_atom_site_fract_z
Si Si1 0.713263 0.059802 0.882076
Si Si2 0.940222 0.236578 0.313550
Si Si3 0.559859 0.839060 0.501701
Si Si4 0.905539 0.571906 0.342814
Si Si5 0.673777 0.582862 0.093275
O O1 0.889586 0.038441 0.881337
O O2 0.856709 0.831324 0.599152
O O3 0.613698 0.329755 0.022801
O O4 0.500000 0.000000 0.000000
O O5 0.000000 0.500000 0.500000
O O6 0.683203 0.222497 0.439947
O O7 0.957450 0.303530 0.228201
O O8 0.678225 0.658223 0.431712
O O9 0.715437 0.745181 0.273843
O O10 0.509737 0.172857 0.734865
O O11 0.114454 0.538253 0.150338
#
# Coordination Sequence:
#
# PCOD9049669 Si02
#       5
#     2   2   2   2   2
#     4  11  26  49  74 103 148 194 235 296 362 427
#     4  10  24  47  71 102 146 189 235 290 361 425
#     4  11  26  46  75 106 146 189 237 301 357 418
#     4  11  25  47  74 110 140 190 244 294 351 431
#     4  11  26  46  73 107 149 185 241 296 359 423
#
# _framework density 25.844531
#
# number of rings (size 3 to 8) (size 9 to 14) (size 15 to 20)
#    0.000    1.200    0.000    4.200   11.200    1.600 
#    0.000    0.000    0.000    0.000    0.000    0.000 
#    0.000    0.000    0.000    0.000    0.000    0.000 
#
# Total GULP energy -55958.503570 kJ/mol
# GULP energy per Si atom -5595.850357 kJ/mol
# Density = 2.578571 g / cm^3
# Si number density = 25.844531 Si / 1000 Ang^3
#
#
#
# Elastic Constant Matrix: (Units=GPa)
#
#
# Indices 1 2 3 4 5 6 
#
# 1 143.2643 63.5017 25.1784 -12.0083 -12.9791 -34.6450
# 2 63.5017 218.9629 73.5960 -14.2167 -5.1580 -10.8518
# 3 25.1784 73.5960 133.1082 -8.7250 -14.5200 -0.6178
# 4 -12.0083 -14.2167 -8.7250 55.1335 1.6184 0.4455
# 5 -12.9791 -5.1580 -14.5200 1.6184 16.6663 -2.9222
# 6 -34.6450 -10.8518 -0.6178 0.4455 -2.9222 36.3877
#
#
#
# Elastic Compliance Matrix: (Units=1/GPa)
#
#
# Indices 1 2 3 4 5 6 
#
# 1 0.011977 -0.002747 0.000594 0.001583 0.010847 0.011446
# 2 -0.002747 0.006399 -0.003344 0.000628 -0.003315 -0.001038
# 3 0.000594 -0.003344 0.010200 0.000634 0.008323 0.000402
# 4 0.001583 0.000628 0.000634 0.018720 0.000427 0.001511
# 5 0.010847 -0.003315 0.008323 0.000427 0.077384 0.015690
# 6 0.011446 -0.001038 0.000402 0.001511 0.015690 0.039318
#
#
# Mechanical properties :
#
#
# Convention : Reuss Voigt Hill
#
# Bulk Modulus (GPa) = 56.87765 91.09862 73.98813
# Shear Modulus (GPa) = 27.64676 43.84144 35.74410
#
# Velocity S-wave (km/s) = 3.27423 4.12315 3.72296
# Velocity P-wave (km/s) = 6.02905 7.61527 6.86811
#
# Compressibility (1/GPa) = 0.01758160
#
# Stress axis : x y z
#
# Youngs Moduli (GPa) = 83.49448 156.27953 98.03566
#
# Poissons Ratio (x) = 0.42936 -0.05820
# Poissons Ratio (y) = 0.22939 0.32778
# Poissons Ratio (z) = -0.04957 0.52252
#
# Static dielectric constant tensor:
#      x y z
#    x 2.084280 -0.020890 0.051620 
#    y -0.020890 2.062140 0.101440 
#    z 0.051620 0.101440 2.088720 
# 
# From -- ./inp_files/375250.got.cif
#   From: 2010.05.17/outbox.cif.g08.bks.cpg/sg2_188_cif.got.tgz:375250.got - 2010.06.03 11:33:40.
