data_PCOD9049717
_publ_section_title
;
Structure prediction by ZEFSAII (Michael W. Deem and Ramdas Pophale) SiO2 
 PCOD9049717
Probable space group: P -1
;
_chemical_formula_sum "Si O2"
_cell_formula_units_Z 16
_cell_length_a 12.132575
_cell_length_b 12.592253
_cell_length_c 7.903842
_cell_angle_alpha 58.425958
_cell_angle_beta 64.899702
_cell_angle_gamma 46.296705
_cell_volume 739.890904
_symmetry_space_group_name_H-M "P -1"
_symmetry_group_IT_number 2
_symmetry_cell_setting 'triclinic'
loop_
_space_group_symop_operation_xyz
x,y,z
-x,-y,-z
loop_
_atom_site_type_symbol
_atom_site_label
_atom_site_fract_x
_atom_site_fract_y
_atom_site_fract_z
Si Si1 0.636214 0.745084 0.533235
Si Si2 0.046618 0.273446 0.979819
Si Si3 0.968351 0.158218 0.457317
Si Si4 0.084406 0.074056 0.829228
Si Si5 0.313926 0.240919 0.983127
Si Si6 0.574241 0.061941 0.190477
Si Si7 0.238439 0.516429 0.589462
Si Si8 0.097193 0.382730 0.305236
O O1 0.534684 0.794529 0.726149
O O2 0.650416 0.612876 0.517927
O O3 0.811280 0.663880 0.542513
O O4 0.572614 0.914948 0.358379
O O5 0.011435 0.214775 0.217905
O O6 0.222155 0.214491 0.927983
O O7 0.009447 0.224472 0.873234
O O8 0.946873 0.458913 0.880907
O O9 0.065174 0.104327 0.615337
O O10 0.795866 0.316418 0.488573
O O11 0.000000 0.000000 0.500000
O O12 0.260578 0.979046 0.852597
O O13 0.000000 0.000000 0.000000
O O14 0.491735 0.123154 0.011457
O O15 0.222251 0.253872 0.199467
O O16 0.283800 0.402448 0.814273
O O17 0.063344 0.585841 0.602769
#
# Coordination Sequence:
#
# PCOD9049717 Si02
#       8
#     2   2   2   2   2   2   2   2
#     4  10  21  34  61  99 135 168 204 277 337 389
#     4  11  21  40  66  97 132 164 216 274 332 385
#     4  12  24  42  67  96 126 172 231 278 309 382
#     4  12  26  43  65  93 125 178 227 266 322 387
#     4  10  20  36  64  98 137 167 195 275 343 386
#     4  10  23  41  60 102 139 169 213 264 338 395
#     4  11  19  35  62  97 129 169 216 265 336 387
#     4  10  17  34  60  94 132 163 200 270 339 385
#
# _framework density 21.62481
#
# number of rings (size 3 to 8) (size 9 to 14) (size 15 to 20)
#    0.000    1.250    3.750    4.125    3.500    2.000 
#    0.000    0.000    0.000   13.500    0.000    0.000 
#    0.000    0.000    0.000    0.000    0.000    0.000 
#
# Total GULP energy -89111.098056 kJ/mol
# GULP energy per Si atom -5569.443628 kJ/mol
# Density = 2.157559 g / cm^3
# Si number density = 21.624810 Si / 1000 Ang^3
#
#
#
# Elastic Constant Matrix: (Units=GPa)
#
#
# Indices 1 2 3 4 5 6 
#
# 1 75.6718 29.0810 29.8844 -18.8335 23.0004 6.7031
# 2 29.0810 112.6470 26.9501 -5.9153 5.6821 18.2720
# 3 29.8844 26.9501 76.0675 -13.1989 20.2131 8.5286
# 4 -18.8335 -5.9153 -13.1989 49.6242 -0.3838 10.5402
# 5 23.0004 5.6821 20.2131 -0.3838 34.5357 -1.2882
# 6 6.7031 18.2720 8.5286 10.5402 -1.2882 38.3306
#
#
#
# Elastic Compliance Matrix: (Units=1/GPa)
#
#
# Indices 1 2 3 4 5 6 
#
# 1 0.021540 -0.003299 -0.002028 0.008077 -0.012690 -0.004390
# 2 -0.003299 0.010922 -0.002532 0.000256 0.001733 -0.004078
# 3 -0.002028 -0.002532 0.018564 0.004680 -0.009201 -0.004165
# 4 0.008077 0.000256 0.004680 0.026587 -0.008244 -0.010164
# 5 -0.012690 0.001733 -0.009201 -0.008244 0.042682 0.007142
# 6 -0.004390 -0.004078 -0.004165 -0.010164 0.007142 0.032762
#
#
# Mechanical properties :
#
#
# Convention : Reuss Voigt Hill
#
# Bulk Modulus (GPa) = 28.32273 48.46858 38.39566
# Shear Modulus (GPa) = 27.69394 36.39616 32.04505
#
# Velocity S-wave (km/s) = 3.58251 4.10698 3.85368
# Velocity P-wave (km/s) = 5.49893 6.70461 6.13148
#
# Compressibility (1/GPa) = 0.03530733
#
# Stress axis : x y z
#
# Youngs Moduli (GPa) = 46.42592 91.55453 53.86754
#
# Poissons Ratio (x) = 0.30206 0.10923
# Poissons Ratio (y) = 0.15317 0.13642
# Poissons Ratio (z) = 0.09414 0.23186
#
# Static dielectric constant tensor:
#      x y z
#    x 1.829320 0.059580 0.021500 
#    y 0.059580 1.912740 0.031750 
#    z 0.021500 0.031750 1.827430 
# 
# From -- ./inp_files/256787.got.cif
#   From: 2010.05.17/outbox.cif.g08.bks.cpg/sg2_129_cif.got.tgz:256787.got - 2010.06.03 11:33:40.
