data_PCOD9049063
_publ_section_title
;
Structure prediction by ZEFSAII (Michael W. Deem and Ramdas Pophale) SiO2 
 PCOD9049063
Probable space group: P -1
;
_chemical_formula_sum "Si O2"
_cell_formula_units_Z 15
_cell_length_a 14.863064
_cell_length_b 8.484036
_cell_length_c 18.140488
_cell_angle_alpha 90.385379
_cell_angle_beta 20.781154
_cell_angle_gamma 82.884307
_cell_volume 754.993623
_symmetry_space_group_name_H-M "P -1"
_symmetry_group_IT_number 2
_symmetry_cell_setting 'triclinic'
loop_
_space_group_symop_operation_xyz
x,y,z
-x,-y,-z
loop_
_atom_site_type_symbol
_atom_site_label
_atom_site_fract_x
_atom_site_fract_y
_atom_site_fract_z
Si Si1 0.862094 0.367116 0.584300
Si Si2 0.049060 0.027787 0.191365
Si Si3 0.563981 0.919066 0.531857
Si Si4 0.590381 0.404171 0.353419
Si Si5 0.635128 0.329542 0.603431
Si Si6 0.820594 0.820703 0.057046
Si Si7 0.500000 0.500000 0.000000
Si Si8 0.568983 0.850122 0.886830
O O1 0.729859 0.394714 0.604747
O O2 0.000000 0.500000 0.500000
O O3 0.640239 0.394938 0.817322
O O4 0.123924 0.192655 0.378502
O O5 0.887597 0.179762 0.371667
O O6 0.344567 0.919326 0.995083
O O7 0.072852 0.104819 0.093921
O O8 0.857653 0.918437 0.330120
O O9 0.541004 0.738108 0.549556
O O10 0.500000 0.000000 0.500000
O O11 0.341448 0.036991 0.759613
O O12 0.500000 0.500000 0.500000
O O13 0.484647 0.528680 0.366490
O O14 0.916886 0.314028 0.105131
O O15 0.395959 0.259772 0.804065
O O16 0.545836 0.676158 0.934738
O O17 0.500000 0.000000 0.000000
#
# Coordination Sequence:
#
# PCOD9049063 Si02
#       8
#     2   2   2   2   2   2   1   2
#     4  10  24  46  68 103 144 179 237 292 348 426
#     4  11  24  45  70 105 132 181 236 279 355 421
#     4  11  24  44  67  95 140 179 228 284 341 417
#     4  12  23  45  71 102 138 181 228 289 344 419
#     4  11  24  42  72 104 137 181 234 289 351 414
#     4  11  24  44  69  99 139 181 229 282 348 422
#     4  10  26  46  68 104 140 180 242 288 354 420
#     4  11  24  45  76  99 142 182 234 294 351 420
#
# _framework density 19.867718
#
# number of rings (size 3 to 8) (size 9 to 14) (size 15 to 20)
#    0.000    1.067    4.000    1.600    1.867    6.933 
#    4.800    0.000    0.000    0.000    0.000    0.000 
#    0.000    0.000    0.000    0.000    0.000    0.000 
#
# Total GULP energy -83542.754549 kJ/mol
# GULP energy per Si atom -5569.516970 kJ/mol
# Density = 1.982250 g / cm^3
# Si number density = 19.867718 Si / 1000 Ang^3
#
#
#
# Elastic Constant Matrix: (Units=GPa)
#
#
# Indices 1 2 3 4 5 6 
#
# 1 135.9163 29.2138 78.0610 5.5496 0.6588 14.2424
# 2 29.2138 83.1122 33.1916 4.7674 -1.1158 16.4007
# 3 78.0610 33.1916 100.8454 10.7836 8.6940 -5.2696
# 4 5.5496 4.7674 10.7836 23.5046 -4.6130 3.3398
# 5 0.6588 -1.1158 8.6940 -4.6130 31.5314 6.0848
# 6 14.2424 16.4007 -5.2696 3.3398 6.0848 32.3643
#
#
#
# Elastic Compliance Matrix: (Units=1/GPa)
#
#
# Indices 1 2 3 4 5 6 
#
# 1 0.017391 0.003007 -0.016559 0.006437 0.007959 -0.014034
# 2 0.003007 0.017299 -0.009594 0.003272 0.006212 -0.013157
# 3 -0.016559 -0.009594 0.029664 -0.013534 -0.014215 0.021048
# 4 0.006437 0.003272 -0.013534 0.051411 0.014060 -0.014643
# 5 0.007959 0.006212 -0.014215 0.014060 0.041251 -0.018172
# 6 -0.014034 -0.013157 0.021048 -0.014643 -0.018172 0.052096
#
#
# Mechanical properties :
#
#
# Convention : Reuss Voigt Hill
#
# Bulk Modulus (GPa) = 55.36713 66.75631 61.06172
# Shear Modulus (GPa) = 19.12599 29.44055 24.28327
#
# Velocity S-wave (km/s) = 3.10605 3.85363 3.49986
# Velocity P-wave (km/s) = 6.38685 7.31259 6.86534
#
# Compressibility (1/GPa) = 0.01806126
#
# Stress axis : x y z
#
# Youngs Moduli (GPa) = 57.50210 57.80842 33.71049
#
# Poissons Ratio (x) = -0.17384 0.55821
# Poissons Ratio (y) = -0.17292 0.32342
# Poissons Ratio (z) = 0.95218 0.55462
#
# Static dielectric constant tensor:
#      x y z
#    x 1.685760 0.005970 0.001380 
#    y 0.005970 1.699260 -0.002600 
#    z 0.001380 -0.002600 1.709170 
# 
# From -- ./inp_files/89986.got.cif
#   From: 2010.05.17/outbox.cif.g08.bks.cpg/sg2_45_cif.got.tgz:89986.got - 2010.06.03 11:33:40.
