data_PCOD9049062
_publ_section_title
;
Structure prediction by ZEFSAII (Michael W. Deem and Ramdas Pophale) SiO2 
 PCOD9049062
Probable space group: P -1
;
_chemical_formula_sum "Si O2"
_cell_formula_units_Z 14
_cell_length_a 8.045818
_cell_length_b 13.022526
_cell_length_c 9.108839
_cell_angle_alpha 45.779574
_cell_angle_beta 70.486439
_cell_angle_gamma 77.223796
_cell_volume 644.594418
_symmetry_space_group_name_H-M "P -1"
_symmetry_group_IT_number 2
_symmetry_cell_setting 'triclinic'
loop_
_space_group_symop_operation_xyz
x,y,z
-x,-y,-z
loop_
_atom_site_type_symbol
_atom_site_label
_atom_site_fract_x
_atom_site_fract_y
_atom_site_fract_z
Si Si1 0.833038 0.897029 0.160655
Si Si2 0.907430 0.662491 0.956023
Si Si3 0.609193 0.357389 0.656987
Si Si4 0.246812 0.645731 0.702018
Si Si5 0.507764 0.894547 0.461701
Si Si6 0.059342 0.632913 0.255994
Si Si7 0.659349 0.892812 0.928302
O O1 0.708756 0.879587 0.357065
O O2 0.719539 0.957130 0.000282
O O3 0.919550 0.749813 0.233020
O O4 0.000000 0.000000 0.000000
O O5 0.772551 0.528616 0.095691
O O6 0.809871 0.806631 0.883511
O O7 0.023810 0.617523 0.109049
O O8 0.051368 0.692097 0.759189
O O9 0.500000 0.500000 0.500000
O O10 0.719199 0.329499 0.504755
O O11 0.739103 0.351513 0.765355
O O12 0.470790 0.233724 0.856210
O O13 0.397450 0.741749 0.647608
O O14 0.500000 0.000000 0.500000
O O15 0.413171 0.986933 0.273470
O O16 0.000000 0.500000 0.500000
#
# Coordination Sequence:
#
# PCOD9049062 Si02
#       7
#     2   2   2   2   2   2   2
#     4  11  25  44  69  99 132 179 232 278 339 408
#     4  10  24  46  68 103 135 180 227 288 345 404
#     4  12  22  43  71 102 133 175 226 284 342 411
#     4  11  24  44  69  97 142 177 229 282 351 402
#     4  12  29  46  65 103 144 185 230 282 343 407
#     4  11  23  40  72 101 131 169 232 284 336 407
#     4  11  24  45  71  97 136 183 229 286 342 405
#
# _framework density 21.719085
#
# number of rings (size 3 to 8) (size 9 to 14) (size 15 to 20)
#    0.000    0.857    4.286    2.143    8.000    1.714 
#    0.000    1.429    0.000    0.000    0.000    0.000 
#    0.000    0.000    0.000    0.000    0.000    0.000 
#
# Total GULP energy -78091.215480 kJ/mol
# GULP energy per Si atom -5577.943963 kJ/mol
# Density = 2.166965 g / cm^3
# Si number density = 21.719085 Si / 1000 Ang^3
#
#
#
# Elastic Constant Matrix: (Units=GPa)
#
#
# Indices 1 2 3 4 5 6 
#
# 1 98.7254 37.4740 34.6265 7.4601 -11.5391 14.4553
# 2 37.4740 109.2723 31.1627 13.6513 -13.3858 -1.0379
# 3 34.6265 31.1627 66.9691 7.9870 -11.9582 -4.4841
# 4 7.4601 13.6513 7.9870 24.0513 -6.2262 -7.7503
# 5 -11.5391 -13.3858 -11.9582 -6.2262 48.6999 -1.7912
# 6 14.4553 -1.0379 -4.4841 -7.7503 -1.7912 45.6414
#
#
#
# Elastic Compliance Matrix: (Units=1/GPa)
#
#
# Indices 1 2 3 4 5 6 
#
# 1 0.014448 -0.002884 -0.006102 -0.002477 0.000608 -0.005638
# 2 -0.002884 0.011754 -0.003234 -0.004334 0.001205 0.000174
# 3 -0.006102 -0.003234 0.020462 -0.001155 0.002681 0.003778
# 4 -0.002477 -0.004334 -0.001155 0.049316 0.004579 0.009127
# 5 0.000608 0.001205 0.002681 0.004579 0.022317 0.001752
# 6 -0.005638 0.000174 0.003778 0.009127 0.001752 0.025689
#
#
# Mechanical properties :
#
#
# Convention : Reuss Voigt Hill
#
# Bulk Modulus (GPa) = 44.99842 53.49925 49.24883
# Shear Modulus (GPa) = 28.43604 35.12542 31.78073
#
# Velocity S-wave (km/s) = 3.62230 4.02588 3.82941
# Velocity P-wave (km/s) = 6.18532 6.80413 6.50209
#
# Compressibility (1/GPa) = 0.02222300
#
# Stress axis : x y z
#
# Youngs Moduli (GPa) = 69.21548 85.07939 48.87224
#
# Poissons Ratio (x) = 0.24539 0.29819
# Poissons Ratio (y) = 0.19963 0.15806
# Poissons Ratio (z) = 0.42232 0.27517
#
# Static dielectric constant tensor:
#      x y z
#    x 1.810910 -0.017610 0.006520 
#    y -0.017610 1.851490 -0.020900 
#    z 0.006520 -0.020900 1.764940 
# 
# From -- ./inp_files/174190.got.cif
#   From: 2010.05.17/outbox.cif.g08.bks.cpg/sg2_88_cif.got.tgz:174190.got - 2010.06.03 11:33:40.
