data_PCOD9049391
_publ_section_title
;
Structure prediction by ZEFSAII (Michael W. Deem and Ramdas Pophale) SiO2 
 PCOD9049391
Probable space group: P -1
;
_chemical_formula_sum "Si O2"
_cell_formula_units_Z 14
_cell_length_a 9.184012
_cell_length_b 12.076076
_cell_length_c 13.212732
_cell_angle_alpha 62.888627
_cell_angle_beta 59.598598
_cell_angle_gamma 26.320435
_cell_volume 560.390413
_symmetry_space_group_name_H-M "P -1"
_symmetry_group_IT_number 2
_symmetry_cell_setting 'triclinic'
loop_
_space_group_symop_operation_xyz
x,y,z
-x,-y,-z
loop_
_atom_site_type_symbol
_atom_site_label
_atom_site_fract_x
_atom_site_fract_y
_atom_site_fract_z
Si Si1 0.445610 0.991272 0.636819
Si Si2 0.220862 0.456016 0.373749
Si Si3 0.180319 0.147777 0.252644
Si Si4 0.543928 0.465277 0.619975
Si Si5 0.343000 0.733826 0.929912
Si Si6 0.879463 0.041314 0.780950
Si Si7 0.345191 0.282650 0.030001
O O1 0.575286 0.767052 0.678528
O O2 0.693613 0.909885 0.655417
O O3 0.500000 0.000000 0.500000
O O4 0.065503 0.271051 0.689347
O O5 0.433493 0.409982 0.393596
O O6 0.000000 0.500000 0.500000
O O7 0.381496 0.118091 0.125440
O O8 0.773278 0.415963 0.280743
O O9 0.214007 0.988393 0.266411
O O10 0.500000 0.500000 0.500000
O O11 0.855706 0.192100 0.675649
O O12 0.621908 0.651960 0.909790
O O13 0.500000 0.500000 0.000000
O O14 0.217194 0.800476 0.829756
O O15 0.000000 0.000000 0.000000
O O16 0.606348 0.174931 0.904907
O O17 0.000000 0.500000 0.000000
#
# Coordination Sequence:
#
# PCOD9049391 Si02
#       7
#     2   2   2   2   2   2   2
#     4  10  24  46  73 105 146 197 257 315 381 454
#     4  10  24  47  73 100 150 196 260 311 378 448
#     4  12  27  45  78 110 152 204 255 324 392 455
#     4  12  28  47  75 111 159 207 261 320 387 463
#     4  10  24  47  77 109 154 201 255 319 389 459
#     4  11  27  48  76 116 154 204 259 321 391 468
#     4  11  23  49  77 112 151 196 258 319 392 466
#
# _framework density 24.982582000000001
#
# number of rings (size 3 to 8) (size 9 to 14) (size 15 to 20)
#    0.000    1.143    1.429    3.000   12.000    1.714 
#    0.000    0.000    0.000    0.000    0.000    0.000 
#    0.000    0.000    0.000    0.000    0.000    0.000 
#
# Total GULP energy -78131.952454 kJ/mol
# GULP energy per Si atom -5580.853747 kJ/mol
# Density = 2.492572 g / cm^3
# Si number density = 24.982582 Si / 1000 Ang^3
#
#
#
# Elastic Constant Matrix: (Units=GPa)
#
#
# Indices 1 2 3 4 5 6 
#
# 1 248.1265 62.3650 52.7373 -25.0595 23.1208 2.5124
# 2 62.3650 123.0195 18.7698 -23.7957 9.9305 14.3908
# 3 52.7373 18.7698 106.5646 -8.5355 3.0913 4.2010
# 4 -25.0595 -23.7957 -8.5355 21.6621 4.2959 -2.2125
# 5 23.1208 9.9305 3.0913 4.2959 42.8978 -5.4179
# 6 2.5124 14.3908 4.2010 -2.2125 -5.4179 51.0376
#
#
#
# Elastic Compliance Matrix: (Units=1/GPa)
#
#
# Indices 1 2 3 4 5 6 
#
# 1 0.005566 -0.001372 -0.002054 0.004733 -0.002987 0.000170
# 2 -0.001372 0.011753 -0.000237 0.011611 -0.003518 -0.003097
# 3 -0.002054 -0.000237 0.010576 0.001432 0.000178 -0.000622
# 4 0.004733 0.011611 0.001432 0.067196 -0.012326 -0.002020
# 5 -0.002987 -0.003518 0.000178 -0.012326 0.027399 0.003499
# 6 0.000170 -0.003097 -0.000622 -0.002020 0.003499 0.020793
#
#
# Mechanical properties :
#
#
# Convention : Reuss Voigt Hill
#
# Bulk Modulus (GPa) = 48.61550 82.82830 65.72190
# Shear Modulus (GPa) = 31.75314 46.04207 38.89760
#
# Velocity S-wave (km/s) = 3.56899 4.29764 3.95015
# Velocity P-wave (km/s) = 6.04033 7.60609 6.86798
#
# Compressibility (1/GPa) = 0.02056957
#
# Stress axis : x y z
#
# Youngs Moduli (GPa) = 179.65912 85.08758 94.55135
#
# Poissons Ratio (x) = 0.11671 0.19420
# Poissons Ratio (y) = 0.24644 0.02241
# Poissons Ratio (z) = 0.36901 0.02017
#
# Static dielectric constant tensor:
#      x y z
#    x 1.757740 -0.098120 0.125790 
#    y -0.098120 2.083930 0.158080 
#    z 0.125790 0.158080 1.967160 
# 
# From -- ./inp_files/498936.got.cif
#   From: 2010.05.17/outbox.cif.g08.bks.cpg/sg2_250_cif.got.tgz:498936.got - 2010.06.03 11:33:40.
