data_PCOD9049811
_publ_section_title
;
Structure prediction by ZEFSAII (Michael W. Deem and Ramdas Pophale) SiO2 
 PCOD9049811
Probable space group: P -1
;
_chemical_formula_sum "Si O2"
_cell_formula_units_Z 11
_cell_length_a 8.709107
_cell_length_b 9.555497
_cell_length_c 5.977599
_cell_angle_alpha 102.977412
_cell_angle_beta 91.821564
_cell_angle_gamma 60.674187
_cell_volume 420.833817
_symmetry_space_group_name_H-M "P -1"
_symmetry_group_IT_number 2
_symmetry_cell_setting 'triclinic'
loop_
_space_group_symop_operation_xyz
x,y,z
-x,-y,-z
loop_
_atom_site_type_symbol
_atom_site_label
_atom_site_fract_x
_atom_site_fract_y
_atom_site_fract_z
Si Si1 0.091736 0.747133 0.894295
Si Si2 0.653030 0.412578 0.785656
Si Si3 0.706119 0.134911 0.360903
Si Si4 0.790835 0.565947 0.489735
Si Si5 0.500000 0.000000 0.000000
Si Si6 0.243818 0.100533 0.360632
O O1 0.160284 0.850654 0.796942
O O2 0.203351 0.559111 0.740538
O O3 0.890073 0.819115 0.829915
O O4 0.161599 0.722393 0.138950
O O5 0.615018 0.305336 0.562390
O O6 0.704290 0.534139 0.695471
O O7 0.500000 0.500000 0.000000
O O8 0.809091 0.982486 0.480131
O O9 0.578043 0.095152 0.195840
O O10 0.726364 0.753695 0.492832
O O11 0.000000 0.500000 0.500000
O O12 0.580642 0.039255 0.794771
#
# Coordination Sequence:
#
# PCOD9049811 Si02
#       6
#     2   2   2   2   1   2
#     4  10  24  47  75 104 146 196 242 299 365 439
#     4  11  26  45  77 108 148 196 247 301 365 442
#     4  11  26  47  70 106 144 195 244 300 369 438
#     4   9  23  44  71 106 145 190 243 298 360 435
#     4  12  28  42  68 106 150 188 236 304 364 428
#     4  11  25  44  72 109 147 188 244 301 370 437
#
# _framework density 26.138583000000001
#
# number of rings (size 3 to 8) (size 9 to 14) (size 15 to 20)
#    0.000    1.455    0.000    2.182    7.636   13.091 
#    0.000    0.000    0.000    0.000    0.000    0.000 
#    0.000    0.000    0.000    0.000    0.000    0.000 
#
# Total GULP energy -61244.945378 kJ/mol
# GULP energy per Si atom -5567.722307 kJ/mol
# Density = 2.607909 g / cm^3
# Si number density = 26.138583 Si / 1000 Ang^3
#
#
#
# Elastic Constant Matrix: (Units=GPa)
#
#
# Indices 1 2 3 4 5 6 
#
# 1 89.6041 42.3540 48.4330 3.0880 11.5284 26.0428
# 2 42.3540 119.7739 50.5126 -19.9094 9.5201 7.2219
# 3 48.4330 50.5126 97.7982 10.0572 18.6291 3.0825
# 4 3.0880 -19.9094 10.0572 40.8486 -2.7676 2.0388
# 5 11.5284 9.5201 18.6291 -2.7676 52.3004 7.2941
# 6 26.0428 7.2219 3.0825 2.0388 7.2941 36.0358
#
#
#
# Elastic Compliance Matrix: (Units=1/GPa)
#
#
# Indices 1 2 3 4 5 6 
#
# 1 0.021353 -0.003165 -0.008640 -0.000257 0.000918 -0.014229
# 2 -0.003165 0.013593 -0.006523 0.008573 0.001082 -0.000583
# 3 -0.008640 -0.006523 0.019478 -0.008051 -0.005306 0.007415
# 4 -0.000257 0.008573 -0.008051 0.031061 0.003468 -0.003303
# 5 0.000918 0.001082 -0.005306 0.003468 0.021488 -0.004972
# 6 -0.014229 -0.000583 0.007415 -0.003303 -0.004972 0.038709
#
#
# Mechanical properties :
#
#
# Convention : Reuss Voigt Hill
#
# Bulk Modulus (GPa) = 56.27786 65.53060 60.90423
# Shear Modulus (GPa) = 26.55903 36.89540 31.72722
#
# Velocity S-wave (km/s) = 3.19107 3.76111 3.48775
# Velocity P-wave (km/s) = 5.92913 6.63220 6.29050
#
# Compressibility (1/GPa) = 0.01776898
#
# Stress axis : x y z
#
# Youngs Moduli (GPa) = 46.83285 73.56588 51.33987
#
# Poissons Ratio (x) = 0.23280 0.44357
# Poissons Ratio (y) = 0.14820 0.33489
# Poissons Ratio (z) = 0.40463 0.47987
#
# Static dielectric constant tensor:
#      x y z
#    x 2.215100 -0.128540 -0.022520 
#    y -0.128540 2.163000 0.073910 
#    z -0.022520 0.073910 2.042300 
# 
# From -- ./inp_files/17542.got.cif
#   From: 2010.05.17/outbox.cif.g08.bks.cpg/sg2_9_cif.got.tgz:17542.got - 2010.06.03 11:33:40.
