data_PCOD9049816
_publ_section_title
;
Structure prediction by ZEFSAII (Michael W. Deem and Ramdas Pophale) SiO2 
 PCOD9049816
Probable space group: P -1
;
_chemical_formula_sum "Si O2"
_cell_formula_units_Z 12
_cell_length_a 4.812704
_cell_length_b 20.889983
_cell_length_c 7.327717
_cell_angle_alpha 44.453155
_cell_angle_beta 73.716947
_cell_angle_gamma 60.976190
_cell_volume 448.520625
_symmetry_space_group_name_H-M "P -1"
_symmetry_group_IT_number 2
_symmetry_cell_setting 'triclinic'
loop_
_space_group_symop_operation_xyz
x,y,z
-x,-y,-z
loop_
_atom_site_type_symbol
_atom_site_label
_atom_site_fract_x
_atom_site_fract_y
_atom_site_fract_z
Si Si1 0.706383 0.037544 0.747824
Si Si2 0.185084 0.819191 0.060298
Si Si3 0.251160 0.667065 0.038831
Si Si4 0.670189 0.466671 0.231774
Si Si5 0.757699 0.647650 0.415546
Si Si6 0.948358 0.824899 0.472433
O O1 0.418128 0.114168 0.521134
O O2 0.871420 0.102846 0.676545
O O3 0.992450 0.937991 0.817998
O O4 0.500000 0.000000 0.000000
O O5 0.537934 0.768008 0.190117
O O6 0.228124 0.755848 0.998314
O O7 0.981192 0.801418 0.299333
O O8 0.018499 0.623556 0.259315
O O9 0.581488 0.571584 0.139841
O O10 0.119274 0.722767 0.759532
O O11 0.482878 0.403219 0.471016
O O12 0.500000 0.500000 0.000000
O O13 0.957494 0.602313 0.655992
#
# Coordination Sequence:
#
# PCOD9049816 Si02
#       6
#     2   2   2   2   2   2
#     4  10  24  47  75 105 147 194 239 296 357 421
#     4  11  26  47  75 106 147 190 242 296 356 419
#     4  12  29  45  76 110 144 191 242 297 361 427
#     4  12  28  51  75 107 143 194 239 297 363 433
#     4  12  27  48  73 105 151 182 240 303 357 425
#     4  11  27  47  74 106 149 191 243 291 360 430
#
# _framework density 26.754622000000001
#
# number of rings (size 3 to 8) (size 9 to 14) (size 15 to 20)
#    0.000    0.667    1.667    4.500   11.667    1.333 
#    0.000    0.000    0.000    0.000    0.000    0.000 
#    0.000    0.000    0.000    0.000    0.000    0.000 
#
# Total GULP energy -67180.766581 kJ/mol
# GULP energy per Si atom -5598.397215 kJ/mol
# Density = 2.669373 g / cm^3
# Si number density = 26.754622 Si / 1000 Ang^3
#
#
#
# Elastic Constant Matrix: (Units=GPa)
#
#
# Indices 1 2 3 4 5 6 
#
# 1 161.5512 42.9813 21.1685 -22.4300 8.7809 -10.8149
# 2 42.9813 122.7785 18.4929 -38.0754 9.8964 -6.9959
# 3 21.1685 18.4929 94.7176 -10.8921 10.7181 -6.2512
# 4 -22.4300 -38.0754 -10.8921 50.9398 -10.1998 14.5546
# 5 8.7809 9.8964 10.7181 -10.1998 53.6405 -13.2299
# 6 -10.8149 -6.9959 -6.2512 14.5546 -13.2299 46.6385
#
#
#
# Elastic Compliance Matrix: (Units=1/GPa)
#
#
# Indices 1 2 3 4 5 6 
#
# 1 0.007053 -0.001879 -0.000996 0.001227 -0.000182 0.000786
# 2 -0.001879 0.011297 -0.000937 0.007725 -0.000468 -0.001411
# 3 -0.000996 -0.000937 0.011273 0.000821 -0.001659 0.000413
# 4 0.001227 0.007725 0.000821 0.028446 0.001949 -0.006771
# 5 -0.000182 -0.000468 -0.001659 0.001949 0.020675 0.004922
# 6 0.000786 -0.001411 0.000413 -0.006771 0.004922 0.024977
#
#
# Mechanical properties :
#
#
# Convention : Reuss Voigt Hill
#
# Bulk Modulus (GPa) = 45.45870 60.48140 52.97005
# Shear Modulus (GPa) = 42.13084 50.00408 46.06746
#
# Velocity S-wave (km/s) = 3.97257 4.32787 4.15402
# Velocity P-wave (km/s) = 6.17006 6.90138 6.54594
#
# Compressibility (1/GPa) = 0.02199799
#
# Stress axis : x y z
#
# Youngs Moduli (GPa) = 141.77737 88.51996 88.71041
#
# Poissons Ratio (x) = 0.16634 0.08835
# Poissons Ratio (y) = 0.26642 0.08316
# Poissons Ratio (z) = 0.14120 0.08298
#
# Static dielectric constant tensor:
#      x y z
#    x 2.101480 -0.015610 0.055930 
#    y -0.015610 2.102980 0.009600 
#    z 0.055930 0.009600 2.160250 
# 
# From -- ./inp_files/88439.got.cif
#   From: 2010.05.17/outbox.cif.g08.bks.cpg/sg2_45_cif.got.tgz:88439.got - 2010.06.03 11:33:40.
