data_PCOD9049496
_publ_section_title
;
Structure prediction by ZEFSAII (Michael W. Deem and Ramdas Pophale) SiO2 
 PCOD9049496
Probable space group: P -1
;
_chemical_formula_sum "Si O2"
_cell_formula_units_Z 14
_cell_length_a 4.956123
_cell_length_b 20.999880
_cell_length_c 5.332061
_cell_angle_alpha 87.516883
_cell_angle_beta 86.414673
_cell_angle_gamma 72.407931
_cell_volume 527.787171
_symmetry_space_group_name_H-M "P -1"
_symmetry_group_IT_number 2
_symmetry_cell_setting 'triclinic'
loop_
_space_group_symop_operation_xyz
x,y,z
-x,-y,-z
loop_
_atom_site_type_symbol
_atom_site_label
_atom_site_fract_x
_atom_site_fract_y
_atom_site_fract_z
Si Si1 0.288437 0.207568 0.513088
Si Si2 0.066313 0.568023 0.933145
Si Si3 0.738900 0.963181 0.689776
Si Si4 0.857825 0.169975 0.239704
Si Si5 0.165090 0.672599 0.232627
Si Si6 0.516157 0.368177 0.271192
Si Si7 0.608350 0.097344 0.879567
O O1 0.102390 0.202445 0.282157
O O2 0.096457 0.264612 0.689534
O O3 0.673694 0.321044 0.037075
O O4 0.394587 0.139053 0.675553
O O5 0.365850 0.567615 0.795764
O O6 0.815642 0.612720 0.763413
O O7 0.058154 0.609315 0.182097
O O8 0.000000 0.500000 0.000000
O O9 0.582050 0.926832 0.900753
O O10 0.018315 0.903106 0.621418
O O11 0.500000 0.000000 0.500000
O O12 0.814653 0.026213 0.792135
O O13 0.579596 0.213998 0.389357
O O14 0.764252 0.147694 0.982418
O O15 0.378072 0.656291 0.456084
#
# Coordination Sequence:
#
# PCOD9049496 Si02
#       7
#     2   2   2   2   2   2   2
#     4  12  29  44  70  97 139 178 237 284 350 425
#     4  10  24  46  75 112 148 192 241 295 355 420
#     4  11  23  47  68 100 134 170 229 291 359 424
#     4  12  26  46  66 101 129 178 227 286 352 423
#     4  10  28  46  72 106 147 194 241 297 354 423
#     4  10  25  43  73 105 149 189 240 292 357 416
#     4  11  25  44  71  97 133 178 224 291 357 419
#
# _framework density 26.525841
#
# number of rings (size 3 to 8) (size 9 to 14) (size 15 to 20)
#    0.857    0.286    2.857    0.857    8.000    4.571 
#    0.000    0.000    0.000    0.000    0.000    0.000 
#    0.000    0.000    0.000    0.000    0.000    0.000 
#
# Total GULP energy -78378.438533 kJ/mol
# GULP energy per Si atom -5598.459895 kJ/mol
# Density = 2.646547 g / cm^3
# Si number density = 26.525841 Si / 1000 Ang^3
#
#
#
# Elastic Constant Matrix: (Units=GPa)
#
#
# Indices 1 2 3 4 5 6 
#
# 1 103.3030 8.1454 31.7654 4.5393 22.0211 -2.6637
# 2 8.1454 87.6538 39.1538 20.1923 7.0832 1.0685
# 3 31.7654 39.1538 138.9838 -6.3310 36.3423 -4.6370
# 4 4.5393 20.1923 -6.3310 35.6288 6.0543 4.9494
# 5 22.0211 7.0832 36.3423 6.0543 44.8017 -8.5059
# 6 -2.6637 1.0685 -4.6370 4.9494 -8.5059 39.3848
#
#
#
# Elastic Compliance Matrix: (Units=1/GPa)
#
#
# Indices 1 2 3 4 5 6 
#
# 1 0.011062 0.000281 -0.001603 -0.001138 -0.004062 -0.000183
# 2 0.000281 0.016427 -0.006231 -0.011301 0.004062 0.001137
# 3 -0.001603 -0.006231 0.012055 0.007671 -0.009327 -0.001498
# 4 -0.001138 -0.011301 0.007671 0.038536 -0.010207 -0.005914
# 5 -0.004062 0.004062 -0.009327 -0.010207 0.033975 0.007137
# 6 -0.000183 0.001137 -0.001498 -0.005914 0.007137 0.027456
#
#
# Mechanical properties :
#
#
# Convention : Reuss Voigt Hill
#
# Bulk Modulus (GPa) = 40.92066 54.22999 47.57532
# Shear Modulus (GPa) = 30.71936 40.68813 35.70375
#
# Velocity S-wave (km/s) = 3.40677 3.92076 3.67277
# Velocity P-wave (km/s) = 5.56192 6.40196 5.99667
#
# Compressibility (1/GPa) = 0.02443754
#
# Stress axis : x y z
#
# Youngs Moduli (GPa) = 90.39698 60.87548 82.95230
#
# Poissons Ratio (x) = -0.01709 0.13298
# Poissons Ratio (y) = -0.02537 0.51688
# Poissons Ratio (z) = 0.14491 0.37932
#
# Static dielectric constant tensor:
#      x y z
#    x 2.045690 0.024200 -0.043460 
#    y 0.024200 2.112310 0.035920 
#    z -0.043460 0.035920 2.089600 
# 
# From -- ./inp_files/8164.got.cif
#   From: 2010.05.17/outbox.cif.g08.bks.cpg/sg2_5_cif.got.tgz:8164.got - 2010.06.03 11:33:40.
