data_PCOD9049465
_publ_section_title
;
Structure prediction by ZEFSAII (Michael W. Deem and Ramdas Pophale) SiO2 
 PCOD9049465
Probable space group: P -1
;
_chemical_formula_sum "Si O2"
_cell_formula_units_Z 14
_cell_length_a 6.369919
_cell_length_b 17.136630
_cell_length_c 11.390691
_cell_angle_alpha 142.541560
_cell_angle_beta 131.651290
_cell_angle_gamma 51.480589
_cell_volume 552.501796
_symmetry_space_group_name_H-M "P -1"
_symmetry_group_IT_number 2
_symmetry_cell_setting 'triclinic'
loop_
_space_group_symop_operation_xyz
x,y,z
-x,-y,-z
loop_
_atom_site_type_symbol
_atom_site_label
_atom_site_fract_x
_atom_site_fract_y
_atom_site_fract_z
Si Si1 0.053079 0.631872 0.620398
Si Si2 0.185614 0.191829 0.036691
Si Si3 0.343264 0.971387 0.115019
Si Si4 0.699473 0.486019 0.944801
Si Si5 0.690179 0.600791 0.848195
Si Si6 0.546401 0.753200 0.426693
Si Si7 0.613032 0.125727 0.730254
O O1 0.386386 0.606380 0.677795
O O2 0.000000 0.500000 0.500000
O O3 0.919315 0.741695 0.799224
O O4 0.856245 0.671827 0.482714
O O5 0.168691 0.304197 0.066776
O O6 0.499589 0.103206 0.028544
O O7 0.953792 0.106397 0.817626
O O8 0.428874 0.872269 0.140933
O O9 0.460669 0.102480 0.346739
O O10 0.000000 0.000000 0.000000
O O11 0.564239 0.594016 0.926214
O O12 0.676698 0.335829 0.717873
O O13 0.500000 0.500000 0.000000
O O14 0.014631 0.498864 0.121038
O O15 0.517199 0.774373 0.301919
O O16 0.500000 0.000000 0.500000
#
# Coordination Sequence:
#
# PCOD9049465 Si02
#       7
#     2   2   2   2   2   2   2
#     4  12  27  49  74 111 157 197 253 314 379 456
#     4  12  25  47  78 106 152 199 251 313 379 451
#     4  11  26  50  76 113 150 200 253 314 383 446
#     4  11  24  46  74 110 153 199 252 309 382 453
#     4  11  24  45  73 109 148 201 247 310 380 443
#     4  11  24  47  74 109 155 194 248 318 368 453
#     4  10  24  46  74 110 149 199 250 311 372 451
#
# _framework density 25.339282000000001
#
# number of rings (size 3 to 8) (size 9 to 14) (size 15 to 20)
#    0.000    0.857    2.857    3.429    2.000    5.143 
#    5.143    4.286    0.000    0.000    0.000    0.000 
#    0.000    0.000    0.000    0.000    0.000    0.000 
#
# Total GULP energy -78049.628434 kJ/mol
# GULP energy per Si atom -5574.973460 kJ/mol
# Density = 2.528161 g / cm^3
# Si number density = 25.339282 Si / 1000 Ang^3
#
#
#
# Elastic Constant Matrix: (Units=GPa)
#
#
# Indices 1 2 3 4 5 6 
#
# 1 103.6892 43.0073 61.9152 -14.1621 11.7099 -0.6554
# 2 43.0073 155.9339 34.7479 -24.9980 3.4178 21.4223
# 3 61.9152 34.7479 124.7058 10.3907 11.9415 -11.1639
# 4 -14.1621 -24.9980 10.3907 49.0446 1.2517 19.0755
# 5 11.7099 3.4178 11.9415 1.2517 52.2165 -1.1767
# 6 -0.6554 21.4223 -11.1639 19.0755 -1.1767 61.6709
#
#
#
# Elastic Compliance Matrix: (Units=1/GPa)
#
#
# Indices 1 2 3 4 5 6 
#
# 1 0.016386 -0.000875 -0.008643 0.007505 -0.001898 -0.003444
# 2 -0.000875 0.009553 -0.003453 0.007826 0.000029 -0.006373
# 3 -0.008643 -0.003453 0.014804 -0.010047 -0.000825 0.006879
# 4 0.007505 0.007826 -0.010047 0.034606 -0.001069 -0.015182
# 5 -0.001898 0.000029 -0.000825 -0.001069 0.019801 0.000529
# 6 -0.003444 -0.006373 0.006879 -0.015182 0.000529 0.024343
#
#
# Mechanical properties :
#
#
# Convention : Reuss Voigt Hill
#
# Bulk Modulus (GPa) = 67.56507 73.74107 70.65307
# Shear Modulus (GPa) = 33.25110 48.89697 41.07404
#
# Velocity S-wave (km/s) = 3.62641 4.39759 4.03049
# Velocity P-wave (km/s) = 6.65256 7.41281 7.04295
#
# Compressibility (1/GPa) = 0.01480055
#
# Stress axis : x y z
#
# Youngs Moduli (GPa) = 61.02729 104.67637 67.54806
#
# Poissons Ratio (x) = 0.09164 0.58385
# Poissons Ratio (y) = 0.05343 0.23322
# Poissons Ratio (z) = 0.52748 0.36141
#
# Static dielectric constant tensor:
#      x y z
#    x 2.093460 -0.010080 -0.071060 
#    y -0.010080 2.041620 0.109500 
#    z -0.071060 0.109500 2.161050 
# 
# From -- ./inp_files/369579.got.cif
#   From: 2010.05.17/outbox.cif.g08.bks.cpg/sg2_185_cif.got.tgz:369579.got - 2010.06.03 11:33:40.
