data_PCOD9049089
_publ_section_title
;
Structure prediction by ZEFSAII (Michael W. Deem and Ramdas Pophale) SiO2 
 PCOD9049089
Probable space group: P -1
;
_chemical_formula_sum "Si O2"
_cell_formula_units_Z 14
_cell_length_a 9.362400
_cell_length_b 10.996243
_cell_length_c 9.242135
_cell_angle_alpha 87.476949
_cell_angle_beta 47.371898
_cell_angle_gamma 96.127285
_cell_volume 687.219604
_symmetry_space_group_name_H-M "P -1"
_symmetry_group_IT_number 2
_symmetry_cell_setting 'triclinic'
loop_
_space_group_symop_operation_xyz
x,y,z
-x,-y,-z
loop_
_atom_site_type_symbol
_atom_site_label
_atom_site_fract_x
_atom_site_fract_y
_atom_site_fract_z
Si Si1 0.618771 0.818483 0.946765
Si Si2 0.915530 0.861390 0.004980
Si Si3 0.774368 0.349822 0.662649
Si Si4 0.671000 0.766904 0.445223
Si Si5 0.780574 0.984110 0.585587
Si Si6 0.255354 0.781471 0.591175
Si Si7 0.777136 0.629990 0.633375
O O1 0.751349 0.863997 0.993102
O O2 0.630790 0.929361 0.817989
O O3 0.720483 0.718283 0.793423
O O4 0.403106 0.748475 0.143664
O O5 0.086611 0.801341 0.817218
O O6 0.811708 0.775612 0.209852
O O7 0.000000 0.000000 0.000000
O O8 0.781462 0.336134 0.483847
O O9 0.743519 0.487851 0.711745
O O10 0.990164 0.331874 0.565259
O O11 0.759521 0.882782 0.479542
O O12 0.458488 0.784297 0.534291
O O13 0.661283 0.651414 0.565524
O O14 0.737292 0.106337 0.533839
O O15 0.000000 0.000000 0.500000
#
# Coordination Sequence:
#
# PCOD9049089 Si02
#       7
#     2   2   2   2   2   2   2
#     4  11  22  42  67  97 126 171 220 264 320 385
#     4  12  23  40  64  95 134 171 207 263 324 388
#     4  11  23  43  72  93 125 175 220 272 318 378
#     4  11  24  41  62  96 131 170 212 266 325 384
#     4  11  21  40  65  93 131 170 212 266 314 385
#     4  12  23  40  64  95 134 168 213 261 329 380
#     4  10  24  46  68  94 129 167 224 274 318 374
#
# _framework density 20.371943999999999
#
# number of rings (size 3 to 8) (size 9 to 14) (size 15 to 20)
#    0.000    0.857    5.714    1.714    0.000    3.429 
#    0.000    0.714    0.000    0.000    0.000    0.000 
#    0.000    0.000    0.000    0.000    0.000    0.000 
#
# Total GULP energy -78265.418158 kJ/mol
# GULP energy per Si atom -5590.387011 kJ/mol
# Density = 2.032558 g / cm^3
# Si number density = 20.371944 Si / 1000 Ang^3
#
#
#
# Elastic Constant Matrix: (Units=GPa)
#
#
# Indices 1 2 3 4 5 6 
#
# 1 140.5469 10.1347 37.4520 -9.3117 -3.7065 -1.3935
# 2 10.1347 25.8805 13.1363 7.0807 -1.5991 1.4262
# 3 37.4520 13.1363 131.5343 -4.2481 -5.0029 1.3640
# 4 -9.3117 7.0807 -4.2481 27.2714 8.7645 -0.1680
# 5 -3.7065 -1.5991 -5.0029 8.7645 37.5057 3.2718
# 6 -1.3935 1.4262 1.3640 -0.1680 3.2718 24.2125
#
#
#
# Elastic Compliance Matrix: (Units=1/GPa)
#
#
# Indices 1 2 3 4 5 6 
#
# 1 0.008077 -0.003224 -0.001893 0.003458 -0.000474 0.000849
# 2 -0.003224 0.046686 -0.004016 -0.015496 0.005063 -0.003501
# 3 -0.001893 -0.004016 0.008616 0.001590 0.000455 -0.000408
# 4 0.003458 -0.015496 0.001590 0.045682 -0.011029 0.002830
# 5 -0.000474 0.005063 0.000455 -0.011029 0.029859 -0.004462
# 6 0.000849 -0.003501 -0.000408 0.002830 -0.004462 0.042202
#
#
# Mechanical properties :
#
#
# Convention : Reuss Voigt Hill
#
# Bulk Modulus (GPa) = 22.16720 46.60087 34.38403
# Shear Modulus (GPa) = 23.31823 33.61380 28.46601
#
# Velocity S-wave (km/s) = 3.38690 4.06643 3.74212
# Velocity P-wave (km/s) = 5.11856 6.70615 5.96541
#
# Compressibility (1/GPa) = 0.04511170
#
# Stress axis : x y z
#
# Youngs Moduli (GPa) = 123.80866 21.41991 116.06948
#
# Poissons Ratio (x) = 0.06906 0.21971
# Poissons Ratio (y) = 0.39918 0.46614
# Poissons Ratio (z) = 0.23436 0.08602
#
# Static dielectric constant tensor:
#      x y z
#    x 1.713140 -0.004220 -0.000700 
#    y -0.004220 1.756280 -0.002320 
#    z -0.000700 -0.002320 1.735090 
# 
# From -- ./inp_files/177204.got.cif
#   From: 2010.05.17/outbox.cif.g08.bks.cpg/sg2_89_cif.got.tgz:177204.got - 2010.06.03 11:33:40.
