data_PCOD9049446
_publ_section_title
;
Structure prediction by ZEFSAII (Michael W. Deem and Ramdas Pophale) SiO2 
 PCOD9049446
Probable space group: P -1
;
_chemical_formula_sum "Si O2"
_cell_formula_units_Z 16
_cell_length_a 14.154229
_cell_length_b 11.353619
_cell_length_c 13.452022
_cell_angle_alpha 76.811459
_cell_angle_beta 125.964007
_cell_angle_gamma 147.046857
_cell_volume 760.630652
_symmetry_space_group_name_H-M "P -1"
_symmetry_group_IT_number 2
_symmetry_cell_setting 'triclinic'
loop_
_space_group_symop_operation_xyz
x,y,z
-x,-y,-z
loop_
_atom_site_type_symbol
_atom_site_label
_atom_site_fract_x
_atom_site_fract_y
_atom_site_fract_z
Si Si1 0.576755 0.262357 0.542584
Si Si2 0.752397 0.156805 0.859229
Si Si3 0.823187 0.447431 0.358206
Si Si4 0.902186 0.350313 0.691538
Si Si5 0.962676 0.856913 0.370091
Si Si6 0.423747 0.339522 0.720474
Si Si7 0.661030 0.719026 0.642721
Si Si8 0.278753 0.595838 0.168521
O O1 0.822429 0.416839 0.623440
O O2 0.503423 0.313305 0.428514
O O3 0.624833 0.340715 0.671970
O O4 0.332192 0.943630 0.448230
O O5 0.884229 0.301911 0.805295
O O6 0.700199 0.239633 0.860453
O O7 0.471969 0.838520 0.733001
O O8 0.969265 0.284712 0.028871
O O9 0.917463 0.671703 0.391065
O O10 0.000000 0.500000 0.500000
O O11 0.842716 0.444524 0.251647
O O12 0.711108 0.706153 0.268741
O O13 0.189854 0.102752 0.541664
O O14 0.075572 0.992808 0.304114
O O15 0.652410 0.627400 0.751087
O O16 0.552097 0.327092 0.817404
O O17 0.500000 0.500000 0.500000
#
# Coordination Sequence:
#
# PCOD9049446 Si02
#       8
#     2   2   2   2   2   2   2   2
#     4  10  17  34  60  86 110 148 192 241 286 334
#     4  10  24  39  62  84 120 159 184 240 299 346
#     4  12  22  36  60  89 118 150 194 248 293 335
#     4  10  21  36  58  87 117 145 195 242 291 342
#     4  10  21  34  54  91 116 141 199 244 278 344
#     4  10  20  35  59  84 116 155 193 240 288 335
#     4  10  18  33  54  84 117 149 186 247 282 326
#     4  10  19  43  59  83 121 154 196 234 288 357
#
# _framework density 21.035174999999999
#
# number of rings (size 3 to 8) (size 9 to 14) (size 15 to 20)
#    0.000    1.750    3.750    3.000    3.500    0.000 
#    2.250    7.500    0.000    1.500    0.000    0.000 
#    0.000    0.000    0.000    0.000    0.000    0.000 
#
# Total GULP energy -89248.741654 kJ/mol
# GULP energy per Si atom -5578.046353 kJ/mol
# Density = 2.098730 g / cm^3
# Si number density = 21.035175 Si / 1000 Ang^3
#
#
#
# Elastic Constant Matrix: (Units=GPa)
#
#
# Indices 1 2 3 4 5 6 
#
# 1 124.7562 33.9494 20.5057 -8.8269 20.4638 -5.1938
# 2 33.9494 78.2653 9.9032 2.5458 0.1291 -4.1849
# 3 20.5057 9.9032 47.5180 3.3758 6.2221 -0.6958
# 4 -8.8269 2.5458 3.3758 12.3689 -2.1863 -0.4932
# 5 20.4638 0.1291 6.2221 -2.1863 22.3249 -3.4253
# 6 -5.1938 -4.1849 -0.6958 -0.4932 -3.4253 23.2282
#
#
#
# Elastic Compliance Matrix: (Units=1/GPa)
#
#
# Indices 1 2 3 4 5 6 
#
# 1 0.012156 -0.005065 -0.003635 0.009119 -0.009123 0.000545
# 2 -0.005065 0.015417 -0.001215 -0.005541 0.004685 0.002182
# 3 -0.003635 -0.001215 0.024137 -0.009779 -0.004527 -0.001184
# 4 0.009119 -0.005541 -0.009779 0.091987 0.003910 0.003277
# 5 -0.009123 0.004685 -0.004527 0.003910 0.055846 0.006987
# 6 0.000545 0.002182 -0.001184 0.003277 0.006987 0.044630
#
#
# Mechanical properties :
#
#
# Convention : Reuss Voigt Hill
#
# Bulk Modulus (GPa) = 31.36885 42.13957 36.75421
# Shear Modulus (GPa) = 18.20626 23.99647 21.10136
#
# Velocity S-wave (km/s) = 2.94516 3.38120 3.17069
# Velocity P-wave (km/s) = 5.14881 5.94305 5.56013
#
# Compressibility (1/GPa) = 0.03187876
#
# Stress axis : x y z
#
# Youngs Moduli (GPa) = 82.26416 64.86260 41.43041
#
# Poissons Ratio (x) = 0.32855 0.15061
# Poissons Ratio (y) = 0.41670 0.05034
# Poissons Ratio (z) = 0.29905 0.07881
#
# Static dielectric constant tensor:
#      x y z
#    x 1.816470 -0.004610 -0.003870 
#    y -0.004610 1.798470 -0.005620 
#    z -0.003870 -0.005620 1.777920 
# 
# From -- ./inp_files/532529.got.cif
#   From: 2010.05.17/outbox.cif.g08.bks.cpg/sg2_267_cif.got.tgz:532529.got - 2010.06.03 11:33:40.
