data_PCOD9049936
_publ_section_title
;
Structure prediction by ZEFSAII (Michael W. Deem and Ramdas Pophale) SiO2 
 PCOD9049936
Probable space group: P -1
;
_chemical_formula_sum "Si O2"
_cell_formula_units_Z 16
_cell_length_a 9.641350
_cell_length_b 7.819941
_cell_length_c 15.341661
_cell_angle_alpha 135.090713
_cell_angle_beta 111.361359
_cell_angle_gamma 73.490878
_cell_volume 759.898149
_symmetry_space_group_name_H-M "P -1"
_symmetry_group_IT_number 2
_symmetry_cell_setting 'triclinic'
loop_
_space_group_symop_operation_xyz
x,y,z
-x,-y,-z
loop_
_atom_site_type_symbol
_atom_site_label
_atom_site_fract_x
_atom_site_fract_y
_atom_site_fract_z
Si Si1 0.606115 0.416335 0.772667
Si Si2 0.119560 0.662598 0.845894
Si Si3 0.757884 0.967823 0.723315
Si Si4 0.937156 0.291100 0.349924
Si Si5 0.794420 0.825642 0.880707
Si Si6 0.603351 0.618949 0.137619
Si Si7 0.493611 0.689733 0.468034
Si Si8 0.353730 0.820705 0.650788
O O1 0.461792 0.467168 0.816302
O O2 0.554994 0.257966 0.621883
O O3 0.716011 0.246987 0.795234
O O4 0.409627 0.091206 0.769008
O O5 0.112294 0.613956 0.723062
O O6 0.225787 0.474494 0.854820
O O7 0.953038 0.681268 0.852717
O O8 0.817782 0.069974 0.028299
O O9 0.749168 0.903722 0.800280
O O10 0.637178 0.813838 0.586941
O O11 0.924309 0.896408 0.704034
O O12 0.798771 0.191009 0.335280
O O13 0.000000 0.500000 0.500000
O O14 0.683461 0.651911 0.840724
O O15 0.461152 0.597146 0.626435
O O16 0.500000 0.500000 0.000000
O O17 0.355510 0.758928 0.525427
#
# Coordination Sequence:
#
# PCOD9049936 Si02
#       8
#     2   2   2   2   2   2   2   2
#     4  12  26  41  73 101 132 186 231 278 345 408
#     4  10  25  46  67  97 138 179 232 280 342 414
#     4  11  23  45  67 101 137 176 230 285 335 410
#     4  11  24  43  68  98 136 182 224 284 350 402
#     4  10  24  48  69  96 135 184 230 281 337 410
#     4  12  28  44  68 106 143 175 231 286 342 414
#     4  11  23  43  69  96 140 179 230 280 343 405
#     4  11  24  42  69 100 137 182 224 287 343 402
#
# _framework density 21.055454000000001
#
# number of rings (size 3 to 8) (size 9 to 14) (size 15 to 20)
#    0.000    1.000    2.500    3.375    7.000    0.500 
#    0.000    3.750    0.000    0.000    0.000    0.000 
#    0.000    0.000    0.000    0.000    0.000    0.000 
#
# Total GULP energy -89432.390233 kJ/mol
# GULP energy per Si atom -5589.524390 kJ/mol
# Density = 2.100753 g / cm^3
# Si number density = 21.055454 Si / 1000 Ang^3
#
#
#
# Elastic Constant Matrix: (Units=GPa)
#
#
# Indices 1 2 3 4 5 6 
#
# 1 69.9540 19.5046 5.7388 14.8248 -0.9261 9.2478
# 2 19.5046 82.8641 39.1326 0.6543 -5.0662 -3.4249
# 3 5.7388 39.1326 84.6312 10.6993 -2.3907 7.4288
# 4 14.8248 0.6543 10.6993 30.2006 0.9195 12.2935
# 5 -0.9261 -5.0662 -2.3907 0.9195 21.9897 2.2673
# 6 9.2478 -3.4249 7.4288 12.2935 2.2673 36.4907
#
#
#
# Elastic Compliance Matrix: (Units=1/GPa)
#
#
# Indices 1 2 3 4 5 6 
#
# 1 0.017749 -0.005440 0.002629 -0.008427 0.000414 -0.002730
# 2 -0.005440 0.017608 -0.008485 0.003877 0.002402 0.003303
# 3 0.002629 -0.008485 0.016565 -0.005806 0.000499 -0.002910
# 4 -0.008427 0.003877 -0.005806 0.043723 -0.000787 -0.011000
# 5 0.000414 0.002402 0.000499 -0.000787 0.046402 -0.002599
# 6 -0.002730 0.003303 -0.002910 -0.011000 -0.002599 0.032866
#
#
# Mechanical properties :
#
#
# Convention : Reuss Voigt Hill
#
# Bulk Modulus (GPa) = 34.09683 40.68903 37.39293
# Shear Modulus (GPa) = 24.12172 29.27441 26.69807
#
# Velocity S-wave (km/s) = 3.38839 3.73278 3.56475
# Velocity P-wave (km/s) = 5.61580 6.15994 5.89415
#
# Compressibility (1/GPa) = 0.02932824
#
# Stress axis : x y z
#
# Youngs Moduli (GPa) = 56.34258 56.79095 60.36907
#
# Poissons Ratio (x) = 0.30895 -0.15869
# Poissons Ratio (y) = 0.30651 0.51225
# Poissons Ratio (z) = -0.14810 0.48189
#
# Static dielectric constant tensor:
#      x y z
#    x 1.778270 0.002640 -0.001380 
#    y 0.002640 1.759320 -0.008540 
#    z -0.001380 -0.008540 1.756320 
# 
# From -- ./inp_files/555542.got.cif
#   From: 2010.05.17/outbox.cif.g08.bks.cpg/sg2_278_cif.got.tgz:555542.got - 2010.06.03 11:33:40.
