data_PCOD9049492
_publ_section_title
;
Structure prediction by ZEFSAII (Michael W. Deem and Ramdas Pophale) SiO2 
 PCOD9049492
Probable space group: P -1
;
_chemical_formula_sum "Si O2"
_cell_formula_units_Z 12
_cell_length_a 6.505623
_cell_length_b 10.444764
_cell_length_c 12.153317
_cell_angle_alpha 125.470418
_cell_angle_beta 108.060115
_cell_angle_gamma 108.938864
_cell_volume 485.091616
_symmetry_space_group_name_H-M "P -1"
_symmetry_group_IT_number 2
_symmetry_cell_setting 'triclinic'
loop_
_space_group_symop_operation_xyz
x,y,z
-x,-y,-z
loop_
_atom_site_type_symbol
_atom_site_label
_atom_site_fract_x
_atom_site_fract_y
_atom_site_fract_z
Si Si1 0.235243 0.221671 0.091772
Si Si2 0.809342 0.454822 0.730144
Si Si3 0.676218 0.353644 0.408076
Si Si4 0.403255 0.945371 0.268275
Si Si5 0.402459 0.617362 0.982991
Si Si6 0.762077 0.977484 0.516407
O O1 0.102680 0.330781 0.105053
O O2 0.493391 0.357877 0.289905
O O3 0.380123 0.240161 0.010056
O O4 0.000000 0.000000 0.000000
O O5 0.714673 0.431732 0.576912
O O6 0.511712 0.266072 0.641665
O O7 0.081467 0.471584 0.806153
O O8 0.000000 0.500000 0.500000
O O9 0.511474 0.109658 0.272296
O O10 0.660462 0.064722 0.459953
O O11 0.175242 0.924265 0.301326
O O12 0.384237 0.758003 0.132018
O O13 0.500000 0.500000 0.000000
O O14 0.000000 0.000000 0.500000
#
# Coordination Sequence:
#
# PCOD9049492 Si02
#       6
#     2   2   2   2   2   2
#     4  12  28  46  77 117 159 210 260 323 399 471
#     4  11  26  48  77 110 151 205 270 318 398 468
#     4  11  24  46  77 107 153 202 258 317 386 469
#     4  10  25  43  72 108 153 201 259 311 395 459
#     4  12  28  50  77 110 162 209 263 333 395 465
#     4  10  24  46  75 109 152 201 261 325 391 465
#
# _framework density 24.737590999999998
#
# number of rings (size 3 to 8) (size 9 to 14) (size 15 to 20)
#    0.000    1.000    1.667    2.500    4.667   14.667 
#    0.000    0.833    0.000    0.000    0.000    0.000 
#    0.000    0.000    0.000    0.000    0.000    0.000 
#
# Total GULP energy -67026.725757 kJ/mol
# GULP energy per Si atom -5585.560480 kJ/mol
# Density = 2.468129 g / cm^3
# Si number density = 24.737591 Si / 1000 Ang^3
#
#
#
# Elastic Constant Matrix: (Units=GPa)
#
#
# Indices 1 2 3 4 5 6 
#
# 1 184.2912 93.9855 66.4316 -0.3680 6.4577 13.8538
# 2 93.9855 138.2139 37.4254 -6.0072 -10.4833 23.5806
# 3 66.4316 37.4254 126.2827 -6.4969 -6.5772 12.5059
# 4 -0.3680 -6.0072 -6.4969 46.6881 -5.5514 0.7803
# 5 6.4577 -10.4833 -6.5772 -5.5514 51.7596 -0.6732
# 6 13.8538 23.5806 12.5059 0.7803 -0.6732 52.4788
#
#
#
# Elastic Compliance Matrix: (Units=1/GPa)
#
#
# Indices 1 2 3 4 5 6 
#
# 1 0.010014 -0.006284 -0.003760 -0.001647 -0.003163 0.001060
# 2 -0.006284 0.012467 0.000297 0.002081 0.003518 -0.004000
# 3 -0.003760 0.000297 0.010153 0.001683 0.001980 -0.001560
# 4 -0.001647 0.002081 0.001683 0.022310 0.003218 -0.001192
# 5 -0.003163 0.003518 0.001980 0.003218 0.021011 -0.000996
# 6 0.001060 -0.004000 -0.001560 -0.001192 -0.000996 0.020949
#
#
# Mechanical properties :
#
#
# Convention : Reuss Voigt Hill
#
# Bulk Modulus (GPa) = 76.09807 93.83031 84.96419
# Shear Modulus (GPa) = 41.39814 46.91499 44.15657
#
# Velocity S-wave (km/s) = 4.09527 4.35961 4.22951
# Velocity P-wave (km/s) = 7.29319 7.95954 7.63364
#
# Compressibility (1/GPa) = 0.01314094
#
# Stress axis : x y z
#
# Youngs Moduli (GPa) = 99.86007 80.20996 98.49439
#
# Poissons Ratio (x) = 0.50401 0.37035
# Poissons Ratio (y) = 0.62749 -0.02926
# Poissons Ratio (z) = 0.37548 -0.02383
#
# Static dielectric constant tensor:
#      x y z
#    x 2.031750 -0.031000 -0.045930 
#    y -0.031000 2.131340 -0.014970 
#    z -0.045930 -0.014970 2.096380 
# 
# From -- ./inp_files/365464.got.cif
#   From: 2010.05.17/outbox.cif.g08.bks.cpg/sg2_183_cif.got.tgz:365464.got - 2010.06.03 11:33:40.
