data_PCOD9049996
_publ_section_title
;
Structure prediction by ZEFSAII (Michael W. Deem and Ramdas Pophale) SiO2 
 PCOD9049996
Probable space group: P -1
;
_chemical_formula_sum "Si O2"
_cell_formula_units_Z 16
_cell_length_a 6.631571
_cell_length_b 11.255370
_cell_length_c 11.618671
_cell_angle_alpha 104.064945
_cell_angle_beta 55.970021
_cell_angle_gamma 97.879435
_cell_volume 697.162783
_symmetry_space_group_name_H-M "P -1"
_symmetry_group_IT_number 2
_symmetry_cell_setting 'triclinic'
loop_
_space_group_symop_operation_xyz
x,y,z
-x,-y,-z
loop_
_atom_site_type_symbol
_atom_site_label
_atom_site_fract_x
_atom_site_fract_y
_atom_site_fract_z
Si Si1 0.469244 0.645130 0.523948
Si Si2 0.458000 0.278703 0.233431
Si Si3 0.924000 0.201002 0.459325
Si Si4 0.159232 0.879238 0.897211
Si Si5 0.140942 0.264365 0.870602
Si Si6 0.028783 0.690521 0.300163
Si Si7 0.267761 0.004746 0.657361
Si Si8 0.536564 0.473847 0.849127
O O1 0.500000 0.500000 0.500000
O O2 0.409558 0.690848 0.681454
O O3 0.280871 0.709828 0.511941
O O4 0.740416 0.681905 0.407920
O O5 0.597479 0.157150 0.117559
O O6 0.488419 0.398870 0.177627
O O7 0.179743 0.256418 0.349274
O O8 0.894356 0.205555 0.608087
O O9 0.925401 0.062206 0.379594
O O10 0.259124 0.914535 0.747666
O O11 0.976909 0.772013 0.977125
O O12 0.000000 0.000000 0.000000
O O13 0.341681 0.370579 0.846693
O O14 0.942712 0.300338 0.844383
O O15 0.239281 0.138902 0.751355
O O16 0.189326 0.576945 0.264845
O O17 0.500000 0.000000 0.500000
O O18 0.500000 0.500000 0.000000
#
# Coordination Sequence:
#
# PCOD9049996 Si02
#       8
#     2   2   2   2   2   2   2   2
#     4  11  21  38  68 101 147 188 233 303 365 424
#     4  11  24  43  71 106 144 187 244 299 370 428
#     4  11  24  42  73 111 144 187 246 302 367 437
#     4  10  24  48  72 103 144 196 242 300 372 433
#     4  11  26  47  69 105 151 196 239 303 369 427
#     4  11  23  42  66 109 146 188 245 296 366 431
#     4  11  23  46  78 101 143 192 246 302 364 437
#     4  12  27  44  72 106 146 198 250 297 360 450
#
# _framework density 22.950161999999999
#
# number of rings (size 3 to 8) (size 9 to 14) (size 15 to 20)
#    0.000    1.000    1.250    5.250    3.500    5.500 
#    4.500    1.250    0.000    0.000    0.000    0.000 
#    0.000    0.000    0.000    0.000    0.000    0.000 
#
# Total GULP energy -89166.834918 kJ/mol
# GULP energy per Si atom -5572.927182 kJ/mol
# Density = 2.289793 g / cm^3
# Si number density = 22.950162 Si / 1000 Ang^3
#
#
#
# Elastic Constant Matrix: (Units=GPa)
#
#
# Indices 1 2 3 4 5 6 
#
# 1 111.4670 58.7455 40.1724 5.5636 1.7233 -12.2442
# 2 58.7455 114.6337 51.7087 7.5977 9.4872 -10.9896
# 3 40.1724 51.7087 113.4014 -10.2217 -0.7503 -7.3990
# 4 5.5636 7.5977 -10.2217 39.9098 -4.9992 -2.5099
# 5 1.7233 9.4872 -0.7503 -4.9992 43.2413 11.0924
# 6 -12.2442 -10.9896 -7.3990 -2.5099 11.0924 38.4999
#
#
#
# Elastic Compliance Matrix: (Units=1/GPa)
#
#
# Indices 1 2 3 4 5 6 
#
# 1 0.012831 -0.005360 -0.002071 -0.001173 -0.000043 0.002089
# 2 -0.005360 0.014496 -0.004907 -0.003629 -0.004096 0.002434
# 3 -0.002071 -0.004907 0.012219 0.004592 0.001891 0.000043
# 4 -0.001173 -0.003629 0.004592 0.027605 0.004090 0.000095
# 5 -0.000043 -0.004096 0.001891 0.004090 0.026643 -0.008229
# 6 0.002089 0.002434 0.000043 0.000095 -0.008229 0.029719
#
#
# Mechanical properties :
#
#
# Convention : Reuss Voigt Hill
#
# Bulk Modulus (GPa) = 67.24687 71.19503 69.22095
# Shear Modulus (GPa) = 32.64888 36.92190 34.78539
#
# Velocity S-wave (km/s) = 3.77583 4.01532 3.89741
# Velocity P-wave (km/s) = 6.95514 7.25162 7.10493
#
# Compressibility (1/GPa) = 0.01487058
#
# Stress axis : x y z
#
# Youngs Moduli (GPa) = 77.93626 68.98349 81.84253
#
# Poissons Ratio (x) = 0.36973 0.16951
# Poissons Ratio (y) = 0.41771 0.40158
# Poissons Ratio (z) = 0.16142 0.33849
#
# Static dielectric constant tensor:
#      x y z
#    x 1.922810 -0.022980 -0.025630 
#    y -0.022980 1.949970 0.072450 
#    z -0.025630 0.072450 1.753800 
# 
# From -- ./inp_files/364702.got.cif
#   From: 2010.05.17/outbox.cif.g08.bks.cpg/sg2_183_cif.got.tgz:364702.got - 2010.06.03 11:33:40.
