data_PCOD9049182
_publ_section_title
;
Structure prediction by ZEFSAII (Michael W. Deem and Ramdas Pophale) SiO2 
 PCOD9049182
Probable space group: P -1
;
_chemical_formula_sum "Si O2"
_cell_formula_units_Z 10
_cell_length_a 5.335733
_cell_length_b 9.732609
_cell_length_c 9.871049
_cell_angle_alpha 88.449533
_cell_angle_beta 50.005269
_cell_angle_gamma 96.423388
_cell_volume 386.935506
_symmetry_space_group_name_H-M "P -1"
_symmetry_group_IT_number 2
_symmetry_cell_setting 'triclinic'
loop_
_space_group_symop_operation_xyz
x,y,z
-x,-y,-z
loop_
_atom_site_type_symbol
_atom_site_label
_atom_site_fract_x
_atom_site_fract_y
_atom_site_fract_z
Si Si1 0.866214 0.534662 0.210520
Si Si2 0.296824 0.854326 0.245153
Si Si3 0.187193 0.306951 0.045994
Si Si4 0.812515 0.624452 0.520268
Si Si5 0.777990 0.018207 0.285422
O O1 0.766281 0.614162 0.373946
O O2 0.548510 0.414251 0.291023
O O3 0.151667 0.443349 0.142662
O O4 0.913987 0.640458 0.067461
O O5 0.594872 0.950771 0.216306
O O6 0.054018 0.770777 0.446654
O O7 0.075138 0.939788 0.231360
O O8 0.464630 0.745115 0.100667
O O9 0.940979 0.176479 0.195084
O O10 0.000000 0.500000 0.500000
O O11 0.500000 0.000000 0.500000
#
# Coordination Sequence:
#
# PCOD9049182 Si02
#       5
#     2   2   2   2   2
#     4  10  24  46  70 106 144 187 238 293 358 421
#     4  12  26  48  73 106 142 190 239 294 359 423
#     4  11  24  46  72 105 144 187 236 298 356 423
#     4  11  23  44  73 101 141 187 238 292 351 425
#     4  12  28  49  74 103 144 193 240 294 354 432
#
# _framework density 25.844100999999998
#
# number of rings (size 3 to 8) (size 9 to 14) (size 15 to 20)
#    0.000    0.800    2.000    4.200    5.600    2.400 
#    3.600    0.000    0.000    0.000    0.000    0.000 
#    0.000    0.000    0.000    0.000    0.000    0.000 
#
# Total GULP energy -56046.522037 kJ/mol
# GULP energy per Si atom -5604.652204 kJ/mol
# Density = 2.578528 g / cm^3
# Si number density = 25.844101 Si / 1000 Ang^3
#
#
#
# Elastic Constant Matrix: (Units=GPa)
#
#
# Indices 1 2 3 4 5 6 
#
# 1 124.6194 58.5759 38.8976 3.4305 -17.6066 -27.1560
# 2 58.5759 147.7040 52.5944 -15.1157 -9.2096 -46.0584
# 3 38.8976 52.5944 164.4329 -21.0548 -9.0867 -20.3819
# 4 3.4305 -15.1157 -21.0548 64.0791 -3.1062 -1.9878
# 5 -17.6066 -9.2096 -9.0867 -3.1062 48.3846 5.8682
# 6 -27.1560 -46.0584 -20.3819 -1.9878 5.8682 43.0961
#
#
#
# Elastic Compliance Matrix: (Units=1/GPa)
#
#
# Indices 1 2 3 4 5 6 
#
# 1 0.010836 -0.003021 -0.001328 -0.001519 0.002714 0.002531
# 2 -0.003021 0.012016 -0.001489 0.002821 -0.000171 0.010387
# 3 -0.001328 -0.001489 0.007316 0.002186 0.000621 0.001048
# 4 -0.001519 0.002821 0.002186 0.017238 0.001047 0.003744
# 5 0.002714 -0.000171 0.000621 0.001047 0.021942 -0.001118
# 6 0.002531 0.010387 0.001048 0.003744 -0.001118 0.036721
#
#
# Mechanical properties :
#
#
# Convention : Reuss Voigt Hill
#
# Bulk Modulus (GPa) = 54.08013 81.87691 67.97852
# Shear Modulus (GPa) = 40.35234 50.22451 45.28843
#
# Velocity S-wave (km/s) = 3.95571 4.41314 4.19067
# Velocity P-wave (km/s) = 6.46796 7.59721 7.05522
#
# Compressibility (1/GPa) = 0.01849108
#
# Stress axis : x y z
#
# Youngs Moduli (GPa) = 92.28599 83.22404 136.68504
#
# Poissons Ratio (x) = 0.25145 0.18147
# Poissons Ratio (y) = 0.27883 0.20357
# Poissons Ratio (z) = 0.12252 0.12395
#
# Static dielectric constant tensor:
#      x y z
#    x 2.087760 0.092700 -0.029200 
#    y 0.092700 2.031670 0.042500 
#    z -0.029200 0.042500 2.094900 
# 
# From -- ./inp_files/15472.got.cif
#   From: 2010.05.17/outbox.cif.g08.bks.cpg/sg2_8_cif.got.tgz:15472.got - 2010.06.03 11:33:40.
