data_PCOD9049641
_publ_section_title
;
Structure prediction by ZEFSAII (Michael W. Deem and Ramdas Pophale) SiO2 
 PCOD9049641
Probable space group: P -1
;
_chemical_formula_sum "Si O2"
_cell_formula_units_Z 14
_cell_length_a 12.933984
_cell_length_b 8.534890
_cell_length_c 4.877540
_cell_angle_alpha 89.505326
_cell_angle_beta 93.104571
_cell_angle_gamma 87.044994
_cell_volume 536.891917
_symmetry_space_group_name_H-M "P -1"
_symmetry_group_IT_number 2
_symmetry_cell_setting 'triclinic'
loop_
_space_group_symop_operation_xyz
x,y,z
-x,-y,-z
loop_
_atom_site_type_symbol
_atom_site_label
_atom_site_fract_x
_atom_site_fract_y
_atom_site_fract_z
Si Si1 0.156126 0.668883 0.276645
Si Si2 0.247750 0.367062 0.527428
Si Si3 0.646797 0.888170 0.841532
Si Si4 0.463660 0.791256 0.173011
Si Si5 0.862479 0.868294 0.112798
Si Si6 0.049526 0.816019 0.740349
Si Si7 0.356002 0.663876 0.627699
O O1 0.061648 0.725089 0.459431
O O2 0.256381 0.738348 0.441539
O O3 0.817265 0.516309 0.691352
O O4 0.128123 0.727072 0.970399
O O5 0.317758 0.240308 0.373429
O O6 0.172339 0.277626 0.714666
O O7 0.318124 0.491353 0.687740
O O8 0.576155 0.811763 0.062748
O O9 0.753933 0.940719 0.980644
O O10 0.579406 0.039013 0.728131
O O11 0.392966 0.744201 0.905659
O O12 0.447343 0.671211 0.417398
O O13 0.914794 0.006490 0.282388
O O14 0.939253 0.823272 0.874929
#
# Coordination Sequence:
#
# PCOD9049641 Si02
#       7
#     2   2   2   2   2   2   2
#     4  10  24  47  70 104 144 193 231 288 357 439
#     4  10  28  42  74 106 156 180 240 302 362 408
#     4  11  27  45  72 109 142 185 245 310 338 432
#     4  11  26  47  77 100 143 198 239 283 375 419
#     4  11  27  45  72 109 142 185 245 310 338 432
#     4  11  26  47  77 100 143 198 239 283 375 419
#     4  10  24  47  70 104 144 193 231 288 357 439
#
# _framework density 26.076014000000001
#
# number of rings (size 3 to 8) (size 9 to 14) (size 15 to 20)
#    0.857    0.571    0.000    2.571   14.000    4.571 
#    0.000    0.000    0.000    0.000    0.000    0.000 
#    0.000    0.000    0.000    0.000    0.000    0.000 
#
# Total GULP energy -78506.853892 kJ/mol
# GULP energy per Si atom -5607.632421 kJ/mol
# Density = 2.601666 g / cm^3
# Si number density = 26.076014 Si / 1000 Ang^3
#
#
#
# Elastic Constant Matrix: (Units=GPa)
#
#
# Indices 1 2 3 4 5 6 
#
# 1 139.1989 52.0396 34.0349 6.4972 -20.7580 22.2421
# 2 52.0396 132.5335 50.2035 -19.4090 -12.5759 27.3718
# 3 34.0349 50.2035 112.2301 -4.4422 -10.0963 14.8169
# 4 6.4972 -19.4090 -4.4422 43.6536 3.2451 -1.3387
# 5 -20.7580 -12.5759 -10.0963 3.2451 52.1028 -14.8075
# 6 22.2421 27.3718 14.8169 -1.3387 -14.8075 21.5310
#
#
#
# Elastic Compliance Matrix: (Units=1/GPa)
#
#
# Indices 1 2 3 4 5 6 
#
# 1 0.009606 -0.002658 -0.001051 -0.002999 0.001816 -0.004758
# 2 -0.002658 0.013154 -0.003357 0.005695 -0.002615 -0.013111
# 3 -0.001051 -0.003357 0.011015 -0.000303 0.000356 -0.002001
# 4 -0.002999 0.005695 -0.000303 0.025926 -0.002677 -0.004162
# 5 0.001816 -0.002615 0.000356 -0.002677 0.024629 0.017976
# 6 -0.004758 -0.013111 -0.002001 -0.004162 0.017976 0.081509
#
#
# Mechanical properties :
#
#
# Convention : Reuss Voigt Hill
#
# Bulk Modulus (GPa) = 50.90959 72.94651 61.92805
# Shear Modulus (GPa) = 26.80688 39.96978 33.38833
#
# Velocity S-wave (km/s) = 3.20977 3.91937 3.58218
# Velocity P-wave (km/s) = 5.77085 6.96543 6.39609
#
# Compressibility (1/GPa) = 0.01964267
#
# Stress axis : x y z
#
# Youngs Moduli (GPa) = 104.10464 76.02178 90.78590
#
# Poissons Ratio (x) = 0.20204 0.09544
# Poissons Ratio (y) = 0.27667 0.30478
# Poissons Ratio (z) = 0.10945 0.25521
#
# Static dielectric constant tensor:
#      x y z
#    x 2.121360 -0.024920 0.057510 
#    y -0.024920 1.994700 -0.018810 
#    z 0.057510 -0.018810 1.999860 
# 
# From -- ./inp_files/60933.got.cif
#   From: 2010.05.17/outbox.cif.g08.bks.cpg/sg2_31_cif.got.tgz:60933.got - 2010.06.03 11:33:40.
