data_PCOD9049953
_publ_section_title
;
Structure prediction by ZEFSAII (Michael W. Deem and Ramdas Pophale) SiO2 
 PCOD9049953
Probable space group: P -1
;
_chemical_formula_sum "Si O2"
_cell_formula_units_Z 15
_cell_length_a 17.212614
_cell_length_b 13.993044
_cell_length_c 6.495764
_cell_angle_alpha 129.567971
_cell_angle_beta 120.087706
_cell_angle_gamma 31.044611
_cell_volume 618.076774
_symmetry_space_group_name_H-M "P -1"
_symmetry_group_IT_number 2
_symmetry_cell_setting 'triclinic'
loop_
_space_group_symop_operation_xyz
x,y,z
-x,-y,-z
loop_
_atom_site_type_symbol
_atom_site_label
_atom_site_fract_x
_atom_site_fract_y
_atom_site_fract_z
Si Si1 0.400637 0.657354 0.391503
Si Si2 0.865778 0.189842 0.225980
Si Si3 0.614159 0.770852 0.194456
Si Si4 0.717608 0.840744 0.753764
Si Si5 0.190913 0.985009 0.894929
Si Si6 0.903895 0.338961 0.805892
Si Si7 0.000000 0.500000 0.000000
Si Si8 0.591396 0.588966 0.229518
O O1 0.500000 0.500000 0.500000
O O2 0.478389 0.676344 0.381210
O O3 0.250378 0.878411 0.601957
O O4 0.387832 0.550576 0.087628
O O5 0.918694 0.192818 0.509602
O O6 0.758811 0.415232 0.304846
O O7 0.769448 0.172679 0.120019
O O8 0.000000 0.000000 0.000000
O O9 0.716158 0.762702 0.431616
O O10 0.556760 0.748551 0.274532
O O11 0.458425 0.981863 0.164007
O O12 0.730107 0.562132 0.929266
O O13 0.737801 0.962833 0.891776
O O14 0.849730 0.665866 0.855725
O O15 0.010270 0.202952 0.959449
O O16 0.973568 0.381962 0.846553
#
# Coordination Sequence:
#
# PCOD9049953 Si02
#       8
#     2   2   2   2   2   2   1   2
#     4  11  22  42  66 102 143 183 240 290 356 439
#     4  12  24  40  67 107 142 185 242 294 358 434
#     4  11  24  47  70 108 146 190 242 303 369 428
#     4  10  25  46  72 104 141 188 243 303 360 437
#     4  11  23  43  68 101 143 195 230 298 360 428
#     4  11  25  44  71  99 150 189 238 306 360 434
#     4  10  24  48  70 106 134 200 246 292 368 424
#     4  11  24  39  70 102 139 191 228 299 363 428
#
# _framework density 24.268827999999999
#
# number of rings (size 3 to 8) (size 9 to 14) (size 15 to 20)
#    0.000    1.067    1.333    4.400    3.733    3.733 
#    9.600    0.000    0.000    0.000    0.000    0.000 
#    0.000    0.000    0.000    0.000    0.000    0.000 
#
# Total GULP energy -83563.461654 kJ/mol
# GULP energy per Si atom -5570.897444 kJ/mol
# Density = 2.421359 g / cm^3
# Si number density = 24.268828 Si / 1000 Ang^3
#
#
#
# Elastic Constant Matrix: (Units=GPa)
#
#
# Indices 1 2 3 4 5 6 
#
# 1 95.9455 16.6627 46.0101 -1.4259 10.7231 12.3328
# 2 16.6627 129.8035 29.5485 -16.2112 8.1276 -8.6594
# 3 46.0101 29.5485 104.9741 5.3313 5.2764 -13.3523
# 4 -1.4259 -16.2112 5.3313 38.7726 -12.3171 0.0652
# 5 10.7231 8.1276 5.2764 -12.3171 32.1413 6.1377
# 6 12.3328 -8.6594 -13.3523 0.0652 6.1377 37.6714
#
#
#
# Elastic Compliance Matrix: (Units=1/GPa)
#
#
# Indices 1 2 3 4 5 6 
#
# 1 0.015266 -0.000550 -0.007414 0.000713 -0.002047 -0.007420
# 2 -0.000550 0.008897 -0.002241 0.003842 -0.000514 0.001508
# 3 -0.007414 -0.002241 0.014679 -0.003980 -0.002327 0.007501
# 4 0.000713 0.003842 -0.003980 0.031846 0.012183 -0.002801
# 5 -0.002047 -0.000514 -0.002327 0.012183 0.038222 -0.006521
# 6 -0.007420 0.001508 0.007501 -0.002801 -0.006521 0.033047
#
#
# Mechanical properties :
#
#
# Convention : Reuss Voigt Hill
#
# Bulk Modulus (GPa) = 54.24593 57.24062 55.74327
# Shear Modulus (GPa) = 29.67158 37.61717 33.64437
#
# Velocity S-wave (km/s) = 3.50039 3.94130 3.72737
# Velocity P-wave (km/s) = 6.22396 6.65951 6.44541
#
# Compressibility (1/GPa) = 0.01843456
#
# Stress axis : x y z
#
# Youngs Moduli (GPa) = 65.50387 112.39377 68.12221
#
# Poissons Ratio (x) = 0.06180 0.50502
# Poissons Ratio (y) = 0.03602 0.15266
# Poissons Ratio (z) = 0.48561 0.25186
#
# Static dielectric constant tensor:
#      x y z
#    x 1.924990 -0.022240 -0.044790 
#    y -0.022240 1.998220 -0.076340 
#    z -0.044790 -0.076340 2.038440 
# 
# From -- ./inp_files/111074.got.cif
#   From: 2010.05.17/outbox.cif.g08.bks.cpg/sg2_56_cif.got.tgz:111074.got - 2010.06.03 11:33:40.
