data_PCOD9049584
_publ_section_title
;
Structure prediction by ZEFSAII (Michael W. Deem and Ramdas Pophale) SiO2 
 PCOD9049584
Probable space group: P -1
;
_chemical_formula_sum "Si O2"
_cell_formula_units_Z 16
_cell_length_a 30.426143
_cell_length_b 26.234997
_cell_length_c 5.455713
_cell_angle_alpha 51.911434
_cell_angle_beta 128.513410
_cell_angle_gamma 168.275228
_cell_volume 691.746476
_symmetry_space_group_name_H-M "P -1"
_symmetry_group_IT_number 2
_symmetry_cell_setting 'triclinic'
loop_
_space_group_symop_operation_xyz
x,y,z
-x,-y,-z
loop_
_atom_site_type_symbol
_atom_site_label
_atom_site_fract_x
_atom_site_fract_y
_atom_site_fract_z
Si Si1 0.121860 0.437668 0.676031
Si Si2 0.901482 0.075571 0.222608
Si Si3 0.559832 0.408022 0.183893
Si Si4 0.287611 0.306168 0.833306
Si Si5 0.877349 0.296437 0.223209
Si Si6 0.635130 0.991454 0.770089
Si Si7 0.881495 0.776478 0.841129
Si Si8 0.251096 0.015643 0.652986
O O1 0.377187 0.714930 0.699082
O O2 0.051773 0.433889 0.481902
O O3 0.958521 0.236471 0.485413
O O4 0.051035 0.305940 0.023717
O O5 0.024601 0.155146 0.276043
O O6 0.812845 0.985537 0.456885
O O7 0.672346 0.828136 0.022872
O O8 0.687058 0.613234 0.105027
O O9 0.474687 0.269365 0.521706
O O10 0.721294 0.556052 0.108795
O O11 0.262078 0.323072 0.456332
O O12 0.500000 0.500000 0.000000
O O13 0.080502 0.029095 0.931014
O O14 0.730274 0.133917 0.440029
O O15 0.000000 0.500000 0.000000
O O16 0.741690 0.129089 0.997480
O O17 0.697653 0.984935 0.977838
#
# Coordination Sequence:
#
# PCOD9049584 Si02
#       8
#     2   2   2   2   2   2   2   2
#     4  10  25  42  70 104 143 189 239 295 356 428
#     4  11  23  44  68 102 136 181 238 296 359 433
#     4  11  24  45  68  98 137 182 231 301 368 432
#     4  11  24  48  67  98 134 179 231 299 362 442
#     4  11  25  47  73 109 155 195 243 298 352 428
#     4  11  25  45  75 108 146 198 242 297 363 427
#     4  11  26  45  70  98 131 182 237 294 367 440
#     4  10  24  47  67 102 150 181 239 307 361 430
#
# _framework density 23.129863
#
# number of rings (size 3 to 8) (size 9 to 14) (size 15 to 20)
#    0.000    1.250    2.500    1.500    5.250    3.500 
#    6.750    0.000    0.000    0.000    0.000    0.000 
#    0.000    0.000    0.000    0.000    0.000    0.000 
#
# Total GULP energy -89399.794200 kJ/mol
# GULP energy per Si atom -5587.487138 kJ/mol
# Density = 2.307722 g / cm^3
# Si number density = 23.129863 Si / 1000 Ang^3
#
#
#
# Elastic Constant Matrix: (Units=GPa)
#
#
# Indices 1 2 3 4 5 6 
#
# 1 72.9108 60.2264 27.0344 -1.4043 3.9346 -4.0250
# 2 60.2264 179.4262 60.1626 -5.2016 3.0012 22.7929
# 3 27.0344 60.1626 81.4425 -18.4421 0.8358 5.9566
# 4 -1.4043 -5.2016 -18.4421 38.2089 6.1067 0.1900
# 5 3.9346 3.0012 0.8358 6.1067 36.0734 -2.2004
# 6 -4.0250 22.7929 5.9566 0.1900 -2.2004 29.0756
#
#
#
# Elastic Compliance Matrix: (Units=1/GPa)
#
#
# Indices 1 2 3 4 5 6 
#
# 1 0.021432 -0.007567 -0.002509 -0.001365 -0.000848 0.009357
# 2 -0.007567 0.010910 -0.005194 -0.001213 -0.000278 -0.008549
# 3 -0.002509 -0.005194 0.018912 0.008521 -0.001193 -0.000296
# 4 -0.001365 -0.001213 0.008521 0.030921 -0.005279 -0.001585
# 5 -0.000848 -0.000278 -0.001193 -0.005279 0.028915 0.002568
# 6 0.009357 -0.008549 -0.000296 -0.001585 0.002568 0.042656
#
#
# Mechanical properties :
#
#
# Convention : Reuss Voigt Hill
#
# Bulk Modulus (GPa) = 48.27718 69.84735 59.06226
# Shear Modulus (GPa) = 26.15174 33.09531 29.62352
#
# Velocity S-wave (km/s) = 3.36616 3.78676 3.58264
# Velocity P-wave (km/s) = 6.00213 7.02729 6.53485
#
# Compressibility (1/GPa) = 0.02071372
#
# Stress axis : x y z
#
# Youngs Moduli (GPa) = 46.65892 91.65581 52.87579
#
# Poissons Ratio (x) = 0.69352 0.13269
# Poissons Ratio (y) = 0.35305 0.27466
# Poissons Ratio (z) = 0.11709 0.47611
#
# Static dielectric constant tensor:
#      x y z
#    x 1.946380 0.019570 -0.087790 
#    y 0.019570 1.825990 -0.026690 
#    z -0.087790 -0.026690 2.007340 
# 
# From -- ./inp_files/114556.got.cif
#   From: 2010.05.17/outbox.cif.g08.bks.cpg/sg2_58_cif.got.tgz:114556.got - 2010.06.03 11:33:40.
