data_PCOD9049494
_publ_section_title
;
Structure prediction by ZEFSAII (Michael W. Deem and Ramdas Pophale) SiO2 
 PCOD9049494
Probable space group: P -1
;
_chemical_formula_sum "Si O2"
_cell_formula_units_Z 16
_cell_length_a 7.805358
_cell_length_b 10.725624
_cell_length_c 12.655166
_cell_angle_alpha 134.227744
_cell_angle_beta 64.902542
_cell_angle_gamma 121.095274
_cell_volume 646.554631
_symmetry_space_group_name_H-M "P -1"
_symmetry_group_IT_number 2
_symmetry_cell_setting 'triclinic'
loop_
_space_group_symop_operation_xyz
x,y,z
-x,-y,-z
loop_
_atom_site_type_symbol
_atom_site_label
_atom_site_fract_x
_atom_site_fract_y
_atom_site_fract_z
Si Si1 0.998922 0.382367 0.741531
Si Si2 0.940516 0.314540 0.475101
Si Si3 0.356609 0.894511 0.222877
Si Si4 0.337664 0.134133 0.045730
Si Si5 0.302954 0.089854 0.712173
Si Si6 0.380660 0.404333 0.369600
Si Si7 0.959192 0.776746 0.989077
Si Si8 0.628200 0.761036 0.447377
O O1 0.907387 0.334474 0.619133
O O2 0.863862 0.251430 0.789841
O O3 0.206950 0.341116 0.656597
O O4 0.009029 0.590852 0.878228
O O5 0.156558 0.286985 0.392211
O O6 0.000000 0.500000 0.500000
O O7 0.780123 0.126881 0.363751
O O8 0.484083 0.897926 0.086911
O O9 0.331795 0.119094 0.598191
O O10 0.486062 0.828343 0.236765
O O11 0.205385 0.229590 0.064600
O O12 0.436954 0.265385 0.195590
O O13 0.165159 0.943460 0.009795
O O14 0.148163 0.178701 0.853242
O O15 0.416583 0.592591 0.403361
O O16 0.354852 0.095162 0.377561
O O17 0.500000 0.500000 0.500000
#
# Coordination Sequence:
#
# PCOD9049494 Si02
#       8
#     2   2   2   2   2   2   2   2
#     4  12  27  45  71 107 154 199 242 305 377 447
#     4  12  25  45  76 105 144 197 258 311 360 439
#     4  11  26  45  75 109 145 194 251 302 370 441
#     4  10  24  48  76 106 149 192 248 319 360 443
#     4  11  25  47  76 110 146 198 246 310 370 441
#     4  12  26  47  73 107 143 197 249 302 374 441
#     4  10  24  46  75 111 147 192 252 301 382 431
#     4  12  27  47  69 106 159 193 246 301 376 451
#
# _framework density 24.746555000000001
#
# number of rings (size 3 to 8) (size 9 to 14) (size 15 to 20)
#    0.000    0.750    3.750    2.250   10.500    1.500 
#    0.000    1.250    0.000    0.000    0.000    0.000 
#    0.000    0.000    0.000    0.000    0.000    0.000 
#
# Total GULP energy -89570.990709 kJ/mol
# GULP energy per Si atom -5598.186919 kJ/mol
# Density = 2.469023 g / cm^3
# Si number density = 24.746555 Si / 1000 Ang^3
#
#
#
# Elastic Constant Matrix: (Units=GPa)
#
#
# Indices 1 2 3 4 5 6 
#
# 1 80.5323 25.4450 36.4707 -3.1412 -9.9157 -6.4551
# 2 25.4450 122.2982 55.7173 -2.6977 -20.2172 19.3489
# 3 36.4707 55.7173 187.3469 -6.9778 -27.2777 3.1944
# 4 -3.1412 -2.6977 -6.9778 43.2025 -1.9241 -9.8782
# 5 -9.9157 -20.2172 -27.2777 -1.9241 43.9131 -0.2343
# 6 -6.4551 19.3489 3.1944 -9.8782 -0.2343 34.6769
#
#
#
# Elastic Compliance Matrix: (Units=1/GPa)
#
#
# Indices 1 2 3 4 5 6 
#
# 1 0.014756 -0.002785 -0.001924 0.001772 0.000959 0.004989
# 2 -0.002785 0.011411 -0.002333 -0.001337 0.003079 -0.007031
# 3 -0.001924 -0.002333 0.006842 0.001091 0.002793 0.000643
# 4 0.001772 -0.001337 0.001091 0.025315 0.001615 0.008198
# 5 0.000959 0.003079 0.002793 0.001615 0.026206 -0.001160
# 6 0.004989 -0.007031 0.000643 0.008198 -0.001160 0.035958
#
#
# Mechanical properties :
#
#
# Convention : Reuss Voigt Hill
#
# Bulk Modulus (GPa) = 52.84009 69.49371 61.16690
# Shear Modulus (GPa) = 35.49129 42.52811 39.00970
#
# Velocity S-wave (km/s) = 3.79118 4.15003 3.97466
# Velocity P-wave (km/s) = 6.36890 7.14890 6.77015
#
# Compressibility (1/GPa) = 0.01892502
#
# Stress axis : x y z
#
# Youngs Moduli (GPa) = 67.77054 87.63444 146.14897
#
# Poissons Ratio (x) = 0.24410 0.28113
# Poissons Ratio (y) = 0.18877 0.34097
# Poissons Ratio (z) = 0.13036 0.20445
#
# Static dielectric constant tensor:
#      x y z
#    x 2.072550 -0.047580 -0.002760 
#    y -0.047580 1.911870 -0.016630 
#    z -0.002760 -0.016630 1.939340 
# 
# From -- ./inp_files/520404.got.cif
#   From: 2010.05.17/outbox.cif.g08.bks.cpg/sg2_261_cif.got.tgz:520404.got - 2010.06.03 11:33:40.
