data_PCOD9049682
_publ_section_title
;
Structure prediction by ZEFSAII (Michael W. Deem and Ramdas Pophale) SiO2 
 PCOD9049682
Probable space group: P -1
;
_chemical_formula_sum "Si O2"
_cell_formula_units_Z 14
_cell_length_a 5.675734
_cell_length_b 22.697140
_cell_length_c 8.190482
_cell_angle_alpha 47.319597
_cell_angle_beta 60.428778
_cell_angle_gamma 43.839852
_cell_volume 537.241992
_symmetry_space_group_name_H-M "P -1"
_symmetry_group_IT_number 2
_symmetry_cell_setting 'triclinic'
loop_
_space_group_symop_operation_xyz
x,y,z
-x,-y,-z
loop_
_atom_site_type_symbol
_atom_site_label
_atom_site_fract_x
_atom_site_fract_y
_atom_site_fract_z
Si Si1 0.323428 0.260979 0.266700
Si Si2 0.813717 0.914777 0.943787
Si Si3 0.923370 0.194934 0.407265
Si Si4 0.286087 0.980563 0.728047
Si Si5 0.657183 0.636177 0.516620
Si Si6 0.700399 0.578140 0.240049
Si Si7 0.011070 0.708789 0.320805
O O1 0.716410 0.200948 0.307014
O O2 0.253365 0.193209 0.313914
O O3 0.100737 0.295762 0.446025
O O4 0.235482 0.353517 0.013157
O O5 0.587390 0.914362 0.878350
O O6 0.065285 0.946840 0.794720
O O7 0.026928 0.800947 0.148265
O O8 0.500000 0.000000 0.000000
O O9 0.653442 0.307745 0.360079
O O10 0.007697 0.098293 0.659255
O O11 0.500000 0.000000 0.500000
O O12 0.638483 0.600278 0.414588
O O13 0.988451 0.537280 0.672208
O O14 0.700914 0.722501 0.308723
O O15 0.313829 0.620611 0.264563
#
# Coordination Sequence:
#
# PCOD9049682 Si02
#       7
#     2   2   2   2   2   2   2
#     4  11  26  44  74 103 146 194 236 300 357 436
#     4  12  27  46  76 105 148 198 242 301 378 430
#     4  11  24  48  71 104 150 186 240 296 364 427
#     4  12  28  47  75 113 146 191 252 305 363 447
#     4  10  24  47  71 106 143 191 241 302 358 443
#     4  11  25  44  74 105 143 191 247 294 368 427
#     4  11  25  45  71 104 148 187 245 299 364 432
#
# _framework density 26.05902
#
# number of rings (size 3 to 8) (size 9 to 14) (size 15 to 20)
#    0.000    0.857    1.429    4.714    8.000    2.857 
#    0.000    0.000    0.000    0.000    0.000    0.000 
#    0.000    0.000    0.000    0.000    0.000    0.000 
#
# Total GULP energy -77956.348740 kJ/mol
# GULP energy per Si atom -5568.310624 kJ/mol
# Density = 2.599971 g / cm^3
# Si number density = 26.059020 Si / 1000 Ang^3
#
#
#
# Elastic Constant Matrix: (Units=GPa)
#
#
# Indices 1 2 3 4 5 6 
#
# 1 180.1333 28.0391 36.9722 -12.4273 -24.6409 4.8581
# 2 28.0391 115.3922 21.2154 -7.4030 -6.2927 -29.6661
# 3 36.9722 21.2154 102.3766 -19.8626 -20.1142 -8.6667
# 4 -12.4273 -7.4030 -19.8626 35.4484 -0.8681 -2.1267
# 5 -24.6409 -6.2927 -20.1142 -0.8681 33.8681 -2.9251
# 6 4.8581 -29.6661 -8.6667 -2.1267 -2.9251 48.8515
#
#
#
# Elastic Compliance Matrix: (Units=1/GPa)
#
#
# Indices 1 2 3 4 5 6 
#
# 1 0.006684 -0.001494 -0.001233 0.001342 0.003757 -0.001507
# 2 -0.001494 0.011115 -0.000540 0.001945 0.001309 0.006966
# 3 -0.001233 -0.000540 0.013465 0.007359 0.007442 0.002950
# 4 0.001342 0.001945 0.007359 0.033634 0.006936 0.004233
# 5 0.003757 0.001309 0.007442 0.006936 0.037471 0.004287
# 6 -0.001507 0.006966 0.002950 0.004233 0.004287 0.025815
#
#
# Mechanical properties :
#
#
# Convention : Reuss Voigt Hill
#
# Bulk Modulus (GPa) = 40.43590 63.37284 51.90437
# Shear Modulus (GPa) = 34.97440 44.41197 39.69318
#
# Velocity S-wave (km/s) = 3.66747 4.13278 3.90706
# Velocity P-wave (km/s) = 5.78658 6.86621 6.34939
#
# Compressibility (1/GPa) = 0.02473050
#
# Stress axis : x y z
#
# Youngs Moduli (GPa) = 149.60295 89.96517 74.26793
#
# Poissons Ratio (x) = 0.13441 0.09161
# Poissons Ratio (y) = 0.22351 0.04007
# Poissons Ratio (z) = 0.18453 0.04854
#
# Static dielectric constant tensor:
#      x y z
#    x 2.614190 -0.491020 0.575730 
#    y -0.491020 2.918740 -0.579720 
#    z 0.575730 -0.579720 2.703980 
# 
# From -- ./inp_files/142480.got.cif
#   From: 2010.05.17/outbox.cif.g08.bks.cpg/sg2_72_cif.got.tgz:142480.got - 2010.06.03 11:33:40.
