data_PCOD9049054
_publ_section_title
;
Structure prediction by ZEFSAII (Michael W. Deem and Ramdas Pophale) SiO2 
 PCOD9049054
Probable space group: P -1
;
_chemical_formula_sum "Si O2"
_cell_formula_units_Z 13
_cell_length_a 8.797628
_cell_length_b 10.511234
_cell_length_c 12.503606
_cell_angle_alpha 59.865341
_cell_angle_beta 74.051459
_cell_angle_gamma 122.047648
_cell_volume 571.738849
_symmetry_space_group_name_H-M "P -1"
_symmetry_group_IT_number 2
_symmetry_cell_setting 'triclinic'
loop_
_space_group_symop_operation_xyz
x,y,z
-x,-y,-z
loop_
_atom_site_type_symbol
_atom_site_label
_atom_site_fract_x
_atom_site_fract_y
_atom_site_fract_z
Si Si1 0.787658 0.452647 0.111822
Si Si2 0.764653 0.438623 0.582798
Si Si3 0.202028 0.982618 0.905451
Si Si4 0.500000 0.000000 0.500000
Si Si5 0.013843 0.136920 0.784106
Si Si6 0.053930 0.279468 0.364155
Si Si7 0.726436 0.811505 0.774332
O O1 0.569520 0.350848 0.115411
O O2 0.615649 0.239049 0.324364
O O3 0.000000 0.500000 0.000000
O O4 0.960871 0.715143 0.013215
O O5 0.487397 0.150029 0.734031
O O6 0.769014 0.494999 0.681586
O O7 0.000000 0.500000 0.500000
O O8 0.821471 0.615891 0.415642
O O9 0.188553 0.145820 0.809102
O O10 0.169580 0.932662 0.058758
O O11 0.186605 0.812675 0.606014
O O12 0.837410 0.915958 0.826992
O O13 0.223542 0.310382 0.235182
O O14 0.911828 0.057925 0.564543
#
# Coordination Sequence:
#
# PCOD9049054 Si02
#       7
#     2   2   2   1   2   2   2
#     4  11  27  44  71 104 140 182 236 296 352 418
#     4  11  26  45  72 102 147 187 230 292 359 416
#     4  11  27  46  69 106 140 185 242 283 351 432
#     4  10  24  46  68 100 142 174 234 290 360 394
#     4  10  25  47  72 101 140 190 231 295 345 422
#     4   9  21  41  72 102 131 189 235 281 347 429
#     4   9  21  45  70  98 139 181 238 285 348 414
#
# _framework density 22.737653000000002
#
# number of rings (size 3 to 8) (size 9 to 14) (size 15 to 20)
#    0.000    1.846    0.000    0.462   15.077    2.462 
#    2.769    0.000    0.000    0.000    0.000    0.000 
#    0.000    0.000    0.000    0.000    0.000    0.000 
#
# Total GULP energy -72415.887449 kJ/mol
# GULP energy per Si atom -5570.452881 kJ/mol
# Density = 2.268590 g / cm^3
# Si number density = 22.737653 Si / 1000 Ang^3
#
#
#
# Elastic Constant Matrix: (Units=GPa)
#
#
# Indices 1 2 3 4 5 6 
#
# 1 57.4940 -1.6212 20.5901 7.2360 2.0781 18.2334
# 2 -1.6212 62.7282 19.4785 4.1378 3.2354 5.6229
# 3 20.5901 19.4785 99.1132 -25.1860 4.4379 9.0360
# 4 7.2360 4.1378 -25.1860 34.4376 -0.5029 -2.3093
# 5 2.0781 3.2354 4.4379 -0.5029 37.5328 -4.7999
# 6 18.2334 5.6229 9.0360 -2.3093 -4.7999 28.8159
#
#
#
# Elastic Compliance Matrix: (Units=1/GPa)
#
#
# Indices 1 2 3 4 5 6 
#
# 1 0.028606 0.006359 -0.009105 -0.014711 -0.003588 -0.018263
# 2 0.006359 0.019531 -0.006753 -0.009112 -0.002231 -0.006819
# 3 -0.009105 -0.006753 0.016946 0.015310 -0.000337 0.002936
# 4 -0.014711 -0.009112 0.015310 0.045129 0.001697 0.010185
# 5 -0.003588 -0.002231 -0.000337 0.001697 0.028072 0.007623
# 6 -0.018263 -0.006819 0.002936 0.010185 0.007623 0.048755
#
#
# Mechanical properties :
#
#
# Convention : Reuss Voigt Hill
#
# Bulk Modulus (GPa) = 21.69918 32.91446 27.30682
# Shear Modulus (GPa) = 22.58380 32.21646 27.40013
#
# Velocity S-wave (km/s) = 3.15498 3.76823 3.47516
# Velocity P-wave (km/s) = 4.77869 5.78272 5.30451
#
# Compressibility (1/GPa) = 0.04608469
#
# Stress axis : x y z
#
# Youngs Moduli (GPa) = 34.95752 51.20193 59.01083
#
# Poissons Ratio (x) = -0.32560 0.53729
# Poissons Ratio (y) = -0.22230 0.39851
# Poissons Ratio (z) = 0.31829 0.34577
#
# Static dielectric constant tensor:
#      x y z
#    x 1.849000 -0.109440 -0.059130 
#    y -0.109440 2.212840 0.197330 
#    z -0.059130 0.197330 1.951720 
# 
# From -- ./inp_files/260588.got.cif
#   From: 2010.05.17/outbox.cif.g08.bks.cpg/sg2_131_cif.got.tgz:260588.got - 2010.06.03 11:33:40.
