data_PCOD9049502
_publ_section_title
;
Structure prediction by ZEFSAII (Michael W. Deem and Ramdas Pophale) SiO2 
 PCOD9049502
Probable space group: P -1
;
_chemical_formula_sum "Si O2"
_cell_formula_units_Z 13
_cell_length_a 8.961093
_cell_length_b 15.767463
_cell_length_c 5.358646
_cell_angle_alpha 55.655724
_cell_angle_beta 56.736335
_cell_angle_gamma 50.291707
_cell_volume 459.366408
_symmetry_space_group_name_H-M "P -1"
_symmetry_group_IT_number 2
_symmetry_cell_setting 'triclinic'
loop_
_space_group_symop_operation_xyz
x,y,z
-x,-y,-z
loop_
_atom_site_type_symbol
_atom_site_label
_atom_site_fract_x
_atom_site_fract_y
_atom_site_fract_z
Si Si1 0.313611 0.767832 0.170359
Si Si2 0.958158 0.893399 0.682090
Si Si3 0.575564 0.068947 0.494833
Si Si4 0.814231 0.398768 0.333934
Si Si5 0.500000 0.500000 0.000000
Si Si6 0.704113 0.628536 0.337126
Si Si7 0.130076 0.264765 0.650529
O O1 0.320683 0.643952 0.287703
O O2 0.518035 0.736457 0.190345
O O3 0.117822 0.817055 0.449989
O O4 0.295628 0.871222 0.837605
O O5 0.720923 0.964798 0.714449
O O6 0.972785 0.811508 0.032707
O O7 0.000000 0.000000 0.500000
O O8 0.370015 0.180823 0.575951
O O9 0.500000 0.000000 0.500000
O O10 0.694709 0.417889 0.154805
O O11 0.780617 0.523662 0.245201
O O12 0.040066 0.316348 0.378121
O O13 0.397861 0.414917 0.288588
O O14 0.883400 0.644400 0.274934
#
# Coordination Sequence:
#
# PCOD9049502 Si02
#       7
#     2   2   2   2   1   2   2
#     4  11  24  46  75 105 147 209 258 308 381 463
#     4  12  25  47  74 108 152 201 260 314 384 461
#     4  12  25  46  73 109 155 199 259 325 380 452
#     4  11  26  48  74 113 156 202 259 311 382 474
#     4  10  24  46  76 100 154 202 256 306 380 440
#     4  11  26  46  73 113 158 198 253 318 384 465
#     4  12  27  45  75 118 156 201 250 323 395 455
#
# _framework density 28.299845000000001
#
# number of rings (size 3 to 8) (size 9 to 14) (size 15 to 20)
#    0.000    0.615    0.000    7.846    8.615    0.615 
#    0.000    0.000    0.000    0.000    0.000    0.000 
#    0.000    0.000    0.000    0.000    0.000    0.000 
#
# Total GULP energy -72583.141588 kJ/mol
# GULP energy per Si atom -5583.318584 kJ/mol
# Density = 2.823543 g / cm^3
# Si number density = 28.299845 Si / 1000 Ang^3
#
#
#
# Elastic Constant Matrix: (Units=GPa)
#
#
# Indices 1 2 3 4 5 6 
#
# 1 211.6068 54.8853 41.8666 -27.4913 11.1235 -0.5281
# 2 54.8853 98.0936 23.0607 -18.9488 17.3853 -32.7471
# 3 41.8666 23.0607 162.7929 -33.9409 14.1275 -15.2457
# 4 -27.4913 -18.9488 -33.9409 46.7896 -10.5265 -8.9004
# 5 11.1235 17.3853 14.1275 -10.5265 57.7826 -22.4084
# 6 -0.5281 -32.7471 -15.2457 -8.9004 -22.4084 70.8754
#
#
#
# Elastic Compliance Matrix: (Units=1/GPa)
#
#
# Indices 1 2 3 4 5 6 
#
# 1 0.005950 -0.003424 -0.000969 0.000992 -0.000372 -0.001739
# 2 -0.003424 0.015999 0.000780 0.006663 0.000131 0.008413
# 3 -0.000969 0.000780 0.007775 0.005986 0.000249 0.002856
# 4 0.000992 0.006663 0.005986 0.032394 0.006287 0.010429
# 5 -0.000372 0.000131 0.000249 0.006287 0.021395 0.007665
# 6 -0.001739 0.008413 0.002856 0.010429 0.007665 0.022331
#
#
# Mechanical properties :
#
#
# Convention : Reuss Voigt Hill
#
# Bulk Modulus (GPa) = 44.44923 79.12427 61.78675
# Shear Modulus (GPa) = 41.46959 58.60157 50.03558
#
# Velocity S-wave (km/s) = 3.83216 4.55547 4.20938
# Velocity P-wave (km/s) = 5.94317 7.46256 6.74578
#
# Compressibility (1/GPa) = 0.02249758
#
# Stress axis : x y z
#
# Youngs Moduli (GPa) = 168.07652 62.50272 128.61087
#
# Poissons Ratio (x) = 0.21403 0.12461
# Poissons Ratio (y) = 0.57556 -0.10030
# Poissons Ratio (z) = 0.16285 -0.04875
#
# Static dielectric constant tensor:
#      x y z
#    x 2.156080 0.198410 -0.045810 
#    y 0.198410 2.531140 0.162080 
#    z -0.045810 0.162080 2.136020 
# 
# From -- ./inp_files/42992.got.cif
#   From: 2010.05.17/outbox.cif.g08.bks.cpg/sg2_22_cif.got.tgz:42992.got - 2010.06.03 11:33:40.
