data_PCOD9049757
_publ_section_title
;
Structure prediction by ZEFSAII (Michael W. Deem and Ramdas Pophale) SiO2 
 PCOD9049757
Probable space group: P -1
;
_chemical_formula_sum "Si O2"
_cell_formula_units_Z 8
_cell_length_a 15.154575
_cell_length_b 8.628905
_cell_length_c 10.282115
_cell_angle_alpha 28.094728
_cell_angle_beta 25.462394
_cell_angle_gamma 32.614279
_cell_volume 265.155463
_symmetry_space_group_name_H-M "P -1"
_symmetry_group_IT_number 2
_symmetry_cell_setting 'triclinic'
loop_
_space_group_symop_operation_xyz
x,y,z
-x,-y,-z
loop_
_atom_site_type_symbol
_atom_site_label
_atom_site_fract_x
_atom_site_fract_y
_atom_site_fract_z
Si Si1 0.521772 0.302342 0.257157
Si Si2 0.081827 0.587173 0.709648
Si Si3 0.352231 0.694881 0.439714
Si Si4 0.858958 0.540409 0.782670
O O1 0.348650 0.631420 0.333164
O O2 0.500000 0.500000 0.000000
O O3 0.694671 0.315560 0.135393
O O4 0.651106 0.924089 0.300991
O O5 0.134323 0.552710 0.834465
O O6 0.021872 0.474292 0.730314
O O7 0.000000 0.000000 0.500000
O O8 0.500000 0.500000 0.500000
O O9 0.292860 0.087674 0.263624
O O10 0.000000 0.500000 0.500000
#
# Coordination Sequence:
#
# PCOD9049757 Si02
#       4
#     2   2   2   2
#     4  10  26  45  72 107 154 192 250 307 379 440
#     4  10  25  46  77 103 152 196 252 301 385 438
#     4  10  24  47  73 106 153 197 243 311 375 440
#     4  12  27  46  78 115 148 196 256 308 376 451
#
# _framework density 30.170978999999999
#
# number of rings (size 3 to 8) (size 9 to 14) (size 15 to 20)
#    1.500    0.000    0.000    3.000    7.000    2.000 
#    0.000    0.000    0.000    0.000    0.000    0.000 
#    0.000    0.000    0.000    0.000    0.000    0.000 
#
# Total GULP energy -44536.841327 kJ/mol
# GULP energy per Si atom -5567.105166 kJ/mol
# Density = 3.010231 g / cm^3
# Si number density = 30.170979 Si / 1000 Ang^3
#
#
#
# Elastic Constant Matrix: (Units=GPa)
#
#
# Indices 1 2 3 4 5 6 
#
# 1 391.8030 112.4125 120.3822 -4.3054 -22.4913 24.0595
# 2 112.4125 140.2964 34.8041 -23.0193 -20.7648 14.0135
# 3 120.3822 34.8041 100.3774 -7.6764 -17.6530 10.4726
# 4 -4.3054 -23.0193 -7.6764 88.4797 19.8735 3.9656
# 5 -22.4913 -20.7648 -17.6530 19.8735 118.0539 22.5245
# 6 24.0595 14.0135 10.4726 3.9656 22.5245 88.7740
#
#
#
# Elastic Compliance Matrix: (Units=1/GPa)
#
#
# Indices 1 2 3 4 5 6 
#
# 1 0.004875 -0.002823 -0.004932 -0.000890 -0.000112 -0.000226
# 2 -0.002823 0.009948 0.000440 0.002291 0.001130 -0.001246
# 3 -0.004932 0.000440 0.016196 0.000968 0.001605 -0.001094
# 4 -0.000890 0.002291 0.000968 0.012320 -0.001625 -0.000373
# 5 -0.000112 0.001130 0.001605 -0.001625 0.009681 -0.002721
# 6 -0.000226 -0.001246 -0.001094 -0.000373 -0.002721 0.012358
#
#
# Mechanical properties :
#
#
# Convention : Reuss Voigt Hill
#
# Bulk Modulus (GPa) = 61.01798 129.74158 95.37978
# Shear Modulus (GPa) = 58.49859 83.38674 70.94266
#
# Velocity S-wave (km/s) = 4.40807 5.26289 4.85434
# Velocity P-wave (km/s) = 6.79530 8.94574 7.94362
#
# Compressibility (1/GPa) = 0.01638861
#
# Stress axis : x y z
#
# Youngs Moduli (GPa) = 205.11381 100.52257 61.74443
#
# Poissons Ratio (x) = 0.28376 0.30455
# Poissons Ratio (y) = 0.57900 -0.02717
# Poissons Ratio (z) = 1.01172 -0.04424
#
# Static dielectric constant tensor:
#      x y z
#    x 2.172990 0.648240 0.175690 
#    y 0.648240 4.661740 0.974080 
#    z 0.175690 0.974080 2.966240 
# 
# From -- ./inp_files/194782.got.cif
#   From: 2010.05.17/outbox.cif.g08.bks.cpg/sg2_98_cif.got.tgz:194782.got - 2010.06.03 11:33:40.
