data_PCOD9049135
_publ_section_title
;
Structure prediction by ZEFSAII (Michael W. Deem and Ramdas Pophale) SiO2 
 PCOD9049135
Probable space group: P -1
;
_chemical_formula_sum "Si O2"
_cell_formula_units_Z 16
_cell_length_a 14.117589
_cell_length_b 9.251696
_cell_length_c 14.168330
_cell_angle_alpha 93.761943
_cell_angle_beta 47.188707
_cell_angle_gamma 131.292022
_cell_volume 733.810996
_symmetry_space_group_name_H-M "P -1"
_symmetry_group_IT_number 2
_symmetry_cell_setting 'triclinic'
loop_
_space_group_symop_operation_xyz
x,y,z
-x,-y,-z
loop_
_atom_site_type_symbol
_atom_site_label
_atom_site_fract_x
_atom_site_fract_y
_atom_site_fract_z
Si Si1 0.313880 0.131664 0.988256
Si Si2 0.547968 0.681131 0.605660
Si Si3 0.770293 0.603895 0.365388
Si Si4 0.670037 0.296939 0.886954
Si Si5 0.056251 0.892022 0.420649
Si Si6 0.562620 0.427256 0.100175
Si Si7 0.811636 0.199242 0.504689
Si Si8 0.588207 0.288248 0.640710
O O1 0.540124 0.274265 0.895215
O O2 0.327814 0.318118 0.994012
O O3 0.366651 0.139641 0.843269
O O4 0.051632 0.834580 0.185280
O O5 0.710009 0.700351 0.461354
O O6 0.319037 0.466032 0.684327
O O7 0.478004 0.604213 0.760666
O O8 0.695015 0.968199 0.507230
O O9 0.602380 0.328511 0.520883
O O10 0.933323 0.500579 0.686854
O O11 0.700785 0.419278 0.966887
O O12 0.500000 0.000000 0.000000
O O13 0.132747 0.842138 0.441937
O O14 0.820084 0.603080 0.524853
O O15 0.305257 0.158962 0.212252
O O16 0.000000 0.000000 0.500000
O O17 0.636977 0.169489 0.631768
#
# Coordination Sequence:
#
# PCOD9049135 Si02
#       8
#     2   2   2   2   2   2   2   2
#     4  12  24  41  68 100 131 172 214 272 332 390
#     4  10  24  46  69  92 128 173 227 275 323 384
#     4  11  24  47  68  95 128 172 228 276 319 389
#     4  12  25  39  63 102 134 168 216 265 331 405
#     4  11  19  37  63  92 130 166 212 259 326 389
#     4  11  22  39  65  97 127 171 216 269 327 385
#     4  11  23  40  64  93 136 174 210 268 332 388
#     4  12  23  42  65  98 136 174 215 268 331 394
#
# _framework density 21.803981
#
# number of rings (size 3 to 8) (size 9 to 14) (size 15 to 20)
#    0.000    0.750    3.750    4.500    3.500    1.000 
#    2.250    0.625    0.000    0.000    0.000    0.000 
#    0.000    0.000    0.000    0.000    0.000    0.000 
#
# Total GULP energy -89356.325413 kJ/mol
# GULP energy per Si atom -5584.770338 kJ/mol
# Density = 2.175435 g / cm^3
# Si number density = 21.803981 Si / 1000 Ang^3
#
#
#
# Elastic Constant Matrix: (Units=GPa)
#
#
# Indices 1 2 3 4 5 6 
#
# 1 63.6177 38.7916 6.7966 11.1012 8.3464 -2.5747
# 2 38.7916 86.8905 8.0278 3.7967 4.5083 -18.0426
# 3 6.7966 8.0278 94.2061 5.9984 9.0549 -1.9813
# 4 11.1012 3.7967 5.9984 23.6720 -4.5191 1.9951
# 5 8.3464 4.5083 9.0549 -4.5191 31.3469 0.0300
# 6 -2.5747 -18.0426 -1.9813 1.9951 0.0300 45.1307
#
#
#
# Elastic Compliance Matrix: (Units=1/GPa)
#
#
# Indices 1 2 3 4 5 6 
#
# 1 0.025071 -0.010886 0.000442 -0.011229 -0.006854 -0.002401
# 2 -0.010886 0.017609 -0.000805 0.002126 0.000899 0.006289
# 3 0.000442 -0.000805 0.011258 -0.003684 -0.003785 0.000363
# 4 -0.011229 0.002126 -0.003684 0.050390 0.011015 -0.002187
# 5 -0.006854 0.000899 -0.003785 0.011015 0.036279 -0.000709
# 6 -0.002401 0.006289 0.000363 -0.002187 -0.000709 0.024648
#
#
# Mechanical properties :
#
#
# Convention : Reuss Voigt Hill
#
# Bulk Modulus (GPa) = 31.80540 39.10515 35.45527
# Shear Modulus (GPa) = 25.22291 32.76982 28.99637
#
# Velocity S-wave (km/s) = 3.40487 3.88097 3.65069
# Velocity P-wave (km/s) = 5.48417 6.16898 5.83663
#
# Compressibility (1/GPa) = 0.03144120
#
# Stress axis : x y z
#
# Youngs Moduli (GPa) = 39.88661 56.78786 88.82754
#
# Poissons Ratio (x) = 0.61819 -0.03928
# Poissons Ratio (y) = 0.43420 0.07148
# Poissons Ratio (z) = -0.01764 0.04570
#
# Static dielectric constant tensor:
#      x y z
#    x 1.883640 0.047710 0.052720 
#    y 0.047710 1.818590 0.071210 
#    z 0.052720 0.071210 1.886250 
# 
# From -- ./inp_files/504020.got.cif
#   From: 2010.05.17/outbox.cif.g08.bks.cpg/sg2_253_cif.got.tgz:504020.got - 2010.06.03 11:33:40.
