data_PCOD9049364
_publ_section_title
;
Structure prediction by ZEFSAII (Michael W. Deem and Ramdas Pophale) SiO2 
 PCOD9049364
Probable space group: P -1
;
_chemical_formula_sum "Si O2"
_cell_formula_units_Z 16
_cell_length_a 12.212607
_cell_length_b 5.393096
_cell_length_c 15.889837
_cell_angle_alpha 86.879654
_cell_angle_beta 134.861736
_cell_angle_gamma 108.592347
_cell_volume 680.090110
_symmetry_space_group_name_H-M "P -1"
_symmetry_group_IT_number 2
_symmetry_cell_setting 'triclinic'
loop_
_space_group_symop_operation_xyz
x,y,z
-x,-y,-z
loop_
_atom_site_type_symbol
_atom_site_label
_atom_site_fract_x
_atom_site_fract_y
_atom_site_fract_z
Si Si1 0.358484 0.543464 0.982613
Si Si2 0.490032 0.142590 0.777800
Si Si3 0.912225 0.539370 0.534628
Si Si4 0.245169 0.052179 0.511603
Si Si5 0.964646 0.933111 0.230903
Si Si6 0.766586 0.154317 0.215545
Si Si7 0.905807 0.683871 0.850490
Si Si8 0.210074 0.899711 0.143980
O O1 0.167140 0.314666 0.889718
O O2 0.330924 0.787570 0.915416
O O3 0.500000 0.500000 0.000000
O O4 0.428481 0.621005 0.113300
O O5 0.421437 0.216189 0.652019
O O6 0.628536 0.032439 0.828030
O O7 0.340776 0.926469 0.756526
O O8 0.861679 0.794603 0.503290
O O9 0.000000 0.500000 0.500000
O O10 0.060057 0.587427 0.681470
O O11 0.765216 0.251171 0.474368
O O12 0.148938 0.998634 0.369694
O O13 0.836153 0.926598 0.236159
O O14 0.003675 0.196185 0.189585
O O15 0.812018 0.362091 0.806663
O O16 0.791380 0.849195 0.808573
O O17 0.048871 0.783562 0.997683
#
# Coordination Sequence:
#
# PCOD9049364 Si02
#       8
#     2   2   2   2   2   2   2   2
#     4  12  26  38  64 105 142 179 221 284 351 406
#     4  12  26  43  67 104 145 173 232 288 351 406
#     4  11  22  40  66  89 139 185 234 255 323 421
#     4  11  26  43  66 100 133 193 221 280 337 413
#     4  11  25  45  69  97 140 183 233 274 343 415
#     4  11  24  41  64 101 140 182 220 280 346 409
#     4  10  24  46  72  98 132 182 235 280 337 412
#     4  10  25  45  71 103 131 180 229 290 343 395
#
# _framework density 23.526291000000001
#
# number of rings (size 3 to 8) (size 9 to 14) (size 15 to 20)
#    0.000    1.000    3.750    1.500   12.250    1.000 
#    0.000    1.250    0.000    0.000    0.000    0.000 
#    0.000    0.000    0.000    0.000    0.000    0.000 
#
# Total GULP energy -89079.658556 kJ/mol
# GULP energy per Si atom -5567.478660 kJ/mol
# Density = 2.347274 g / cm^3
# Si number density = 23.526291 Si / 1000 Ang^3
#
#
#
# Elastic Constant Matrix: (Units=GPa)
#
#
# Indices 1 2 3 4 5 6 
#
# 1 100.0253 19.2685 9.5661 0.0999 8.7467 -12.0160
# 2 19.2685 62.0465 36.3872 -2.2785 3.3635 -4.9346
# 3 9.5661 36.3872 146.7519 19.9044 -3.9137 -2.9299
# 4 0.0999 -2.2785 19.9044 18.5994 -5.1718 -1.2186
# 5 8.7467 3.3635 -3.9137 -5.1718 20.1638 -7.0554
# 6 -12.0160 -4.9346 -2.9299 -1.2186 -7.0554 30.1699
#
#
#
# Elastic Compliance Matrix: (Units=1/GPa)
#
#
# Indices 1 2 3 4 5 6 
#
# 1 0.011291 -0.003266 0.000246 -0.001529 -0.003620 0.003078
# 2 -0.003266 0.021361 -0.006336 0.009459 -0.000288 0.001892
# 3 0.000246 -0.006336 0.009910 -0.011484 -0.000246 -0.000497
# 4 -0.001529 0.009459 -0.011484 0.072662 0.017925 0.006950
# 5 -0.003620 -0.000288 -0.000246 0.017925 0.060431 0.013343
# 6 0.003078 0.001892 -0.000497 0.006950 0.013343 0.038034
#
#
# Mechanical properties :
#
#
# Convention : Reuss Voigt Hill
#
# Bulk Modulus (GPa) = 41.92904 48.80747 45.36825
# Shear Modulus (GPa) = 20.80290 30.02675 25.41483
#
# Velocity S-wave (km/s) = 2.97684 3.57642 3.29032
# Velocity P-wave (km/s) = 5.44760 6.15186 5.81041
#
# Compressibility (1/GPa) = 0.02384982
#
# Stress axis : x y z
#
# Youngs Moduli (GPa) = 88.56654 46.81527 100.90363
#
# Poissons Ratio (x) = 0.15289 -0.02483
# Poissons Ratio (y) = 0.28924 0.63936
# Poissons Ratio (z) = -0.02179 0.29664
#
# Static dielectric constant tensor:
#      x y z
#    x 1.909830 -0.003740 -0.009780 
#    y -0.003740 1.961080 0.029200 
#    z -0.009780 0.029200 1.980090 
# 
# From -- ./inp_files/511043.got.cif
#   From: 2010.05.17/outbox.cif.g08.bks.cpg/sg2_256_cif.got.tgz:511043.got - 2010.06.03 11:33:40.
