data_PCOD9049870
_publ_section_title
;
Structure prediction by ZEFSAII (Michael W. Deem and Ramdas Pophale) SiO2 
 PCOD9049870
Probable space group: P -1
;
_chemical_formula_sum "Si O2"
_cell_formula_units_Z 14
_cell_length_a 7.338889
_cell_length_b 18.942886
_cell_length_c 7.384353
_cell_angle_alpha 52.107293
_cell_angle_beta 53.123077
_cell_angle_gamma 37.441070
_cell_volume 478.796088
_symmetry_space_group_name_H-M "P -1"
_symmetry_group_IT_number 2
_symmetry_cell_setting 'triclinic'
loop_
_space_group_symop_operation_xyz
x,y,z
-x,-y,-z
loop_
_atom_site_type_symbol
_atom_site_label
_atom_site_fract_x
_atom_site_fract_y
_atom_site_fract_z
Si Si1 0.099233 0.763301 0.140524
Si Si2 0.912787 0.755159 0.909107
Si Si3 0.362555 0.951546 0.548502
Si Si4 0.774315 0.500437 0.808800
Si Si5 0.262919 0.968117 0.142838
Si Si6 0.372065 0.635486 0.517003
Si Si7 0.145741 0.329053 0.350069
O O1 0.140092 0.742783 0.937534
O O2 0.888456 0.904905 0.058112
O O3 0.918025 0.718575 0.364663
O O4 0.360199 0.691383 0.248839
O O5 0.569251 0.865996 0.007968
O O6 0.948203 0.638933 0.087665
O O7 0.084017 0.744605 0.642384
O O8 0.571514 0.805331 0.691785
O O9 0.500000 0.000000 0.500000
O O10 0.015093 0.028063 0.702699
O O11 0.325377 0.967003 0.324645
O O12 0.793955 0.416926 0.340738
O O13 0.500000 0.500000 0.000000
O O14 0.684583 0.551393 0.574893
O O15 0.780897 0.589289 0.778467
#
# Coordination Sequence:
#
# PCOD9049870 Si02
#       7
#     2   2   2   2   2   2   2
#     4  10  24  47  77 120 163 205 273 324 404 487
#     4  11  23  46  83 115 162 216 264 327 406 479
#     4  11  27  49  80 116 165 213 271 333 408 485
#     4  10  24  47  83 117 160 218 269 326 406 475
#     4  11  25  50  81 117 167 208 265 343 400 487
#     4   9  24  47  76 115 165 207 262 333 400 469
#     4  10  24  49  75 117 158 203 271 333 399 478
#
# _framework density 29.240006000000001
#
# number of rings (size 3 to 8) (size 9 to 14) (size 15 to 20)
#    0.857    0.857    1.429    0.429    6.000    5.143 
#    2.571    7.143    0.000    0.000    0.000    3.000 
#    0.000    0.000    0.000    0.000    0.000    0.000 
#
# Total GULP energy -78227.891920 kJ/mol
# GULP energy per Si atom -5587.706566 kJ/mol
# Density = 2.917345 g / cm^3
# Si number density = 29.240006 Si / 1000 Ang^3
#
#
#
# Elastic Constant Matrix: (Units=GPa)
#
#
# Indices 1 2 3 4 5 6 
#
# 1 208.0611 84.0570 41.5330 -16.3398 -28.4210 -1.3999
# 2 84.0570 224.7039 59.8532 -32.5769 -22.2631 -0.5036
# 3 41.5330 59.8532 75.4475 -26.9296 -5.5098 6.8112
# 4 -16.3398 -32.5769 -26.9296 67.6377 -0.1014 -9.9164
# 5 -28.4210 -22.2631 -5.5098 -0.1014 58.9257 -3.2395
# 6 -1.3999 -0.5036 6.8112 -9.9164 -3.2395 50.3101
#
#
#
# Elastic Compliance Matrix: (Units=1/GPa)
#
#
# Indices 1 2 3 4 5 6 
#
# 1 0.006142 -0.001526 -0.002053 0.000020 0.002226 0.000581
# 2 -0.001526 0.006335 -0.003684 0.001345 0.001363 0.000873
# 3 -0.002053 -0.003684 0.019249 0.005139 -0.000669 -0.001730
# 4 0.000020 0.001345 0.005139 0.017914 0.001190 0.002926
# 5 0.002226 0.001363 -0.000669 0.001190 0.018586 0.001598
# 6 0.000581 0.000873 -0.001730 0.002926 0.001598 0.020815
#
#
# Mechanical properties :
#
#
# Convention : Reuss Voigt Hill
#
# Bulk Modulus (GPa) = 58.14525 97.67766 77.91145
# Shear Modulus (GPa) = 45.74487 56.89264 51.31875
#
# Velocity S-wave (km/s) = 3.95962 4.41581 4.19392
# Velocity P-wave (km/s) = 6.39011 7.71214 7.08204
#
# Compressibility (1/GPa) = 0.01719831
#
# Stress axis : x y z
#
# Youngs Moduli (GPa) = 162.80771 157.86418 51.95102
#
# Poissons Ratio (x) = 0.24090 0.10668
# Poissons Ratio (y) = 0.24844 0.19140
# Poissons Ratio (z) = 0.33432 0.58161
#
# Static dielectric constant tensor:
#      x y z
#    x 2.427210 0.007400 0.067320 
#    y 0.007400 2.386410 0.059690 
#    z 0.067320 0.059690 2.437830 
# 
# From -- ./inp_files/225204.got.cif
#   From: 2010.05.17/outbox.cif.g08.bks.cpg/sg2_113_cif.got.tgz:225204.got - 2010.06.03 11:33:40.
