data_PCOD9049396
_publ_section_title
;
Structure prediction by ZEFSAII (Michael W. Deem and Ramdas Pophale) SiO2 
 PCOD9049396
Probable space group: P -1
;
_chemical_formula_sum "Si O2"
_cell_formula_units_Z 16
_cell_length_a 24.896485
_cell_length_b 5.293044
_cell_length_c 21.333972
_cell_angle_alpha 126.570182
_cell_angle_beta 17.031194
_cell_angle_gamma 119.670268
_cell_volume 627.110926
_symmetry_space_group_name_H-M "P -1"
_symmetry_group_IT_number 2
_symmetry_cell_setting 'triclinic'
loop_
_space_group_symop_operation_xyz
x,y,z
-x,-y,-z
loop_
_atom_site_type_symbol
_atom_site_label
_atom_site_fract_x
_atom_site_fract_y
_atom_site_fract_z
Si Si1 0.225992 0.562904 0.635234
Si Si2 0.084400 0.291940 0.435618
Si Si3 0.794253 0.443708 0.207137
Si Si4 0.841595 0.487990 0.018117
Si Si5 0.542700 0.863588 0.313944
Si Si6 0.516513 0.882021 0.892093
Si Si7 0.563765 0.119319 0.744739
Si Si8 0.826427 0.842456 0.882313
O O1 0.222552 0.722751 0.731676
O O2 0.400215 0.655747 0.422870
O O3 0.016334 0.645598 0.850103
O O4 0.296508 0.162442 0.497381
O O5 0.000000 0.500000 0.500000
O O6 0.016012 0.546027 0.607351
O O7 0.000000 0.000000 0.500000
O O8 0.300576 0.097315 0.148594
O O9 0.600486 0.762438 0.470584
O O10 0.815019 0.352872 0.097236
O O11 0.000000 0.500000 0.000000
O O12 0.879180 0.176337 0.883625
O O13 0.647467 0.749185 0.246419
O O14 0.717248 0.790454 0.059202
O O15 0.567236 0.487118 0.781202
O O16 0.624032 0.998364 0.731529
O O17 0.500000 0.000000 0.000000
O O18 0.346859 0.119966 0.968669
#
# Coordination Sequence:
#
# PCOD9049396 Si02
#       8
#     2   2   2   2   2   2   2   2
#     4  11  26  46  75 106 153 200 255 317 387 457
#     4  12  26  46  76 106 147 201 255 314 380 464
#     4  10  24  46  73 106 152 196 253 317 388 454
#     4  11  27  45  72 113 145 198 263 313 383 468
#     4  12  24  46  74 106 150 198 251 318 387 455
#     4  12  27  47  74 110 151 200 254 317 385 459
#     4  12  24  48  75 108 154 204 250 318 394 453
#     4  12  26  45  75 106 151 194 258 310 393 450
#
# _framework density 25.513826000000002
#
# number of rings (size 3 to 8) (size 9 to 14) (size 15 to 20)
#    0.000    0.500    5.000    1.500    3.500    8.000 
#    0.000    0.000    0.000    0.000    0.000    0.000 
#    0.000    0.000    0.000    0.000    0.000    0.000 
#
# Total GULP energy -89417.029705 kJ/mol
# GULP energy per Si atom -5588.564357 kJ/mol
# Density = 2.545576 g / cm^3
# Si number density = 25.513826 Si / 1000 Ang^3
#
#
#
# Elastic Constant Matrix: (Units=GPa)
#
#
# Indices 1 2 3 4 5 6 
#
# 1 146.8565 58.9942 11.1828 -4.7429 0.5132 -14.7975
# 2 58.9942 88.3433 45.9546 9.5727 -12.5207 -1.2627
# 3 11.1828 45.9546 107.5391 6.7125 4.8500 1.3058
# 4 -4.7429 9.5727 6.7125 45.5764 3.9476 1.2006
# 5 0.5132 -12.5207 4.8500 3.9476 46.2727 -0.3991
# 6 -14.7975 -1.2627 1.3058 1.2006 -0.3991 30.7896
#
#
#
# Elastic Compliance Matrix: (Units=1/GPa)
#
#
# Indices 1 2 3 4 5 6 
#
# 1 0.010980 -0.009501 0.002827 0.002877 -0.003195 0.004614
# 2 -0.009501 0.024208 -0.009354 -0.005319 0.008065 -0.002865
# 3 0.002827 -0.009354 0.013137 0.000661 -0.003993 0.000340
# 4 0.002877 -0.005319 0.000661 0.023563 -0.003549 0.000172
# 5 -0.003195 0.008065 -0.003993 -0.003549 0.024545 -0.000579
# 6 0.004614 -0.002865 0.000340 0.000172 -0.000579 0.034550
#
#
# Mechanical properties :
#
#
# Convention : Reuss Voigt Hill
#
# Bulk Modulus (GPa) = 61.46814 63.88913 62.67863
# Shear Modulus (GPa) = 29.68019 39.63490 34.65755
#
# Velocity S-wave (km/s) = 3.41442 3.94568 3.68962
# Velocity P-wave (km/s) = 6.29990 6.77150 6.53995
#
# Compressibility (1/GPa) = 0.01626859
#
# Stress axis : x y z
#
# Youngs Moduli (GPa) = 91.07604 41.30798 76.12161
#
# Poissons Ratio (x) = 0.39247 -0.21518
# Poissons Ratio (y) = 0.86533 0.71203
# Poissons Ratio (z) = -0.25746 0.38639
#
# Static dielectric constant tensor:
#      x y z
#    x 2.530270 -0.095180 0.126980 
#    y -0.095180 2.059530 -0.022870 
#    z 0.126980 -0.022870 1.978930 
# 
# From -- ./inp_files/601766.got.cif
#   From: 2010.05.17/outbox.cif.g08.bks.cpg/sg2_301_cif.got.tgz:601766.got - 2010.06.03 11:33:40.
