data_PCOD9049825
_publ_section_title
;
Structure prediction by ZEFSAII (Michael W. Deem and Ramdas Pophale) SiO2 
 PCOD9049825
Probable space group: P -1
;
_chemical_formula_sum "Si O2"
_cell_formula_units_Z 16
_cell_length_a 5.425666
_cell_length_b 8.958902
_cell_length_c 15.608264
_cell_angle_alpha 98.616675
_cell_angle_beta 71.312217
_cell_angle_gamma 66.533797
_cell_volume 624.748969
_symmetry_space_group_name_H-M "P -1"
_symmetry_group_IT_number 2
_symmetry_cell_setting 'triclinic'
loop_
_space_group_symop_operation_xyz
x,y,z
-x,-y,-z
loop_
_atom_site_type_symbol
_atom_site_label
_atom_site_fract_x
_atom_site_fract_y
_atom_site_fract_z
Si Si1 0.825877 0.417874 0.135118
Si Si2 0.716197 0.246831 0.835674
Si Si3 0.621005 0.215747 0.477374
Si Si4 0.736865 0.617769 0.763231
Si Si5 0.024950 0.149227 0.958381
Si Si6 0.252260 0.521813 0.427466
Si Si7 0.412711 0.018742 0.242366
Si Si8 0.760068 0.863486 0.356065
O O1 0.608136 0.611462 0.145600
O O2 0.585986 0.346275 0.163961
O O3 0.014158 0.423380 0.195736
O O4 0.053996 0.282256 0.030631
O O5 0.758359 0.261604 0.932565
O O6 0.770034 0.056610 0.793566
O O7 0.965442 0.251948 0.747237
O O8 0.535213 0.352405 0.420032
O O9 0.762565 0.298530 0.532316
O O10 0.353810 0.216398 0.563474
O O11 0.792671 0.021958 0.407407
O O12 0.771819 0.493446 0.670810
O O13 0.727762 0.779955 0.729546
O O14 0.293015 0.055683 0.854620
O O15 0.000000 0.000000 0.000000
O O16 0.000000 0.500000 0.500000
O O17 0.492435 0.951665 0.324161
#
# Coordination Sequence:
#
# PCOD9049825 Si02
#       8
#     2   2   2   2   2   2   2   2
#     4  12  30  49  80 113 160 203 261 320 393 467
#     4  11  28  45  78 113 156 200 262 323 387 465
#     4  10  24  47  75 110 154 205 259 327 389 470
#     4  12  29  49  77 113 157 208 258 320 394 470
#     4  11  24  50  78 113 153 206 255 320 391 470
#     4  11  27  42  74 111 156 196 262 322 393 461
#     4  11  25  44  76 111 156 202 259 319 385 475
#     4  10  24  47  75 111 154 207 259 318 398 457
#
# _framework density 25.610288000000001
#
# number of rings (size 3 to 8) (size 9 to 14) (size 15 to 20)
#    0.000    1.000    2.500    1.125   15.750    1.500 
#    0.000    2.500    0.000    0.750    0.000    0.000 
#    0.000    0.000    0.000    0.000    0.000    0.000 
#
# Total GULP energy -89524.521726 kJ/mol
# GULP energy per Si atom -5595.282608 kJ/mol
# Density = 2.555200 g / cm^3
# Si number density = 25.610288 Si / 1000 Ang^3
#
#
#
# Elastic Constant Matrix: (Units=GPa)
#
#
# Indices 1 2 3 4 5 6 
#
# 1 107.0977 29.4631 43.5531 -3.1077 29.1407 3.0532
# 2 29.4631 61.1438 45.5244 -12.1507 13.6798 17.8766
# 3 43.5531 45.5244 140.1478 -4.0750 32.6287 -9.2523
# 4 -3.1077 -12.1507 -4.0750 44.1993 4.5108 8.8948
# 5 29.1407 13.6798 32.6287 4.5108 50.9588 0.9872
# 6 3.0532 17.8766 -9.2523 8.8948 0.9872 43.3820
#
#
#
# Elastic Compliance Matrix: (Units=1/GPa)
#
#
# Indices 1 2 3 4 5 6 
#
# 1 0.012358 -0.004000 -0.001293 0.000056 -0.005182 0.000609
# 2 -0.004000 0.034006 -0.010479 0.011886 -0.000828 -0.018385
# 3 -0.001293 -0.010479 0.012355 -0.002958 -0.004247 0.007747
# 4 0.000056 0.011886 -0.002958 0.028255 -0.003612 -0.011244
# 5 -0.005182 -0.000828 -0.004247 -0.003612 0.025849 -0.000047
# 6 0.000609 -0.018385 0.007747 -0.011244 -0.000047 0.034543
#
#
# Mechanical properties :
#
#
# Convention : Reuss Voigt Hill
#
# Bulk Modulus (GPa) = 36.79599 60.60784 48.70191
# Shear Modulus (GPa) = 26.60039 40.36460 33.48250
#
# Velocity S-wave (km/s) = 3.22632 3.97433 3.61970
# Velocity P-wave (km/s) = 5.31768 6.69158 6.04380
#
# Compressibility (1/GPa) = 0.02717687
#
# Stress axis : x y z
#
# Youngs Moduli (GPa) = 80.92189 29.40618 80.93842
#
# Poissons Ratio (x) = 0.11761 0.10464
# Poissons Ratio (y) = 0.32366 0.84813
# Poissons Ratio (z) = 0.10462 0.30814
#
# Static dielectric constant tensor:
#      x y z
#    x 2.081940 -0.037530 0.082200 
#    y -0.037530 2.034100 -0.126040 
#    z 0.082200 -0.126040 1.554200 
# 
# From -- ./inp_files/116076.got.cif
#   From: 2010.05.17/outbox.cif.g08.bks.cpg/sg2_59_cif.got.tgz:116076.got - 2010.06.03 11:33:40.
