data_PCOD9049478
_publ_section_title
;
Structure prediction by ZEFSAII (Michael W. Deem and Ramdas Pophale) SiO2 
 PCOD9049478
Probable space group: P -1
;
_chemical_formula_sum "Si O2"
_cell_formula_units_Z 16
_cell_length_a 17.743438
_cell_length_b 8.874598
_cell_length_c 14.859079
_cell_angle_alpha 81.018331
_cell_angle_beta 136.278634
_cell_angle_gamma 134.840646
_cell_volume 794.216459
_symmetry_space_group_name_H-M "P -1"
_symmetry_group_IT_number 2
_symmetry_cell_setting 'triclinic'
loop_
_space_group_symop_operation_xyz
x,y,z
-x,-y,-z
loop_
_atom_site_type_symbol
_atom_site_label
_atom_site_fract_x
_atom_site_fract_y
_atom_site_fract_z
Si Si1 0.570483 0.950670 0.496985
Si Si2 0.939360 0.303073 0.576700
Si Si3 0.246450 0.618068 0.659132
Si Si4 0.244635 0.766521 0.946670
Si Si5 0.135481 0.277327 0.218893
Si Si6 0.678547 0.375213 0.465835
Si Si7 0.081454 0.862386 0.242154
Si Si8 0.836850 0.184799 0.941963
O O1 0.352031 0.592268 0.322177
O O2 0.500000 0.000000 0.500000
O O3 0.667758 0.177153 0.483698
O O4 0.754740 0.054266 0.675647
O O5 0.075077 0.375252 0.612503
O O6 0.115563 0.619324 0.755703
O O7 0.787368 0.241704 0.402663
O O8 0.848675 0.081859 0.597635
O O9 0.220923 0.485284 0.559305
O O10 0.499692 0.905477 0.876948
O O11 0.157306 0.768755 0.950348
O O12 0.164249 0.502930 0.938603
O O13 0.194067 0.396585 0.361947
O O14 0.937430 0.139033 0.024549
O O15 0.099536 0.054773 0.207698
O O16 0.422347 0.114758 0.273995
O O17 0.000000 0.500000 0.000000
#
# Coordination Sequence:
#
# PCOD9049478 Si02
#       8
#     2   2   2   2   2   2   2   2
#     4  10  18  34  59  75 105 151 184 218 264 325
#     4   9  19  33  58  84 109 135 185 233 284 320
#     4  10  17  34  60  86  99 142 190 238 266 317
#     4   9  20  35  56  79 113 137 189 232 272 327
#     4  11  22  37  54  78 124 147 177 228 284 325
#     4  10  20  35  59  81 108 146 195 227 265 328
#     4  10  21  37  54  85 114 151 172 226 292 331
#     4  11  21  35  58  83 102 150 199 226 264 329
#
# _framework density 20.145641999999999
#
# number of rings (size 3 to 8) (size 9 to 14) (size 15 to 20)
#    0.750    1.250    2.500    3.000    1.750    0.000 
#    2.250    1.250    0.000    3.000    0.000    0.000 
#    0.000    0.000    0.000    0.000    0.000    0.000 
#
# Total GULP energy -89113.760937 kJ/mol
# GULP energy per Si atom -5569.610059 kJ/mol
# Density = 2.009979 g / cm^3
# Si number density = 20.145642 Si / 1000 Ang^3
#
#
#
# Elastic Constant Matrix: (Units=GPa)
#
#
# Indices 1 2 3 4 5 6 
#
# 1 89.9080 19.9433 18.7790 -3.3046 16.0977 19.6767
# 2 19.9433 59.7942 2.3766 -15.5304 14.2664 -21.8455
# 3 18.7790 2.3766 74.4758 -16.4038 18.0239 -11.9962
# 4 -3.3046 -15.5304 -16.4038 22.7592 -2.3761 6.1984
# 5 16.0977 14.2664 18.0239 -2.3761 29.4479 -4.6463
# 6 19.6767 -21.8455 -11.9962 6.1984 -4.6463 34.1988
#
#
#
# Elastic Compliance Matrix: (Units=1/GPa)
#
#
# Indices 1 2 3 4 5 6 
#
# 1 0.025661 -0.022894 -0.013584 -0.013079 -0.000707 -0.031879
# 2 -0.022894 0.054532 0.024108 0.036456 -0.018243 0.047377
# 3 -0.013584 0.024108 0.030394 0.027404 -0.016436 0.026677
# 4 -0.013079 0.036456 0.027404 0.078367 -0.017193 0.023885
# 5 -0.000707 -0.018243 -0.016436 -0.017193 0.050751 -0.007000
# 6 -0.031879 0.047377 0.026677 0.023885 -0.007000 0.081923
#
#
# Mechanical properties :
#
#
# Convention : Reuss Voigt Hill
#
# Bulk Modulus (GPa) = 11.64873 34.04173 22.84523
# Shear Modulus (GPa) = 13.33394 29.48646 21.41020
#
# Velocity S-wave (km/s) = 2.57549 3.82994 3.26355
# Velocity P-wave (km/s) = 3.82609 6.04089 5.05625
#
# Compressibility (1/GPa) = 0.08584626
#
# Stress axis : x y z
#
# Youngs Moduli (GPa) = 38.96992 18.33796 32.90158
#
# Poissons Ratio (x) = 0.41983 0.44694
# Poissons Ratio (y) = 0.89217 -0.79320
# Poissons Ratio (z) = 0.52938 -0.44210
#
# Static dielectric constant tensor:
#      x y z
#    x 1.790230 0.055670 -0.029640 
#    y 0.055670 1.705530 -0.022020 
#    z -0.029640 -0.022020 1.740570 
# 
# From -- ./inp_files/575078.got.cif
#   From: 2010.05.17/outbox.cif.g08.bks.cpg/sg2_288_cif.got.tgz:575078.got - 2010.06.03 11:33:40.
