data_PCOD9049599
_publ_section_title
;
Structure prediction by ZEFSAII (Michael W. Deem and Ramdas Pophale) SiO2 
 PCOD9049599
Probable space group: P -1
;
_chemical_formula_sum "Si O2"
_cell_formula_units_Z 16
_cell_length_a 14.696496
_cell_length_b 8.834136
_cell_length_c 8.778477
_cell_angle_alpha 86.084247
_cell_angle_beta 89.519409
_cell_angle_gamma 36.990142
_cell_volume 682.115819
_symmetry_space_group_name_H-M "P -1"
_symmetry_group_IT_number 2
_symmetry_cell_setting 'triclinic'
loop_
_space_group_symop_operation_xyz
x,y,z
-x,-y,-z
loop_
_atom_site_type_symbol
_atom_site_label
_atom_site_fract_x
_atom_site_fract_y
_atom_site_fract_z
Si Si1 0.545637 0.883380 0.673361
Si Si2 0.631846 0.050163 0.845364
Si Si3 0.718981 0.000983 0.285606
Si Si4 0.771778 0.343913 0.783943
Si Si5 0.798477 0.032737 0.606444
Si Si6 0.925610 0.207385 0.244670
Si Si7 0.869527 0.604587 0.095851
Si Si8 0.663757 0.387062 0.117053
O O1 0.429683 0.904748 0.714550
O O2 0.710684 0.587400 0.715110
O O3 0.500000 0.000000 0.500000
O O4 0.539538 0.039801 0.765543
O O5 0.755797 0.961627 0.737288
O O6 0.509872 0.339258 0.872256
O O7 0.715558 0.855551 0.995310
O O8 0.745765 0.041323 0.446023
O O9 0.699935 0.163361 0.156396
O O10 0.854289 0.709777 0.250512
O O11 0.720587 0.287971 0.660762
O O12 0.711933 0.380170 0.949609
O O13 0.953011 0.075546 0.802811
O O14 0.975958 0.848102 0.616691
O O15 0.894840 0.392806 0.125585
O O16 0.766614 0.335817 0.246946
O O17 0.000000 0.500000 0.000000
#
# Coordination Sequence:
#
# PCOD9049599 Si02
#       8
#     2   2   2   2   2   2   2   2
#     4  12  26  45  75 108 148 189 241 301 361 424
#     4  12  25  45  73 106 140 189 244 299 356 429
#     4  12  27  44  74 109 141 193 241 296 364 430
#     4  10  24  47  73 105 144 191 242 290 363 429
#     4  10  24  47  68 105 144 189 240 287 361 436
#     4  10  24  47  70 105 145 188 238 299 358 424
#     4  12  24  47  75 107 146 188 238 303 363 427
#     4  12  25  45  77 105 147 188 246 303 357 424
#
# _framework density 23.456429
#
# number of rings (size 3 to 8) (size 9 to 14) (size 15 to 20)
#    0.750    0.000    2.500    4.875    1.750    6.000 
#    0.000    0.000    0.000    0.000    0.000    0.000 
#    0.000    0.000    0.000    0.000    0.000    0.000 
#
# Total GULP energy -89467.995083 kJ/mol
# GULP energy per Si atom -5591.749693 kJ/mol
# Density = 2.340304 g / cm^3
# Si number density = 23.456429 Si / 1000 Ang^3
#
#
#
# Elastic Constant Matrix: (Units=GPa)
#
#
# Indices 1 2 3 4 5 6 
#
# 1 89.6727 3.1494 0.6089 -4.6286 12.6336 0.7126
# 2 3.1494 114.7308 23.0021 -16.6233 -7.9381 3.7393
# 3 0.6089 23.0021 76.2324 0.4616 8.2488 1.7766
# 4 -4.6286 -16.6233 0.4616 32.0897 16.9458 -2.1172
# 5 12.6336 -7.9381 8.2488 16.9458 35.5917 -9.1590
# 6 0.7126 3.7393 1.7766 -2.1172 -9.1590 32.7574
#
#
#
# Elastic Compliance Matrix: (Units=1/GPa)
#
#
# Indices 1 2 3 4 5 6 
#
# 1 0.012601 -0.000153 0.000830 0.005824 -0.008031 -0.002171
# 2 -0.000153 0.010118 -0.003130 0.004938 0.000555 -0.000508
# 3 0.000830 -0.003130 0.014672 0.000988 -0.005349 -0.001888
# 4 0.005824 0.004938 0.000988 0.047428 -0.024976 -0.004662
# 5 -0.008031 0.000555 -0.005349 -0.024976 0.047293 0.012010
# 6 -0.002171 -0.000508 -0.001888 -0.004662 0.012010 0.033792
#
#
# Mechanical properties :
#
#
# Convention : Reuss Voigt Hill
#
# Bulk Modulus (GPa) = 30.78390 37.12851 33.95621
# Shear Modulus (GPa) = 27.52723 37.01277 32.27000
#
# Velocity S-wave (km/s) = 3.42942 3.97664 3.71312
# Velocity P-wave (km/s) = 5.36969 6.07848 5.73505
#
# Compressibility (1/GPa) = 0.03248451
#
# Stress axis : x y z
#
# Youngs Moduli (GPa) = 79.36083 98.83229 68.15509
#
# Poissons Ratio (x) = 0.01516 -0.05656
# Poissons Ratio (y) = 0.01217 0.21332
# Poissons Ratio (z) = -0.06586 0.30934
#
# Static dielectric constant tensor:
#      x y z
#    x 1.878690 -0.022890 0.052320 
#    y -0.022890 1.897990 0.003890 
#    z 0.052320 0.003890 1.923690 
# 
# From -- ./inp_files/298247.got.cif
#   From: 2010.05.17/outbox.cif.g08.bks.cpg/sg2_150_cif.got.tgz:298247.got - 2010.06.03 11:33:40.
