data_PCOD9049016
_publ_section_title
;
Structure prediction by ZEFSAII (Michael W. Deem and Ramdas Pophale) SiO2 
 PCOD9049016
Probable space group: P -1
;
_chemical_formula_sum "Si O2"
_cell_formula_units_Z 14
_cell_length_a 8.045707
_cell_length_b 8.208297
_cell_length_c 16.263401
_cell_angle_alpha 78.683963
_cell_angle_beta 66.936765
_cell_angle_gamma 35.059821
_cell_volume 551.700797
_symmetry_space_group_name_H-M "P -1"
_symmetry_group_IT_number 2
_symmetry_cell_setting 'triclinic'
loop_
_space_group_symop_operation_xyz
x,y,z
-x,-y,-z
loop_
_atom_site_type_symbol
_atom_site_label
_atom_site_fract_x
_atom_site_fract_y
_atom_site_fract_z
Si Si1 0.228248 0.489645 0.745426
Si Si2 0.253096 0.670372 0.172871
Si Si3 0.299399 0.356400 0.501064
Si Si4 0.630107 0.707766 0.079557
Si Si5 0.184560 0.024685 0.429337
Si Si6 0.357839 0.741242 0.709816
Si Si7 0.715706 0.681745 0.883691
O O1 0.228400 0.473652 0.846386
O O2 0.566985 0.194583 0.669724
O O3 0.153720 0.737535 0.719077
O O4 0.961263 0.553272 0.776849
O O5 0.357509 0.773043 0.110943
O O6 0.379966 0.533178 0.253294
O O7 0.393679 0.415660 0.116208
O O8 0.872506 0.962724 0.225129
O O9 0.577741 0.082061 0.534631
O O10 0.486925 0.296750 0.395568
O O11 0.000000 0.500000 0.500000
O O12 0.104782 0.634285 0.567752
O O13 0.501473 0.989949 0.096823
O O14 0.812489 0.572422 0.970899
O O15 0.000000 0.000000 0.500000
#
# Coordination Sequence:
#
# PCOD9049016 Si02
#       7
#     2   2   2   2   2   2   2
#     4  11  25  43  72  98 144 184 244 299 363 433
#     4  11  25  44  72 104 141 189 235 299 361 441
#     4  12  28  46  70 106 151 189 243 306 363 436
#     4  10  24  46  66 105 141 186 236 304 362 432
#     4  12  27  45  74 105 141 192 247 294 366 439
#     4  11  25  46  69 101 147 187 236 296 371 424
#     4  11  24  43  73 100 140 188 242 295 366 434
#
# _framework density 25.376076000000001
#
# number of rings (size 3 to 8) (size 9 to 14) (size 15 to 20)
#    0.000    0.857    2.857    2.571   10.000    0.000 
#    0.000    2.143    0.000    0.000    0.000    0.000 
#    0.000    0.000    0.000    0.000    0.000    0.000 
#
# Total GULP energy -78156.213300 kJ/mol
# GULP energy per Si atom -5582.586664 kJ/mol
# Density = 2.531832 g / cm^3
# Si number density = 25.376076 Si / 1000 Ang^3
#
#
#
# Elastic Constant Matrix: (Units=GPa)
#
#
# Indices 1 2 3 4 5 6 
#
# 1 81.1025 13.8683 18.1187 6.2493 0.2191 15.4161
# 2 13.8683 130.5132 17.6876 10.2288 -7.0499 2.3439
# 3 18.1187 17.6876 157.0291 16.1840 -19.1156 -4.0423
# 4 6.2493 10.2288 16.1840 36.5006 -8.8758 7.1583
# 5 0.2191 -7.0499 -19.1156 -8.8758 39.3223 -0.2411
# 6 15.4161 2.3439 -4.0423 7.1583 -0.2411 39.4162
#
#
#
# Elastic Compliance Matrix: (Units=1/GPa)
#
#
# Indices 1 2 3 4 5 6 
#
# 1 0.014007 -0.001183 -0.001725 -0.000536 -0.001284 -0.005495
# 2 -0.001183 0.008026 -0.000487 -0.001676 0.000832 0.000245
# 3 -0.001725 -0.000487 0.007280 -0.002462 0.002917 0.001915
# 4 -0.000536 -0.001676 -0.002462 0.031512 0.005584 -0.005632
# 5 -0.001284 0.000832 0.002917 0.005584 0.028265 -0.000089
# 6 -0.005495 0.000245 0.001915 -0.005632 -0.000089 0.028724
#
#
# Mechanical properties :
#
#
# Convention : Reuss Voigt Hill
#
# Bulk Modulus (GPa) = 44.40141 51.99934 48.20037
# Shear Modulus (GPa) = 37.84622 44.31251 41.07936
#
# Velocity S-wave (km/s) = 3.86607 4.18333 4.02782
# Velocity P-wave (km/s) = 6.12079 6.62341 6.37705
#
# Compressibility (1/GPa) = 0.02252181
#
# Stress axis : x y z
#
# Youngs Moduli (GPa) = 71.39176 124.59950 137.35430
#
# Poissons Ratio (x) = 0.14743 0.23699
# Poissons Ratio (y) = 0.08447 0.06691
# Poissons Ratio (z) = 0.12318 0.06070
#
# Static dielectric constant tensor:
#      x y z
#    x 1.923110 0.274340 0.071320 
#    y 0.274340 1.653400 -0.077740 
#    z 0.071320 -0.077740 1.946740 
# 
# From -- ./inp_files/192868.got.cif
#   From: 2010.05.17/outbox.cif.g08.bks.cpg/sg2_97_cif.got.tgz:192868.got - 2010.06.03 11:33:40.
