data_PCOD9049104
_publ_section_title
;
Structure prediction by ZEFSAII (Michael W. Deem and Ramdas Pophale) SiO2 
 PCOD9049104
Probable space group: P -1
;
_chemical_formula_sum "Si O2"
_cell_formula_units_Z 16
_cell_length_a 25.828246
_cell_length_b 10.385554
_cell_length_c 9.893971
_cell_angle_alpha 147.435516
_cell_angle_beta 33.582629
_cell_angle_gamma 150.352863
_cell_volume 654.196371
_symmetry_space_group_name_H-M "P -1"
_symmetry_group_IT_number 2
_symmetry_cell_setting 'triclinic'
loop_
_space_group_symop_operation_xyz
x,y,z
-x,-y,-z
loop_
_atom_site_type_symbol
_atom_site_label
_atom_site_fract_x
_atom_site_fract_y
_atom_site_fract_z
Si Si1 0.442444 0.864795 0.866821
Si Si2 0.044135 0.361013 0.383495
Si Si3 0.507628 0.773087 0.376250
Si Si4 0.115667 0.768465 0.838497
Si Si5 0.747518 0.927110 0.929478
Si Si6 0.071273 0.156443 0.619597
Si Si7 0.779937 0.748980 0.174641
Si Si8 0.306459 0.114922 0.270727
O O1 0.524622 0.884724 0.591176
O O2 0.344361 0.534216 0.813836
O O3 0.500000 0.000000 0.000000
O O4 0.384696 0.018263 0.070032
O O5 0.108020 0.557490 0.552354
O O6 0.000000 0.500000 0.500000
O O7 0.129305 0.329578 0.078621
O O8 0.958296 0.057774 0.378737
O O9 0.390116 0.456124 0.351774
O O10 0.500000 0.000000 0.500000
O O11 0.614051 0.756334 0.097886
O O12 0.184420 0.074677 0.884395
O O13 0.987621 0.678450 0.063059
O O14 0.183446 0.843982 0.898392
O O15 0.803743 0.746627 0.616099
O O16 0.755587 0.065309 0.887987
O O17 0.000000 0.000000 0.500000
O O18 0.774775 0.918472 0.462308
#
# Coordination Sequence:
#
# PCOD9049104 Si02
#       8
#     2   2   2   2   2   2   2   2
#     4  11  26  43  69 100 138 175 229 281 339 406
#     4  11  25  42  72 102 135 176 232 285 343 411
#     4  11  25  44  63 103 135 180 229 273 338 407
#     4  10  24  46  69 100 135 173 233 280 343 409
#     4  11  24  43  72  92 138 180 220 285 341 393
#     4   9  23  45  63 100 134 175 225 278 348 404
#     4  10  25  43  69  99 134 179 224 274 351 402
#     4  11  25  44  67  99 140 177 232 278 337 411
#
# _framework density 24.457488999999999
#
# number of rings (size 3 to 8) (size 9 to 14) (size 15 to 20)
#    0.000    1.500    1.250    1.125   10.500    4.000 
#    4.500    0.000    0.000    0.000    0.000    0.000 
#    0.000    0.000    0.000    0.000    0.000    0.000 
#
# Total GULP energy -89433.269746 kJ/mol
# GULP energy per Si atom -5589.579359 kJ/mol
# Density = 2.440182 g / cm^3
# Si number density = 24.457489 Si / 1000 Ang^3
#
#
#
# Elastic Constant Matrix: (Units=GPa)
#
#
# Indices 1 2 3 4 5 6 
#
# 1 167.3523 20.8939 39.6638 -9.3342 24.8268 -13.2120
# 2 20.8939 92.4966 6.0601 -14.6631 3.8818 -11.1074
# 3 39.6638 6.0601 149.5957 -47.2801 10.3500 -2.4049
# 4 -9.3342 -14.6631 -47.2801 42.6713 3.2225 -2.8892
# 5 24.8268 3.8818 10.3500 3.2225 45.4480 -7.1711
# 6 -13.2120 -11.1074 -2.4049 -2.8892 -7.1711 23.7516
#
#
#
# Elastic Compliance Matrix: (Units=1/GPa)
#
#
# Indices 1 2 3 4 5 6 
#
# 1 0.007135 -0.001151 -0.001707 -0.000342 -0.003023 0.002304
# 2 -0.001151 0.012807 0.002115 0.006952 -0.000450 0.006273
# 3 -0.001707 0.002115 0.011501 0.013425 -0.002490 0.002085
# 4 -0.000342 0.006952 0.013425 0.041550 -0.005162 0.007916
# 5 -0.003023 -0.000450 -0.002490 -0.005162 0.025399 0.004896
# 6 0.002304 0.006273 0.002085 0.007916 0.004896 0.048970
#
#
# Mechanical properties :
#
#
# Convention : Reuss Voigt Hill
#
# Bulk Modulus (GPa) = 33.38029 60.29779 46.83904
# Shear Modulus (GPa) = 31.48001 45.22928 38.35465
#
# Velocity S-wave (km/s) = 3.59155 4.30502 3.96437
# Velocity P-wave (km/s) = 5.55670 7.02983 6.33622
#
# Compressibility (1/GPa) = 0.02995780
#
# Stress axis : x y z
#
# Youngs Moduli (GPa) = 140.15662 78.08423 86.95261
#
# Poissons Ratio (x) = 0.08984 0.14842
# Poissons Ratio (y) = 0.16125 -0.18393
# Poissons Ratio (z) = 0.23924 -0.16517
#
# Static dielectric constant tensor:
#      x y z
#    x 2.078310 -0.213880 -0.068440 
#    y -0.213880 2.293960 0.112470 
#    z -0.068440 0.112470 1.991640 
# 
# From -- ./inp_files/352481.got.cif
#   From: 2010.05.17/outbox.cif.g08.bks.cpg/sg2_177_cif.got.tgz:352481.got - 2010.06.03 11:33:40.
