data_PCOD9049156
_publ_section_title
;
Structure prediction by ZEFSAII (Michael W. Deem and Ramdas Pophale) SiO2 
 PCOD9049156
Probable space group: P -1
;
_chemical_formula_sum "Si O2"
_cell_formula_units_Z 14
_cell_length_a 20.524119
_cell_length_b 7.893486
_cell_length_c 5.511219
_cell_angle_alpha 64.335122
_cell_angle_beta 124.633086
_cell_angle_gamma 116.040889
_cell_volume 639.386376
_symmetry_space_group_name_H-M "P -1"
_symmetry_group_IT_number 2
_symmetry_cell_setting 'triclinic'
loop_
_space_group_symop_operation_xyz
x,y,z
-x,-y,-z
loop_
_atom_site_type_symbol
_atom_site_label
_atom_site_fract_x
_atom_site_fract_y
_atom_site_fract_z
Si Si1 0.530721 0.157641 0.181782
Si Si2 0.750103 0.474457 0.104820
Si Si3 0.633891 0.933184 0.791237
Si Si4 0.191734 0.838145 0.807728
Si Si5 0.587123 0.514174 0.791183
Si Si6 0.949957 0.942201 0.680047
Si Si7 0.175127 0.449573 0.278723
O O1 0.448880 0.129258 0.184606
O O2 0.610754 0.100896 0.484039
O O3 0.561739 0.385510 0.054892
O O4 0.500000 0.000000 0.000000
O O5 0.789959 0.292476 0.293544
O O6 0.767548 0.555389 0.363282
O O7 0.653301 0.413671 0.876931
O O8 0.791076 0.602675 0.879653
O O9 0.633117 0.739022 0.764140
O O10 0.721135 0.012864 0.046911
O O11 0.122478 0.947516 0.549901
O O12 0.169468 0.669948 0.074185
O O13 0.500000 0.500000 0.500000
O O14 0.908561 0.710501 0.744035
O O15 0.000000 0.000000 0.500000
O O16 0.000000 0.000000 0.000000
#
# Coordination Sequence:
#
# PCOD9049156 Si02
#       7
#     2   2   2   2   2   2   2
#     4  11  23  42  63  98 137 179 242 293 344 403
#     4  10  24  46  70 101 141 186 240 276 350 414
#     4  11  24  42  68  95 136 186 239 287 350 409
#     4  10  26  45  75  99 141 191 230 290 352 422
#     4  12  24  40  63 100 138 189 233 301 343 395
#     4  12  28  48  77 113 141 175 232 286 357 432
#     4  10  24  49  74 103 141 182 228 284 348 421
#
# _framework density 21.895990000000001
#
# number of rings (size 3 to 8) (size 9 to 14) (size 15 to 20)
#    0.857    0.286    1.429    3.857    4.000    3.429 
#    2.571    0.000    0.000    0.000    0.000    0.000 
#    0.000    0.000    0.000    0.000    0.000    0.000 
#
# Total GULP energy -78028.664019 kJ/mol
# GULP energy per Si atom -5573.476001 kJ/mol
# Density = 2.184615 g / cm^3
# Si number density = 21.895990 Si / 1000 Ang^3
#
#
#
# Elastic Constant Matrix: (Units=GPa)
#
#
# Indices 1 2 3 4 5 6 
#
# 1 61.9072 8.9001 44.8717 -1.6016 21.4014 -4.8433
# 2 8.9001 72.9387 27.0510 -8.5489 1.2516 16.7042
# 3 44.8717 27.0510 135.4537 3.0411 13.2369 4.4986
# 4 -1.6016 -8.5489 3.0411 36.2543 -1.7952 3.1460
# 5 21.4014 1.2516 13.2369 -1.7952 38.2137 -0.3118
# 6 -4.8433 16.7042 4.4986 3.1460 -0.3118 28.8103
#
#
#
# Elastic Compliance Matrix: (Units=1/GPa)
#
#
# Indices 1 2 3 4 5 6 
#
# 1 0.026532 -0.001707 -0.007481 0.000235 -0.012148 0.006461
# 2 -0.001707 0.018135 -0.002969 0.005475 0.001558 -0.010919
# 3 -0.007481 -0.002969 0.010471 -0.001797 0.000568 -0.000969
# 4 0.000235 0.005475 -0.001797 0.029644 0.001654 -0.006073
# 5 -0.012148 0.001558 0.000568 0.001654 0.032779 -0.002860
# 6 0.006461 -0.010919 -0.000969 -0.006073 -0.002860 0.042910
#
#
# Mechanical properties :
#
#
# Convention : Reuss Voigt Hill
#
# Bulk Modulus (GPa) = 32.44146 47.99393 40.21769
# Shear Modulus (GPa) = 25.63319 33.28746 29.46032
#
# Velocity S-wave (km/s) = 3.42523 3.90327 3.67204
# Velocity P-wave (km/s) = 5.52189 6.50236 6.03208
#
# Compressibility (1/GPa) = 0.03082475
#
# Stress axis : x y z
#
# Youngs Moduli (GPa) = 37.68988 55.14193 95.50330
#
# Poissons Ratio (x) = 0.09410 0.71448
# Poissons Ratio (y) = 0.06432 0.28354
# Poissons Ratio (z) = 0.28197 0.16371
#
# Static dielectric constant tensor:
#      x y z
#    x 1.806810 -0.049890 -0.002310 
#    y -0.049890 1.830120 -0.008190 
#    z -0.002310 -0.008190 1.806050 
# 
# From -- ./inp_files/116764.got.cif
#   From: 2010.05.17/outbox.cif.g08.bks.cpg/sg2_59_cif.got.tgz:116764.got - 2010.06.03 11:33:40.
