data_PCOD9049009
_publ_section_title
;
Structure prediction by ZEFSAII (Michael W. Deem and Ramdas Pophale) SiO2 
 PCOD9049009
Probable space group: P -1
;
_chemical_formula_sum "Si O2"
_cell_formula_units_Z 12
_cell_length_a 8.362951
_cell_length_b 7.196766
_cell_length_c 11.745192
_cell_angle_alpha 77.451529
_cell_angle_beta 38.828395
_cell_angle_gamma 74.789306
_cell_volume 427.594420
_symmetry_space_group_name_H-M "P -1"
_symmetry_group_IT_number 2
_symmetry_cell_setting 'triclinic'
loop_
_space_group_symop_operation_xyz
x,y,z
-x,-y,-z
loop_
_atom_site_type_symbol
_atom_site_label
_atom_site_fract_x
_atom_site_fract_y
_atom_site_fract_z
Si Si1 0.273917 0.501639 0.901039
Si Si2 0.617957 0.021370 0.808229
Si Si3 0.137860 0.029102 0.628125
Si Si4 0.342839 0.926063 0.767535
Si Si5 0.750395 0.604198 0.835033
Si Si6 0.702463 0.410127 0.493894
O O1 0.270682 0.731339 0.887063
O O2 0.541092 0.433543 0.696354
O O3 0.244379 0.357055 0.039405
O O4 0.000000 0.500000 0.000000
O O5 0.414877 0.064632 0.810887
O O6 0.714531 0.794504 0.755446
O O7 0.878332 0.106861 0.689123
O O8 0.500000 0.000000 0.000000
O O9 0.143247 0.013164 0.766019
O O10 0.208897 0.808865 0.569651
O O11 0.387647 0.124234 0.444619
O O12 0.034204 0.496159 0.662115
O O13 0.500000 0.500000 0.000000
O O14 0.500000 0.500000 0.500000
#
# Coordination Sequence:
#
# PCOD9049009 Si02
#       6
#     2   2   2   2   2   2
#     4  12  23  43  72  99 135 182 231 287 344 416
#     4  11  25  45  66 100 139 180 226 287 345 411
#     4  10  24  46  66 101 137 176 238 277 343 426
#     4  11  23  45  69  95 138 181 222 286 347 404
#     4  11  24  44  65 103 137 173 238 282 341 421
#     4  11  22  43  71  97 138 184 224 291 347 404
#
# _framework density 28.063977999999999
#
# number of rings (size 3 to 8) (size 9 to 14) (size 15 to 20)
#    0.000    1.000    5.000    1.500    2.333    2.667 
#    6.000    0.000    0.000    0.000    0.000    0.000 
#    0.000    0.000    0.000    0.000    0.000    0.000 
#
# Total GULP energy -66977.361613 kJ/mol
# GULP energy per Si atom -5581.446801 kJ/mol
# Density = 2.800010 g / cm^3
# Si number density = 28.063978 Si / 1000 Ang^3
#
#
#
# Elastic Constant Matrix: (Units=GPa)
#
#
# Indices 1 2 3 4 5 6 
#
# 1 187.2388 26.0520 39.4832 4.5744 -14.0723 18.5037
# 2 26.0520 73.3886 18.0886 -10.0415 -9.7960 8.6502
# 3 39.4832 18.0886 172.8580 10.3861 -27.7021 3.0056
# 4 4.5744 -10.0415 10.3861 47.8797 11.6550 -1.0075
# 5 -14.0723 -9.7960 -27.7021 11.6550 69.4666 -15.1472
# 6 18.5037 8.6502 3.0056 -1.0075 -15.1472 35.2172
#
#
#
# Elastic Compliance Matrix: (Units=1/GPa)
#
#
# Indices 1 2 3 4 5 6 
#
# 1 0.006098 -0.001668 -0.001109 -0.000774 0.000104 -0.002677
# 2 -0.001668 0.015376 -0.001383 0.003604 0.000099 -0.002637
# 3 -0.001109 -0.001383 0.006782 -0.002358 0.003024 0.001577
# 4 -0.000774 0.003604 -0.002358 0.023380 -0.004884 -0.001710
# 5 0.000104 0.000099 0.003024 -0.004884 0.018044 0.007284
# 6 -0.002677 -0.002637 0.001577 -0.001710 0.007284 0.033399
#
#
# Mechanical properties :
#
#
# Convention : Reuss Voigt Hill
#
# Bulk Modulus (GPa) = 50.15689 66.74811 58.45250
# Shear Modulus (GPa) = 42.35711 53.83679 48.09695
#
# Velocity S-wave (km/s) = 3.88919 4.38466 4.14434
# Velocity P-wave (km/s) = 6.17081 7.03346 6.61621
#
# Compressibility (1/GPa) = 0.01993744
#
# Stress axis : x y z
#
# Youngs Moduli (GPa) = 163.99145 65.03551 147.44900
#
# Poissons Ratio (x) = 0.10847 0.16346
# Poissons Ratio (y) = 0.27351 0.20390
# Poissons Ratio (z) = 0.18180 0.08994
#
# Static dielectric constant tensor:
#      x y z
#    x 2.286980 0.139680 0.124440 
#    y 0.139680 2.358210 0.082470 
#    z 0.124440 0.082470 2.364950 
# 
# From -- ./inp_files/381845.got.cif
#   From: 2010.05.17/outbox.cif.g08.bks.cpg/sg2_191_cif.got.tgz:381845.got - 2010.06.03 11:33:40.
