data_PCOD9049735
_publ_section_title
;
Structure prediction by ZEFSAII (Michael W. Deem and Ramdas Pophale) SiO2 
 PCOD9049735
Probable space group: P -1
;
_chemical_formula_sum "Si O2"
_cell_formula_units_Z 14
_cell_length_a 9.402844
_cell_length_b 14.183088
_cell_length_c 17.613461
_cell_angle_alpha 157.355576
_cell_angle_beta 66.860994
_cell_angle_gamma 98.865105
_cell_volume 672.003293
_symmetry_space_group_name_H-M "P -1"
_symmetry_group_IT_number 2
_symmetry_cell_setting 'triclinic'
loop_
_space_group_symop_operation_xyz
x,y,z
-x,-y,-z
loop_
_atom_site_type_symbol
_atom_site_label
_atom_site_fract_x
_atom_site_fract_y
_atom_site_fract_z
Si Si1 0.114741 0.864958 0.651549
Si Si2 0.600768 0.861630 0.977530
Si Si3 0.813508 0.850179 0.792496
Si Si4 0.598690 0.921737 0.503998
Si Si5 0.098970 0.649754 0.057504
Si Si6 0.780637 0.271850 0.756716
Si Si7 0.331075 0.129006 0.854390
O O1 0.277880 0.501091 0.338178
O O2 0.919176 0.962605 0.806671
O O3 0.191449 0.028611 0.802002
O O4 0.054392 0.016052 0.692998
O O5 0.721184 0.954594 0.973898
O O6 0.601289 0.908551 0.101694
O O7 0.379039 0.056367 0.142023
O O8 0.000000 0.500000 0.500000
O O9 0.500000 0.000000 0.500000
O O10 0.658506 0.146723 0.671934
O O11 0.480020 0.944737 0.618062
O O12 0.778209 0.574308 0.202700
O O13 0.233058 0.637162 0.084785
O O14 0.000000 0.500000 0.000000
O O15 0.747682 0.533873 0.904678
O O16 0.000000 0.000000 0.500000
#
# Coordination Sequence:
#
# PCOD9049735 Si02
#       7
#     2   2   2   2   2   2   2
#     4  11  24  43  72 102 140 182 226 283 341 405
#     4  10  24  47  73 101 138 171 228 290 349 409
#     4   9  22  49  76 100 132 176 220 291 358 410
#     4  12  26  41  62  94 142 187 233 284 332 394
#     4  12  23  43  64  98 144 184 233 278 331 403
#     4  12  24  41  64  91 136 191 232 278 329 399
#     4  12  26  40  65 105 133 183 234 275 342 408
#
# _framework density 20.83323
#
# number of rings (size 3 to 8) (size 9 to 14) (size 15 to 20)
#    0.000    0.857    4.286    1.286    6.000    0.571 
#    2.571    6.429    0.000    0.000    0.000    0.000 
#    0.000    0.000    0.000    0.000    0.000    0.000 
#
# Total GULP energy -78095.296469 kJ/mol
# GULP energy per Si atom -5578.235462 kJ/mol
# Density = 2.078581 g / cm^3
# Si number density = 20.833230 Si / 1000 Ang^3
#
#
#
# Elastic Constant Matrix: (Units=GPa)
#
#
# Indices 1 2 3 4 5 6 
#
# 1 140.0427 58.3113 44.3921 -8.2795 2.8248 1.7537
# 2 58.3113 128.2694 33.1498 -17.0281 -5.6440 -5.0974
# 3 44.3921 33.1498 80.2346 -17.9907 -10.2742 -0.2126
# 4 -8.2795 -17.0281 -17.9907 30.1230 3.7437 -3.6538
# 5 2.8248 -5.6440 -10.2742 3.7437 43.3551 -4.8071
# 6 1.7537 -5.0974 -0.2126 -3.6538 -4.8071 47.0799
#
#
#
# Elastic Compliance Matrix: (Units=1/GPa)
#
#
# Indices 1 2 3 4 5 6 
#
# 1 0.010196 -0.003813 -0.004830 -0.002104 -0.002258 -0.001208
# 2 -0.003813 0.010507 -0.001115 0.004289 0.001173 0.001727
# 3 -0.004830 -0.001115 0.017985 0.008452 0.003834 0.001188
# 4 -0.002104 0.004289 0.008452 0.040588 -0.000397 0.003690
# 5 -0.002258 0.001173 0.003834 -0.000397 0.024608 0.002710
# 6 -0.001208 0.001727 0.001188 0.003690 0.002710 0.022041
#
#
# Mechanical properties :
#
#
# Convention : Reuss Voigt Hill
#
# Bulk Modulus (GPa) = 52.15665 68.91703 60.53684
# Shear Modulus (GPa) = 32.93097 38.29117 35.61107
#
# Velocity S-wave (km/s) = 3.98011 4.29182 4.13890
# Velocity P-wave (km/s) = 6.79789 7.59683 7.20844
#
# Compressibility (1/GPa) = 0.01917301
#
# Stress axis : x y z
#
# Youngs Moduli (GPa) = 98.08019 95.17012 55.60127
#
# Poissons Ratio (x) = 0.36293 0.26853
# Poissons Ratio (y) = 0.37403 0.06198
# Poissons Ratio (z) = 0.47368 0.10609
#
# Static dielectric constant tensor:
#      x y z
#    x 1.765320 0.019350 -0.038320 
#    y 0.019350 1.793750 0.004630 
#    z -0.038320 0.004630 1.813260 
# 
# From -- ./inp_files/348617.got.cif
#   From: 2010.05.17/outbox.cif.g08.bks.cpg/sg2_175_cif.got.tgz:348617.got - 2010.06.03 11:33:40.
