data_PCOD9049762
_publ_section_title
;
Structure prediction by ZEFSAII (Michael W. Deem and Ramdas Pophale) SiO2 
 PCOD9049762
Probable space group: P -1
;
_chemical_formula_sum "Si O2"
_cell_formula_units_Z 14
_cell_length_a 8.200595
_cell_length_b 5.141487
_cell_length_c 13.728949
_cell_angle_alpha 108.407181
_cell_angle_beta 68.174098
_cell_angle_gamma 89.574068
_cell_volume 504.723569
_symmetry_space_group_name_H-M "P -1"
_symmetry_group_IT_number 2
_symmetry_cell_setting 'triclinic'
loop_
_space_group_symop_operation_xyz
x,y,z
-x,-y,-z
loop_
_atom_site_type_symbol
_atom_site_label
_atom_site_fract_x
_atom_site_fract_y
_atom_site_fract_z
Si Si1 0.839189 0.353624 0.554832
Si Si2 0.589126 0.258521 0.732983
Si Si3 0.788992 0.525551 0.171303
Si Si4 0.247183 0.878139 0.128479
Si Si5 0.123373 0.979249 0.683154
Si Si6 0.511424 0.281258 0.383966
Si Si7 0.836323 0.736059 0.978011
O O1 0.798498 0.268837 0.663616
O O2 0.843997 0.108465 0.446635
O O3 0.659328 0.569746 0.616941
O O4 0.000000 0.500000 0.500000
O O5 0.419518 0.500421 0.791662
O O6 0.599197 0.144797 0.827610
O O7 0.535883 0.031901 0.640912
O O8 0.950505 0.283870 0.088343
O O9 0.838020 0.710004 0.272325
O O10 0.806228 0.732812 0.099344
O O11 0.268464 0.034541 0.041317
O O12 0.068952 0.046966 0.235478
O O13 0.213883 0.564143 0.078737
O O14 0.276947 0.783743 0.686330
O O15 0.500000 0.500000 0.500000
#
# Coordination Sequence:
#
# PCOD9049762 Si02
#       7
#     2   2   2   2   2   2   2
#     4  11  24  41  67 101 142 187 240 295 355 431
#     4  11  25  43  69 106 144 193 234 299 361 432
#     4   9  22  46  73 103 138 185 243 298 361 429
#     4  11  25  43  72 107 148 188 239 294 367 429
#     4   9  21  41  65 100 135 187 232 300 346 432
#     4   9  21  41  63  97 133 184 238 290 342 425
#     4  10  24  47  73 109 140 191 240 304 358 433
#
# _framework density 27.737959
#
# number of rings (size 3 to 8) (size 9 to 14) (size 15 to 20)
#    0.000    2.000    0.000    0.857    6.000   13.714 
#    7.714    0.000    0.000    0.000    0.000    0.000 
#    0.000    0.000    0.000    0.000    0.000    0.000 
#
# Total GULP energy -78211.315111 kJ/mol
# GULP energy per Si atom -5586.522508 kJ/mol
# Density = 2.767483 g / cm^3
# Si number density = 27.737959 Si / 1000 Ang^3
#
#
#
# Elastic Constant Matrix: (Units=GPa)
#
#
# Indices 1 2 3 4 5 6 
#
# 1 122.2516 24.9448 35.8991 -8.7554 -16.8638 -4.7860
# 2 24.9448 82.6643 31.3401 2.2756 4.8926 3.1657
# 3 35.8991 31.3401 110.0238 11.5719 -6.1598 22.5267
# 4 -8.7554 2.2756 11.5719 46.3261 -2.3136 -4.1006
# 5 -16.8638 4.8926 -6.1598 -2.3136 48.5794 -4.8988
# 6 -4.7860 3.1657 22.5267 -4.1006 -4.8988 42.7945
#
#
#
# Elastic Compliance Matrix: (Units=1/GPa)
#
#
# Indices 1 2 3 4 5 6 
#
# 1 0.010786 -0.002283 -0.003901 0.003705 0.004085 0.004251
# 2 -0.002283 0.014260 -0.003461 -0.000386 -0.002669 0.000169
# 3 -0.003901 -0.003461 0.013393 -0.004610 -0.000304 -0.007707
# 4 0.003705 -0.000386 -0.004610 0.024061 0.002436 0.005454
# 5 0.004085 -0.002669 -0.000304 0.002436 0.022717 0.003648
# 6 0.004251 0.000169 -0.007707 0.005454 0.003648 0.028827
#
#
# Mechanical properties :
#
#
# Convention : Reuss Voigt Hill
#
# Bulk Modulus (GPa) = 52.21429 55.47862 53.84646
# Shear Modulus (GPa) = 35.78667 42.39038 39.08852
#
# Velocity S-wave (km/s) = 3.59579 3.91352 3.75801
# Velocity P-wave (km/s) = 6.00871 6.36123 6.18748
#
# Compressibility (1/GPa) = 0.01915185
#
# Stress axis : x y z
#
# Youngs Moduli (GPa) = 92.71052 70.12612 74.66491
#
# Poissons Ratio (x) = 0.16007 0.29124
# Poissons Ratio (y) = 0.21162 0.25839
# Poissons Ratio (z) = 0.36163 0.24268
#
# Static dielectric constant tensor:
#      x y z
#    x 2.155860 0.105940 -0.024080 
#    y 0.105940 2.285550 -0.073300 
#    z -0.024080 -0.073300 2.096410 
# 
# From -- ./inp_files/487877.got.cif
#   From: 2010.05.17/outbox.cif.g08.bks.cpg/sg2_244_cif.got.tgz:487877.got - 2010.06.03 11:33:40.
