data_PCOD9049882
_publ_section_title
;
Structure prediction by ZEFSAII (Michael W. Deem and Ramdas Pophale) SiO2 
 PCOD9049882
Probable space group: P -1
;
_chemical_formula_sum "Si O2"
_cell_formula_units_Z 11
_cell_length_a 8.656700
_cell_length_b 14.222498
_cell_length_c 7.569632
_cell_angle_alpha 51.484573
_cell_angle_beta 145.808263
_cell_angle_gamma 118.131081
_cell_volume 407.771518
_symmetry_space_group_name_H-M "P -1"
_symmetry_group_IT_number 2
_symmetry_cell_setting 'triclinic'
loop_
_space_group_symop_operation_xyz
x,y,z
-x,-y,-z
loop_
_atom_site_type_symbol
_atom_site_label
_atom_site_fract_x
_atom_site_fract_y
_atom_site_fract_z
Si Si1 0.483216 0.572004 0.585569
Si Si2 0.581970 0.941057 0.456715
Si Si3 0.864555 0.217693 0.809236
Si Si4 0.627409 0.318611 0.103548
Si Si5 0.000000 0.000000 0.500000
Si Si6 0.831636 0.740482 0.525322
O O1 0.500000 0.500000 0.500000
O O2 0.230111 0.665073 0.301843
O O3 0.712473 0.662093 0.658995
O O4 0.527485 0.457824 0.889778
O O5 0.304555 0.895973 0.153803
O O6 0.500000 0.000000 0.500000
O O7 0.747529 0.022216 0.389515
O O8 0.816784 0.829839 0.848707
O O9 0.737713 0.247502 0.462869
O O10 0.887821 0.321390 0.217836
O O11 0.388840 0.259878 0.841598
O O12 0.115152 0.129607 0.506359
#
# Coordination Sequence:
#
# PCOD9049882 Si02
#       6
#     2   2   2   2   1   2
#     4  10  24  47  78 117 160 203 265 322 392 486
#     4  12  29  51  79 116 160 210 274 329 394 484
#     4  12  26  50  77 116 160 205 265 329 406 467
#     4  11  25  46  77 114 159 205 257 326 406 467
#     4  12  28  50  84 108 162 210 276 320 412 448
#     4  11  25  46  74 113 153 211 265 323 390 479
#
# _framework density 26.975891000000001
#
# number of rings (size 3 to 8) (size 9 to 14) (size 15 to 20)
#    0.000    0.727    1.818    3.818    5.091    7.273 
#    0.000    6.364    0.000    0.000    0.000    0.000 
#    0.000    0.000    0.000    0.000    0.000    0.000 
#
# Total GULP energy -61473.513113 kJ/mol
# GULP energy per Si atom -5588.501192 kJ/mol
# Density = 2.691449 g / cm^3
# Si number density = 26.975891 Si / 1000 Ang^3
#
#
#
# Elastic Constant Matrix: (Units=GPa)
#
#
# Indices 1 2 3 4 5 6 
#
# 1 139.8187 57.8465 40.8077 6.3105 27.8186 -32.2705
# 2 57.8465 191.2406 68.5688 -18.8690 18.7181 -14.7728
# 3 40.8077 68.5688 125.4891 9.1743 49.3237 -25.8463
# 4 6.3105 -18.8690 9.1743 50.9030 -7.2063 1.0215
# 5 27.8186 18.7181 49.3237 -7.2063 56.2092 -12.7897
# 6 -32.2705 -14.7728 -25.8463 1.0215 -12.7897 57.8377
#
#
#
# Elastic Compliance Matrix: (Units=1/GPa)
#
#
# Indices 1 2 3 4 5 6 
#
# 1 0.010147 -0.003102 0.001391 -0.003403 -0.004615 0.004530
# 2 -0.003102 0.008235 -0.005814 0.005112 0.004236 -0.001379
# 3 0.001391 -0.005814 0.017761 -0.007646 -0.014365 0.004187
# 4 -0.003403 0.005112 -0.007646 0.024707 0.009316 -0.002386
# 5 -0.004615 0.004236 -0.014365 0.009316 0.032249 -0.000946
# 6 0.004530 -0.001379 0.004187 -0.002386 -0.000946 0.021169
#
#
# Mechanical properties :
#
#
# Convention : Reuss Voigt Hill
#
# Bulk Modulus (GPa) = 47.40858 87.88824 67.64841
# Shear Modulus (GPa) = 36.67072 52.27833 44.47452
#
# Velocity S-wave (km/s) = 3.69099 4.40701 4.06480
# Velocity P-wave (km/s) = 5.98140 7.65158 6.86745
#
# Compressibility (1/GPa) = 0.02109323
#
# Stress axis : x y z
#
# Youngs Moduli (GPa) = 98.55183 121.43034 56.30380
#
# Poissons Ratio (x) = 0.37669 -0.07833
# Poissons Ratio (y) = 0.30572 0.32734
# Poissons Ratio (z) = -0.13710 0.70598
#
# Static dielectric constant tensor:
#      x y z
#    x 2.098890 0.019900 0.009350 
#    y 0.019900 2.109820 -0.019230 
#    z 0.009350 -0.019230 1.861540 
# 
# From -- ./inp_files/200026.got.cif
#   From: 2010.05.17/outbox.cif.g08.bks.cpg/sg2_101_cif.got.tgz:200026.got - 2010.06.03 11:33:40.
