data_PCOD9049519
_publ_section_title
;
Structure prediction by ZEFSAII (Michael W. Deem and Ramdas Pophale) SiO2 
 PCOD9049519
Probable space group: P -1
;
_chemical_formula_sum "Si O2"
_cell_formula_units_Z 12
_cell_length_a 12.461859
_cell_length_b 15.602519
_cell_length_c 5.264770
_cell_angle_alpha 107.677301
_cell_angle_beta 111.431290
_cell_angle_gamma 29.462832
_cell_volume 468.449694
_symmetry_space_group_name_H-M "P -1"
_symmetry_group_IT_number 2
_symmetry_cell_setting 'triclinic'
loop_
_space_group_symop_operation_xyz
x,y,z
-x,-y,-z
loop_
_atom_site_type_symbol
_atom_site_label
_atom_site_fract_x
_atom_site_fract_y
_atom_site_fract_z
Si Si1 0.859807 0.446030 0.733201
Si Si2 0.797100 0.704582 0.450499
Si Si3 0.177440 0.134309 0.050265
Si Si4 0.639642 0.430446 0.310673
Si Si5 0.480833 0.826405 0.663517
Si Si6 0.924524 0.962431 0.760443
O O1 0.733986 0.470124 0.433832
O O2 0.682218 0.642162 0.821174
O O3 0.100634 0.326437 0.752955
O O4 0.937704 0.322686 0.896449
O O5 0.587568 0.789782 0.457339
O O6 0.000000 0.500000 0.500000
O O7 0.769522 0.815028 0.686154
O O8 0.364109 0.983209 0.866527
O O9 0.144848 0.067246 0.125312
O O10 0.500000 0.500000 0.500000
O O11 0.857373 0.223738 0.343960
O O12 0.500000 0.500000 0.000000
O O13 0.280462 0.892612 0.480470
O O14 0.000000 0.000000 0.000000
#
# Coordination Sequence:
#
# PCOD9049519 Si02
#       6
#     2   2   2   2   2   2
#     4  11  25  47  73 110 151 200 258 314 387 466
#     4  10  24  46  76 109 153 196 256 317 399 465
#     4  12  24  47  75 108 154 195 261 316 398 457
#     4  12  26  47  77 108 153 210 261 326 393 466
#     4  11  26  45  75 111 149 201 255 321 388 473
#     4  12  28  49  73 111 155 201 262 326 391 474
#
# _framework density 25.616408
#
# number of rings (size 3 to 8) (size 9 to 14) (size 15 to 20)
#    0.000    0.667    3.333    2.500    2.333   10.000 
#    0.000    0.000    0.000    0.000    0.000    0.000 
#    0.000    0.000    0.000    0.000    0.000    0.000 
#
# Total GULP energy -67132.096658 kJ/mol
# GULP energy per Si atom -5594.341388 kJ/mol
# Density = 2.555810 g / cm^3
# Si number density = 25.616408 Si / 1000 Ang^3
#
#
#
# Elastic Constant Matrix: (Units=GPa)
#
#
# Indices 1 2 3 4 5 6 
#
# 1 95.3377 58.3890 29.3451 15.7427 6.9556 -15.0218
# 2 58.3890 209.4285 56.4678 16.5648 2.3896 -16.9797
# 3 29.3451 56.4678 66.7685 6.5314 4.2183 -10.5242
# 4 15.7427 16.5648 6.5314 43.0001 4.2601 -1.7304
# 5 6.9556 2.3896 4.2183 4.2601 50.4757 10.8965
# 6 -15.0218 -16.9797 -10.5242 -1.7304 10.8965 53.3674
#
#
#
# Elastic Compliance Matrix: (Units=1/GPa)
#
#
# Indices 1 2 3 4 5 6 
#
# 1 0.014190 -0.002586 -0.003151 -0.003419 -0.001891 0.002825
# 2 -0.002586 0.006817 -0.004485 -0.001020 0.000399 0.000442
# 3 -0.003151 -0.004485 0.020575 -0.000011 -0.001515 0.002053
# 4 -0.003419 -0.001020 -0.000011 0.025050 -0.001560 -0.000159
# 5 -0.001891 0.000399 -0.001515 -0.001560 0.021418 -0.005128
# 6 0.002825 0.000442 0.002053 -0.000159 -0.005128 0.021121
#
#
# Mechanical properties :
#
#
# Convention : Reuss Voigt Hill
#
# Bulk Modulus (GPa) = 47.30269 73.32648 60.31458
# Shear Modulus (GPa) = 36.58716 44.52417 40.55567
#
# Velocity S-wave (km/s) = 3.78335 4.17359 3.98325
# Velocity P-wave (km/s) = 6.13113 7.20500 6.68965
#
# Compressibility (1/GPa) = 0.02114045
#
# Stress axis : x y z
#
# Youngs Moduli (GPa) = 70.47144 146.69382 48.60282
#
# Poissons Ratio (x) = 0.37930 0.15313
# Poissons Ratio (y) = 0.18221 0.21796
# Poissons Ratio (z) = 0.22203 0.65786
#
# Static dielectric constant tensor:
#      x y z
#    x 2.093180 -0.029640 -0.039370 
#    y -0.029640 1.972460 -0.037300 
#    z -0.039370 -0.037300 2.068540 
# 
# From -- ./inp_files/78443.got.cif
#   From: 2010.05.17/outbox.cif.g08.bks.cpg/sg2_40_cif.got.tgz:78443.got - 2010.06.03 11:33:40.
