data_PCOD9049116
_publ_section_title
;
Structure prediction by ZEFSAII (Michael W. Deem and Ramdas Pophale) SiO2 
 PCOD9049116
Probable space group: P -1
;
_chemical_formula_sum "Si O2"
_cell_formula_units_Z 16
_cell_length_a 17.613779
_cell_length_b 11.940744
_cell_length_c 8.900585
_cell_angle_alpha 83.839295
_cell_angle_beta 49.887103
_cell_angle_gamma 44.819938
_cell_volume 768.004152
_symmetry_space_group_name_H-M "P -1"
_symmetry_group_IT_number 2
_symmetry_cell_setting 'triclinic'
loop_
_space_group_symop_operation_xyz
x,y,z
-x,-y,-z
loop_
_atom_site_type_symbol
_atom_site_label
_atom_site_fract_x
_atom_site_fract_y
_atom_site_fract_z
Si Si1 0.030288 0.838318 0.958617
Si Si2 0.608377 0.873990 0.727434
Si Si3 0.007678 0.419567 0.349473
Si Si4 0.694000 0.318196 0.870804
Si Si5 0.604891 0.501219 0.284078
Si Si6 0.350715 0.076146 0.780580
Si Si7 0.971688 0.862556 0.672991
Si Si8 0.304699 0.977791 0.574079
O O1 0.230422 0.619382 0.799142
O O2 0.996735 0.847270 0.824019
O O3 0.883054 0.908526 0.233196
O O4 0.000000 0.000000 0.000000
O O5 0.802325 0.627139 0.520100
O O6 0.653537 0.953568 0.589007
O O7 0.470014 0.934080 0.793688
O O8 0.500000 0.000000 0.000000
O O9 0.044979 0.250863 0.342774
O O10 0.000000 0.500000 0.500000
O O11 0.167204 0.310423 0.047265
O O12 0.843825 0.254114 0.607573
O O13 0.500000 0.500000 0.000000
O O14 0.668034 0.394163 0.058753
O O15 0.796807 0.100436 0.799790
O O16 0.500000 0.500000 0.500000
O O17 0.469942 0.732953 0.391912
O O18 0.290363 0.034980 0.755262
O O19 0.500000 0.000000 0.500000
#
# Coordination Sequence:
#
# PCOD9049116 Si02
#       8
#     2   2   2   2   2   2   2   2
#     4  12  23  46  72 103 146 184 240 299 366 441
#     4  11  26  47  70 103 144 194 253 303 369 440
#     4  12  26  46  74 103 146 194 245 308 368 429
#     4  11  26  45  71 105 150 189 238 296 372 443
#     4  12  25  43  72 105 143 190 241 293 369 440
#     4  10  24  46  69 102 143 181 251 297 360 437
#     4  11  26  46  70 109 142 190 245 302 365 443
#     4  11  26  43  71 105 143 190 237 306 368 440
#
# _framework density 20.833221000000002
#
# number of rings (size 3 to 8) (size 9 to 14) (size 15 to 20)
#    0.000    0.750    5.000    0.750    3.500    7.000 
#    0.000    0.000    0.000    0.000    0.000    0.000 
#    0.000    0.000    0.000    0.000    0.000    0.000 
#
# Total GULP energy -89369.126702 kJ/mol
# GULP energy per Si atom -5585.570419 kJ/mol
# Density = 2.078580 g / cm^3
# Si number density = 20.833221 Si / 1000 Ang^3
#
#
#
# Elastic Constant Matrix: (Units=GPa)
#
#
# Indices 1 2 3 4 5 6 
#
# 1 106.1688 43.1741 53.3415 -4.2646 -1.0497 4.6728
# 2 43.1741 108.3545 59.5888 9.4516 -5.2744 7.0010
# 3 53.3415 59.5888 160.6763 5.3924 -2.5587 -2.5106
# 4 -4.2646 9.4516 5.3924 39.7483 -5.8205 -4.0614
# 5 -1.0497 -5.2744 -2.5587 -5.8205 48.2176 9.5148
# 6 4.6728 7.0010 -2.5106 -4.0614 9.5148 40.6892
#
#
#
# Elastic Compliance Matrix: (Units=1/GPa)
#
#
# Indices 1 2 3 4 5 6 
#
# 1 0.012456 -0.003512 -0.002926 0.002515 0.000193 -0.000801
# 2 -0.003512 0.013127 -0.003620 -0.003088 0.001327 -0.002697
# 3 -0.002926 -0.003620 0.008573 -0.000514 -0.000367 0.001522
# 4 0.002515 -0.003088 -0.000514 0.026830 0.002472 0.002311
# 5 0.000193 0.001327 -0.000367 0.002472 0.022197 -0.005217
# 6 -0.000801 -0.002697 0.001522 0.002311 -0.005217 0.026677
#
#
# Mechanical properties :
#
#
# Convention : Reuss Voigt Hill
#
# Bulk Modulus (GPa) = 71.22801 76.37869 73.80335
# Shear Modulus (GPa) = 37.13152 40.33739 38.73445
#
# Velocity S-wave (km/s) = 4.22634 4.40501 4.31660
# Velocity P-wave (km/s) = 7.62101 7.91288 7.76831
#
# Compressibility (1/GPa) = 0.01403942
#
# Stress axis : x y z
#
# Youngs Moduli (GPa) = 80.28557 76.17740 116.64628
#
# Poissons Ratio (x) = 0.26752 0.34136
# Poissons Ratio (y) = 0.28194 0.42225
# Poissons Ratio (z) = 0.23495 0.27576
#
# Static dielectric constant tensor:
#      x y z
#    x 1.723720 -0.028680 -0.038080 
#    y -0.028680 1.760590 -0.004630 
#    z -0.038080 -0.004630 1.821460 
# 
# From -- ./inp_files/333219.got.cif
#   From: 2010.05.17/outbox.cif.g08.bks.cpg/sg2_167_cif.got.tgz:333219.got - 2010.06.03 11:33:40.
