data_PCOD9049342
_publ_section_title
;
Structure prediction by ZEFSAII (Michael W. Deem and Ramdas Pophale) SiO2 
 PCOD9049342
Probable space group: P -1
;
_chemical_formula_sum "Si O2"
_cell_formula_units_Z 14
_cell_length_a 6.904233
_cell_length_b 11.267523
_cell_length_c 13.616251
_cell_angle_alpha 146.106161
_cell_angle_beta 112.986772
_cell_angle_gamma 80.219279
_cell_volume 518.659294
_symmetry_space_group_name_H-M "P -1"
_symmetry_group_IT_number 2
_symmetry_cell_setting 'triclinic'
loop_
_space_group_symop_operation_xyz
x,y,z
-x,-y,-z
loop_
_atom_site_type_symbol
_atom_site_label
_atom_site_fract_x
_atom_site_fract_y
_atom_site_fract_z
Si Si1 0.341101 0.503736 0.061700
Si Si2 0.277685 0.216887 0.125388
Si Si3 0.009404 0.735374 0.426589
Si Si4 0.209722 0.962208 0.142939
Si Si5 0.653322 0.928803 0.165123
Si Si6 0.637138 0.616513 0.393812
Si Si7 0.767998 0.121608 0.633979
O O1 0.473001 0.579025 0.241758
O O2 0.211989 0.685224 0.147920
O O3 0.500000 0.500000 0.000000
O O4 0.228273 0.243733 0.884171
O O5 0.244382 0.107751 0.149779
O O6 0.478506 0.444018 0.319056
O O7 0.338683 0.072195 0.950409
O O8 0.033745 0.211060 0.034152
O O9 0.843474 0.557459 0.342987
O O10 0.111507 0.734753 0.338893
O O11 0.869172 0.914454 0.511284
O O12 0.223381 0.834893 0.603669
O O13 0.261075 0.145461 0.367164
O O14 0.407147 0.855535 0.105803
O O15 0.500000 0.000000 0.500000
#
# Coordination Sequence:
#
# PCOD9049342 Si02
#       7
#     2   2   2   2   2   2   2
#     4  11  25  42  67 102 147 183 243 286 343 428
#     4  10  24  46  72 108 137 182 247 296 359 432
#     4  11  24  42  71 101 141 191 243 288 364 422
#     4  11  23  48  77  97 145 189 232 307 359 423
#     4  11  24  43  66 105 142 184 237 292 360 426
#     4  11  23  46  69 107 143 182 241 293 358 426
#     4  11  23  44  68  96 143 197 241 294 347 421
#
# _framework density 26.992671000000001
#
# number of rings (size 3 to 8) (size 9 to 14) (size 15 to 20)
#    0.000    1.143    2.857    2.571    4.000    0.571 
#   15.429    0.714    0.000    0.000    0.000    0.000 
#    0.000    0.000    0.000    0.000    0.000    0.000 
#
# Total GULP energy -78161.502956 kJ/mol
# GULP energy per Si atom -5582.964497 kJ/mol
# Density = 2.693123 g / cm^3
# Si number density = 26.992671 Si / 1000 Ang^3
#
#
#
# Elastic Constant Matrix: (Units=GPa)
#
#
# Indices 1 2 3 4 5 6 
#
# 1 189.3378 30.8829 32.7640 -3.3845 -15.0856 29.1089
# 2 30.8829 85.9209 5.9459 -13.2673 -9.3677 29.1719
# 3 32.7640 5.9459 81.1135 -8.7254 -4.6346 11.5012
# 4 -3.3845 -13.2673 -8.7254 44.4253 23.7501 1.0792
# 5 -15.0856 -9.3677 -4.6346 23.7501 51.2735 -4.2753
# 6 29.1089 29.1719 11.5012 1.0792 -4.2753 49.2556
#
#
#
# Elastic Compliance Matrix: (Units=1/GPa)
#
#
# Indices 1 2 3 4 5 6 
#
# 1 0.006350 -0.001366 -0.002178 -0.001272 0.001824 -0.002249
# 2 -0.001366 0.015895 0.001222 0.005464 -0.000674 -0.009070
# 3 -0.002178 0.001222 0.013843 0.003545 -0.001045 -0.002837
# 4 -0.001272 0.005464 0.003545 0.032698 -0.014643 -0.005299
# 5 0.001824 -0.000674 -0.001045 -0.014643 0.026789 0.002212
# 6 -0.002249 -0.009070 -0.002837 -0.005299 0.002212 0.027974
#
#
# Mechanical properties :
#
#
# Convention : Reuss Voigt Hill
#
# Bulk Modulus (GPa) = 31.80446 55.06195 43.43321
# Shear Modulus (GPa) = 36.05606 48.10952 42.08279
#
# Velocity S-wave (km/s) = 3.65879 4.22633 3.95276
# Velocity P-wave (km/s) = 5.44584 6.65274 6.07931
#
# Compressibility (1/GPa) = 0.03144213
#
# Stress axis : x y z
#
# Youngs Moduli (GPa) = 157.49112 62.91476 72.24035
#
# Poissons Ratio (x) = 0.08592 0.15737
# Poissons Ratio (y) = 0.21507 -0.08826
# Poissons Ratio (z) = 0.34309 -0.07687
#
# Static dielectric constant tensor:
#      x y z
#    x 2.222230 -0.042430 -0.032330 
#    y -0.042430 2.257380 0.110200 
#    z -0.032330 0.110200 2.166690 
# 
# From -- ./inp_files/479864.got.cif
#   From: 2010.05.17/outbox.cif.g08.bks.cpg/sg2_240_cif.got.tgz:479864.got - 2010.06.03 11:33:40.
