data_PCOD9049329
_publ_section_title
;
Structure prediction by ZEFSAII (Michael W. Deem and Ramdas Pophale) SiO2 
 PCOD9049329
Probable space group: P -1
;
_chemical_formula_sum "Si O2"
_cell_formula_units_Z 16
_cell_length_a 10.568698
_cell_length_b 11.110915
_cell_length_c 6.174619
_cell_angle_alpha 91.832373
_cell_angle_beta 117.120477
_cell_angle_gamma 92.246262
_cell_volume 643.841423
_symmetry_space_group_name_H-M "P -1"
_symmetry_group_IT_number 2
_symmetry_cell_setting 'triclinic'
loop_
_space_group_symop_operation_xyz
x,y,z
-x,-y,-z
loop_
_atom_site_type_symbol
_atom_site_label
_atom_site_fract_x
_atom_site_fract_y
_atom_site_fract_z
Si Si1 0.292310 0.879005 0.989733
Si Si2 0.868296 0.288398 0.823583
Si Si3 0.691999 0.425238 0.344521
Si Si4 0.045813 0.616182 0.684014
Si Si5 0.299992 0.093157 0.307526
Si Si6 0.464914 0.211192 0.098690
Si Si7 0.241753 0.293999 0.598073
Si Si8 0.887350 0.078180 0.537433
O O1 0.447234 0.863667 0.011923
O O2 0.189734 0.850928 0.706134
O O3 0.255611 0.785819 0.144922
O O4 0.251333 0.007726 0.060516
O O5 0.791646 0.374869 0.607263
O O6 0.942891 0.177328 0.761115
O O7 0.970286 0.363600 0.071312
O O8 0.784089 0.393982 0.204370
O O9 0.548540 0.340212 0.217175
O O10 0.688909 0.569100 0.367126
O O11 0.000000 0.500000 0.500000
O O12 0.927907 0.702879 0.504906
O O13 0.449738 0.137608 0.309387
O O14 0.260607 0.219033 0.388225
O O15 0.238148 0.006227 0.449055
O O16 0.319334 0.237285 0.861189
O O17 0.000000 0.000000 0.500000
#
# Coordination Sequence:
#
# PCOD9049329 Si02
#       8
#     2   2   2   2   2   2   2   2
#     4  11  25  48  74 108 146 200 246 315 369 446
#     4  11  23  44  80 108 140 202 252 299 384 442
#     4  11  25  49  78 106 149 203 252 303 372 445
#     4  10  24  46  72 105 148 190 249 310 365 436
#     4  11  28  43  73 107 146 197 247 306 377 436
#     4  12  25  48  75 108 152 198 252 308 368 452
#     4  11  28  45  71 113 155 192 249 312 370 445
#     4  11  26  46  74 111 152 190 251 317 375 448
#
# _framework density 24.850840999999999
#
# number of rings (size 3 to 8) (size 9 to 14) (size 15 to 20)
#    0.000    1.000    2.500    1.500    7.000    7.500 
#    0.000    0.000    0.000    0.000    0.000    0.000 
#    0.000    0.000    0.000    0.000    0.000    0.000 
#
# Total GULP energy -89127.922852 kJ/mol
# GULP energy per Si atom -5570.495178 kJ/mol
# Density = 2.479428 g / cm^3
# Si number density = 24.850841 Si / 1000 Ang^3
#
#
#
# Elastic Constant Matrix: (Units=GPa)
#
#
# Indices 1 2 3 4 5 6 
#
# 1 91.1845 28.1564 33.7266 1.3126 -18.2651 1.7313
# 2 28.1564 128.8810 63.8226 29.6410 -12.2590 3.1743
# 3 33.7266 63.8226 96.0746 30.1621 0.1707 -6.8555
# 4 1.3126 29.6410 30.1621 52.4035 1.9729 -1.0369
# 5 -18.2651 -12.2590 0.1707 1.9729 46.6666 -3.2464
# 6 1.7313 3.1743 -6.8555 -1.0369 -3.2464 46.9725
#
#
#
# Elastic Compliance Matrix: (Units=1/GPa)
#
#
# Indices 1 2 3 4 5 6 
#
# 1 0.014251 -0.000439 -0.005715 0.002964 0.005296 -0.000898
# 2 -0.000439 0.012532 -0.007362 -0.002994 0.003152 -0.001753
# 3 -0.005715 -0.007362 0.019678 -0.006816 -0.003734 0.003172
# 4 0.002964 -0.002994 -0.006816 0.024642 -0.000671 -0.000404
# 5 0.005296 0.003152 -0.003734 -0.000671 0.024421 0.000720
# 6 -0.000898 -0.001753 0.003172 -0.000404 0.000720 0.021944
#
#
# Mechanical properties :
#
#
# Convention : Reuss Voigt Hill
#
# Bulk Modulus (GPa) = 51.46861 63.06126 57.26493
# Shear Modulus (GPa) = 33.11738 41.90414 37.51076
#
# Velocity S-wave (km/s) = 3.65450 4.11082 3.88936
# Velocity P-wave (km/s) = 6.20992 6.92552 6.57746
#
# Compressibility (1/GPa) = 0.01942932
#
# Stress axis : x y z
#
# Youngs Moduli (GPa) = 70.16836 79.79486 50.81795
#
# Poissons Ratio (x) = 0.03503 0.29044
# Poissons Ratio (y) = 0.03081 0.37412
# Poissons Ratio (z) = 0.40103 0.58744
#
# Static dielectric constant tensor:
#      x y z
#    x 2.159320 0.082930 0.058330 
#    y 0.082930 2.030180 -0.022470 
#    z 0.058330 -0.022470 2.044740 
# 
# From -- ./inp_files/67294.got.cif
#   From: 2010.05.17/outbox.cif.g08.bks.cpg/sg2_34_cif.got.tgz:67294.got - 2010.06.03 11:33:40.
