data_PCOD9049617
_publ_section_title
;
Structure prediction by ZEFSAII (Michael W. Deem and Ramdas Pophale) SiO2 
 PCOD9049617
Probable space group: P -1
;
_chemical_formula_sum "Si O2"
_cell_formula_units_Z 14
_cell_length_a 20.182247
_cell_length_b 8.738615
_cell_length_c 11.811271
_cell_angle_alpha 116.309769
_cell_angle_beta 29.446793
_cell_angle_gamma 133.779850
_cell_volume 660.761956
_symmetry_space_group_name_H-M "P -1"
_symmetry_group_IT_number 2
_symmetry_cell_setting 'triclinic'
loop_
_space_group_symop_operation_xyz
x,y,z
-x,-y,-z
loop_
_atom_site_type_symbol
_atom_site_label
_atom_site_fract_x
_atom_site_fract_y
_atom_site_fract_z
Si Si1 0.688759 0.640030 0.337618
Si Si2 0.073947 0.867573 0.734302
Si Si3 0.619984 0.831892 0.982806
Si Si4 0.898408 0.439558 0.251885
Si Si5 0.551259 0.214029 0.562019
Si Si6 0.937962 0.257404 0.540974
Si Si7 0.208258 0.376393 0.370263
O O1 0.500000 0.500000 0.500000
O O2 0.651454 0.443870 0.410341
O O3 0.759574 0.865623 0.378442
O O4 0.869751 0.766719 0.031265
O O5 0.069884 0.683495 0.746880
O O6 0.095299 0.863320 0.568263
O O7 0.750614 0.787487 0.737445
O O8 0.597340 0.819234 0.148229
O O9 0.420194 0.636570 0.153694
O O10 0.743049 0.097362 0.846591
O O11 0.684772 0.252761 0.471205
O O12 0.916374 0.639465 0.352374
O O13 0.000000 0.500000 0.000000
O O14 0.500000 0.000000 0.500000
O O15 0.101254 0.320812 0.395705
O O16 0.000000 0.500000 0.500000
#
# Coordination Sequence:
#
# PCOD9049617 Si02
#       7
#     2   2   2   2   2   2   2
#     4  11  26  47  70 104 143 183 233 292 355 410
#     4  11  26  45  70 106 140 185 231 289 354 417
#     4  10  26  45  70 101 137 183 239 281 350 416
#     4  11  22  44  71  96 140 180 233 283 340 418
#     4  11  25  44  73  99 135 185 236 288 347 421
#     4  12  26  44  70 100 144 182 230 287 353 416
#     4  10  24  47  69 102 134 187 231 290 341 416
#
# _framework density 21.187662
#
# number of rings (size 3 to 8) (size 9 to 14) (size 15 to 20)
#    0.000    1.143    2.857    1.286   12.000    0.571 
#    0.000    0.000    0.000    0.000    0.000    0.000 
#    0.000    0.000    0.000    0.000    0.000    0.000 
#
# Total GULP energy -78090.488346 kJ/mol
# GULP energy per Si atom -5577.892025 kJ/mol
# Density = 2.113944 g / cm^3
# Si number density = 21.187662 Si / 1000 Ang^3
#
#
#
# Elastic Constant Matrix: (Units=GPa)
#
#
# Indices 1 2 3 4 5 6 
#
# 1 111.5115 27.0402 42.3366 3.6530 -5.2108 25.9766
# 2 27.0402 105.2105 47.8735 2.2011 6.6644 19.5614
# 3 42.3366 47.8735 74.4459 -0.7820 8.4320 3.8963
# 4 3.6530 2.2011 -0.7820 41.3050 1.1321 8.6097
# 5 -5.2108 6.6644 8.4320 1.1321 41.6381 -3.1952
# 6 25.9766 19.5614 3.8963 8.6097 -3.1952 29.9850
#
#
#
# Elastic Compliance Matrix: (Units=1/GPa)
#
#
# Indices 1 2 3 4 5 6 
#
# 1 0.015553 0.003235 -0.010437 0.001171 0.002413 -0.014307
# 2 0.003235 0.016242 -0.011530 0.001226 -0.000840 -0.012341
# 3 -0.010437 -0.011530 0.026538 -0.000536 -0.003833 0.012861
# 4 0.001171 0.001226 -0.000536 0.026020 -0.001367 -0.009361
# 5 0.002413 -0.000840 -0.003833 -0.001367 0.025424 0.002058
# 6 -0.014307 -0.012341 0.012861 -0.009361 0.002058 0.055032
#
#
# Mechanical properties :
#
#
# Convention : Reuss Voigt Hill
#
# Bulk Modulus (GPa) = 47.92057 58.40762 53.16410
# Shear Modulus (GPa) = 23.89708 34.18011 29.03859
#
# Velocity S-wave (km/s) = 3.36203 4.02083 3.70610
# Velocity P-wave (km/s) = 6.14307 7.01304 6.59242
#
# Compressibility (1/GPa) = 0.02086786
#
# Stress axis : x y z
#
# Youngs Moduli (GPa) = 64.29595 61.56809 37.68154
#
# Poissons Ratio (x) = -0.19915 0.39329
# Poissons Ratio (y) = -0.20797 0.43448
# Poissons Ratio (z) = 0.67106 0.70990
#
# Static dielectric constant tensor:
#      x y z
#    x 1.728810 0.018420 -0.036170 
#    y 0.018420 1.838410 0.061060 
#    z -0.036170 0.061060 1.786910 
# 
# From -- ./inp_files/255778.got.cif
#   From: 2010.05.17/outbox.cif.g08.bks.cpg/sg2_128_cif.got.tgz:255778.got - 2010.06.03 11:33:40.
