data_PCOD9049090
_publ_section_title
;
Structure prediction by ZEFSAII (Michael W. Deem and Ramdas Pophale) SiO2 
 PCOD9049090
Probable space group: P -1
;
_chemical_formula_sum "Si O2"
_cell_formula_units_Z 12
_cell_length_a 12.697130
_cell_length_b 9.189943
_cell_length_c 5.809885
_cell_angle_alpha 101.375109
_cell_angle_beta 100.039851
_cell_angle_gamma 47.533499
_cell_volume 489.472908
_symmetry_space_group_name_H-M "P -1"
_symmetry_group_IT_number 2
_symmetry_cell_setting 'triclinic'
loop_
_space_group_symop_operation_xyz
x,y,z
-x,-y,-z
loop_
_atom_site_type_symbol
_atom_site_label
_atom_site_fract_x
_atom_site_fract_y
_atom_site_fract_z
Si Si1 0.046859 0.811388 0.096115
Si Si2 0.994150 0.675900 0.632390
Si Si3 0.643640 0.771681 0.499615
Si Si4 0.217472 0.971396 0.635476
Si Si5 0.264924 0.600354 0.470535
Si Si6 0.670613 0.848487 0.032658
O O1 0.206783 0.660852 0.205658
O O2 0.937885 0.925321 0.296953
O O3 0.012182 0.692748 0.912627
O O4 0.000000 0.000000 0.000000
O O5 0.000000 0.500000 0.500000
O O6 0.131443 0.641829 0.568656
O O7 0.838754 0.889599 0.568943
O O8 0.610957 0.628919 0.494078
O O9 0.708821 0.729462 0.252064
O O10 0.500000 0.000000 0.500000
O O11 0.720418 0.747210 0.766028
O O12 0.294780 0.743057 0.582675
O O13 0.286968 0.022726 0.851776
O O14 0.500000 0.000000 0.000000
#
# Coordination Sequence:
#
# PCOD9049090 Si02
#       6
#     2   2   2   2   2   2
#     4  11  21  39  61  98 140 171 217 271 329 411
#     4  11  23  37  59  95 137 168 219 263 332 410
#     4  10  24  46  68  94 129 173 230 284 330 386
#     4  11  23  38  63  96 132 177 218 273 335 401
#     4  11  23  38  63  96 132 177 218 273 335 401
#     4  10  24  46  68  94 129 173 230 284 330 386
#
# _framework density 24.516169000000001
#
# number of rings (size 3 to 8) (size 9 to 14) (size 15 to 20)
#    0.000    1.333    3.333    2.000    9.333    1.333 
#    0.000    6.667    0.000    0.000    0.000    0.000 
#    0.000    0.000    0.000    0.000    0.000    0.000 
#
# Total GULP energy -66878.610517 kJ/mol
# GULP energy per Si atom -5573.217543 kJ/mol
# Density = 2.446037 g / cm^3
# Si number density = 24.516169 Si / 1000 Ang^3
#
#
#
# Elastic Constant Matrix: (Units=GPa)
#
#
# Indices 1 2 3 4 5 6 
#
# 1 53.0302 20.0986 20.6590 1.8087 8.2285 18.6146
# 2 20.0986 192.7344 49.2912 3.7811 11.2166 41.7303
# 3 20.6590 49.2912 160.6396 0.7124 8.8085 30.6237
# 4 1.8087 3.7811 0.7124 43.1447 10.6778 8.2269
# 5 8.2285 11.2166 8.8085 10.6778 38.7241 5.4311
# 6 18.6146 41.7303 30.6237 8.2269 5.4311 40.9293
#
#
#
# Elastic Compliance Matrix: (Units=1/GPa)
#
#
# Indices 1 2 3 4 5 6 
#
# 1 0.023161 0.000145 -0.000943 0.001869 -0.003885 -0.009836
# 2 0.000145 0.006829 -0.000826 0.000928 -0.001173 -0.006442
# 3 -0.000943 -0.000826 0.007490 0.001063 -0.000937 -0.004422
# 4 0.001869 0.000928 0.001063 0.026079 -0.007133 -0.006887
# 5 -0.003885 -0.001173 -0.000937 -0.007133 0.028994 0.001251
# 6 -0.009836 -0.006442 -0.004422 -0.006887 0.001251 0.040001
#
#
# Mechanical properties :
#
#
# Convention : Reuss Voigt Hill
#
# Bulk Modulus (GPa) = 29.21256 65.16686 47.18971
# Shear Modulus (GPa) = 33.96440 45.64996 39.80718
#
# Velocity S-wave (km/s) = 3.72612 4.31981 4.03390
# Velocity P-wave (km/s) = 5.51846 7.17774 6.40208
#
# Compressibility (1/GPa) = 0.03423185
#
# Stress axis : x y z
#
# Youngs Moduli (GPa) = 43.17535 146.42440 133.51984
#
# Poissons Ratio (x) = -0.02124 0.12595
# Poissons Ratio (y) = -0.00626 0.11028
# Poissons Ratio (z) = 0.04073 0.12094
#
# Static dielectric constant tensor:
#      x y z
#    x 2.473260 1.018450 -0.479640 
#    y 1.018450 4.392460 -0.925970 
#    z -0.479640 -0.925970 2.406540 
# 
# From -- ./inp_files/18572.got.cif
#   From: 2010.05.17/outbox.cif.g08.bks.cpg/sg2_10_cif.got.tgz:18572.got - 2010.06.03 11:33:40.
