data_PCOD9049809
_publ_section_title
;
Structure prediction by ZEFSAII (Michael W. Deem and Ramdas Pophale) SiO2 
 PCOD9049809
Probable space group: P -1
;
_chemical_formula_sum "Si O2"
_cell_formula_units_Z 12
_cell_length_a 9.324471
_cell_length_b 5.395644
_cell_length_c 13.268973
_cell_angle_alpha 87.236238
_cell_angle_beta 103.728201
_cell_angle_gamma 128.555418
_cell_volume 502.753270
_symmetry_space_group_name_H-M "P -1"
_symmetry_group_IT_number 2
_symmetry_cell_setting 'triclinic'
loop_
_space_group_symop_operation_xyz
x,y,z
-x,-y,-z
loop_
_atom_site_type_symbol
_atom_site_label
_atom_site_fract_x
_atom_site_fract_y
_atom_site_fract_z
Si Si1 0.902440 0.117707 0.244356
Si Si2 0.855558 0.490670 0.904301
Si Si3 0.272534 0.518543 0.400993
Si Si4 0.574693 0.121352 0.187348
Si Si5 0.708077 0.602938 0.045956
Si Si6 0.518179 0.739295 0.634242
O O1 0.713531 0.054498 0.250721
O O2 0.049748 0.420189 0.190395
O O3 0.047034 0.226553 0.358100
O O4 0.830045 0.851283 0.151315
O O5 0.643540 0.165437 0.863446
O O6 0.810479 0.697702 0.953755
O O7 0.000000 0.500000 0.000000
O O8 0.354022 0.568140 0.525907
O O9 0.368489 0.398345 0.354088
O O10 0.351065 0.876198 0.374384
O O11 0.665927 0.289777 0.092395
O O12 0.570277 0.324480 0.268688
O O13 0.500000 0.500000 0.000000
#
# Coordination Sequence:
#
# PCOD9049809 Si02
#       6
#     2   2   2   2   2   2
#     4  12  26  43  70 101 134 189 236 284 358 418
#     4  12  24  45  65  93 139 189 229 288 348 416
#     4  10  24  47  75 105 137 188 232 288 365 423
#     4  12  26  44  68 104 138 180 240 296 346 419
#     4  12  26  43  65  99 141 183 235 292 343 415
#     4  10  24  47  75 104 142 180 235 296 353 426
#
# _framework density 23.868566999999999
#
# number of rings (size 3 to 8) (size 9 to 14) (size 15 to 20)
#    0.000    0.667    5.000    2.000    9.333    0.667 
#    0.000    0.833    0.000    0.000    0.000    0.000 
#    0.000    0.000    0.000    0.000    0.000    0.000 
#
# Total GULP energy -66985.676042 kJ/mol
# GULP energy per Si atom -5582.139670 kJ/mol
# Density = 2.381424 g / cm^3
# Si number density = 23.868567 Si / 1000 Ang^3
#
#
#
# Elastic Constant Matrix: (Units=GPa)
#
#
# Indices 1 2 3 4 5 6 
#
# 1 135.7854 30.2927 44.0379 28.0890 9.0951 13.1451
# 2 30.2927 43.3841 20.3988 14.0861 9.7653 5.0447
# 3 44.0379 20.3988 114.1548 44.7725 4.8465 14.1451
# 4 28.0890 14.0861 44.7725 36.3412 10.2939 -0.3884
# 5 9.0951 9.7653 4.8465 10.2939 50.9631 9.4470
# 6 13.1451 5.0447 14.1451 -0.3884 9.4470 33.8305
#
#
#
# Elastic Compliance Matrix: (Units=1/GPa)
#
#
# Indices 1 2 3 4 5 6 
#
# 1 0.009994 -0.004767 -0.000403 -0.005680 0.000933 -0.003330
# 2 -0.004767 0.029566 -0.000875 -0.005772 -0.003319 -0.001330
# 3 -0.000403 -0.000875 0.020254 -0.025940 0.005405 -0.009989
# 4 -0.005680 -0.005772 -0.025940 0.069966 -0.012944 0.018332
# 5 0.000933 -0.003319 0.005405 -0.012944 0.023848 -0.008935
# 6 -0.003330 -0.001330 -0.009989 0.018332 -0.008935 0.037933
#
#
# Mechanical properties :
#
#
# Convention : Reuss Voigt Hill
#
# Bulk Modulus (GPa) = 20.95378 53.64258 37.29818
# Shear Modulus (GPa) = 22.77310 37.46661 30.11985
#
# Velocity S-wave (km/s) = 3.09221 3.96625 3.55618
# Velocity P-wave (km/s) = 4.64186 6.59528 5.70284
#
# Compressibility (1/GPa) = 0.04772409
#
# Stress axis : x y z
#
# Youngs Moduli (GPa) = 100.06470 33.82316 49.37312
#
# Poissons Ratio (x) = 0.16124 0.01987
# Poissons Ratio (y) = 0.47702 0.04319
# Poissons Ratio (z) = 0.04028 0.02959
#
# Static dielectric constant tensor:
#      x y z
#    x 1.939490 -0.046500 0.043200 
#    y -0.046500 2.072160 -0.000260 
#    z 0.043200 -0.000260 1.985960 
# 
# From -- ./inp_files/3501.got.cif
#   From: 2010.05.17/outbox.cif.g08.bks.cpg/sg2_2_cif.got.tgz:3501.got - 2010.06.03 11:33:40.
