data_PCOD9049086
_publ_section_title
;
Structure prediction by ZEFSAII (Michael W. Deem and Ramdas Pophale) SiO2 
 PCOD9049086
Probable space group: P -1
;
_chemical_formula_sum "Si O2"
_cell_formula_units_Z 14
_cell_length_a 17.138717
_cell_length_b 27.636775
_cell_length_c 6.527890
_cell_angle_alpha 42.385277
_cell_angle_beta 134.422517
_cell_angle_gamma 164.619728
_cell_volume 551.525074
_symmetry_space_group_name_H-M "P -1"
_symmetry_group_IT_number 2
_symmetry_cell_setting 'triclinic'
loop_
_space_group_symop_operation_xyz
x,y,z
-x,-y,-z
loop_
_atom_site_type_symbol
_atom_site_label
_atom_site_fract_x
_atom_site_fract_y
_atom_site_fract_z
Si Si1 0.860347 0.082567 0.584613
Si Si2 0.689205 0.570634 0.965125
Si Si3 0.690329 0.441813 0.673049
Si Si4 0.704264 0.236640 0.694400
Si Si5 0.317982 0.252013 0.968657
Si Si6 0.212113 0.820708 0.665681
Si Si7 0.378477 0.687504 0.415773
O O1 0.922916 0.182218 0.557559
O O2 0.045812 0.221826 0.290540
O O3 0.992401 0.086328 0.876613
O O4 0.518323 0.881314 0.528285
O O5 0.503707 0.427000 0.880732
O O6 0.500000 0.500000 0.000000
O O7 0.766898 0.547285 0.310374
O O8 0.440294 0.314097 0.770987
O O9 0.607594 0.320948 0.772210
O O10 0.983068 0.621931 0.783362
O O11 0.579620 0.208251 0.743349
O O12 0.039208 0.461779 0.554893
O O13 0.715761 0.162744 0.026522
O O14 0.393500 0.226337 0.316000
O O15 0.500000 0.000000 0.500000
#
# Coordination Sequence:
#
# PCOD9049086 Si02
#       7
#     2   2   2   2   2   2   2
#     4  12  23  40  67 100 136 165 215 277 333 385
#     4  11  20  35  64  97 136 168 204 269 336 388
#     4  11  20  39  65  94 126 176 213 266 321 389
#     4  11  24  45  64  95 135 176 219 276 314 392
#     4  11  22  41  66  98 129 170 219 267 324 393
#     4  12  23  40  66 101 134 166 217 269 338 390
#     4  10  24  46  68  90 132 178 228 262 321 386
#
# _framework density 25.384157999999999
#
# number of rings (size 3 to 8) (size 9 to 14) (size 15 to 20)
#    0.000    0.857    4.286    4.286    0.000    1.143 
#    2.571    0.714    0.000    0.000    0.000    0.000 
#    0.000    0.000    0.000    0.000    0.000    0.000 
#
# Total GULP energy -78390.088124 kJ/mol
# GULP energy per Si atom -5599.292009 kJ/mol
# Density = 2.532638 g / cm^3
# Si number density = 25.384158 Si / 1000 Ang^3
#
#
#
# Elastic Constant Matrix: (Units=GPa)
#
#
# Indices 1 2 3 4 5 6 
#
# 1 163.4450 14.1694 18.9988 5.9515 -8.9166 0.5406
# 2 14.1694 72.0392 37.7986 14.2511 1.3943 8.8706
# 3 18.9988 37.7986 79.8177 14.7269 6.3346 10.5332
# 4 5.9515 14.2511 14.7269 37.7509 10.3408 -5.4525
# 5 -8.9166 1.3943 6.3346 10.3408 43.5488 10.3576
# 6 0.5406 8.8706 10.5332 -5.4525 10.3576 39.2053
#
#
#
# Elastic Compliance Matrix: (Units=1/GPa)
#
#
# Indices 1 2 3 4 5 6 
#
# 1 0.006434 -0.000426 -0.001277 -0.000879 0.001783 -0.000242
# 2 -0.000426 0.019605 -0.007872 -0.005533 0.002644 -0.003783
# 3 -0.001277 -0.007872 0.017808 -0.004019 -0.000856 -0.003318
# 4 -0.000879 -0.005533 -0.004019 0.034406 -0.009906 0.009746
# 5 0.001783 0.002644 -0.000856 -0.009906 0.027894 -0.009140
# 6 -0.000242 -0.003783 -0.003318 0.009746 -0.009140 0.031027
#
#
# Mechanical properties :
#
#
# Convention : Reuss Voigt Hill
#
# Bulk Modulus (GPa) = 40.49345 50.80394 45.64869
# Shear Modulus (GPa) = 30.38473 40.39001 35.38737
#
# Velocity S-wave (km/s) = 3.46352 3.99325 3.73778
# Velocity P-wave (km/s) = 5.65522 6.42798 6.05394
#
# Compressibility (1/GPa) = 0.02469535
#
# Stress axis : x y z
#
# Youngs Moduli (GPa) = 155.43118 51.00724 56.15499
#
# Poissons Ratio (x) = 0.02174 0.07171
# Poissons Ratio (y) = 0.06626 0.44208
# Poissons Ratio (z) = 0.19847 0.40155
#
# Static dielectric constant tensor:
#      x y z
#    x 2.015210 -0.044790 -0.008620 
#    y -0.044790 2.028140 0.058800 
#    z -0.008620 0.058800 1.979230 
# 
# From -- ./inp_files/101016.got.cif
#   From: 2010.05.17/outbox.cif.g08.bks.cpg/sg2_51_cif.got.tgz:101016.got - 2010.06.03 11:33:40.
