data_PCOD9049278
_publ_section_title
;
Structure prediction by ZEFSAII (Michael W. Deem and Ramdas Pophale) SiO2 
 PCOD9049278
Probable space group: P -1
;
_chemical_formula_sum "Si O2"
_cell_formula_units_Z 16
_cell_length_a 11.349677
_cell_length_b 12.982058
_cell_length_c 9.509961
_cell_angle_alpha 74.050357
_cell_angle_beta 99.323540
_cell_angle_gamma 146.835156
_cell_volume 730.838522
_symmetry_space_group_name_H-M "P -1"
_symmetry_group_IT_number 2
_symmetry_cell_setting 'triclinic'
loop_
_space_group_symop_operation_xyz
x,y,z
-x,-y,-z
loop_
_atom_site_type_symbol
_atom_site_label
_atom_site_fract_x
_atom_site_fract_y
_atom_site_fract_z
Si Si1 0.500803 0.583150 0.266908
Si Si2 0.794942 0.780568 0.987758
Si Si3 0.902590 0.653965 0.871001
Si Si4 0.920122 0.523927 0.182752
Si Si5 0.558795 0.773306 0.746949
Si Si6 0.258562 0.194278 0.491952
Si Si7 0.707425 0.119421 0.673923
Si Si8 0.225102 0.826120 0.657732
O O1 0.649160 0.648433 0.145941
O O2 0.326308 0.532757 0.183612
O O3 0.357824 0.380773 0.382888
O O4 0.652923 0.747094 0.354670
O O5 0.870043 0.733750 0.932485
O O6 0.657198 0.753724 0.868590
O O7 0.000000 0.000000 0.000000
O O8 0.090435 0.807111 0.733984
O O9 0.954143 0.595058 0.006950
O O10 0.700406 0.417738 0.232815
O O11 0.868211 0.360056 0.246839
O O12 0.122140 0.706298 0.249932
O O13 0.645211 0.822743 0.587257
O O14 0.641116 0.947776 0.759315
O O15 0.000000 0.000000 0.500000
O O16 0.805468 0.188923 0.509673
O O17 0.483405 0.018558 0.662561
#
# Coordination Sequence:
#
# PCOD9049278 Si02
#       8
#     2   2   2   2   2   2   2   2
#     4  11  25  43  66  97 142 183 225 280 330 405
#     4  12  24  45  68 103 144 184 220 274 346 410
#     4  12  24  44  69 100 139 176 226 280 333 415
#     4  11  23  45  71  94 131 181 221 284 340 393
#     4  11  23  41  68 100 136 173 225 271 337 412
#     4  11  25  43  64 100 140 184 229 274 332 408
#     4  10  24  46  71  97 134 172 225 286 336 400
#     4  10  25  46  67  99 131 172 232 282 336 397
#
# _framework density 21.892662999999999
#
# number of rings (size 3 to 8) (size 9 to 14) (size 15 to 20)
#    0.000    1.000    2.500    3.375    3.500    1.500 
#    2.250    0.000    0.000    0.000    0.000    0.000 
#    0.000    0.000    0.000    0.000    0.000    0.000 
#
# Total GULP energy -89585.985100 kJ/mol
# GULP energy per Si atom -5599.124069 kJ/mol
# Density = 2.184283 g / cm^3
# Si number density = 21.892663 Si / 1000 Ang^3
#
#
#
# Elastic Constant Matrix: (Units=GPa)
#
#
# Indices 1 2 3 4 5 6 
#
# 1 49.4021 30.2779 31.1544 7.8813 -11.6058 -1.4451
# 2 30.2779 153.7390 63.1572 22.3071 -6.8186 20.9900
# 3 31.1544 63.1572 137.9937 11.8795 -19.0699 16.2702
# 4 7.8813 22.3071 11.8795 38.8945 8.1449 3.6287
# 5 -11.6058 -6.8186 -19.0699 8.1449 45.6625 -10.3093
# 6 -1.4451 20.9900 16.2702 3.6287 -10.3093 14.1890
#
#
#
# Elastic Compliance Matrix: (Units=1/GPa)
#
#
# Indices 1 2 3 4 5 6 
#
# 1 0.033193 -0.006975 -0.005590 -0.006769 0.013396 0.031573
# 2 -0.006975 0.011163 -0.001907 -0.001758 -0.004644 -0.017962
# 3 -0.005590 -0.001907 0.010599 -0.000276 0.000658 -0.009353
# 4 -0.006769 -0.001758 -0.000276 0.031738 -0.010872 -0.013788
# 5 0.013396 -0.004644 0.000658 -0.010872 0.034860 0.035588
# 6 0.031573 -0.017962 -0.009353 -0.013788 0.035588 0.140373
#
#
# Mechanical properties :
#
#
# Convention : Reuss Voigt Hill
#
# Bulk Modulus (GPa) = 38.44581 65.59041 52.01811
# Shear Modulus (GPa) = 16.69223 34.18555 25.43889
#
# Velocity S-wave (km/s) = 2.76426 3.95588 3.41248
# Velocity P-wave (km/s) = 5.27137 7.13375 6.27207
#
# Compressibility (1/GPa) = 0.02601064
#
# Stress axis : x y z
#
# Youngs Moduli (GPa) = 30.12711 89.58064 94.34737
#
# Poissons Ratio (x) = 0.62482 0.52742
# Poissons Ratio (y) = 0.21014 0.17992
# Poissons Ratio (z) = 0.16842 0.17083
#
# Static dielectric constant tensor:
#      x y z
#    x 1.819430 -0.012110 0.019650 
#    y -0.012110 1.766720 -0.028580 
#    z 0.019650 -0.028580 1.815960 
# 
# From -- ./inp_files/272941.got.cif
#   From: 2010.05.17/outbox.cif.g08.bks.cpg/sg2_137_cif.got.tgz:272941.got - 2010.06.03 11:33:40.
