data_PCOD9049200
_publ_section_title
;
Structure prediction by ZEFSAII (Michael W. Deem and Ramdas Pophale) SiO2 
 PCOD9049200
Probable space group: P -1
;
_chemical_formula_sum "Si O2"
_cell_formula_units_Z 11
_cell_length_a 14.273202
_cell_length_b 5.219893
_cell_length_c 11.553960
_cell_angle_alpha 95.671510
_cell_angle_beta 28.838502
_cell_angle_gamma 100.201021
_cell_volume 405.762562
_symmetry_space_group_name_H-M "P -1"
_symmetry_group_IT_number 2
_symmetry_cell_setting 'triclinic'
loop_
_space_group_symop_operation_xyz
x,y,z
-x,-y,-z
loop_
_atom_site_type_symbol
_atom_site_label
_atom_site_fract_x
_atom_site_fract_y
_atom_site_fract_z
Si Si1 0.519832 0.440866 0.609774
Si Si2 0.000000 0.500000 0.000000
Si Si3 0.884660 0.293026 0.320367
Si Si4 0.716341 0.131682 0.102847
Si Si5 0.971477 0.288571 0.638769
Si Si6 0.287356 0.964731 0.285733
O O1 0.500000 0.500000 0.500000
O O2 0.752232 0.467795 0.394909
O O3 0.418882 0.662278 0.787422
O O4 0.420720 0.140316 0.724545
O O5 0.020369 0.260036 0.064583
O O6 0.854255 0.282446 0.061351
O O7 0.013371 0.465496 0.284562
O O8 0.736924 0.100781 0.554386
O O9 0.851397 0.069745 0.846991
O O10 0.848099 0.262686 0.654587
O O11 0.184764 0.214086 0.387984
O O12 0.500000 0.000000 0.000000
#
# Coordination Sequence:
#
# PCOD9049200 Si02
#       6
#     2   1   2   2   2   2
#     4  12  26  45  74 110 155 199 256 305 378 456
#     4  10  24  46  70 112 146 206 240 322 372 454
#     4  11  25  44  74 105 148 197 246 316 376 451
#     4  11  26  48  73 110 152 199 251 314 379 451
#     4  10  26  46  74 106 146 195 254 309 381 443
#     4  11  25  48  73 106 145 198 253 315 376 447
#
# _framework density 27.109449000000001
#
# number of rings (size 3 to 8) (size 9 to 14) (size 15 to 20)
#    0.000    1.091    1.818    2.182   10.182    1.455 
#    0.000    0.000    0.000    0.000    0.000    0.000 
#    0.000    0.000    0.000    0.000    0.000    0.000 
#
# Total GULP energy -61299.353601 kJ/mol
# GULP energy per Si atom -5572.668509 kJ/mol
# Density = 2.704775 g / cm^3
# Si number density = 27.109449 Si / 1000 Ang^3
#
#
#
# Elastic Constant Matrix: (Units=GPa)
#
#
# Indices 1 2 3 4 5 6 
#
# 1 151.0284 24.5439 7.8866 -19.7883 22.2624 7.3442
# 2 24.5439 129.1749 14.7001 -5.2324 -14.9960 -3.7648
# 3 7.8866 14.7001 66.0520 -13.3570 7.6959 -13.5478
# 4 -19.7883 -5.2324 -13.3570 48.9201 -8.7004 -4.6843
# 5 22.2624 -14.9960 7.6959 -8.7004 69.9474 -1.0042
# 6 7.3442 -3.7648 -13.5478 -4.6843 -1.0042 38.0732
#
#
#
# Elastic Compliance Matrix: (Units=1/GPa)
#
#
# Indices 1 2 3 4 5 6 
#
# 1 0.007643 -0.001685 -0.000076 0.002304 -0.002520 -0.001451
# 2 -0.001685 0.008604 -0.001839 0.000263 0.002625 0.000623
# 3 -0.000076 -0.001839 0.018196 0.005110 -0.001638 0.006893
# 4 0.002304 0.000263 0.005110 0.023523 0.001749 0.004340
# 5 -0.002520 0.002625 -0.001638 0.001749 0.016070 0.000802
# 6 -0.001451 0.000623 0.006893 0.004340 0.000802 0.029615
#
#
# Mechanical properties :
#
#
# Convention : Reuss Voigt Hill
#
# Bulk Modulus (GPa) = 36.70484 48.94627 42.82555
# Shear Modulus (GPa) = 41.69052 51.32980 46.51016
#
# Velocity S-wave (km/s) = 3.92581 4.35607 4.14653
# Velocity P-wave (km/s) = 5.84108 6.58747 6.22547
#
# Compressibility (1/GPa) = 0.02724436
#
# Stress axis : x y z
#
# Youngs Moduli (GPa) = 130.84087 116.21962 54.95815
#
# Poissons Ratio (x) = 0.19584 0.00416
# Poissons Ratio (y) = 0.22048 0.10104
# Poissons Ratio (z) = 0.00991 0.21367
#
# Static dielectric constant tensor:
#      x y z
#    x 2.082040 -0.188210 -0.166480 
#    y -0.188210 2.202100 -0.348050 
#    z -0.166480 -0.348050 1.561620 
# 
# From -- ./inp_files/440491.got.cif
#   From: 2010.05.17/outbox.cif.g08.bks.cpg/sg2_221_cif.got.tgz:440491.got - 2010.06.03 11:33:40.
