data_PCOD9049283
_publ_section_title
;
Structure prediction by ZEFSAII (Michael W. Deem and Ramdas Pophale) SiO2 
 PCOD9049283
Probable space group: P -1
;
_chemical_formula_sum "Si O2"
_cell_formula_units_Z 16
_cell_length_a 17.112746
_cell_length_b 11.869706
_cell_length_c 11.557063
_cell_angle_alpha 26.743106
_cell_angle_beta 140.837861
_cell_angle_gamma 135.643648
_cell_volume 664.998355
_symmetry_space_group_name_H-M "P -1"
_symmetry_group_IT_number 2
_symmetry_cell_setting 'triclinic'
loop_
_space_group_symop_operation_xyz
x,y,z
-x,-y,-z
loop_
_atom_site_type_symbol
_atom_site_label
_atom_site_fract_x
_atom_site_fract_y
_atom_site_fract_z
Si Si1 0.859801 0.915054 0.198739
Si Si2 0.322278 0.702862 0.327195
Si Si3 0.986147 0.788183 0.082128
Si Si4 0.252476 0.575652 0.868055
Si Si5 0.567251 0.641247 0.555418
Si Si6 0.205408 0.302916 0.385439
Si Si7 0.092470 0.769272 0.697359
Si Si8 0.767351 0.464310 0.375250
O O1 0.779565 0.757442 0.154215
O O2 0.767828 0.083929 0.004341
O O3 0.962219 0.100140 0.081822
O O4 0.946191 0.736104 0.532084
O O5 0.461392 0.777305 0.375429
O O6 0.275238 0.443326 0.445950
O O7 0.303239 0.664373 0.477860
O O8 0.088461 0.597273 0.407720
O O9 0.846181 0.670512 0.023640
O O10 0.000000 0.000000 0.000000
O O11 0.168522 0.759564 0.672629
O O12 0.286371 0.621523 0.731420
O O13 0.371924 0.535208 0.119345
O O14 0.500000 0.500000 0.500000
O O15 0.686030 0.775083 0.505613
O O16 0.121669 0.042697 0.536148
O O17 0.135494 0.531105 0.037184
#
# Coordination Sequence:
#
# PCOD9049283 Si02
#       8
#     2   2   2   2   2   2   2   2
#     4  11  22  38  61  96 142 181 218 279 356 414
#     4  10  25  44  62  93 139 184 226 286 341 417
#     4  11  20  37  66  98 141 178 223 281 344 416
#     4  11  21  41  72 102 133 179 231 289 343 412
#     4   9  21  47  69  95 131 179 241 289 334 398
#     4  10  24  46  71  99 132 180 242 294 343 401
#     4  11  23  41  71 105 132 179 236 289 350 408
#     4  11  23  38  62 102 137 175 221 279 361 413
#
# _framework density 24.060210999999999
#
# number of rings (size 3 to 8) (size 9 to 14) (size 15 to 20)
#    0.000    1.500    2.500    2.625    3.500    1.500 
#    4.500    6.250    0.000    0.000    0.000    0.000 
#    0.000    0.000    0.000    0.000    0.000    0.000 
#
# Total GULP energy -89435.783494 kJ/mol
# GULP energy per Si atom -5589.736468 kJ/mol
# Density = 2.400545 g / cm^3
# Si number density = 24.060211 Si / 1000 Ang^3
#
#
#
# Elastic Constant Matrix: (Units=GPa)
#
#
# Indices 1 2 3 4 5 6 
#
# 1 143.5359 24.0337 55.7136 15.5261 23.1692 -17.5404
# 2 24.0337 100.9849 51.1378 -2.4994 3.9661 -28.6059
# 3 55.7136 51.1378 88.6464 9.4819 19.2405 -4.0382
# 4 15.5261 -2.4994 9.4819 48.8111 -7.3827 -2.1688
# 5 23.1692 3.9661 19.2405 -7.3827 42.1708 3.4181
# 6 -17.5404 -28.6059 -4.0382 -2.1688 3.4181 45.6533
#
#
#
# Elastic Compliance Matrix: (Units=1/GPa)
#
#
# Indices 1 2 3 4 5 6 
#
# 1 0.010722 0.002515 -0.006876 -0.002290 -0.003818 0.005264
# 2 0.002515 0.019292 -0.013087 0.003628 0.002447 0.011886
# 3 -0.006876 -0.013087 0.024642 -0.004605 -0.006359 -0.008405
# 4 -0.002290 0.003628 -0.004605 0.023423 0.006991 0.001576
# 5 -0.003818 0.002447 -0.006359 0.006991 0.029900 -0.002403
# 6 0.005264 0.011886 -0.008405 0.001576 -0.002403 0.030885
#
#
# Mechanical properties :
#
#
# Convention : Reuss Voigt Hill
#
# Bulk Modulus (GPa) = 50.61095 66.10414 58.35754
# Shear Modulus (GPa) = 27.72428 40.81252 34.26840
#
# Velocity S-wave (km/s) = 3.39822 4.12304 3.77805
# Velocity P-wave (km/s) = 6.03970 7.08520 6.58324
#
# Compressibility (1/GPa) = 0.01975857
#
# Stress axis : x y z
#
# Youngs Moduli (GPa) = 93.26703 51.83566 40.58154
#
# Poissons Ratio (x) = -0.13034 0.27903
# Poissons Ratio (y) = -0.23452 0.53109
# Poissons Ratio (z) = 0.64130 0.67837
#
# Static dielectric constant tensor:
#      x y z
#    x 1.993670 -0.025490 -0.075650 
#    y -0.025490 1.920280 0.005370 
#    z -0.075650 0.005370 1.972160 
# 
# From -- ./inp_files/362959.got.cif
#   From: 2010.05.17/outbox.cif.g08.bks.cpg/sg2_182_cif.got.tgz:362959.got - 2010.06.03 11:33:40.
