data_PCOD9049553
_publ_section_title
;
Structure prediction by ZEFSAII (Michael W. Deem and Ramdas Pophale) SiO2 
 PCOD9049553
Probable space group: P -1
;
_chemical_formula_sum "Si O2"
_cell_formula_units_Z 9
_cell_length_a 11.118226
_cell_length_b 9.537434
_cell_length_c 5.006561
_cell_angle_alpha 86.642593
_cell_angle_beta 99.860685
_cell_angle_gamma 139.172823
_cell_volume 339.874193
_symmetry_space_group_name_H-M "P -1"
_symmetry_group_IT_number 2
_symmetry_cell_setting 'triclinic'
loop_
_space_group_symop_operation_xyz
x,y,z
-x,-y,-z
loop_
_atom_site_type_symbol
_atom_site_label
_atom_site_fract_x
_atom_site_fract_y
_atom_site_fract_z
Si Si1 0.362709 0.099374 0.189219
Si Si2 0.051214 0.638560 0.255001
Si Si3 0.867535 0.911345 0.215350
Si Si4 0.500000 0.500000 0.500000
Si Si5 0.701590 0.512341 0.048560
O O1 0.229438 0.026931 0.895655
O O2 0.380513 0.253683 0.362904
O O3 0.262315 0.881018 0.307946
O O4 0.569358 0.272832 0.125933
O O5 0.911102 0.647919 0.172182
O O6 0.000000 0.500000 0.500000
O O7 0.000000 0.500000 0.000000
O O8 0.688379 0.645034 0.212593
O O9 0.000000 0.000000 0.500000
O O10 0.000000 0.000000 0.000000
O O11 0.641107 0.513089 0.737709
#
# Coordination Sequence:
#
# PCOD9049553 Si02
#       5
#     2   2   2   1   2
#     4  11  27  45  78 110 152 193 253 315 380 446
#     4  12  32  53  74 107 152 214 258 298 362 452
#     4  11  24  41  75 113 148 190 239 321 385 438
#     4  10  24  46  78 124 142 188 244 330 394 434
#     4  11  27  45  78 110 152 193 253 315 380 446
#
# _framework density 26.480388000000001
#
# number of rings (size 3 to 8) (size 9 to 14) (size 15 to 20)
#    0.000    0.889    2.222    2.667   21.778    1.778 
#    0.000    0.000    0.000    0.000    0.000    0.000 
#    0.000    0.000    0.000    0.000    0.000    0.000 
#
# Total GULP energy -50218.951176 kJ/mol
# GULP energy per Si atom -5579.883464 kJ/mol
# Density = 2.642012 g / cm^3
# Si number density = 26.480388 Si / 1000 Ang^3
#
#
#
# Elastic Constant Matrix: (Units=GPa)
#
#
# Indices 1 2 3 4 5 6 
#
# 1 26.8576 -2.1414 0.9580 -1.0579 3.0148 -4.9394
# 2 -2.1414 237.4763 69.4044 -44.3852 -4.0279 -4.4023
# 3 0.9580 69.4044 206.4154 -3.2172 1.5433 -11.6273
# 4 -1.0579 -44.3852 -3.2172 60.9294 0.0069 6.4164
# 5 3.0148 -4.0279 1.5433 0.0069 33.8304 9.0977
# 6 -4.9394 -4.4023 -11.6273 6.4164 9.0977 43.2283
#
#
#
# Elastic Compliance Matrix: (Units=1/GPa)
#
#
# Indices 1 2 3 4 5 6 
#
# 1 0.038834 0.000441 0.000021 0.000423 -0.004875 0.005451
# 2 0.000441 0.005498 -0.001832 0.003985 0.000875 -0.000658
# 3 0.000021 -0.001832 0.005543 -0.001219 -0.000925 0.001682
# 4 0.000423 0.003985 -0.001219 0.019580 0.001310 -0.003056
# 5 -0.004875 0.000875 -0.000925 0.001310 0.032208 -0.007690
# 6 0.005451 -0.000658 0.001682 -0.003056 -0.007690 0.026213
#
#
# Mechanical properties :
#
#
# Convention : Reuss Voigt Hill
#
# Bulk Modulus (GPa) = 21.21482 67.46572 44.34027
# Shear Modulus (GPa) = 34.16999 54.43285 44.30142
#
# Velocity S-wave (km/s) = 3.59609 4.53878 4.09466
# Velocity P-wave (km/s) = 5.02707 7.28013 6.25587
#
# Compressibility (1/GPa) = 0.04713687
#
# Stress axis : x y z
#
# Youngs Moduli (GPa) = 25.75042 181.88880 180.40040
#
# Poissons Ratio (x) = -0.08029 -0.00387
# Poissons Ratio (y) = -0.01137 0.33052
# Poissons Ratio (z) = -0.00055 0.33324
#
# Static dielectric constant tensor:
#      x y z
#    x 1.936130 -0.163270 0.192750 
#    y -0.163270 2.093330 0.140600 
#    z 0.192750 0.140600 1.719070 
# 
# From -- ./inp_files/93289.got.cif
#   From: 2010.05.17/outbox.cif.g08.bks.cpg/sg2_47_cif.got.tgz:93289.got - 2010.06.03 11:33:40.
