data_PCOD9049509
_publ_section_title
;
Structure prediction by ZEFSAII (Michael W. Deem and Ramdas Pophale) SiO2 
 PCOD9049509
Probable space group: P -1
;
_chemical_formula_sum "Si O2"
_cell_formula_units_Z 14
_cell_length_a 8.526847
_cell_length_b 4.941444
_cell_length_c 18.043904
_cell_angle_alpha 69.340981
_cell_angle_beta 133.444381
_cell_angle_gamma 116.593956
_cell_volume 492.408806
_symmetry_space_group_name_H-M "P -1"
_symmetry_group_IT_number 2
_symmetry_cell_setting 'triclinic'
loop_
_space_group_symop_operation_xyz
x,y,z
-x,-y,-z
loop_
_atom_site_type_symbol
_atom_site_label
_atom_site_fract_x
_atom_site_fract_y
_atom_site_fract_z
Si Si1 0.500000 0.000000 0.000000
Si Si2 0.500000 0.500000 0.500000
Si Si3 0.518006 0.081937 0.242363
Si Si4 0.777402 0.779417 0.987798
Si Si5 0.999263 0.994629 0.411622
Si Si6 0.106610 0.696523 0.828992
Si Si7 0.614015 0.599063 0.697500
Si Si8 0.876400 0.361556 0.645328
O O1 0.682621 0.894211 0.018525
O O2 0.332529 0.975947 0.873060
O O3 0.491927 0.550623 0.585222
O O4 0.614187 0.199342 0.585700
O O5 0.413733 0.259247 0.132041
O O6 0.765972 0.059541 0.311110
O O7 0.516176 0.268462 0.297750
O O8 0.369277 0.729983 0.236458
O O9 0.814353 0.467784 0.058560
O O10 0.000000 0.000000 0.000000
O O11 0.188151 0.309502 0.419635
O O12 0.027541 0.741085 0.388346
O O13 0.000000 0.000000 0.500000
O O14 0.030868 0.458237 0.759239
O O15 0.880445 0.792451 0.758966
#
# Coordination Sequence:
#
# PCOD9049509 Si02
#       8
#     1   1   2   2   2   2   2   2
#     4  12  28  46  78 106 156 210 268 326 408 464
#     4  10  24  46  76 106 148 198 256 326 394 482
#     4  12  26  44  74 109 152 204 259 327 395 474
#     4  12  27  49  77 112 159 209 269 339 395 485
#     4  12  25  46  74 111 156 201 259 325 405 478
#     4  11  27  47  75 112 158 210 269 333 401 480
#     4  11  25  46  75 111 151 202 264 317 402 473
#     4  11  26  45  75 109 154 201 261 328 394 484
#
# _framework density 28.431664000000001
#
# number of rings (size 3 to 8) (size 9 to 14) (size 15 to 20)
#    0.000    0.571    1.429    5.143    6.000    5.714 
#    0.000    0.000    0.000    0.000    0.000    0.000 
#    0.000    0.000    0.000    0.000    0.000    0.000 
#
# Total GULP energy -78034.413703 kJ/mol
# GULP energy per Si atom -5573.886693 kJ/mol
# Density = 2.836695 g / cm^3
# Si number density = 28.431664 Si / 1000 Ang^3
#
#
#
# Elastic Constant Matrix: (Units=GPa)
#
#
# Indices 1 2 3 4 5 6 
#
# 1 152.2025 26.4957 55.2763 13.2421 0.1766 -62.3671
# 2 26.4957 90.8619 22.8781 16.6168 -14.1783 -38.6249
# 3 55.2763 22.8781 272.7333 16.1688 -4.1165 -32.0854
# 4 13.2421 16.6168 16.1688 40.7134 1.6278 -7.9781
# 5 0.1766 -14.1783 -4.1165 1.6278 72.8725 -3.9253
# 6 -62.3671 -38.6249 -32.0854 -7.9781 -3.9253 61.5486
#
#
#
# Elastic Compliance Matrix: (Units=1/GPa)
#
#
# Indices 1 2 3 4 5 6 
#
# 1 0.012099 0.003040 -0.000974 -0.002203 0.001281 0.013456
# 2 0.003040 0.017645 -0.000091 -0.005651 0.004282 0.013647
# 3 -0.000974 -0.000091 0.004051 -0.001081 0.000289 0.000946
# 4 -0.002203 -0.005651 -0.001081 0.027524 -0.001926 -0.002898
# 5 0.001281 0.004282 0.000289 -0.001926 0.014872 0.004835
# 6 0.013456 0.013647 0.000946 -0.002898 0.004835 0.038872
#
#
# Mechanical properties :
#
#
# Convention : Reuss Voigt Hill
#
# Bulk Modulus (GPa) = 26.49407 80.56642 53.53024
# Shear Modulus (GPa) = 40.42220 62.43672 51.42946
#
# Velocity S-wave (km/s) = 3.77468 4.69126 4.25771
# Velocity P-wave (km/s) = 5.32319 7.59884 6.56044
#
# Compressibility (1/GPa) = 0.03774430
#
# Stress axis : x y z
#
# Youngs Moduli (GPa) = 82.65421 56.67358 246.82800
#
# Poissons Ratio (x) = -0.17229 0.24045
# Poissons Ratio (y) = -0.25127 0.02251
# Poissons Ratio (z) = 0.08052 0.00517
#
# Static dielectric constant tensor:
#      x y z
#    x 2.189420 -0.081950 -0.014990 
#    y -0.081950 1.717040 -0.168840 
#    z -0.014990 -0.168840 2.242300 
# 
# From -- ./inp_files/553489.got.cif
#   From: 2010.05.17/outbox.cif.g08.bks.cpg/sg2_277_cif.got.tgz:553489.got - 2010.06.03 11:33:40.
