data_PCOD9049380
_publ_section_title
;
Structure prediction by ZEFSAII (Michael W. Deem and Ramdas Pophale) SiO2 
 PCOD9049380
Probable space group: P -1
;
_chemical_formula_sum "Si O2"
_cell_formula_units_Z 14
_cell_length_a 24.047264
_cell_length_b 15.173042
_cell_length_c 15.520441
_cell_angle_alpha 153.221619
_cell_angle_beta 160.783342
_cell_angle_gamma 19.085353
_cell_volume 609.450214
_symmetry_space_group_name_H-M "P -1"
_symmetry_group_IT_number 2
_symmetry_cell_setting 'triclinic'
loop_
_space_group_symop_operation_xyz
x,y,z
-x,-y,-z
loop_
_atom_site_type_symbol
_atom_site_label
_atom_site_fract_x
_atom_site_fract_y
_atom_site_fract_z
Si Si1 0.321763 0.638350 0.783255
Si Si2 0.464399 0.834547 0.861174
Si Si3 0.768266 0.933699 0.089706
Si Si4 0.695747 0.576464 0.580426
Si Si5 0.951736 0.939665 0.640415
Si Si6 0.026616 0.514277 0.652816
Si Si7 0.185170 0.933956 0.145205
O O1 0.333595 0.419675 0.562429
O O2 0.080769 0.870300 0.679450
O O3 0.357022 0.787066 0.897869
O O4 0.500000 0.500000 0.000000
O O5 0.320250 0.995532 0.878889
O O6 0.317062 0.810946 0.561494
O O7 0.726893 0.576845 0.047256
O O8 0.500000 0.000000 0.000000
O O9 0.049140 0.728444 0.306580
O O10 0.712007 0.771229 0.820469
O O11 0.450324 0.673850 0.333801
O O12 0.976873 0.691322 0.485536
O O13 0.086696 0.941980 0.916087
O O14 0.828831 0.819868 0.659880
O O15 0.000000 0.500000 0.500000
O O16 0.000000 0.000000 0.000000
#
# Coordination Sequence:
#
# PCOD9049380 Si02
#       7
#     2   2   2   2   2   2   2
#     4  12  26  45  72 104 142 185 238 295 351 429
#     4  10  24  46  73 102 143 186 236 294 356 429
#     4  11  26  48  74 104 143 191 235 297 361 420
#     4  11  26  46  72 103 142 189 242 289 362 426
#     4  11  25  46  66 106 139 183 244 289 359 422
#     4  11  24  44  70  97 142 190 227 295 358 411
#     4  12  26  42  71 108 139 189 245 290 358 430
#
# _framework density 22.971523000000001
#
# number of rings (size 3 to 8) (size 9 to 14) (size 15 to 20)
#    0.000    0.857    4.286    1.286    8.000    2.286 
#    2.571    0.000    0.000    0.000    0.000    0.000 
#    0.000    0.000    0.000    0.000    0.000    0.000 
#
# Total GULP energy -78110.688962 kJ/mol
# GULP energy per Si atom -5579.334926 kJ/mol
# Density = 2.291924 g / cm^3
# Si number density = 22.971523 Si / 1000 Ang^3
#
#
#
# Elastic Constant Matrix: (Units=GPa)
#
#
# Indices 1 2 3 4 5 6 
#
# 1 135.2813 30.9561 32.7177 4.8852 -4.7336 4.0266
# 2 30.9561 91.9086 29.4019 -2.1611 -0.3349 1.1958
# 3 32.7177 29.4019 119.3797 -18.4282 -11.5848 1.6998
# 4 4.8852 -2.1611 -18.4282 46.8694 -14.2144 -2.3130
# 5 -4.7336 -0.3349 -11.5848 -14.2144 29.2250 -6.1500
# 6 4.0266 1.1958 1.6998 -2.3130 -6.1500 30.1852
#
#
#
# Elastic Compliance Matrix: (Units=1/GPa)
#
#
# Indices 1 2 3 4 5 6 
#
# 1 0.008512 -0.002205 -0.002186 -0.002162 -0.000830 -0.001260
# 2 -0.002205 0.012491 -0.002778 -0.000868 -0.001840 -0.000486
# 3 -0.002186 -0.002778 0.011525 0.007179 0.008085 0.001950
# 4 -0.002162 -0.000868 0.007179 0.030236 0.018454 0.005995
# 5 -0.000830 -0.001840 0.008085 0.018454 0.048565 0.011037
# 6 -0.001260 -0.000486 0.001950 0.005995 0.011037 0.035914
#
#
# Mechanical properties :
#
#
# Convention : Reuss Voigt Hill
#
# Bulk Modulus (GPa) = 54.97523 59.19122 57.08322
# Shear Modulus (GPa) = 29.82511 38.15550 33.99031
#
# Velocity S-wave (km/s) = 3.60717 4.07995 3.85082
# Velocity P-wave (km/s) = 6.42906 6.92949 6.68396
#
# Compressibility (1/GPa) = 0.01819001
#
# Stress axis : x y z
#
# Youngs Moduli (GPa) = 117.48368 80.05857 86.76856
#
# Poissons Ratio (x) = 0.17653 0.18968
# Poissons Ratio (y) = 0.25906 0.24101
# Poissons Ratio (z) = 0.25683 0.22238
#
# Static dielectric constant tensor:
#      x y z
#    x 1.860370 -0.010840 0.044100 
#    y -0.010840 1.916730 -0.058500 
#    z 0.044100 -0.058500 1.939600 
# 
# From -- ./inp_files/260418.got.cif
#   From: 2010.05.17/outbox.cif.g08.bks.cpg/sg2_131_cif.got.tgz:260418.got - 2010.06.03 11:33:40.
