data_PCOD9049848
_publ_section_title
;
Structure prediction by ZEFSAII (Michael W. Deem and Ramdas Pophale) SiO2 
 PCOD9049848
Probable space group: P -1
;
_chemical_formula_sum "Si O2"
_cell_formula_units_Z 14
_cell_length_a 12.334663
_cell_length_b 5.537789
_cell_length_c 8.723891
_cell_angle_alpha 90.462339
_cell_angle_beta 91.784431
_cell_angle_gamma 69.038337
_cell_volume 556.191168
_symmetry_space_group_name_H-M "P -1"
_symmetry_group_IT_number 2
_symmetry_cell_setting 'triclinic'
loop_
_space_group_symop_operation_xyz
x,y,z
-x,-y,-z
loop_
_atom_site_type_symbol
_atom_site_label
_atom_site_fract_x
_atom_site_fract_y
_atom_site_fract_z
Si Si1 0.049527 0.189301 0.829079
Si Si2 0.702735 0.866098 0.088461
Si Si3 0.431978 0.711220 0.125135
Si Si4 0.586526 0.822839 0.378974
Si Si5 0.207927 0.595618 0.096132
Si Si6 0.019249 0.724160 0.641590
Si Si7 0.188661 0.382732 0.413876
O O1 0.174599 0.092367 0.917239
O O2 0.044042 0.458424 0.743805
O O3 0.930689 0.259256 0.921970
O O4 0.047332 0.950378 0.725791
O O5 0.642799 0.947792 0.250090
O O6 0.740664 0.561310 0.056604
O O7 0.609615 0.011288 0.958047
O O8 0.513321 0.690117 0.274444
O O9 0.305491 0.703680 0.156200
O O10 0.500000 0.500000 0.000000
O O11 0.697549 0.666667 0.482960
O O12 0.500000 0.000000 0.500000
O O13 0.211865 0.406772 0.237614
O O14 0.096634 0.632804 0.493266
O O15 0.883556 0.809880 0.588809
#
# Coordination Sequence:
#
# PCOD9049848 Si02
#       7
#     2   2   2   2   2   2   2
#     4  11  26  46  85 114 157 200 264 318 404 463
#     4  12  27  51  74 109 159 198 258 327 389 467
#     4  12  29  49  76 105 157 207 261 318 389 465
#     4  12  27  48  78 109 148 208 261 321 387 468
#     4  11  27  48  76 113 151 206 251 324 392 472
#     4  10  24  48  75 118 156 201 249 337 388 467
#     4  10  24  47  76 109 156 194 267 314 397 453
#
# _framework density 25.171201
#
# number of rings (size 3 to 8) (size 9 to 14) (size 15 to 20)
#    0.000    0.857    2.857    1.714   12.000    7.429 
#    0.000    0.000    0.000    0.000    0.000    0.000 
#    0.000    0.000    0.000    0.000    0.000    0.000 
#
# Total GULP energy -78232.668488 kJ/mol
# GULP energy per Si atom -5588.047749 kJ/mol
# Density = 2.511391 g / cm^3
# Si number density = 25.171201 Si / 1000 Ang^3
#
#
#
# Elastic Constant Matrix: (Units=GPa)
#
#
# Indices 1 2 3 4 5 6 
#
# 1 221.2575 37.3451 50.9705 7.1152 27.3422 2.2998
# 2 37.3451 78.8395 25.2960 10.4285 8.0514 3.0922
# 3 50.9705 25.2960 106.3431 21.1325 11.4651 -10.1249
# 4 7.1152 10.4285 21.1325 37.4049 1.5278 3.9175
# 5 27.3422 8.0514 11.4651 1.5278 65.4054 6.4319
# 6 2.2998 3.0922 -10.1249 3.9175 6.4319 35.1064
#
#
#
# Elastic Compliance Matrix: (Units=1/GPa)
#
#
# Indices 1 2 3 4 5 6 
#
# 1 0.005533 -0.001811 -0.002280 0.000877 -0.001646 -0.000657
# 2 -0.001811 0.014675 -0.002259 -0.002297 -0.000454 -0.001486
# 3 -0.002280 -0.002259 0.013016 -0.006769 -0.001395 0.005113
# 4 0.000877 -0.002297 -0.006769 0.031571 0.000906 -0.005496
# 5 -0.001646 -0.000454 -0.001395 0.000906 0.016590 -0.003395
# 6 -0.000657 -0.001486 0.005113 -0.005496 -0.003395 0.031369
#
#
# Mechanical properties :
#
#
# Convention : Reuss Voigt Hill
#
# Bulk Modulus (GPa) = 48.72568 70.40705 59.56637
# Shear Modulus (GPa) = 37.79415 47.10524 42.44970
#
# Velocity S-wave (km/s) = 3.87910 4.33065 4.11108
# Velocity P-wave (km/s) = 6.28196 7.28273 6.80077
#
# Compressibility (1/GPa) = 0.02052306
#
# Stress axis : x y z
#
# Youngs Moduli (GPa) = 180.74398 68.14267 76.82803
#
# Poissons Ratio (x) = 0.12342 0.17519
# Poissons Ratio (y) = 0.32737 0.17354
# Poissons Ratio (z) = 0.41215 0.15393
#
# Static dielectric constant tensor:
#      x y z
#    x 2.091070 -0.071600 -0.038050 
#    y -0.071600 2.134460 -0.030450 
#    z -0.038050 -0.030450 2.024760 
# 
# From -- ./inp_files/229745.got.cif
#   From: 2010.05.17/outbox.cif.g08.bks.cpg/sg2_115_cif.got.tgz:229745.got - 2010.06.03 11:33:40.
