data_PCOD9049872
_publ_section_title
;
Structure prediction by ZEFSAII (Michael W. Deem and Ramdas Pophale) SiO2 
 PCOD9049872
Probable space group: P -1
;
_chemical_formula_sum "Si O2"
_cell_formula_units_Z 16
_cell_length_a 7.919959
_cell_length_b 11.653842
_cell_length_c 8.914448
_cell_angle_alpha 65.764557
_cell_angle_beta 130.705915
_cell_angle_gamma 105.613413
_cell_volume 568.753882
_symmetry_space_group_name_H-M "P -1"
_symmetry_group_IT_number 2
_symmetry_cell_setting 'triclinic'
loop_
_space_group_symop_operation_xyz
x,y,z
-x,-y,-z
loop_
_atom_site_type_symbol
_atom_site_label
_atom_site_fract_x
_atom_site_fract_y
_atom_site_fract_z
Si Si1 0.182623 0.090484 0.134928
Si Si2 0.305965 0.438784 0.596655
Si Si3 0.479578 0.906607 0.260365
Si Si4 0.868747 0.143712 0.164969
Si Si5 0.719677 0.282344 0.508291
Si Si6 0.343381 0.352492 0.007763
Si Si7 0.063006 0.194705 0.536958
Si Si8 0.227333 0.562003 0.052975
O O1 0.178589 0.235825 0.005352
O O2 0.107093 0.102307 0.257080
O O3 0.416938 0.028656 0.258184
O O4 0.000000 0.000000 0.000000
O O5 0.203433 0.577272 0.474936
O O6 0.148651 0.338658 0.476228
O O7 0.567767 0.461238 0.701858
O O8 0.346499 0.371453 0.820620
O O9 0.405688 0.791439 0.390896
O O10 0.711313 0.879392 0.326878
O O11 0.312373 0.914153 0.017750
O O12 0.886599 0.131507 0.357625
O O13 0.817588 0.291427 0.047597
O O14 0.554532 0.308826 0.256520
O O15 0.928158 0.204560 0.607212
O O16 0.282661 0.486806 0.972454
O O17 0.000000 0.500000 0.000000
#
# Coordination Sequence:
#
# PCOD9049872 Si02
#       8
#     2   2   2   2   2   2   2   2
#     4  10  24  47  78 104 149 206 252 308 379 438
#     4  11  25  45  70 113 161 190 245 311 386 457
#     4  11  27  50  75 109 152 198 262 304 367 460
#     4  11  23  46  72 112 146 193 249 309 375 441
#     4  11  26  47  75 116 153 199 246 314 390 445
#     4  11  23  46  74 109 156 195 244 317 378 450
#     4  12  26  45  77 109 152 199 249 308 377 451
#     4  11  21  39  73 110 143 187 243 306 373 444
#
# _framework density 28.131677
#
# number of rings (size 3 to 8) (size 9 to 14) (size 15 to 20)
#    0.000    1.000    2.500    4.125    5.250    3.500 
#    0.000    4.375    0.000    0.000    0.000    0.000 
#    0.000    0.000    0.000    0.000    0.000    0.000 
#
# Total GULP energy -89592.319385 kJ/mol
# GULP energy per Si atom -5599.519962 kJ/mol
# Density = 2.806765 g / cm^3
# Si number density = 28.131677 Si / 1000 Ang^3
#
#
#
# Elastic Constant Matrix: (Units=GPa)
#
#
# Indices 1 2 3 4 5 6 
#
# 1 140.8233 41.9279 59.1628 -6.1016 19.6013 -24.6501
# 2 41.9279 188.2058 32.8625 -15.6758 -7.3518 -17.2181
# 3 59.1628 32.8625 121.7988 4.6885 -12.0736 -8.7797
# 4 -6.1016 -15.6758 4.6885 44.8734 -0.4502 -0.3009
# 5 19.6013 -7.3518 -12.0736 -0.4502 31.7806 -11.2768
# 6 -24.6501 -17.2181 -8.7797 -0.3009 -11.2768 61.7703
#
#
#
# Elastic Compliance Matrix: (Units=1/GPa)
#
#
# Indices 1 2 3 4 5 6 
#
# 1 0.011873 -0.001644 -0.006200 0.001605 -0.009438 0.001683
# 2 -0.001644 0.006195 -0.000566 0.002038 0.002797 0.001511
# 3 -0.006200 -0.000566 0.012363 -0.002241 0.008601 0.000685
# 4 0.001605 0.002038 -0.002241 0.023448 -0.000728 0.000871
# 5 -0.009438 0.002797 0.008601 -0.000728 0.043374 0.006150
# 6 0.001683 0.001511 0.000685 0.000871 0.006150 0.018506
#
#
# Mechanical properties :
#
#
# Convention : Reuss Voigt Hill
#
# Bulk Modulus (GPa) = 73.45707 79.85937 76.65822
# Shear Modulus (GPa) = 36.46582 48.80983 42.63782
#
# Velocity S-wave (km/s) = 3.60426 4.16991 3.89736
# Velocity P-wave (km/s) = 6.59465 7.18565 6.89648
#
# Compressibility (1/GPa) = 0.01361339
#
# Stress axis : x y z
#
# Youngs Moduli (GPa) = 84.22429 161.40760 80.88925
#
# Poissons Ratio (x) = 0.26528 0.50150
# Poissons Ratio (y) = 0.13842 0.04574
# Poissons Ratio (z) = 0.52218 0.09128
#
# Static dielectric constant tensor:
#      x y z
#    x 2.522520 -0.014930 -0.014350 
#    y -0.014930 2.139790 -0.027260 
#    z -0.014350 -0.027260 2.210310 
# 
# From -- ./inp_files/187037.got.cif
#   From: 2010.05.17/outbox.cif.g08.bks.cpg/sg2_94_cif.got.tgz:187037.got - 2010.06.03 11:33:40.
