data_PCOD9049511
_publ_section_title
;
Structure prediction by ZEFSAII (Michael W. Deem and Ramdas Pophale) SiO2 
 PCOD9049511
Probable space group: P -1
;
_chemical_formula_sum "Si O2"
_cell_formula_units_Z 15
_cell_length_a 11.923864
_cell_length_b 9.875557
_cell_length_c 9.392872
_cell_angle_alpha 114.471374
_cell_angle_beta 59.864285
_cell_angle_gamma 137.578452
_cell_volume 643.469597
_symmetry_space_group_name_H-M "P -1"
_symmetry_group_IT_number 2
_symmetry_cell_setting 'triclinic'
loop_
_space_group_symop_operation_xyz
x,y,z
-x,-y,-z
loop_
_atom_site_type_symbol
_atom_site_label
_atom_site_fract_x
_atom_site_fract_y
_atom_site_fract_z
Si Si1 0.381968 0.289536 0.723675
Si Si2 0.161547 0.055501 0.506433
Si Si3 0.206894 0.743618 0.327829
Si Si4 0.500000 0.000000 0.000000
Si Si5 0.605500 0.740042 0.814033
Si Si6 0.639192 0.235914 0.473643
Si Si7 0.933191 0.380521 0.137935
Si Si8 0.852082 0.977611 0.003864
O O1 0.218211 0.173161 0.669764
O O2 0.454897 0.502149 0.823494
O O3 0.537134 0.312559 0.565223
O O4 0.313718 0.144014 0.837697
O O5 0.327217 0.214741 0.369406
O O6 0.140332 0.860906 0.454228
O O7 0.000000 0.000000 0.500000
O O8 0.240218 0.683315 0.427802
O O9 0.070740 0.541220 0.236618
O O10 0.371768 0.896737 0.183620
O O11 0.542596 0.857442 0.933350
O O12 0.773703 0.844056 0.853899
O O13 0.746010 0.287689 0.282628
O O14 0.500000 0.000000 0.500000
O O15 0.919413 0.195716 0.036249
O O16 0.000000 0.500000 0.000000
O O17 0.000000 0.000000 0.000000
#
# Coordination Sequence:
#
# PCOD9049511 Si02
#       8
#     2   2   2   1   2   2   2   2
#     4  12  26  46  77 105 143 204 251 307 385 448
#     4  11  24  46  67 106 148 185 242 311 369 449
#     4  11  25  45  76 107 148 203 245 313 381 446
#     4  10  24  46  76 106 154 188 264 314 370 452
#     4  11  26  45  72 106 145 198 245 307 377 443
#     4  12  25  48  76 106 153 192 260 313 374 457
#     4  12  28  47  77 112 150 206 254 313 387 448
#     4  12  27  49  70 110 154 193 250 315 376 455
#
# _framework density 23.311126999999999
#
# number of rings (size 3 to 8) (size 9 to 14) (size 15 to 20)
#    0.000    0.533    2.667    4.400    7.467    0.000 
#    2.400    0.000    0.000    0.000    0.000    0.000 
#    0.000    0.000    0.000    0.000    0.000    0.000 
#
# Total GULP energy -83710.776036 kJ/mol
# GULP energy per Si atom -5580.718402 kJ/mol
# Density = 2.325807 g / cm^3
# Si number density = 23.311127 Si / 1000 Ang^3
#
#
#
# Elastic Constant Matrix: (Units=GPa)
#
#
# Indices 1 2 3 4 5 6 
#
# 1 108.9864 42.4318 36.2079 13.6190 9.9421 -4.4105
# 2 42.4318 124.2402 35.6920 3.2759 20.8941 -5.0484
# 3 36.2079 35.6920 82.3353 -19.3515 6.9137 4.4448
# 4 13.6190 3.2759 -19.3515 43.6025 12.3164 9.1757
# 5 9.9421 20.8941 6.9137 12.3164 44.7357 11.4702
# 6 -4.4105 -5.0484 4.4448 9.1757 11.4702 28.8963
#
#
#
# Elastic Compliance Matrix: (Units=1/GPa)
#
#
# Indices 1 2 3 4 5 6 
#
# 1 0.013795 -0.002102 -0.007499 -0.008670 0.000016 0.005639
# 2 -0.002102 0.010962 -0.004049 -0.001587 -0.004774 0.004616
# 3 -0.007499 -0.004049 0.021173 0.014339 -0.001319 -0.009138
# 4 -0.008670 -0.001587 0.014339 0.036631 -0.006318 -0.012930
# 5 0.000016 -0.004774 -0.001319 -0.006318 0.029135 -0.010187
# 6 0.005639 0.004616 -0.009138 -0.012930 -0.010187 0.045829
#
#
# Mechanical properties :
#
#
# Convention : Reuss Voigt Hill
#
# Bulk Modulus (GPa) = 53.67666 60.46948 57.07307
# Shear Modulus (GPa) = 26.17315 36.86224 31.51770
#
# Velocity S-wave (km/s) = 3.35442 3.98089 3.68101
# Velocity P-wave (km/s) = 6.17082 6.86487 6.52708
#
# Compressibility (1/GPa) = 0.01863007
#
# Stress axis : x y z
#
# Youngs Moduli (GPa) = 72.48800 91.22153 47.23087
#
# Poissons Ratio (x) = 0.19177 0.35418
# Poissons Ratio (y) = 0.15239 0.19124
# Poissons Ratio (z) = 0.54358 0.36935
#
# Static dielectric constant tensor:
#      x y z
#    x 1.919440 0.079300 -0.076680 
#    y 0.079300 1.858150 -0.058600 
#    z -0.076680 -0.058600 1.873180 
# 
# From -- ./inp_files/245388.got.cif
#   From: 2010.05.17/outbox.cif.g08.bks.cpg/sg2_123_cif.got.tgz:245388.got - 2010.06.03 11:33:40.
