data_PCOD9049467
_publ_section_title
;
Structure prediction by ZEFSAII (Michael W. Deem and Ramdas Pophale) SiO2 
 PCOD9049467
Probable space group: P -1
;
_chemical_formula_sum "Si O2"
_cell_formula_units_Z 16
_cell_length_a 16.821610
_cell_length_b 5.142392
_cell_length_c 8.836970
_cell_angle_alpha 54.414539
_cell_angle_beta 95.361616
_cell_angle_gamma 90.000074
_cell_volume 617.552090
_symmetry_space_group_name_H-M "P -1"
_symmetry_group_IT_number 2
_symmetry_cell_setting 'triclinic'
loop_
_space_group_symop_operation_xyz
x,y,z
-x,-y,-z
loop_
_atom_site_type_symbol
_atom_site_label
_atom_site_fract_x
_atom_site_fract_y
_atom_site_fract_z
Si Si1 0.512941 0.001767 0.803268
Si Si2 0.732592 0.455727 0.626180
Si Si3 0.416053 0.645843 0.543632
Si Si4 0.232592 0.291912 0.126180
Si Si5 0.872793 0.680251 0.384847
Si Si6 0.012941 0.391697 0.303268
Si Si7 0.627207 0.449947 0.115152
Si Si8 0.916053 0.266892 0.043633
O O1 0.436518 0.791761 0.876164
O O2 0.484690 0.374379 0.695452
O O3 0.550541 0.037689 0.629703
O O4 0.581652 0.806148 0.975478
O O5 0.641125 0.498259 0.542768
O O6 0.749224 0.652960 0.712317
O O7 0.791446 0.546239 0.470911
O O8 0.750778 0.077594 0.787683
O O9 0.361514 0.681296 0.669545
O O10 0.291446 0.511937 0.970912
O O11 0.141124 0.416207 0.042765
O O12 0.918348 0.757105 0.524521
O O13 0.936518 0.455911 0.376163
O O14 0.861514 0.979613 0.169545
O O15 0.984691 0.234714 0.195453
O O16 0.050542 0.702902 0.129704
#
# Coordination Sequence:
#
# PCOD9049467 Si02
#       8
#     2   2   2   2   2   2   2   2
#     4  10  24  46  74 112 146 188 258 310 370 440
#     4  12  30  50  74 112 162 198 250 312 372 444
#     4  11  25  45  77 107 150 196 253 303 381 435
#     4  12  30  50  74 112 162 198 250 312 372 444
#     4  11  25  45  77 107 150 196 253 303 381 435
#     4  10  24  46  74 112 146 188 258 310 370 440
#     4  11  25  45  77 107 150 196 253 303 381 435
#     4  11  25  45  77 107 150 196 253 303 381 435
#
# _framework density 25.908747999999999
#
# number of rings (size 3 to 8) (size 9 to 14) (size 15 to 20)
#    0.000    1.000    2.500    1.500   10.500    8.000 
#    0.000    0.000    0.000    0.000    0.000    0.000 
#    0.000    0.000    0.000    0.000    0.000    0.000 
#
# Total GULP energy -89502.545952 kJ/mol
# GULP energy per Si atom -5593.909122 kJ/mol
# Density = 2.584978 g / cm^3
# Si number density = 25.908748 Si / 1000 Ang^3
#
#
#
# Elastic Constant Matrix: (Units=GPa)
#
#
# Indices 1 2 3 4 5 6 
#
# 1 125.4302 12.3256 37.7998 3.7600 -34.8217 -6.8168
# 2 12.3256 59.6790 29.6365 -3.0280 12.1581 0.9157
# 3 37.7998 29.6365 159.8650 3.7538 -48.7237 0.2402
# 4 3.7600 -3.0280 3.7538 42.8847 0.4514 4.9011
# 5 -34.8217 12.1581 -48.7237 0.4514 50.0809 4.3075
# 6 -6.8168 0.9157 0.2402 4.9011 4.3075 17.2900
#
#
#
# Elastic Compliance Matrix: (Units=1/GPa)
#
#
# Indices 1 2 3 4 5 6 
#
# 1 0.011076 -0.005270 0.001524 -0.001882 0.010257 0.002603
# 2 -0.005270 0.026999 -0.009922 0.003373 -0.019958 0.000646
# 3 0.001524 -0.009922 0.012665 -0.001823 0.016024 -0.002525
# 4 -0.001882 0.003373 -0.001823 0.024721 -0.003520 -0.007026
# 5 0.010257 -0.019958 0.016024 -0.003520 0.048091 -0.006105
# 6 0.002603 0.000646 -0.002525 -0.007026 -0.006105 0.062377
#
#
# Mechanical properties :
#
#
# Convention : Reuss Voigt Hill
#
# Bulk Modulus (GPa) = 42.72567 56.05531 49.39049
# Shear Modulus (GPa) = 22.61774 39.73194 31.17484
#
# Velocity S-wave (km/s) = 2.95782 3.92028 3.47256
# Velocity P-wave (km/s) = 5.30958 6.49416 5.93151
#
# Compressibility (1/GPa) = 0.02340513
#
# Stress axis : x y z
#
# Youngs Moduli (GPa) = 90.28187 37.03821 78.96048
#
# Poissons Ratio (x) = 0.19518 -0.12036
# Poissons Ratio (y) = 0.47575 0.78346
# Poissons Ratio (z) = -0.13762 0.36750
#
# Static dielectric constant tensor:
#      x y z
#    x 2.039040 0.010180 -0.036160 
#    y 0.010180 2.142200 0.005090 
#    z -0.036160 0.005090 2.036140 
# 
# From -- ./inp_files/323187.got.cif
#   From: 2010.05.17/outbox.cif.g08.bks.cpg/sg2_162_cif.got.tgz:323187.got - 2010.06.03 11:33:40.
