data_PCOD9049201
_publ_section_title
;
Structure prediction by ZEFSAII (Michael W. Deem and Ramdas Pophale) SiO2 
 PCOD9049201
Probable space group: P -1
;
_chemical_formula_sum "Si O2"
_cell_formula_units_Z 16
_cell_length_a 8.286795
_cell_length_b 8.244176
_cell_length_c 14.796550
_cell_angle_alpha 101.952075
_cell_angle_beta 89.014048
_cell_angle_gamma 133.314838
_cell_volume 708.401239
_symmetry_space_group_name_H-M "P -1"
_symmetry_group_IT_number 2
_symmetry_cell_setting 'triclinic'
loop_
_space_group_symop_operation_xyz
x,y,z
-x,-y,-z
loop_
_atom_site_type_symbol
_atom_site_label
_atom_site_fract_x
_atom_site_fract_y
_atom_site_fract_z
Si Si1 0.655078 0.083091 0.807240
Si Si2 0.171509 0.895866 0.504269
Si Si3 0.262880 0.281095 0.432586
Si Si4 0.194269 0.327718 0.240189
Si Si5 0.735397 0.007210 0.117117
Si Si6 0.588612 0.736407 0.910174
Si Si7 0.614912 0.192288 0.641611
Si Si8 0.114305 0.530278 0.908894
O O1 0.573055 0.020784 0.697834
O O2 0.919314 0.307538 0.827278
O O3 0.510864 0.132643 0.856170
O O4 0.624255 0.907605 0.854873
O O5 0.240953 0.779054 0.438450
O O6 0.931387 0.729211 0.535704
O O7 0.182079 0.049108 0.447549
O O8 0.373259 0.075697 0.593338
O O9 0.500000 0.500000 0.500000
O O10 0.272030 0.288279 0.325118
O O11 0.326863 0.364396 0.153779
O O12 0.252833 0.559909 0.287281
O O13 0.931165 0.103811 0.196774
O O14 0.805062 0.238716 0.106603
O O15 0.720547 0.875072 0.016523
O O16 0.325944 0.559832 0.917349
O O17 0.000000 0.500000 0.000000
#
# Coordination Sequence:
#
# PCOD9049201 Si02
#       8
#     2   2   2   2   2   2   2   2
#     4  11  21  41  67  90 125 169 217 258 311 374
#     4  10  24  46  70  89 129 168 207 257 334 377
#     4  11  23  46  70  96 128 163 207 266 322 385
#     4  12  25  42  62 100 131 162 215 265 312 375
#     4  11  22  41  64  90 131 172 213 259 310 370
#     4  11  24  40  64  92 131 174 210 259 316 366
#     4  11  23  44  66  97 125 168 212 264 312 385
#     4  11  19  40  66  89 121 171 220 255 306 373
#
# _framework density 22.586069999999999
#
# number of rings (size 3 to 8) (size 9 to 14) (size 15 to 20)
#    0.000    1.000    5.000    2.625    0.000    1.500 
#    6.750    1.250    0.000    0.000    0.000    0.000 
#    0.000    0.000    0.000    0.000    0.000    0.000 
#
# Total GULP energy -89479.882112 kJ/mol
# GULP energy per Si atom -5592.492632 kJ/mol
# Density = 2.253466 g / cm^3
# Si number density = 22.586070 Si / 1000 Ang^3
#
#
#
# Elastic Constant Matrix: (Units=GPa)
#
#
# Indices 1 2 3 4 5 6 
#
# 1 81.9103 26.7339 36.6588 25.0284 -1.6320 32.0325
# 2 26.7339 61.5746 19.9922 5.0477 -0.0626 15.4176
# 3 36.6588 19.9922 106.9811 12.5839 4.0357 15.9010
# 4 25.0284 5.0477 12.5839 24.0006 -0.7406 8.4912
# 5 -1.6320 -0.0626 4.0357 -0.7406 44.5595 -7.6820
# 6 32.0325 15.4176 15.9010 8.4912 -7.6820 40.5597
#
#
#
# Elastic Compliance Matrix: (Units=1/GPa)
#
#
# Indices 1 2 3 4 5 6 
#
# 1 0.027460 -0.005474 -0.003824 -0.020544 -0.001424 -0.014076
# 2 -0.005474 0.019718 -0.001717 0.003634 -0.000536 -0.003362
# 3 -0.003824 -0.001717 0.011295 -0.001359 -0.001312 -0.000719
# 4 -0.020544 0.003634 -0.001359 0.062172 0.000844 0.002520
# 5 -0.001424 -0.000536 -0.001312 0.000844 0.023579 0.006132
# 6 -0.014076 -0.003362 -0.000719 0.002520 0.006132 0.037965
#
#
# Mechanical properties :
#
#
# Convention : Reuss Voigt Hill
#
# Bulk Modulus (GPa) = 27.43983 46.35952 36.89967
# Shear Modulus (GPa) = 23.10903 32.96269 28.03586
#
# Velocity S-wave (km/s) = 3.20215 3.82439 3.52702
# Velocity P-wave (km/s) = 5.08400 6.33021 5.74102
#
# Compressibility (1/GPa) = 0.03644338
#
# Stress axis : x y z
#
# Youngs Moduli (GPa) = 36.41650 50.71623 88.53480
#
# Poissons Ratio (x) = 0.27760 0.33860
# Poissons Ratio (y) = 0.19933 0.15199
# Poissons Ratio (z) = 0.13927 0.08706
#
# Static dielectric constant tensor:
#      x y z
#    x 1.866820 -0.021960 -0.000340 
#    y -0.021960 1.859410 -0.015960 
#    z -0.000340 -0.015960 1.833670 
# 
# From -- ./inp_files/52503.got.cif
#   From: 2010.05.17/outbox.cif.g08.bks.cpg/sg2_27_cif.got.tgz:52503.got - 2010.06.03 11:33:40.
