data_PCOD9049897
_publ_section_title
;
Structure prediction by ZEFSAII (Michael W. Deem and Ramdas Pophale) SiO2 
 PCOD9049897
Probable space group: P -1
;
_chemical_formula_sum "Si O2"
_cell_formula_units_Z 10
_cell_length_a 8.622464
_cell_length_b 7.667559
_cell_length_c 10.824643
_cell_angle_alpha 137.382184
_cell_angle_beta 106.425715
_cell_angle_gamma 54.736001
_cell_volume 382.362792
_symmetry_space_group_name_H-M "P -1"
_symmetry_group_IT_number 2
_symmetry_cell_setting 'triclinic'
loop_
_space_group_symop_operation_xyz
x,y,z
-x,-y,-z
loop_
_atom_site_type_symbol
_atom_site_label
_atom_site_fract_x
_atom_site_fract_y
_atom_site_fract_z
Si Si1 0.272550 0.215756 0.019354
Si Si2 0.929503 0.780502 0.384703
Si Si3 0.178767 0.708030 0.740481
Si Si4 0.776131 0.845728 0.660426
Si Si5 0.336304 0.360571 0.856783
O O1 0.256567 0.440899 0.021480
O O2 0.212545 0.973502 0.852945
O O3 0.118646 0.445666 0.208302
O O4 0.500000 0.000000 0.000000
O O5 0.848315 0.827956 0.528357
O O6 0.744340 0.853399 0.302712
O O7 0.000000 0.000000 0.500000
O O8 0.251239 0.441494 0.510230
O O9 0.272051 0.564168 0.822117
O O10 0.949634 0.836013 0.765994
O O11 0.570185 0.155376 0.808583
#
# Coordination Sequence:
#
# PCOD9049897 Si02
#       5
#     2   2   2   2   2
#     4  12  30  47  75 116 153 201 253 311 378 450
#     4  11  25  50  75 110 158 199 250 314 380 451
#     4  10  24  50  75 107 159 190 255 307 380 443
#     4  10  24  47  81 111 146 204 249 313 380 448
#     4  11  26  49  78 110 149 201 252 310 383 442
#
# _framework density 26.153172999999999
#
# number of rings (size 3 to 8) (size 9 to 14) (size 15 to 20)
#    0.000    1.200    0.000    4.200   14.000    4.800 
#    0.000    0.000    0.000    0.000    0.000    0.000 
#    0.000    0.000    0.000    0.000    0.000    0.000 
#
# Total GULP energy -55881.504813 kJ/mol
# GULP energy per Si atom -5588.150481 kJ/mol
# Density = 2.609365 g / cm^3
# Si number density = 26.153173 Si / 1000 Ang^3
#
#
#
# Elastic Constant Matrix: (Units=GPa)
#
#
# Indices 1 2 3 4 5 6 
#
# 1 146.6048 55.2062 42.0427 7.9425 -8.0887 -12.6245
# 2 55.2062 113.4760 22.6009 -9.4110 -7.9663 -17.8914
# 3 42.0427 22.6009 103.8288 11.7865 2.2761 0.7602
# 4 7.9425 -9.4110 11.7865 33.9926 7.7613 -4.4188
# 5 -8.0887 -7.9663 2.2761 7.7613 50.6288 -1.7377
# 6 -12.6245 -17.8914 0.7602 -4.4188 -1.7377 69.9322
#
#
#
# Elastic Compliance Matrix: (Units=1/GPa)
#
#
# Indices 1 2 3 4 5 6 
#
# 1 0.009381 -0.004072 -0.002646 -0.002651 0.001402 0.000548
# 2 -0.004072 0.011988 -0.001564 0.005018 0.000629 0.002682
# 3 -0.002646 -0.001564 0.011500 -0.003819 -0.000644 -0.001260
# 4 -0.002651 0.005018 -0.003819 0.034178 -0.004602 0.002892
# 5 0.001402 0.000629 -0.000644 -0.004602 0.020831 0.000648
# 6 0.000548 0.002682 -0.001260 0.002892 0.000648 0.015297
#
#
# Mechanical properties :
#
#
# Convention : Reuss Voigt Hill
#
# Bulk Modulus (GPa) = 61.32852 67.06766 64.19809
# Shear Modulus (GPa) = 39.94428 47.18137 43.56283
#
# Velocity S-wave (km/s) = 3.91233 4.25201 4.08570
# Velocity P-wave (km/s) = 6.62640 7.05733 6.84526
#
# Compressibility (1/GPa) = 0.01630563
#
# Stress axis : x y z
#
# Youngs Moduli (GPa) = 106.59288 83.41685 86.95673
#
# Poissons Ratio (x) = 0.33968 0.23011
# Poissons Ratio (y) = 0.43405 0.13597
# Poissons Ratio (z) = 0.28207 0.13043
#
# Static dielectric constant tensor:
#      x y z
#    x 2.031890 0.059020 0.114200 
#    y 0.059020 2.243280 0.076190 
#    z 0.114200 0.076190 2.164120 
# 
# From -- ./inp_files/375307.got.cif
#   From: 2010.05.17/outbox.cif.g08.bks.cpg/sg2_188_cif.got.tgz:375307.got - 2010.06.03 11:33:40.
