data_PCOD9049912
_publ_section_title
;
Structure prediction by ZEFSAII (Michael W. Deem and Ramdas Pophale) SiO2 
 PCOD9049912
Probable space group: P -1
;
_chemical_formula_sum "Si O2"
_cell_formula_units_Z 12
_cell_length_a 8.031105
_cell_length_b 11.783858
_cell_length_c 5.113825
_cell_angle_alpha 86.461302
_cell_angle_beta 84.023745
_cell_angle_gamma 102.596835
_cell_volume 467.962211
_symmetry_space_group_name_H-M "P -1"
_symmetry_group_IT_number 2
_symmetry_cell_setting 'triclinic'
loop_
_space_group_symop_operation_xyz
x,y,z
-x,-y,-z
loop_
_atom_site_type_symbol
_atom_site_label
_atom_site_fract_x
_atom_site_fract_y
_atom_site_fract_z
Si Si1 0.706172 0.493868 0.571042
Si Si2 0.487450 0.128703 0.395841
Si Si3 0.114223 0.126167 0.432248
Si Si4 0.922410 0.664503 0.870923
Si Si5 0.275674 0.653830 0.933504
Si Si6 0.650013 0.709899 0.268185
O O1 0.881307 0.569829 0.660916
O O2 0.731383 0.425141 0.314380
O O3 0.615722 0.599814 0.489993
O O4 0.636920 0.402912 0.834119
O O5 0.301074 0.118159 0.290551
O O6 0.625806 0.215442 0.182284
O O7 0.474568 0.205107 0.648570
O O8 0.500000 0.000000 0.500000
O O9 0.018745 0.206503 0.272200
O O10 0.171909 0.199133 0.675420
O O11 0.000000 0.000000 0.500000
O O12 0.076089 0.647104 0.030595
O O13 0.731265 0.660284 0.013458
#
# Coordination Sequence:
#
# PCOD9049912 Si02
#       6
#     2   2   2   2   2   2
#     4  11  24  43  71 106 144 182 232 277 351 418
#     4  10  24  48  66 104 139 183 236 293 347 409
#     4   9  21  42  69  92 137 183 232 277 345 412
#     4  11  22  43  69 105 138 184 237 279 343 420
#     4  12  26  41  75 105 144 181 228 292 345 405
#     4   9  23  42  70  99 140 179 235 279 347 411
#
# _framework density 25.643094000000001
#
# number of rings (size 3 to 8) (size 9 to 14) (size 15 to 20)
#    1.000    0.667    1.667    2.000    4.667    3.333 
#    0.000    1.667    0.000    0.000    0.000    0.000 
#    0.000    0.000    0.000    0.000    0.000    0.000 
#
# Total GULP energy -66938.803613 kJ/mol
# GULP energy per Si atom -5578.233634 kJ/mol
# Density = 2.558473 g / cm^3
# Si number density = 25.643094 Si / 1000 Ang^3
#
#
#
# Elastic Constant Matrix: (Units=GPa)
#
#
# Indices 1 2 3 4 5 6 
#
# 1 76.0246 22.2682 19.9298 -9.4833 0.7496 -26.4894
# 2 22.2682 218.8798 54.1904 -39.8890 -5.9799 -14.7349
# 3 19.9298 54.1904 127.3354 -6.6983 3.4980 -23.1051
# 4 -9.4833 -39.8890 -6.6983 38.0732 -6.9069 -0.5652
# 5 0.7496 -5.9799 3.4980 -6.9069 34.9459 -14.5936
# 6 -26.4894 -14.7349 -23.1051 -0.5652 -14.5936 36.1948
#
#
#
# Elastic Compliance Matrix: (Units=1/GPa)
#
#
# Indices 1 2 3 4 5 6 
#
# 1 0.020525 0.000928 0.000073 0.008089 0.009395 0.019359
# 2 0.000928 0.006826 -0.002001 0.007939 0.004665 0.004185
# 3 0.000073 -0.002001 0.009730 -0.000073 0.001134 0.005906
# 4 0.008089 0.007939 -0.000073 0.039680 0.015747 0.016074
# 5 0.009395 0.004665 0.001134 0.015747 0.043626 0.027334
# 6 0.019359 0.004185 0.005906 0.016074 0.027334 0.058543
#
#
# Mechanical properties :
#
#
# Convention : Reuss Voigt Hill
#
# Bulk Modulus (GPa) = 28.50642 68.33518 48.42080
# Shear Modulus (GPa) = 25.95738 43.56621 34.76180
#
# Velocity S-wave (km/s) = 3.18505 4.12630 3.68584
# Velocity P-wave (km/s) = 4.96657 7.02910 6.08584
#
# Compressibility (1/GPa) = 0.03507982
#
# Stress axis : x y z
#
# Youngs Moduli (GPa) = 48.72214 146.50344 102.77321
#
# Poissons Ratio (x) = -0.13594 -0.00750
# Poissons Ratio (y) = -0.04521 0.20567
# Poissons Ratio (z) = -0.00355 0.29318
#
# Static dielectric constant tensor:
#      x y z
#    x 2.227360 0.104260 -0.035810 
#    y 0.104260 2.025880 -0.026380 
#    z -0.035810 -0.026380 2.198520 
# 
# From -- ./inp_files/24154.got.cif
#   From: 2010.05.17/outbox.cif.g08.bks.cpg/sg2_13_cif.got.tgz:24154.got - 2010.06.03 11:33:40.
