data_PCOD9049464
_publ_section_title
;
Structure prediction by ZEFSAII (Michael W. Deem and Ramdas Pophale) SiO2 
 PCOD9049464
Probable space group: P -1
;
_chemical_formula_sum "Si O2"
_cell_formula_units_Z 14
_cell_length_a 14.959481
_cell_length_b 10.816817
_cell_length_c 5.799750
_cell_angle_alpha 62.434507
_cell_angle_beta 90.000000
_cell_angle_gamma 133.748311
_cell_volume 520.573626
_symmetry_space_group_name_H-M "P -1"
_symmetry_group_IT_number 2
_symmetry_cell_setting 'triclinic'
loop_
_space_group_symop_operation_xyz
x,y,z
-x,-y,-z
loop_
_atom_site_type_symbol
_atom_site_label
_atom_site_fract_x
_atom_site_fract_y
_atom_site_fract_z
Si Si1 0.880547 0.302768 0.342671
Si Si2 0.975485 0.759916 0.333542
Si Si3 0.577779 0.697232 0.157329
Si Si4 0.784431 0.759916 0.833542
Si Si5 0.183727 0.000000 0.750000
Si Si6 0.684748 0.324361 0.330413
Si Si7 0.639612 0.324361 0.830413
O O1 0.785834 0.317079 0.402099
O O2 0.965555 0.317021 0.515364
O O3 0.796006 0.085261 0.380354
O O4 0.000000 0.500000 0.000000
O O5 0.809229 0.562393 0.572749
O O6 0.074800 1.000000 0.250000
O O7 0.027039 0.820115 0.016972
O O8 0.500000 0.500000 0.500000
O O9 0.710745 0.914739 0.119646
O O10 0.468754 0.682921 0.097901
O O11 0.648535 0.682979 0.984636
O O12 0.793076 0.820115 0.516972
O O13 0.753164 0.562393 0.072748
O O14 0.594007 0.228749 0.649978
O O15 0.634742 0.228749 0.149978
#
# Coordination Sequence:
#
# PCOD9049464 Si02
#       7
#     2   2   2   2   2   2   2
#     4  11  23  47  73 105 151 198 247 309 375 446
#     4  10  24  46  74 110 147 192 251 311 377 442
#     4  11  23  47  73 105 151 198 247 309 375 446
#     4  10  24  46  74 110 147 192 251 311 377 442
#     4  10  24  46  76 104 152 200 248 304 376 448
#     4  12  27  44  73 112 146 194 247 308 374 440
#     4  12  27  44  73 112 146 194 247 308 374 440
#
# _framework density 26.893414
#
# number of rings (size 3 to 8) (size 9 to 14) (size 15 to 20)
#    0.000    1.143    2.857    1.714    8.000    3.429 
#    2.571    1.429    0.000    0.000    0.000    0.000 
#    0.000    0.000    0.000    0.000    0.000    0.000 
#
# Total GULP energy -78284.708251 kJ/mol
# GULP energy per Si atom -5591.764875 kJ/mol
# Density = 2.683220 g / cm^3
# Si number density = 26.893414 Si / 1000 Ang^3
#
#
#
# Elastic Constant Matrix: (Units=GPa)
#
#
# Indices 1 2 3 4 5 6 
#
# 1 227.6954 47.7190 42.3512 5.6862 -0.9091 1.1302
# 2 47.7190 116.0233 14.9752 -0.1119 -0.4482 0.2629
# 3 42.3512 14.9752 151.6803 26.5270 -0.1764 0.7137
# 4 5.6862 -0.1119 26.5270 34.0038 0.4238 -0.0901
# 5 -0.9091 -0.4482 -0.1764 0.4238 46.8132 -4.3620
# 6 1.1302 0.2629 0.7137 -0.0901 -4.3620 44.5050
#
#
#
# Elastic Compliance Matrix: (Units=1/GPa)
#
#
# Indices 1 2 3 4 5 6 
#
# 1 0.005018 -0.001904 -0.001233 0.000115 0.000065 -0.000090
# 2 -0.001904 0.009472 -0.000538 0.000769 0.000045 0.000007
# 3 -0.001233 -0.000538 0.008054 -0.006079 0.000047 -0.000102
# 4 0.000115 0.000769 -0.006079 0.034139 -0.000310 0.000129
# 5 0.000065 0.000045 0.000047 -0.000310 0.021563 0.002110
# 6 -0.000090 0.000007 -0.000102 0.000129 0.002110 0.022680
#
#
# Mechanical properties :
#
#
# Convention : Reuss Voigt Hill
#
# Bulk Modulus (GPa) = 65.81285 78.38774 72.10030
# Shear Modulus (GPa) = 44.11471 51.08795 47.60133
#
# Velocity S-wave (km/s) = 4.05452 4.36322 4.21170
# Velocity P-wave (km/s) = 6.81496 7.38880 7.10768
#
# Compressibility (1/GPa) = 0.01519460
#
# Stress axis : x y z
#
# Youngs Moduli (GPa) = 199.28189 105.56927 124.16354
#
# Poissons Ratio (x) = 0.20102 0.15306
# Poissons Ratio (y) = 0.37947 0.06679
# Poissons Ratio (z) = 0.24567 0.05679
#
# Static dielectric constant tensor:
#      x y z
#    x 2.039680 -0.005220 0.002220 
#    y -0.005220 2.388170 -0.074170 
#    z 0.002220 -0.074170 2.162710 
# 
# From -- ./inp_files/94470.got.cif
#   From: 2010.05.17/outbox.cif.g08.bks.cpg/sg2_48_cif.got.tgz:94470.got - 2010.06.03 11:33:40.
