data_PCOD9049983
_publ_section_title
;
Structure prediction by ZEFSAII (Michael W. Deem and Ramdas Pophale) SiO2 
 PCOD9049983
Probable space group: P -1
;
_chemical_formula_sum "Si O2"
_cell_formula_units_Z 14
_cell_length_a 5.605410
_cell_length_b 22.018772
_cell_length_c 8.773591
_cell_angle_alpha 41.909487
_cell_angle_beta 93.151560
_cell_angle_gamma 117.364803
_cell_volume 562.128485
_symmetry_space_group_name_H-M "P -1"
_symmetry_group_IT_number 2
_symmetry_cell_setting 'triclinic'
loop_
_space_group_symop_operation_xyz
x,y,z
-x,-y,-z
loop_
_atom_site_type_symbol
_atom_site_label
_atom_site_fract_x
_atom_site_fract_y
_atom_site_fract_z
Si Si1 0.178424 0.371847 0.060427
Si Si2 0.832019 0.627818 0.596851
Si Si3 0.388830 0.068053 0.800100
Si Si4 0.259588 0.179768 0.819353
Si Si5 0.684077 0.922004 0.731067
Si Si6 0.874139 0.571667 0.373886
Si Si7 0.210192 0.862342 0.585114
O O1 0.054286 0.364080 0.240591
O O2 0.128761 0.251861 0.255881
O O3 0.515244 0.494403 0.837323
O O4 0.026399 0.367655 0.903531
O O5 0.772683 0.722612 0.404654
O O6 0.981638 0.635629 0.424535
O O7 0.453779 0.166781 0.731787
O O8 0.565609 0.133909 0.530223
O O9 0.500000 0.000000 0.000000
O O10 0.051599 0.953814 0.956435
O O11 0.351870 0.182465 0.991746
O O12 0.366826 0.876423 0.724944
O O13 0.744584 0.020945 0.660561
O O14 0.000000 0.000000 0.500000
O O15 0.500000 0.500000 0.500000
O O16 0.000000 0.500000 0.500000
#
# Coordination Sequence:
#
# PCOD9049983 Si02
#       7
#     2   2   2   2   2   2   2
#     4  10  24  48  71 107 152 191 248 309 378 453
#     4  10  24  48  75 107 147 199 247 310 380 457
#     4  11  22  42  65 100 139 181 236 305 365 432
#     4  11  24  43  71 100 141 184 245 300 368 449
#     4  11  24  42  68 102 141 189 236 304 381 436
#     4  10  24  50  76 106 150 202 258 312 374 452
#     4  11  24  43  67 103 140 186 242 302 373 452
#
# _framework density 24.905339000000001
#
# number of rings (size 3 to 8) (size 9 to 14) (size 15 to 20)
#    0.000    1.429    2.857    0.857    4.000    2.857 
#   23.143    0.000    0.000    0.000    0.000    0.000 
#    0.000    0.000    0.000    0.000    0.000    0.000 
#
# Total GULP energy -77983.515530 kJ/mol
# GULP energy per Si atom -5570.251109 kJ/mol
# Density = 2.484865 g / cm^3
# Si number density = 24.905339 Si / 1000 Ang^3
#
#
#
# Elastic Constant Matrix: (Units=GPa)
#
#
# Indices 1 2 3 4 5 6 
#
# 1 69.6235 31.9942 28.6127 1.3369 10.5858 -13.2060
# 2 31.9942 168.1926 71.8090 8.5790 5.4716 -17.8214
# 3 28.6127 71.8090 117.8470 11.6571 -2.6046 2.0070
# 4 1.3369 8.5790 11.6571 63.7224 7.9940 -7.5015
# 5 10.5858 5.4716 -2.6046 7.9940 33.3898 -3.1240
# 6 -13.2060 -17.8214 2.0070 -7.5015 -3.1240 41.1821
#
#
#
# Elastic Compliance Matrix: (Units=1/GPa)
#
#
# Indices 1 2 3 4 5 6 
#
# 1 0.018533 -0.000991 -0.004317 0.001948 -0.005990 0.005625
# 2 -0.000991 0.008789 -0.005246 0.000395 -0.001282 0.003716
# 3 -0.004317 -0.005246 0.013137 -0.002569 0.003447 -0.004501
# 4 0.001948 0.000395 -0.002569 0.017083 -0.004628 0.003682
# 5 -0.005990 -0.001282 0.003447 -0.004628 0.033346 -0.000957
# 6 0.005625 0.003716 -0.004501 0.003682 -0.000957 0.028512
#
#
# Mechanical properties :
#
#
# Convention : Reuss Voigt Hill
#
# Bulk Modulus (GPa) = 51.67400 68.94387 60.30894
# Shear Modulus (GPa) = 34.02383 42.54201 38.28292
#
# Velocity S-wave (km/s) = 3.70012 4.13746 3.92489
# Velocity P-wave (km/s) = 6.24882 7.11106 6.69384
#
# Compressibility (1/GPa) = 0.01935209
#
# Stress axis : x y z
#
# Youngs Moduli (GPa) = 53.95912 113.77939 76.12104
#
# Poissons Ratio (x) = 0.11273 0.32859
# Poissons Ratio (y) = 0.05346 0.39930
# Poissons Ratio (z) = 0.23293 0.59685
#
# Static dielectric constant tensor:
#      x y z
#    x 2.230660 0.063980 -0.073620 
#    y 0.063980 2.080260 0.015490 
#    z -0.073620 0.015490 2.080190 
# 
# From -- ./inp_files/106603.got.cif
#   From: 2010.05.17/outbox.cif.g08.bks.cpg/sg2_54_cif.got.tgz:106603.got - 2010.06.03 11:33:40.
