data_PCOD9049676
_publ_section_title
;
Structure prediction by ZEFSAII (Michael W. Deem and Ramdas Pophale) SiO2 
 PCOD9049676
Probable space group: P -1
;
_chemical_formula_sum "Si O2"
_cell_formula_units_Z 12
_cell_length_a 12.898351
_cell_length_b 11.225868
_cell_length_c 9.070290
_cell_angle_alpha 151.123584
_cell_angle_beta 54.325835
_cell_angle_gamma 135.657500
_cell_volume 439.673196
_symmetry_space_group_name_H-M "P -1"
_symmetry_group_IT_number 2
_symmetry_cell_setting 'triclinic'
loop_
_space_group_symop_operation_xyz
x,y,z
-x,-y,-z
loop_
_atom_site_type_symbol
_atom_site_label
_atom_site_fract_x
_atom_site_fract_y
_atom_site_fract_z
Si Si1 0.612782 0.816812 0.673420
Si Si2 0.421683 0.462851 0.873341
Si Si3 0.069374 0.998910 0.100469
Si Si4 0.815603 0.427722 0.735180
Si Si5 0.348481 0.971443 0.834613
Si Si6 0.095747 0.810220 0.337472
O O1 0.500000 0.500000 0.500000
O O2 0.548035 0.733980 0.472459
O O3 0.788668 0.957354 0.627670
O O4 0.630757 0.052047 0.033176
O O5 0.500000 0.500000 0.000000
O O6 0.253453 0.380010 0.951310
O O7 0.494280 0.781522 0.090276
O O8 0.243906 0.115809 0.076134
O O9 0.020340 0.135950 0.417569
O O10 0.990905 0.656292 0.823440
O O11 0.000000 0.000000 0.000000
O O12 0.733737 0.277298 0.487932
O O13 0.805388 0.218785 0.646227
O O14 0.000000 0.500000 0.000000
#
# Coordination Sequence:
#
# PCOD9049676 Si02
#       6
#     2   2   2   2   2   2
#     4  10  24  47  71 103 149 190 241 302 364 427
#     4  11  23  47  72  98 144 193 241 302 364 424
#     4  12  25  45  73 106 153 186 245 308 362 437
#     4  12  25  46  75 104 145 192 252 297 365 440
#     4  11  24  42  71 106 140 192 240 296 364 437
#     4  12  27  46  77 112 145 196 246 302 370 434
#
# _framework density 27.292998999999998
#
# number of rings (size 3 to 8) (size 9 to 14) (size 15 to 20)
#    0.000    0.667    3.333    4.000    4.667    1.333 
#    0.000    4.167    0.000    0.000    0.000    0.000 
#    0.000    0.000    0.000    0.000    0.000    0.000 
#
# Total GULP energy -67029.161970 kJ/mol
# GULP energy per Si atom -5585.763497 kJ/mol
# Density = 2.723088 g / cm^3
# Si number density = 27.292999 Si / 1000 Ang^3
#
#
#
# Elastic Constant Matrix: (Units=GPa)
#
#
# Indices 1 2 3 4 5 6 
#
# 1 109.9493 13.3719 35.3478 -17.5453 20.2812 -13.8103
# 2 13.3719 134.9560 40.1808 -4.1557 4.7353 -1.2188
# 3 35.3478 40.1808 212.8596 -43.5567 35.7456 -6.8298
# 4 -17.5453 -4.1557 -43.5567 49.7724 -3.5833 11.8588
# 5 20.2812 4.7353 35.7456 -3.5833 59.8652 -9.0355
# 6 -13.8103 -1.2188 -6.8298 11.8588 -9.0355 49.9936
#
#
#
# Elastic Compliance Matrix: (Units=1/GPa)
#
#
# Indices 1 2 3 4 5 6 
#
# 1 0.010488 -0.000677 -0.000581 0.002528 -0.002744 0.001706
# 2 -0.000677 0.007929 -0.001689 -0.001044 0.000567 0.000126
# 3 -0.000581 -0.001689 0.006841 0.005683 -0.003605 -0.001267
# 4 0.002528 -0.001044 0.005683 0.026948 -0.003393 -0.005556
# 5 -0.002744 0.000567 -0.003605 -0.003393 0.020019 0.003186
# 6 0.001706 0.000126 -0.001267 -0.005556 0.003186 0.022198
#
#
# Mechanical properties :
#
#
# Convention : Reuss Voigt Hill
#
# Bulk Modulus (GPa) = 51.64193 70.61843 61.13018
# Shear Modulus (GPa) = 46.82886 56.51723 51.67305
#
# Velocity S-wave (km/s) = 4.14669 4.55550 4.35589
# Velocity P-wave (km/s) = 6.47218 7.32123 6.90976
#
# Compressibility (1/GPa) = 0.01936411
#
# Stress axis : x y z
#
# Youngs Moduli (GPa) = 95.34683 126.12131 146.17800
#
# Poissons Ratio (x) = 0.08534 0.08494
# Poissons Ratio (y) = 0.06452 0.24692
# Poissons Ratio (z) = 0.05541 0.21304
#
# Static dielectric constant tensor:
#      x y z
#    x 2.213010 -0.088110 -0.014370 
#    y -0.088110 2.178480 -0.009730 
#    z -0.014370 -0.009730 2.129700 
# 
# From -- ./inp_files/21710.got.cif
#   From: 2010.05.17/outbox.cif.g08.bks.cpg/sg2_11_cif.got.tgz:21710.got - 2010.06.03 11:33:40.
