data_PCOD9049330
_publ_section_title
;
Structure prediction by ZEFSAII (Michael W. Deem and Ramdas Pophale) SiO2 
 PCOD9049330
Probable space group: P -1
;
_chemical_formula_sum "Si O2"
_cell_formula_units_Z 12
_cell_length_a 13.466125
_cell_length_b 9.454823
_cell_length_c 13.457068
_cell_angle_alpha 33.288127
_cell_angle_beta 31.103365
_cell_angle_gamma 48.447571
_cell_volume 477.399255
_symmetry_space_group_name_H-M "P -1"
_symmetry_group_IT_number 2
_symmetry_cell_setting 'triclinic'
loop_
_space_group_symop_operation_xyz
x,y,z
-x,-y,-z
loop_
_atom_site_type_symbol
_atom_site_label
_atom_site_fract_x
_atom_site_fract_y
_atom_site_fract_z
Si Si1 0.849908 0.690426 0.545805
Si Si2 0.771006 0.409387 0.272876
Si Si3 0.221258 0.020953 0.012795
Si Si4 0.447938 0.142216 0.560883
Si Si5 0.204159 0.081812 0.332469
Si Si6 0.610138 0.390245 0.770553
O O1 0.819683 0.735574 0.659940
O O2 0.653138 0.570148 0.727909
O O3 0.000000 0.500000 0.500000
O O4 0.986868 0.961402 0.234285
O O5 0.704727 0.676801 0.204321
O O6 0.647453 0.275795 0.364716
O O7 0.744238 0.186357 0.511146
O O8 0.000000 0.500000 0.000000
O O9 0.324877 0.961753 0.856454
O O10 0.276816 0.845477 0.160101
O O11 0.332788 0.380588 0.493455
O O12 0.500000 0.000000 0.500000
O O13 0.390318 0.246915 0.021075
O O14 0.000000 0.000000 0.500000
#
# Coordination Sequence:
#
# PCOD9049330 Si02
#       6
#     2   2   2   2   2   2
#     4  10  24  46  72 105 148 193 239 303 365 431
#     4  12  25  50  72 105 153 188 247 307 363 440
#     4  11  26  49  75 105 153 194 244 307 366 435
#     4  12  28  46  76 111 145 196 249 302 366 439
#     4  12  25  46  78 108 146 195 248 305 367 439
#     4  11  26  47  76 105 151 193 246 296 376 432
#
# _framework density 25.136195000000001
#
# number of rings (size 3 to 8) (size 9 to 14) (size 15 to 20)
#    0.000    0.667    3.333    3.000    4.667    4.000 
#    0.000    0.000    0.000    0.000    0.000    0.000 
#    0.000    0.000    0.000    0.000    0.000    0.000 
#
# Total GULP energy -67092.075403 kJ/mol
# GULP energy per Si atom -5591.006284 kJ/mol
# Density = 2.507898 g / cm^3
# Si number density = 25.136195 Si / 1000 Ang^3
#
#
#
# Elastic Constant Matrix: (Units=GPa)
#
#
# Indices 1 2 3 4 5 6 
#
# 1 134.2324 32.5158 19.8021 -24.5026 -18.7848 4.3859
# 2 32.5158 107.3790 -1.1113 -20.5253 5.9085 0.7867
# 3 19.8021 -1.1113 85.5469 -13.9282 -13.3319 -5.2121
# 4 -24.5026 -20.5253 -13.9282 43.8276 -0.4165 3.7139
# 5 -18.7848 5.9085 -13.3319 -0.4165 52.9595 -24.9222
# 6 4.3859 0.7867 -5.2121 3.7139 -24.9222 47.4579
#
#
#
# Elastic Compliance Matrix: (Units=1/GPa)
#
#
# Indices 1 2 3 4 5 6 
#
# 1 0.009342 -0.002319 -0.000952 0.003808 0.003699 0.000715
# 2 -0.002319 0.010982 0.000886 0.004233 -0.002506 -0.001518
# 3 -0.000952 0.000886 0.013530 0.003909 0.004768 0.003757
# 4 0.003808 0.004233 0.003909 0.028309 0.001389 -0.001479
# 5 0.003699 -0.002506 0.004768 0.001389 0.028875 0.015278
# 6 0.000715 -0.001518 0.003757 -0.001479 0.015278 0.029582
#
#
# Mechanical properties :
#
#
# Convention : Reuss Voigt Hill
#
# Bulk Modulus (GPa) = 34.38604 47.73018 41.05811
# Shear Modulus (GPa) = 37.01356 47.24578 42.12967
#
# Velocity S-wave (km/s) = 3.84151 4.34013 4.09841
# Velocity P-wave (km/s) = 5.77805 6.64421 6.22621
#
# Compressibility (1/GPa) = 0.02908157
#
# Stress axis : x y z
#
# Youngs Moduli (GPa) = 107.04887 91.05443 73.91021
#
# Poissons Ratio (x) = 0.21120 0.07040
# Poissons Ratio (y) = 0.24829 -0.06546
# Poissons Ratio (z) = 0.10196 -0.08065
#
# Static dielectric constant tensor:
#      x y z
#    x 2.029890 -0.041500 0.009330 
#    y -0.041500 2.171300 -0.071850 
#    z 0.009330 -0.071850 2.010670 
# 
# From -- ./inp_files/295799.got.cif
#   From: 2010.05.17/outbox.cif.g08.bks.cpg/sg2_148_cif.got.tgz:295799.got - 2010.06.03 11:33:40.
