data_PCOD9049729
_publ_section_title
;
Structure prediction by ZEFSAII (Michael W. Deem and Ramdas Pophale) SiO2 
 PCOD9049729
Probable space group: P -1
;
_chemical_formula_sum "Si O2"
_cell_formula_units_Z 14
_cell_length_a 24.736322
_cell_length_b 5.148987
_cell_length_c 15.040053
_cell_angle_alpha 84.088042
_cell_angle_beta 20.514335
_cell_angle_gamma 93.452965
_cell_volume 596.465872
_symmetry_space_group_name_H-M "P -1"
_symmetry_group_IT_number 2
_symmetry_cell_setting 'triclinic'
loop_
_space_group_symop_operation_xyz
x,y,z
-x,-y,-z
loop_
_atom_site_type_symbol
_atom_site_label
_atom_site_fract_x
_atom_site_fract_y
_atom_site_fract_z
Si Si1 0.399190 0.800654 0.833084
Si Si2 0.999341 0.190160 0.259847
Si Si3 0.235917 0.967542 0.645977
Si Si4 0.690613 0.666227 0.662495
Si Si5 0.938179 0.532502 0.200638
Si Si6 0.655794 0.718215 0.193624
Si Si7 0.912679 0.207284 0.589732
O O1 0.338373 0.478501 0.893969
O O2 0.594669 0.919890 0.560425
O O3 0.382610 0.012529 0.778502
O O4 0.287030 0.861850 0.081381
O O5 0.045617 0.406974 0.097062
O O6 0.954439 0.283599 0.420119
O O7 0.826873 0.905255 0.509063
O O8 0.166758 0.152515 0.029645
O O9 0.163010 0.645624 0.724328
O O10 0.288562 0.181750 0.472192
O O11 0.064033 0.874848 0.975296
O O12 0.778385 0.456925 0.516139
O O13 0.500000 0.500000 0.000000
O O14 0.500000 0.500000 0.500000
O O15 0.000000 0.500000 0.500000
O O16 0.000000 0.000000 0.500000
#
# Coordination Sequence:
#
# PCOD9049729 Si02
#       7
#     2   2   2   2   2   2   2
#     4  12  26  45  74 106 145 193 239 303 366 445
#     4  11  26  44  72 104 143 190 242 305 366 441
#     4  10  25  46  71 104 138 192 244 304 369 435
#     4  11  27  43  73 105 142 190 241 311 362 446
#     4  10  24  47  72  98 142 188 247 304 369 433
#     4  12  27  46  73 110 147 192 246 299 371 442
#     4  12  25  46  69 103 148 190 239 293 367 436
#
# _framework density 23.471585999999999
#
# number of rings (size 3 to 8) (size 9 to 14) (size 15 to 20)
#    0.000    0.857    2.857    1.714   12.000    1.143 
#    0.000    0.000    0.000    0.000    0.000    0.000 
#    0.000    0.000    0.000    0.000    0.000    0.000 
#
# Total GULP energy -78060.465496 kJ/mol
# GULP energy per Si atom -5575.747535 kJ/mol
# Density = 2.341816 g / cm^3
# Si number density = 23.471586 Si / 1000 Ang^3
#
#
#
# Elastic Constant Matrix: (Units=GPa)
#
#
# Indices 1 2 3 4 5 6 
#
# 1 136.5903 32.2774 46.4709 -5.5913 -25.9272 -3.3201
# 2 32.2774 88.7235 13.3886 0.8521 -16.8523 4.1166
# 3 46.4709 13.3886 165.9103 -9.5840 -15.5994 -6.1614
# 4 -5.5913 0.8521 -9.5840 32.1744 3.4386 5.4637
# 5 -25.9272 -16.8523 -15.5994 3.4386 47.8845 2.8605
# 6 -3.3201 4.1166 -6.1614 5.4637 2.8605 23.6684
#
#
#
# Elastic Compliance Matrix: (Units=1/GPa)
#
#
# Indices 1 2 3 4 5 6 
#
# 1 0.009279 -0.002457 -0.002020 0.000600 0.003419 0.000651
# 2 -0.002457 0.012980 -0.000188 -0.000697 0.003400 -0.002901
# 3 -0.002020 -0.000188 0.006814 0.001403 0.000894 0.001091
# 4 0.000600 -0.000697 0.001403 0.032938 -0.001419 -0.006861
# 5 0.003419 0.003400 0.000894 -0.001419 0.024474 -0.002509
# 6 0.000651 -0.002901 0.001091 -0.006861 -0.002509 0.045018
#
#
# Mechanical properties :
#
#
# Convention : Reuss Voigt Hill
#
# Bulk Modulus (GPa) = 50.65171 63.94422 57.29796
# Shear Modulus (GPa) = 33.91810 40.68460 37.30135
#
# Velocity S-wave (km/s) = 3.80553 4.16788 3.99082
# Velocity P-wave (km/s) = 6.39815 7.10380 6.76019
#
# Compressibility (1/GPa) = 0.01974267
#
# Stress axis : x y z
#
# Youngs Moduli (GPa) = 107.77564 77.03967 146.75711
#
# Poissons Ratio (x) = 0.18930 0.29649
# Poissons Ratio (y) = 0.26483 0.02753
# Poissons Ratio (z) = 0.21774 0.01445
#
# Static dielectric constant tensor:
#      x y z
#    x 1.985460 -0.016900 0.115370 
#    y -0.016900 1.912230 0.039220 
#    z 0.115370 0.039220 1.995930 
# 
# From -- ./inp_files/542134.got.cif
#   From: 2010.05.17/outbox.cif.g08.bks.cpg/sg2_272_cif.got.tgz:542134.got - 2010.06.03 11:33:40.
