data_PCOD9049631
_publ_section_title
;
Structure prediction by ZEFSAII (Michael W. Deem and Ramdas Pophale) SiO2 
 PCOD9049631
Probable space group: P -1
;
_chemical_formula_sum "Si O2"
_cell_formula_units_Z 15
_cell_length_a 15.145689
_cell_length_b 15.200722
_cell_length_c 8.804581
_cell_angle_alpha 90.920555
_cell_angle_beta 88.442723
_cell_angle_gamma 18.478070
_cell_volume 636.590518
_symmetry_space_group_name_H-M "P -1"
_symmetry_group_IT_number 2
_symmetry_cell_setting 'triclinic'
loop_
_space_group_symop_operation_xyz
x,y,z
-x,-y,-z
loop_
_atom_site_type_symbol
_atom_site_label
_atom_site_fract_x
_atom_site_fract_y
_atom_site_fract_z
Si Si1 0.104834 0.046302 0.206888
Si Si2 0.329175 0.154693 0.353334
Si Si3 0.671262 0.537984 0.443346
Si Si4 0.500000 0.500000 0.500000
Si Si5 0.548454 0.487162 0.167583
Si Si6 0.205680 0.413849 0.749857
Si Si7 0.918741 0.780862 0.034050
Si Si8 0.342918 0.336155 0.249920
O O1 0.984732 0.205346 0.370143
O O2 0.877393 0.184451 0.186330
O O3 0.407025 0.717072 0.180268
O O4 0.080723 0.136699 0.074259
O O5 0.254826 0.321801 0.303631
O O6 0.032717 0.384171 0.359473
O O7 0.500000 0.000000 0.500000
O O8 0.561359 0.880467 0.240676
O O9 0.508354 0.599158 0.468759
O O10 0.633816 0.650909 0.321338
O O11 0.623929 0.635738 0.602495
O O12 0.422037 0.556937 0.321782
O O13 0.500000 0.500000 0.000000
O O14 0.032670 0.595930 0.915541
O O15 0.126489 0.590097 0.159542
O O16 0.616978 0.059370 0.129770
#
# Coordination Sequence:
#
# PCOD9049631 Si02
#       8
#     2   2   2   1   2   2   2   2
#     4  10  24  47  69  97 144 184 240 279 378 423
#     4  12  25  44  73 107 141 191 243 296 356 440
#     4  10  25  46  72 105 141 195 234 307 351 441
#     4  10  26  46  74 108 148 184 254 296 372 432
#     4  11  24  45  71 105 137 192 236 310 359 436
#     4  11  25  47  74  98 150 192 232 294 371 429
#     4  11  26  44  70 108 143 186 235 299 359 440
#     4  12  26  43  72 109 142 183 248 296 360 421
#
# _framework density 23.563029
#
# number of rings (size 3 to 8) (size 9 to 14) (size 15 to 20)
#    0.000    1.067    1.333    3.200    5.600   12.800 
#    0.000    0.000    0.000    0.000    0.000    0.000 
#    0.000    0.000    0.000    0.000    0.000    0.000 
#
# Total GULP energy -83513.862852 kJ/mol
# GULP energy per Si atom -5567.590857 kJ/mol
# Density = 2.350940 g / cm^3
# Si number density = 23.563029 Si / 1000 Ang^3
#
#
#
# Elastic Constant Matrix: (Units=GPa)
#
#
# Indices 1 2 3 4 5 6 
#
# 1 108.1493 18.0282 32.1319 7.3921 14.1682 22.3647
# 2 18.0282 60.9050 28.2882 5.9750 2.9467 3.7545
# 3 32.1319 28.2882 159.2113 23.1980 15.6702 18.3942
# 4 7.3921 5.9750 23.1980 47.2511 11.6925 1.7530
# 5 14.1682 2.9467 15.6702 11.6925 26.6946 -4.8092
# 6 22.3647 3.7545 18.3942 1.7530 -4.8092 30.1344
#
#
#
# Elastic Compliance Matrix: (Units=1/GPa)
#
#
# Indices 1 2 3 4 5 6 
#
# 1 0.013082 -0.002798 -0.000171 0.000993 -0.008902 -0.010734
# 2 -0.002798 0.018523 -0.003007 -0.000996 0.001999 0.001981
# 3 -0.000171 -0.003007 0.008198 -0.002377 -0.004257 -0.005043
# 4 0.000993 -0.000996 -0.002377 0.024948 -0.010357 -0.002266
# 5 -0.008902 0.001999 -0.004257 -0.010357 0.052224 0.017893
# 6 -0.010734 0.001981 -0.005043 -0.002266 0.017893 0.046970
#
#
# Mechanical properties :
#
#
# Convention : Reuss Voigt Hill
#
# Bulk Modulus (GPa) = 35.90567 53.90692 44.90629
# Shear Modulus (GPa) = 27.00069 37.47050 32.23560
#
# Velocity S-wave (km/s) = 3.38878 3.99209 3.70274
# Velocity P-wave (km/s) = 5.53019 6.64654 6.11389
#
# Compressibility (1/GPa) = 0.02785075
#
# Stress axis : x y z
#
# Youngs Moduli (GPa) = 76.44096 53.98802 121.98410
#
# Poissons Ratio (x) = 0.15104 0.02090
# Poissons Ratio (y) = 0.21386 0.36678
# Poissons Ratio (z) = 0.01310 0.16233
#
# Static dielectric constant tensor:
#      x y z
#    x 1.943990 -0.094990 0.046890 
#    y -0.094990 2.101270 0.210420 
#    z 0.046890 0.210420 2.186700 
# 
# From -- ./inp_files/313360.got.cif
#   From: 2010.05.17/outbox.cif.g08.bks.cpg/sg2_157_cif.got.tgz:313360.got - 2010.06.03 11:33:40.
