data_PCOD9049299
_publ_section_title
;
Structure prediction by ZEFSAII (Michael W. Deem and Ramdas Pophale) SiO2 
 PCOD9049299
Probable space group: P -1
;
_chemical_formula_sum "Si O2"
_cell_formula_units_Z 10
_cell_length_a 9.005391
_cell_length_b 11.779894
_cell_length_c 9.552963
_cell_angle_alpha 55.375234
_cell_angle_beta 149.393333
_cell_angle_gamma 109.576473
_cell_volume 394.870752
_symmetry_space_group_name_H-M "P -1"
_symmetry_group_IT_number 2
_symmetry_cell_setting 'triclinic'
loop_
_space_group_symop_operation_xyz
x,y,z
-x,-y,-z
loop_
_atom_site_type_symbol
_atom_site_label
_atom_site_fract_x
_atom_site_fract_y
_atom_site_fract_z
Si Si1 0.178693 0.422635 0.837661
Si Si2 0.526702 0.831119 0.952339
Si Si3 0.740644 0.086535 0.843845
Si Si4 0.058574 0.692515 0.704392
Si Si5 0.061868 0.285151 0.093575
O O1 0.000000 0.500000 0.500000
O O2 0.382720 0.261759 0.054838
O O3 0.292011 0.543534 0.920988
O O4 0.962612 0.395771 0.804359
O O5 0.746989 0.746531 0.319646
O O6 0.190841 0.824476 0.715347
O O7 0.594215 0.979030 0.877247
O O8 0.439317 0.211828 0.443602
O O9 0.910821 0.162278 0.031956
O O10 0.000000 0.000000 0.000000
O O11 0.017957 0.655218 0.856921
#
# Coordination Sequence:
#
# PCOD9049299 Si02
#       5
#     2   2   2   2   2
#     4  10  24  46  72 101 138 184 230 280 334 415
#     4  11  24  44  71  98 142 180 228 274 339 408
#     4  12  26  45  72 103 136 181 233 282 335 414
#     4  11  25  44  68 107 138 178 224 284 344 403
#     4  12  26  44  74 101 141 179 226 288 345 395
#
# _framework density 25.324743999999999
#
# number of rings (size 3 to 8) (size 9 to 14) (size 15 to 20)
#    0.000    0.800    2.000    4.200    2.800    8.000 
#    0.000    7.000    0.000    0.000    0.000    0.000 
#    0.000    0.000    0.000    0.000    0.000    0.000 
#
# Total GULP energy -55961.944295 kJ/mol
# GULP energy per Si atom -5596.194430 kJ/mol
# Density = 2.526710 g / cm^3
# Si number density = 25.324744 Si / 1000 Ang^3
#
#
#
# Elastic Constant Matrix: (Units=GPa)
#
#
# Indices 1 2 3 4 5 6 
#
# 1 154.2917 40.0174 48.4716 10.9743 -46.5862 -16.7957
# 2 40.0174 114.0285 21.5325 30.8471 -8.0870 -3.6840
# 3 48.4716 21.5325 92.3934 25.3470 -8.9573 -15.0643
# 4 10.9743 30.8471 25.3470 36.5369 6.7288 -5.0778
# 5 -46.5862 -8.0870 -8.9573 6.7288 47.0664 8.4019
# 6 -16.7957 -3.6840 -15.0643 -5.0778 8.4019 43.3480
#
#
#
# Elastic Compliance Matrix: (Units=1/GPa)
#
#
# Indices 1 2 3 4 5 6 
#
# 1 0.011671 -0.002488 -0.004396 -0.000116 0.010162 0.000800
# 2 -0.002488 0.012519 0.001499 -0.011337 0.001782 -0.001053
# 3 -0.004396 0.001499 0.016202 -0.010805 0.000038 0.002781
# 4 -0.000116 -0.011337 -0.010805 0.046972 -0.011359 0.002941
# 5 0.010162 0.001782 0.000038 -0.011359 0.033921 -0.003803
# 6 0.000800 -0.001053 0.002781 0.002941 -0.003803 0.025338
#
#
# Mechanical properties :
#
#
# Convention : Reuss Voigt Hill
#
# Bulk Modulus (GPa) = 33.75880 64.52851 49.14366
# Shear Modulus (GPa) = 29.89259 42.10307 35.99783
#
# Velocity S-wave (km/s) = 3.43938 4.08183 3.77430
# Velocity P-wave (km/s) = 5.39738 6.91020 6.20011
#
# Compressibility (1/GPa) = 0.02962191
#
# Stress axis : x y z
#
# Youngs Moduli (GPa) = 85.68355 79.87870 61.72259
#
# Poissons Ratio (x) = 0.19873 0.27131
# Poissons Ratio (y) = 0.21317 -0.09251
# Poissons Ratio (z) = 0.37664 -0.11972
#
# Static dielectric constant tensor:
#      x y z
#    x 2.011990 0.023000 0.035620 
#    y 0.023000 2.059450 -0.083480 
#    z 0.035620 -0.083480 1.992230 
# 
# From -- ./inp_files/20607.got.cif
#   From: 2010.05.17/outbox.cif.g08.bks.cpg/sg2_11_cif.got.tgz:20607.got - 2010.06.03 11:33:40.
