data_PCOD9049927
_publ_section_title
;
Structure prediction by ZEFSAII (Michael W. Deem and Ramdas Pophale) SiO2 
 PCOD9049927
Probable space group: P -1
;
_chemical_formula_sum "Si O2"
_cell_formula_units_Z 11
_cell_length_a 10.916400
_cell_length_b 7.251171
_cell_length_c 7.134476
_cell_angle_alpha 122.520227
_cell_angle_beta 122.141209
_cell_angle_gamma 74.875336
_cell_volume 402.960739
_symmetry_space_group_name_H-M "P -1"
_symmetry_group_IT_number 2
_symmetry_cell_setting 'triclinic'
loop_
_space_group_symop_operation_xyz
x,y,z
-x,-y,-z
loop_
_atom_site_type_symbol
_atom_site_label
_atom_site_fract_x
_atom_site_fract_y
_atom_site_fract_z
Si Si1 0.856310 0.021008 0.768159
Si Si2 0.000000 0.500000 0.000000
Si Si3 0.289482 0.570723 0.986834
Si Si4 0.189828 0.136420 0.777819
Si Si5 0.400113 0.807441 0.894810
Si Si6 0.236963 0.425072 0.463697
O O1 0.851468 0.949046 0.508671
O O2 0.744440 0.835008 0.662772
O O3 0.807334 0.273311 0.880781
O O4 0.000000 0.000000 0.000000
O O5 0.933822 0.729812 0.155488
O O6 0.107803 0.480599 0.257392
O O7 0.313644 0.337827 0.972851
O O8 0.416475 0.718356 0.072850
O O9 0.202537 0.495465 0.688217
O O10 0.246925 0.932835 0.827683
O O11 0.374433 0.589115 0.629002
O O12 0.500000 0.000000 0.000000
#
# Coordination Sequence:
#
# PCOD9049927 Si02
#       6
#     2   1   2   2   2   2
#     4  11  21  40  67  99 141 176 211 275 343 411
#     4  12  22  40  66 104 136 166 216 276 342 406
#     4   9  22  42  63  97 133 174 225 267 336 394
#     4  11  25  41  68 102 135 178 220 272 342 403
#     4  10  24  48  68  93 135 181 232 278 320 388
#     4   9  23  39  64  99 134 173 220 272 335 399
#
# _framework density 27.297948000000002
#
# number of rings (size 3 to 8) (size 9 to 14) (size 15 to 20)
#    1.091    0.727    0.000    3.273    5.091    4.364 
#    0.000    4.545    0.000    0.000    0.000    0.000 
#    0.000    0.000    0.000    0.000    0.000    0.000 
#
# Total GULP energy -61249.917201 kJ/mol
# GULP energy per Si atom -5568.174291 kJ/mol
# Density = 2.723582 g / cm^3
# Si number density = 27.297948 Si / 1000 Ang^3
#
#
#
# Elastic Constant Matrix: (Units=GPa)
#
#
# Indices 1 2 3 4 5 6 
#
# 1 63.5401 1.0975 30.1879 15.4127 6.2860 16.0636
# 2 1.0975 167.0352 35.9788 42.7428 9.1030 22.0605
# 3 30.1879 35.9788 163.9971 31.9449 -6.9453 -3.3729
# 4 15.4127 42.7428 31.9449 53.1985 13.0270 12.6273
# 5 6.2860 9.1030 -6.9453 13.0270 57.0406 19.1997
# 6 16.0636 22.0605 -3.3729 12.6273 19.1997 33.4053
#
#
#
# Elastic Compliance Matrix: (Units=1/GPa)
#
#
# Indices 1 2 3 4 5 6 
#
# 1 0.021562 0.003290 -0.004123 -0.003867 0.001673 -0.012457
# 2 0.003290 0.008471 -0.001379 -0.005880 0.001457 -0.005930
# 3 -0.004123 -0.001379 0.008048 -0.003864 0.000989 0.004598
# 4 -0.003867 -0.005880 -0.003864 0.028789 -0.004736 -0.002808
# 5 0.001673 0.001457 0.000989 -0.004736 0.022658 -0.012899
# 6 -0.012457 -0.005930 0.004598 -0.002808 -0.012899 0.048781
#
#
# Mechanical properties :
#
#
# Convention : Reuss Voigt Hill
#
# Bulk Modulus (GPa) = 29.71098 58.78898 44.24998
# Shear Modulus (GPa) = 32.47773 50.54942 41.51357
#
# Velocity S-wave (km/s) = 3.45302 4.30788 3.90392
# Velocity P-wave (km/s) = 5.17739 6.80637 6.04698
#
# Compressibility (1/GPa) = 0.03365759
#
# Stress axis : x y z
#
# Youngs Moduli (GPa) = 46.37803 118.05562 124.25089
#
# Poissons Ratio (x) = -0.38841 0.51227
# Poissons Ratio (y) = -0.15259 0.17132
# Poissons Ratio (z) = 0.19121 0.16278
#
# Static dielectric constant tensor:
#      x y z
#    x 1.105510 -0.247950 -0.157830 
#    y -0.247950 1.938990 -0.028540 
#    z -0.157830 -0.028540 1.984470 
# 
# From -- ./inp_files/291362.got.cif
#   From: 2010.05.17/outbox.cif.g08.bks.cpg/sg2_146_cif.got.tgz:291362.got - 2010.06.03 11:33:40.
