data_PCOD9049993
_publ_section_title
;
Structure prediction by ZEFSAII (Michael W. Deem and Ramdas Pophale) SiO2 
 PCOD9049993
Probable space group: P -1
;
_chemical_formula_sum "Si O2"
_cell_formula_units_Z 13
_cell_length_a 14.723080
_cell_length_b 17.804185
_cell_length_c 5.691224
_cell_angle_alpha 137.269903
_cell_angle_beta 128.677519
_cell_angle_gamma 31.154008
_cell_volume 523.670176
_symmetry_space_group_name_H-M "P -1"
_symmetry_group_IT_number 2
_symmetry_cell_setting 'triclinic'
loop_
_space_group_symop_operation_xyz
x,y,z
-x,-y,-z
loop_
_atom_site_type_symbol
_atom_site_label
_atom_site_fract_x
_atom_site_fract_y
_atom_site_fract_z
Si Si1 0.019106 0.876739 0.906285
Si Si2 0.000000 0.500000 0.000000
Si Si3 0.214263 0.598893 0.204272
Si Si4 0.353981 0.675210 0.295154
Si Si5 0.674843 0.057469 0.058329
Si Si6 0.671150 0.705169 0.172966
Si Si7 0.126655 0.260098 0.098505
O O1 0.102343 0.720797 0.525365
O O2 0.164210 0.804600 0.165201
O O3 0.000000 0.000000 0.000000
O O4 0.839321 0.966672 0.945749
O O5 0.803276 0.587679 0.903357
O O6 0.079381 0.353645 0.994673
O O7 0.316576 0.635722 0.381533
O O8 0.345873 0.402223 0.982224
O O9 0.058834 0.659015 0.926343
O O10 0.400686 0.769903 0.594283
O O11 0.500000 0.500000 0.000000
O O12 0.515939 0.115893 0.792582
O O13 0.738891 0.937750 0.106208
O O14 0.793390 0.704696 0.514383
#
# Coordination Sequence:
#
# PCOD9049993 Si02
#       7
#     2   1   2   2   2   2   2
#     4  12  25  45  74 106 153 197 246 313 378 442
#     4  10  24  48  72 102 142 204 248 302 374 428
#     4  11  24  47  73 105 145 201 250 303 374 453
#     4  12  27  47  74 110 150 198 248 311 376 450
#     4  12  26  48  74 116 153 194 252 315 378 446
#     4  11  27  46  72 108 150 198 252 307 372 452
#     4  11  25  48  75 104 152 192 258 308 370 444
#
# _framework density 24.824787000000001
#
# number of rings (size 3 to 8) (size 9 to 14) (size 15 to 20)
#    0.000    0.615    3.077    4.615    6.462    6.769 
#    2.769    0.000    0.000    0.000    0.000    0.000 
#    0.000    0.000    0.000    0.000    0.000    0.000 
#
# Total GULP energy -72418.900234 kJ/mol
# GULP energy per Si atom -5570.684633 kJ/mol
# Density = 2.476829 g / cm^3
# Si number density = 24.824787 Si / 1000 Ang^3
#
#
#
# Elastic Constant Matrix: (Units=GPa)
#
#
# Indices 1 2 3 4 5 6 
#
# 1 64.1103 44.2093 17.1568 10.2558 21.2740 27.0342
# 2 44.2093 179.7125 17.4032 -12.4557 20.3665 9.9176
# 3 17.1568 17.4032 95.5204 18.1187 27.9118 12.7622
# 4 10.2558 -12.4557 18.1187 37.6680 -0.6858 15.5632
# 5 21.2740 20.3665 27.9118 -0.6858 38.4837 16.6304
# 6 27.0342 9.9176 12.7622 15.5632 16.6304 44.9516
#
#
#
# Elastic Compliance Matrix: (Units=1/GPa)
#
#
# Indices 1 2 3 4 5 6 
#
# 1 0.027344 -0.005691 0.001082 -0.005718 -0.008510 -0.010368
# 2 -0.005691 0.007348 -0.001185 0.004256 -0.000112 0.000706
# 3 0.001082 -0.001185 0.015712 -0.009878 -0.013004 0.003381
# 4 -0.005718 0.004256 -0.009878 0.040406 0.014934 -0.014210
# 5 -0.008510 -0.000112 -0.013004 0.014934 0.046259 -0.013450
# 6 -0.010368 0.000706 0.003381 -0.014210 -0.013450 0.037262
#
#
# Mechanical properties :
#
#
# Convention : Reuss Voigt Hill
#
# Bulk Modulus (GPa) = 25.76259 55.20908 40.48583
# Shear Modulus (GPa) = 25.14361 41.59227 33.36794
#
# Velocity S-wave (km/s) = 3.18597 4.09765 3.67023
# Velocity P-wave (km/s) = 4.89226 6.68396 5.85703
#
# Compressibility (1/GPa) = 0.03881597
#
# Stress axis : x y z
#
# Youngs Moduli (GPa) = 36.57134 136.09265 63.64403
#
# Poissons Ratio (x) = 0.77452 -0.06888
# Poissons Ratio (y) = 0.20813 0.07544
# Poissons Ratio (z) = -0.03958 0.16131
#
# Static dielectric constant tensor:
#      x y z
#    x 2.742030 -0.671080 0.174700 
#    y -0.671080 2.620550 -0.318100 
#    z 0.174700 -0.318100 2.168530 
# 
# From -- ./inp_files/25043.got.cif
#   From: 2010.05.17/outbox.cif.g08.bks.cpg/sg2_13_cif.got.tgz:25043.got - 2010.06.03 11:33:40.
