data_PCOD9049868
_publ_section_title
;
Structure prediction by ZEFSAII (Michael W. Deem and Ramdas Pophale) SiO2 
 PCOD9049868
Probable space group: P -1
;
_chemical_formula_sum "Si O2"
_cell_formula_units_Z 14
_cell_length_a 12.981626
_cell_length_b 7.239868
_cell_length_c 14.825800
_cell_angle_alpha 44.569092
_cell_angle_beta 145.539692
_cell_angle_gamma 117.615993
_cell_volume 525.701734
_symmetry_space_group_name_H-M "P -1"
_symmetry_group_IT_number 2
_symmetry_cell_setting 'triclinic'
loop_
_space_group_symop_operation_xyz
x,y,z
-x,-y,-z
loop_
_atom_site_type_symbol
_atom_site_label
_atom_site_fract_x
_atom_site_fract_y
_atom_site_fract_z
Si Si1 0.722043 0.333574 0.711487
Si Si2 0.917152 0.561018 0.625030
Si Si3 0.195476 0.860552 0.426081
Si Si4 0.693468 0.749669 0.223556
Si Si5 0.666211 0.632072 0.049799
Si Si6 0.406515 0.138311 0.270267
Si Si7 0.134177 0.654518 0.995449
O O1 0.500000 0.500000 0.500000
O O2 0.824319 0.532677 0.664821
O O3 0.726396 0.059441 0.753635
O O4 0.782166 0.256389 0.884405
O O5 0.900140 0.271627 0.674469
O O6 0.806614 0.766592 0.392567
O O7 0.134184 0.562227 0.781012
O O8 0.297930 0.436177 0.132298
O O9 0.297674 0.574179 0.652341
O O10 0.375547 0.970174 0.497398
O O11 0.012606 0.093104 0.253014
O O12 0.740793 0.752850 0.150561
O O13 0.500000 0.000000 0.000000
O O14 0.500000 0.500000 0.000000
O O15 0.574229 0.841563 0.830745
O O16 0.000000 0.500000 0.000000
#
# Coordination Sequence:
#
# PCOD9049868 Si02
#       7
#     2   2   2   2   2   2   2
#     4  12  27  48  83 120 162 212 265 333 407 489
#     4  10  24  47  77 113 154 208 268 322 406 483
#     4  10  24  48  75 111 160 200 266 326 404 474
#     4  10  25  49  80 110 153 213 270 335 405 481
#     4  12  24  49  73 111 156 207 265 336 390 476
#     4  12  27  48  80 116 163 207 270 327 410 481
#     4  12  26  47  76 114 164 210 259 331 401 482
#
# _framework density 26.631070000000001
#
# number of rings (size 3 to 8) (size 9 to 14) (size 15 to 20)
#    0.857    0.000    1.429    4.714    2.000    4.571 
#    0.000    2.857    0.000    0.000    0.000    0.000 
#    0.000    0.000    0.000    0.000    0.000    0.000 
#
# Total GULP energy -78065.455700 kJ/mol
# GULP energy per Si atom -5576.103979 kJ/mol
# Density = 2.657046 g / cm^3
# Si number density = 26.631070 Si / 1000 Ang^3
#
#
#
# Elastic Constant Matrix: (Units=GPa)
#
#
# Indices 1 2 3 4 5 6 
#
# 1 154.6677 42.9380 52.1548 7.0373 4.9690 8.9636
# 2 42.9380 110.4911 63.0216 21.7080 -0.5436 -8.1864
# 3 52.1548 63.0216 167.6242 -12.8446 8.7433 5.0346
# 4 7.0373 21.7080 -12.8446 40.8200 -0.8407 11.9009
# 5 4.9690 -0.5436 8.7433 -0.8407 45.9986 6.7002
# 6 8.9636 -8.1864 5.0346 11.9009 6.7002 46.4791
#
#
#
# Elastic Compliance Matrix: (Units=1/GPa)
#
#
# Indices 1 2 3 4 5 6 
#
# 1 0.007703 -0.002230 -0.001503 -0.000147 -0.000338 -0.001629
# 2 -0.002230 0.016970 -0.006927 -0.012976 0.000439 0.007429
# 3 -0.001503 -0.006927 0.009837 0.008162 -0.001067 -0.003932
# 4 -0.000147 -0.012976 0.008162 0.037785 0.000887 -0.012944
# 5 -0.000338 0.000439 -0.001067 0.000887 0.022468 -0.003208
# 6 -0.001629 0.007429 -0.003932 -0.012944 -0.003208 0.027340
#
#
# Mechanical properties :
#
#
# Convention : Reuss Voigt Hill
#
# Bulk Modulus (GPa) = 75.81020 83.22353 79.51686
# Shear Modulus (GPa) = 33.82518 44.97079 39.39799
#
# Velocity S-wave (km/s) = 3.56777 4.11379 3.85047
# Velocity P-wave (km/s) = 6.74541 7.34048 7.04923
#
# Compressibility (1/GPa) = 0.01319084
#
# Stress axis : x y z
#
# Youngs Moduli (GPa) = 129.81406 58.92819 101.65733
#
# Poissons Ratio (x) = 0.13138 0.15282
# Poissons Ratio (y) = 0.28942 0.70416
# Poissons Ratio (z) = 0.19515 0.40818
#
# Static dielectric constant tensor:
#      x y z
#    x 2.152050 -0.086650 0.016300 
#    y -0.086650 2.137040 0.121980 
#    z 0.016300 0.121980 2.004960 
# 
# From -- ./inp_files/90922.got.cif
#   From: 2010.05.17/outbox.cif.g08.bks.cpg/sg2_46_cif.got.tgz:90922.got - 2010.06.03 11:33:40.
