data_PCOD9049133
_publ_section_title
;
Structure prediction by ZEFSAII (Michael W. Deem and Ramdas Pophale) SiO2 
 PCOD9049133
Probable space group: P -1
;
_chemical_formula_sum "Si O2"
_cell_formula_units_Z 15
_cell_length_a 7.548717
_cell_length_b 8.423539
_cell_length_c 16.726890
_cell_angle_alpha 137.917067
_cell_angle_beta 53.137577
_cell_angle_gamma 118.006461
_cell_volume 569.738336
_symmetry_space_group_name_H-M "P -1"
_symmetry_group_IT_number 2
_symmetry_cell_setting 'triclinic'
loop_
_space_group_symop_operation_xyz
x,y,z
-x,-y,-z
loop_
_atom_site_type_symbol
_atom_site_label
_atom_site_fract_x
_atom_site_fract_y
_atom_site_fract_z
Si Si1 0.437788 0.295701 0.257024
Si Si2 0.291535 0.163527 0.990505
Si Si3 0.652138 0.811130 0.429895
Si Si4 0.657992 0.566306 0.073903
Si Si5 0.000000 0.000000 0.500000
Si Si6 0.055987 0.239687 0.804356
Si Si7 0.026869 0.210439 0.228014
Si Si8 0.114501 0.379233 0.501417
O O1 0.546596 0.549217 0.348238
O O2 0.265166 0.307049 0.234881
O O3 0.293189 0.229758 0.350561
O O4 0.597252 0.083954 0.113691
O O5 0.437674 0.403317 0.064632
O O6 0.308774 0.203481 0.905305
O O7 0.070463 0.172539 0.108011
O O8 0.739262 0.883109 0.520278
O O9 0.893360 0.812888 0.320363
O O10 0.500000 0.000000 0.500000
O O11 0.852063 0.403249 0.928949
O O12 0.724234 0.629028 0.169536
O O13 0.057414 0.780120 0.460066
O O14 0.013707 0.018705 0.791139
O O15 0.838768 0.392131 0.368894
O O16 0.000000 0.500000 0.500000
#
# Coordination Sequence:
#
# PCOD9049133 Si02
#       8
#     2   2   2   2   1   2   2   2
#     4  11  23  43  70 101 146 187 239 302 368 431
#     4  11  24  41  69 106 138 189 246 296 352 450
#     4  12  27  48  75 109 147 195 250 304 373 450
#     4  10  25  43  67 100 147 187 237 293 369 433
#     4  12  28  46  80 108 146 200 252 308 378 440
#     4  11  24  45  70 100 145 191 233 301 368 434
#     4  11  22  41  72 101 145 189 241 298 371 432
#     4  10  24  46  69 106 146 194 245 310 369 443
#
# _framework density 26.327874999999999
#
# number of rings (size 3 to 8) (size 9 to 14) (size 15 to 20)
#    0.000    1.067    1.333    5.200    5.600    4.267 
#    0.000    0.000    0.000    0.000    0.000    0.000 
#    0.000    0.000    0.000    0.000    0.000    0.000 
#
# Total GULP energy -83626.631029 kJ/mol
# GULP energy per Si atom -5575.108735 kJ/mol
# Density = 2.626795 g / cm^3
# Si number density = 26.327875 Si / 1000 Ang^3
#
#
#
# Elastic Constant Matrix: (Units=GPa)
#
#
# Indices 1 2 3 4 5 6 
#
# 1 39.7156 6.0323 -19.7346 7.8413 18.8906 15.6103
# 2 6.0323 108.3545 -3.9522 8.1148 2.8063 -4.7620
# 3 -19.7346 -3.9522 80.2943 -10.6358 -6.1686 -14.3330
# 4 7.8413 8.1148 -10.6358 53.0441 -2.8512 8.4074
# 5 18.8906 2.8063 -6.1686 -2.8512 20.5849 2.3797
# 6 15.6103 -4.7620 -14.3330 8.4074 2.3797 34.7442
#
#
#
# Elastic Compliance Matrix: (Units=1/GPa)
#
#
# Indices 1 2 3 4 5 6 
#
# 1 0.065704 -0.002306 0.006882 -0.007646 -0.056519 -0.021276
# 2 -0.002306 0.009592 0.000230 -0.001503 0.000347 0.002785
# 3 0.006882 0.000230 0.014675 0.001331 -0.002091 0.002814
# 4 -0.007646 -0.001503 0.001331 0.021401 0.010832 -0.002142
# 5 -0.056519 0.000347 -0.002091 0.010832 0.099522 0.015141
# 6 -0.021276 0.002785 0.002814 -0.002142 0.015141 0.039365
#
#
# Mechanical properties :
#
#
# Convention : Reuss Voigt Hill
#
# Bulk Modulus (GPa) = 10.04164 21.45062 15.74613
# Shear Modulus (GPa) = 18.25882 38.07588 28.16735
#
# Velocity S-wave (km/s) = 2.63633 3.80704 3.27443
# Velocity P-wave (km/s) = 3.61792 5.24309 4.50440
#
# Compressibility (1/GPa) = 0.09958538
#
# Stress axis : x y z
#
# Youngs Moduli (GPa) = 15.21975 104.25654 68.14222
#
# Poissons Ratio (x) = 0.24037 -0.46899
# Poissons Ratio (y) = 0.03509 -0.01569
# Poissons Ratio (z) = -0.10475 -0.02400
#
# Static dielectric constant tensor:
#      x y z
#    x 2.365870 -0.017770 0.179170 
#    y -0.017770 2.207440 0.065420 
#    z 0.179170 0.065420 2.132960 
# 
# From -- ./inp_files/556662.got.cif
#   From: 2010.05.17/outbox.cif.g08.bks.cpg/sg2_279_cif.got.tgz:556662.got - 2010.06.03 11:33:40.
