data_PCOD9049474
_publ_section_title
;
Structure prediction by ZEFSAII (Michael W. Deem and Ramdas Pophale) SiO2 
 PCOD9049474
Probable space group: P -1
;
_chemical_formula_sum "Si O2"
_cell_formula_units_Z 12
_cell_length_a 15.595336
_cell_length_b 8.674462
_cell_length_c 6.006045
_cell_angle_alpha 84.829119
_cell_angle_beta 89.557354
_cell_angle_gamma 144.942751
_cell_volume 460.057639
_symmetry_space_group_name_H-M "P -1"
_symmetry_group_IT_number 2
_symmetry_cell_setting 'triclinic'
loop_
_space_group_symop_operation_xyz
x,y,z
-x,-y,-z
loop_
_atom_site_type_symbol
_atom_site_label
_atom_site_fract_x
_atom_site_fract_y
_atom_site_fract_z
Si Si1 0.884010 0.766066 0.845963
Si Si2 0.558129 0.318883 0.412842
Si Si3 0.116957 0.722934 0.153820
Si Si4 0.648853 0.798099 0.247749
Si Si5 0.696781 0.272528 0.700197
Si Si6 0.103328 0.933426 0.464010
O O1 0.744658 0.438286 0.904474
O O2 0.995872 0.850866 0.656143
O O3 0.819677 0.820143 0.717383
O O4 0.000000 0.000000 0.000000
O O5 0.602626 0.547129 0.261780
O O6 0.472729 0.262238 0.642360
O O7 0.685258 0.389203 0.495453
O O8 0.452123 0.051614 0.298454
O O9 0.175963 0.669764 0.305708
O O10 0.033348 0.723158 0.305108
O O11 0.000000 0.500000 0.000000
O O12 0.264610 0.014352 0.994933
O O13 0.772797 0.977012 0.417695
#
# Coordination Sequence:
#
# PCOD9049474 Si02
#       6
#     2   2   2   2   2   2
#     4  11  24  44  74 106 143 193 247 307 371 434
#     4  10  24  46  75 103 145 212 235 304 356 439
#     4  12  27  44  74 114 146 191 246 311 375 437
#     4  11  23  47  72 102 149 194 251 288 380 439
#     4  11  23  46  72 111 147 182 258 300 367 430
#     4  11  23  45  71 101 147 193 239 308 369 438
#
# _framework density 26.083686
#
# number of rings (size 3 to 8) (size 9 to 14) (size 15 to 20)
#    0.000    1.000    3.333    3.000    2.333    2.667 
#    0.000    1.667    0.000    0.000    0.000    0.000 
#    0.000    0.000    0.000    0.000    0.000    0.000 
#
# Total GULP energy -67018.109885 kJ/mol
# GULP energy per Si atom -5584.842490 kJ/mol
# Density = 2.602432 g / cm^3
# Si number density = 26.083686 Si / 1000 Ang^3
#
#
#
# Elastic Constant Matrix: (Units=GPa)
#
#
# Indices 1 2 3 4 5 6 
#
# 1 133.9430 33.7977 49.8215 4.7022 5.2190 -11.9125
# 2 33.7977 200.1855 88.2047 29.3076 -9.6134 -35.1385
# 3 49.8215 88.2047 106.9598 13.8823 -19.9856 -11.1804
# 4 4.7022 29.3076 13.8823 72.0835 2.6724 1.4729
# 5 5.2190 -9.6134 -19.9856 2.6724 35.2508 6.2438
# 6 -11.9125 -35.1385 -11.1804 1.4729 6.2438 43.8844
#
#
#
# Elastic Compliance Matrix: (Units=1/GPa)
#
#
# Indices 1 2 3 4 5 6 
#
# 1 0.010007 0.001437 -0.006558 0.000163 -0.005343 0.002951
# 2 0.001437 0.009809 -0.008348 -0.002489 -0.003263 0.006665
# 3 -0.006558 -0.008348 0.021012 -0.000554 0.011486 -0.004727
# 4 0.000163 -0.002489 -0.000554 0.015094 -0.001745 -0.002348
# 5 -0.005343 -0.003263 0.011486 -0.001745 0.036012 -0.006202
# 6 0.002951 0.006665 -0.004727 -0.002348 -0.006202 0.028682
#
#
# Mechanical properties :
#
#
# Convention : Reuss Voigt Hill
#
# Bulk Modulus (GPa) = 71.98758 87.19289 79.59023
# Shear Modulus (GPa) = 32.85507 48.19470 40.52489
#
# Velocity S-wave (km/s) = 3.55294 4.30315 3.94591
# Velocity P-wave (km/s) = 6.67007 7.62824 7.16519
#
# Compressibility (1/GPa) = 0.01389128
#
# Stress axis : x y z
#
# Youngs Moduli (GPa) = 99.92692 101.95085 47.59116
#
# Poissons Ratio (x) = -0.14655 0.31209
# Poissons Ratio (y) = -0.14364 0.39730
# Poissons Ratio (z) = 0.65530 0.85110
#
# Static dielectric constant tensor:
#      x y z
#    x 2.030300 -0.011410 -0.023220 
#    y -0.011410 2.189510 -0.015190 
#    z -0.023220 -0.015190 2.026190 
# 
# From -- ./inp_files/106950.got.cif
#   From: 2010.05.17/outbox.cif.g08.bks.cpg/sg2_54_cif.got.tgz:106950.got - 2010.06.03 11:33:40.
