data_PCOD9049212
_publ_section_title
;
Structure prediction by ZEFSAII (Michael W. Deem and Ramdas Pophale) SiO2 
 PCOD9049212
Probable space group: P -1
;
_chemical_formula_sum "Si O2"
_cell_formula_units_Z 15
_cell_length_a 6.921067
_cell_length_b 13.849526
_cell_length_c 12.161369
_cell_angle_alpha 48.524973
_cell_angle_beta 101.127432
_cell_angle_gamma 75.930135
_cell_volume 739.904817
_symmetry_space_group_name_H-M "P -1"
_symmetry_group_IT_number 2
_symmetry_cell_setting 'triclinic'
loop_
_space_group_symop_operation_xyz
x,y,z
-x,-y,-z
loop_
_atom_site_type_symbol
_atom_site_label
_atom_site_fract_x
_atom_site_fract_y
_atom_site_fract_z
Si Si1 0.220095 0.633932 0.436030
Si Si2 0.526947 0.305150 0.764353
Si Si3 0.730324 0.567511 0.909349
Si Si4 0.610109 0.315451 0.022165
Si Si5 0.759789 0.839918 0.345632
Si Si6 0.500000 0.000000 0.000000
Si Si7 0.531684 0.246734 0.472209
Si Si8 0.992381 0.990021 0.376932
O O1 0.315017 0.457836 0.577193
O O2 0.265868 0.699005 0.279998
O O3 0.367221 0.660390 0.525866
O O4 0.957990 0.727464 0.369861
O O5 0.543938 0.331252 0.875450
O O6 0.515797 0.155108 0.862678
O O7 0.598871 0.649248 0.945424
O O8 0.609705 0.678547 0.709846
O O9 0.686135 0.432337 0.979925
O O10 0.000000 0.500000 0.000000
O O11 0.823768 0.151850 0.188410
O O12 0.595361 0.984660 0.146810
O O13 0.627772 0.773169 0.444661
O O14 0.888812 0.885805 0.413457
O O15 0.754431 0.089162 0.585689
O O16 0.000000 0.000000 0.500000
#
# Coordination Sequence:
#
# PCOD9049212 Si02
#       8
#     2   2   2   2   2   1   2   2
#     4  10  24  46  70  96 136 184 221 278 348 409
#     4  11  23  46  69  99 139 177 230 282 341 409
#     4  11  26  42  69 101 135 175 228 284 339 409
#     4  11  24  46  67  99 135 179 225 281 344 409
#     4  11  26  42  69  99 138 179 225 287 340 411
#     4  12  24  44  66 106 138 170 240 280 336 410
#     4  11  23  44  67 100 135 176 226 277 343 410
#     4  11  24  43  67  95 135 181 221 281 343 404
#
# _framework density 20.272877000000001
#
# number of rings (size 3 to 8) (size 9 to 14) (size 15 to 20)
#    0.000    1.067    5.333    0.000    3.733    3.733 
#    2.400    0.000    0.000    0.000    0.000    0.000 
#    0.000    0.000    0.000    0.000    0.000    0.000 
#
# Total GULP energy -83546.840217 kJ/mol
# GULP energy per Si atom -5569.789348 kJ/mol
# Density = 2.022674 g / cm^3
# Si number density = 20.272877 Si / 1000 Ang^3
#
#
#
# Elastic Constant Matrix: (Units=GPa)
#
#
# Indices 1 2 3 4 5 6 
#
# 1 101.0600 42.6701 60.0044 12.0269 -8.6136 -14.9419
# 2 42.6701 104.6294 50.2656 13.3516 -13.6924 -14.7663
# 3 60.0044 50.2656 132.2706 4.0390 -19.0502 -13.8202
# 4 12.0269 13.3516 4.0390 47.6748 7.4319 1.5234
# 5 -8.6136 -13.6924 -19.0502 7.4319 27.4812 2.7798
# 6 -14.9419 -14.7663 -13.8202 1.5234 2.7798 32.6835
#
#
#
# Elastic Compliance Matrix: (Units=1/GPa)
#
#
# Indices 1 2 3 4 5 6 
#
# 1 0.015064 -0.002733 -0.005341 -0.002700 0.000032 0.003517
# 2 -0.002733 0.013578 -0.002774 -0.003712 0.004636 0.003491
# 3 -0.005341 -0.002774 0.011835 0.000318 0.004974 0.000871
# 4 -0.002700 -0.003712 0.000318 0.024123 -0.008679 -0.003163
# 5 0.000032 0.004636 0.004974 -0.008679 0.044419 0.000839
# 6 0.003517 0.003491 0.000871 -0.003163 0.000839 0.034226
#
#
# Mechanical properties :
#
#
# Convention : Reuss Voigt Hill
#
# Bulk Modulus (GPa) = 53.24392 71.53781 62.39086
# Shear Modulus (GPa) = 29.20544 33.90256 31.55400
#
# Velocity S-wave (km/s) = 3.79966 4.09383 3.94948
# Velocity P-wave (km/s) = 6.75060 7.59671 7.18612
#
# Compressibility (1/GPa) = 0.01878149
#
# Stress axis : x y z
#
# Youngs Moduli (GPa) = 66.38347 73.64884 84.49454
#
# Poissons Ratio (x) = 0.20125 0.45127
# Poissons Ratio (y) = 0.18139 0.23443
# Poissons Ratio (z) = 0.35454 0.20434
#
# Static dielectric constant tensor:
#      x y z
#    x 1.791820 0.087910 0.067820 
#    y 0.087910 1.866610 0.047540 
#    z 0.067820 0.047540 1.757080 
# 
# From -- ./inp_files/351051.got.cif
#   From: 2010.05.17/outbox.cif.g08.bks.cpg/sg2_176_cif.got.tgz:351051.got - 2010.06.03 11:33:40.
