data_PCOD9049732
_publ_section_title
;
Structure prediction by ZEFSAII (Michael W. Deem and Ramdas Pophale) SiO2 
 PCOD9049732
Probable space group: P -1
;
_chemical_formula_sum "Si O2"
_cell_formula_units_Z 16
_cell_length_a 17.309424
_cell_length_b 10.362148
_cell_length_c 9.570342
_cell_angle_alpha 51.272935
_cell_angle_beta 116.505356
_cell_angle_gamma 146.975909
_cell_volume 717.356876
_symmetry_space_group_name_H-M "P -1"
_symmetry_group_IT_number 2
_symmetry_cell_setting 'triclinic'
loop_
_space_group_symop_operation_xyz
x,y,z
-x,-y,-z
loop_
_atom_site_type_symbol
_atom_site_label
_atom_site_fract_x
_atom_site_fract_y
_atom_site_fract_z
Si Si1 0.133113 0.140050 0.418659
Si Si2 0.514392 0.750973 0.620647
Si Si3 0.350408 0.510630 0.927931
Si Si4 0.791944 0.374393 0.392376
Si Si5 0.927252 0.040197 0.830855
Si Si6 0.560235 0.927117 0.030978
Si Si7 0.698157 0.331605 0.642254
Si Si8 0.359023 0.255482 0.644214
O O1 0.247829 0.455771 0.342356
O O2 0.211467 0.096663 0.569868
O O3 0.099558 0.062396 0.281275
O O4 0.000000 0.000000 0.500000
O O5 0.474226 0.679304 0.798838
O O6 0.439075 0.794595 0.457512
O O7 0.413435 0.447111 0.689132
O O8 0.683663 0.048979 0.523551
O O9 0.280313 0.581768 0.781064
O O10 0.421615 0.623679 0.060789
O O11 0.225646 0.181112 0.062906
O O12 0.795809 0.437122 0.516654
O O13 0.958308 0.633190 0.300769
O O14 0.000000 0.000000 0.000000
O O15 0.645555 0.944389 0.193771
O O16 0.500000 0.000000 0.000000
O O17 0.659018 0.117440 0.849659
O O18 0.500000 0.500000 0.500000
#
# Coordination Sequence:
#
# PCOD9049732 Si02
#       8
#     2   2   2   2   2   2   2   2
#     4  11  22  43  70  97 139 189 218 275 355 414
#     4  10  19  38  66  94 132 173 223 284 341 398
#     4  10  19  34  61  99 131 173 225 279 334 401
#     4  10  17  34  60  95 129 172 223 269 333 406
#     4  10  21  34  62 101 134 175 233 268 332 414
#     4  12  22  38  64  97 130 174 227 285 338 394
#     4  10  18  35  63  92 124 172 228 266 328 398
#     4  11  26  42  65 101 137 172 232 289 342 405
#
# _framework density 22.304100999999999
#
# number of rings (size 3 to 8) (size 9 to 14) (size 15 to 20)
#    0.000    1.500    3.750    3.750    1.750    0.500 
#    0.000    0.625    0.000    4.500    0.000    0.000 
#    0.000    0.000    0.000    0.000    0.000    0.000 
#
# Total GULP energy -89155.770123 kJ/mol
# GULP energy per Si atom -5572.235633 kJ/mol
# Density = 2.225334 g / cm^3
# Si number density = 22.304101 Si / 1000 Ang^3
#
#
#
# Elastic Constant Matrix: (Units=GPa)
#
#
# Indices 1 2 3 4 5 6 
#
# 1 47.0018 11.0972 45.4786 11.8946 9.1210 16.3412
# 2 11.0972 96.0203 37.1837 -0.7175 -7.4816 15.7614
# 3 45.4786 37.1837 109.8870 5.1213 3.9510 21.0530
# 4 11.8946 -0.7175 5.1213 47.9264 5.4464 -16.5964
# 5 9.1210 -7.4816 3.9510 5.4464 27.6159 -2.1638
# 6 16.3412 15.7614 21.0530 -16.5964 -2.1638 23.6508
#
#
#
# Elastic Compliance Matrix: (Units=1/GPa)
#
#
# Indices 1 2 3 4 5 6 
#
# 1 0.072849 0.007865 -0.017362 -0.037753 -0.017344 -0.068199
# 2 0.007865 0.013940 -0.004907 -0.006566 0.002018 -0.014779
# 3 -0.017362 -0.004907 0.017384 0.002883 0.001502 0.001953
# 4 -0.037753 -0.006566 0.002883 0.051605 0.005160 0.064579
# 5 -0.017344 0.002018 0.001502 0.005160 0.042571 0.016818
# 6 -0.068199 -0.014779 0.001953 0.064579 0.016818 0.144370
#
#
# Mechanical properties :
#
#
# Convention : Reuss Voigt Hill
#
# Bulk Modulus (GPa) = 13.26878 48.93647 31.10262
# Shear Modulus (GPa) = 12.60566 30.44861 21.52713
#
# Velocity S-wave (km/s) = 2.37991 3.69881 3.11008
# Velocity P-wave (km/s) = 3.67613 6.34270 5.18381
#
# Compressibility (1/GPa) = 0.07536486
#
# Stress axis : x y z
#
# Youngs Moduli (GPa) = 13.72708 71.73664 57.52483
#
# Poissons Ratio (x) = -0.56424 0.99874
# Poissons Ratio (y) = -0.10797 0.28229
# Poissons Ratio (z) = 0.23833 0.35203
#
# Static dielectric constant tensor:
#      x y z
#    x 4.533280 -3.467270 -0.898850 
#    y -3.467270 6.245000 1.071830 
#    z -0.898850 1.071830 2.108000 
# 
# From -- ./inp_files/345962.got.cif
#   From: 2010.05.17/outbox.cif.g08.bks.cpg/sg2_173_cif.got.tgz:345962.got - 2010.06.03 11:33:40.
