data_PCOD9049888
_publ_section_title
;
Structure prediction by ZEFSAII (Michael W. Deem and Ramdas Pophale) SiO2 
 PCOD9049888
Probable space group: P -1
;
_chemical_formula_sum "Si O2"
_cell_formula_units_Z 10
_cell_length_a 14.148143
_cell_length_b 14.463401
_cell_length_c 4.910532
_cell_angle_alpha 130.287269
_cell_angle_beta 61.435762
_cell_angle_gamma 148.806509
_cell_volume 389.779717
_symmetry_space_group_name_H-M "P -1"
_symmetry_group_IT_number 2
_symmetry_cell_setting 'triclinic'
loop_
_space_group_symop_operation_xyz
x,y,z
-x,-y,-z
loop_
_atom_site_type_symbol
_atom_site_label
_atom_site_fract_x
_atom_site_fract_y
_atom_site_fract_z
Si Si1 0.552449 0.652458 0.509999
Si Si2 0.808549 0.340693 0.633431
Si Si3 0.766320 0.461597 0.456490
Si Si4 0.167151 0.905222 0.732959
Si Si5 0.112965 0.048963 0.687793
O O1 0.500000 0.500000 0.500000
O O2 0.382952 0.579628 0.514198
O O3 0.676697 0.717902 0.213874
O O4 0.698865 0.876862 0.889656
O O5 0.690219 0.308309 0.515215
O O6 0.000000 0.500000 0.500000
O O7 0.750384 0.153023 0.448231
O O8 0.955508 0.701594 0.748330
O O9 0.823946 0.432487 0.062175
O O10 0.136198 0.928676 0.514207
O O11 0.000000 0.000000 0.500000
O O12 0.000000 0.000000 0.000000
#
# Coordination Sequence:
#
# PCOD9049888 Si02
#       5
#     2   2   2   2   2
#     4  12  30  50  80 119 157 207 270 320 392 470
#     4  10  24  47  79 113 153 206 258 313 395 467
#     4  11  27  47  79 115 155 203 261 321 385 470
#     4  11  26  49  80 109 162 204 256 320 399 453
#     4  12  27  49  77 110 153 208 256 317 393 462
#
# _framework density 25.655519000000002
#
# number of rings (size 3 to 8) (size 9 to 14) (size 15 to 20)
#    0.000    0.800    2.000    3.600   11.200    5.600 
#    0.000    0.000    0.000    0.000    0.000    0.000 
#    0.000    0.000    0.000    0.000    0.000    0.000 
#
# Total GULP energy -56002.357542 kJ/mol
# GULP energy per Si atom -5600.235754 kJ/mol
# Density = 2.559713 g / cm^3
# Si number density = 25.655519 Si / 1000 Ang^3
#
#
#
# Elastic Constant Matrix: (Units=GPa)
#
#
# Indices 1 2 3 4 5 6 
#
# 1 262.3495 99.8536 60.0013 14.5724 7.1642 -47.3232
# 2 99.8536 164.6179 53.9949 -1.0029 -11.4891 -27.3524
# 3 60.0013 53.9949 146.2715 -2.9158 3.1901 -18.2575
# 4 14.5724 -1.0029 -2.9158 45.8045 -10.2930 5.0493
# 5 7.1642 -11.4891 3.1901 -10.2930 44.7897 -6.9447
# 6 -47.3232 -27.3524 -18.2575 5.0493 -6.9447 68.2656
#
#
#
# Elastic Compliance Matrix: (Units=1/GPa)
#
#
# Indices 1 2 3 4 5 6 
#
# 1 0.005817 -0.002909 -0.001000 -0.002674 -0.001815 0.002613
# 2 -0.002909 0.008959 -0.001998 0.001636 0.003479 0.001271
# 3 -0.001000 -0.001998 0.008080 0.000568 -0.000712 0.000553
# 4 -0.002674 0.001636 0.000568 0.024362 0.006060 -0.002232
# 5 -0.001815 0.003479 -0.000712 0.006060 0.025273 0.002068
# 6 0.002613 0.001271 0.000553 -0.002232 0.002068 0.017492
#
#
# Mechanical properties :
#
#
# Convention : Reuss Voigt Hill
#
# Bulk Modulus (GPa) = 90.56982 111.21540 100.89261
# Shear Modulus (GPa) = 47.40268 55.73123 51.56696
#
# Velocity S-wave (km/s) = 4.30310 4.66584 4.48814
# Velocity P-wave (km/s) = 7.75035 8.51295 8.14058
#
# Compressibility (1/GPa) = 0.01104121
#
# Stress axis : x y z
#
# Youngs Moduli (GPa) = 171.90747 111.62121 123.75913
#
# Poissons Ratio (x) = 0.32476 0.12374
# Poissons Ratio (y) = 0.50015 0.24730
# Poissons Ratio (z) = 0.17188 0.22304
#
# Static dielectric constant tensor:
#      x y z
#    x 2.055310 -0.009820 0.011380 
#    y -0.009820 2.030120 0.028610 
#    z 0.011380 0.028610 2.180310 
# 
# From -- ./inp_files/64863.got.cif
#   From: 2010.05.17/outbox.cif.g08.bks.cpg/sg2_33_cif.got.tgz:64863.got - 2010.06.03 11:33:40.
