data_PCOD9049010
_publ_section_title
;
Structure prediction by ZEFSAII (Michael W. Deem and Ramdas Pophale) SiO2 
 PCOD9049010
Probable space group: P -1
;
_chemical_formula_sum "Si O2"
_cell_formula_units_Z 16
_cell_length_a 9.629263
_cell_length_b 18.104397
_cell_length_c 11.880450
_cell_angle_alpha 30.533604
_cell_angle_beta 53.105165
_cell_angle_gamma 44.013837
_cell_volume 730.053022
_symmetry_space_group_name_H-M "P -1"
_symmetry_group_IT_number 2
_symmetry_cell_setting 'triclinic'
loop_
_space_group_symop_operation_xyz
x,y,z
-x,-y,-z
loop_
_atom_site_type_symbol
_atom_site_label
_atom_site_fract_x
_atom_site_fract_y
_atom_site_fract_z
Si Si1 0.831015 0.539875 0.791119
Si Si2 0.907679 0.064865 0.139820
Si Si3 0.481303 0.397493 0.326284
Si Si4 0.073964 0.880430 0.515636
Si Si5 0.796051 0.783090 0.864014
Si Si6 0.541606 0.691506 0.948882
Si Si7 0.519673 0.931140 0.203950
Si Si8 0.922324 0.811254 0.283075
O O1 0.676666 0.524278 0.801458
O O2 0.915657 0.651217 0.544918
O O3 0.692712 0.633428 0.844734
O O4 0.024205 0.365916 0.958660
O O5 0.059394 0.984509 0.275220
O O6 0.956055 0.910905 0.235706
O O7 0.676721 0.151044 0.178023
O O8 0.937737 0.198900 0.875765
O O9 0.493967 0.542944 0.194781
O O10 0.433066 0.260057 0.581794
O O11 0.714956 0.273731 0.348428
O O12 0.911950 0.819506 0.660321
O O13 0.000000 0.000000 0.500000
O O14 0.670099 0.946714 0.787525
O O15 0.648077 0.729034 0.950338
O O16 0.702472 0.925943 0.188540
O O17 0.500000 0.000000 0.000000
#
# Coordination Sequence:
#
# PCOD9049010 Si02
#       8
#     2   2   2   2   2   2   2   2
#     4  11  25  44  71 101 147 177 232 286 350 411
#     4  11  25  43  71  99 143 179 236 282 348 415
#     4  11  25  42  68 101 137 180 232 281 344 411
#     4  12  24  41  71 104 135 182 236 286 347 408
#     4  12  26  43  70 106 140 182 232 287 355 407
#     4  12  25  43  69 108 140 181 228 293 347 411
#     4  11  24  47  68  98 139 186 235 285 343 421
#     4  10  24  46  66 101 137 189 225 286 347 415
#
# _framework density 21.916215000000001
#
# number of rings (size 3 to 8) (size 9 to 14) (size 15 to 20)
#    0.000    0.750    3.750    3.000    5.250    2.000 
#    0.000    3.750    0.000    0.000    0.000    0.000 
#    0.000    0.000    0.000    0.000    0.000    0.000 
#
# Total GULP energy -89356.340711 kJ/mol
# GULP energy per Si atom -5584.771294 kJ/mol
# Density = 2.186633 g / cm^3
# Si number density = 21.916215 Si / 1000 Ang^3
#
#
#
# Elastic Constant Matrix: (Units=GPa)
#
#
# Indices 1 2 3 4 5 6 
#
# 1 123.8739 15.1287 37.7026 -5.0001 -4.5235 0.1917
# 2 15.1287 30.0266 17.2744 0.7278 0.7842 -15.7248
# 3 37.7026 17.2744 92.6331 5.4529 2.2867 4.3067
# 4 -5.0001 0.7278 5.4529 30.0824 -6.2689 4.7141
# 5 -4.5235 0.7842 2.2867 -6.2689 37.6496 -5.6093
# 6 0.1917 -15.7248 4.3067 4.7141 -5.6093 38.1894
#
#
#
# Elastic Compliance Matrix: (Units=1/GPa)
#
#
# Indices 1 2 3 4 5 6 
#
# 1 0.009756 -0.003745 -0.003426 0.002902 0.001747 -0.001306
# 2 -0.003745 0.052905 -0.009279 -0.003510 0.001939 0.023567
# 3 -0.003426 -0.009279 0.014383 -0.002584 -0.002334 -0.005449
# 4 0.002902 -0.003510 -0.002584 0.036257 0.005904 -0.004777
# 5 0.001747 0.001939 -0.002334 0.005904 0.028528 0.004514
# 6 -0.001306 0.023567 -0.005449 -0.004777 0.004514 0.037763
#
#
# Mechanical properties :
#
#
# Convention : Reuss Voigt Hill
#
# Bulk Modulus (GPa) = 22.65211 42.97165 32.81188
# Shear Modulus (GPa) = 22.00668 32.94613 27.47641
#
# Velocity S-wave (km/s) = 3.17224 3.88142 3.54461
# Velocity P-wave (km/s) = 4.87603 6.30373 5.63528
#
# Compressibility (1/GPa) = 0.04414600
#
# Stress axis : x y z
#
# Youngs Moduli (GPa) = 102.50540 18.90177 69.52690
#
# Poissons Ratio (x) = 0.07078 0.23817
# Poissons Ratio (y) = 0.38383 0.64512
# Poissons Ratio (z) = 0.35114 0.17538
#
# Static dielectric constant tensor:
#      x y z
#    x 1.800700 -0.030910 -0.059680 
#    y -0.030910 1.797940 0.030990 
#    z -0.059680 0.030990 1.867740 
# 
# From -- ./inp_files/383307.got.cif
#   From: 2010.05.17/outbox.cif.g08.bks.cpg/sg2_192_cif.got.tgz:383307.got - 2010.06.03 11:33:40.
