data_PCOD9049323
_publ_section_title
;
Structure prediction by ZEFSAII (Michael W. Deem and Ramdas Pophale) SiO2 
 PCOD9049323
Probable space group: P -1
;
_chemical_formula_sum "Si O2"
_cell_formula_units_Z 14
_cell_length_a 5.817976
_cell_length_b 14.616567
_cell_length_c 10.295349
_cell_angle_alpha 88.216571
_cell_angle_beta 127.244006
_cell_angle_gamma 64.157906
_cell_volume 571.650808
_symmetry_space_group_name_H-M "P -1"
_symmetry_group_IT_number 2
_symmetry_cell_setting 'triclinic'
loop_
_space_group_symop_operation_xyz
x,y,z
-x,-y,-z
loop_
_atom_site_type_symbol
_atom_site_label
_atom_site_fract_x
_atom_site_fract_y
_atom_site_fract_z
Si Si1 0.271793 0.209604 0.755404
Si Si2 0.230582 0.546565 0.530888
Si Si3 0.199521 0.288793 0.998716
Si Si4 0.944393 0.085525 0.589067
Si Si5 0.181449 0.223925 0.265759
Si Si6 0.490062 0.573194 0.875750
Si Si7 0.094816 0.912523 0.844979
O O1 0.081691 0.322788 0.605227
O O2 0.205166 0.123228 0.675726
O O3 0.077607 0.261320 0.827355
O O4 0.684236 0.136248 0.943143
O O5 0.500000 0.500000 0.500000
O O6 0.490353 0.523596 0.740164
O O7 0.000000 0.500000 0.500000
O O8 0.035048 0.285208 0.074996
O O9 0.248000 0.389413 0.009805
O O10 0.599026 0.176121 0.145909
O O11 0.555219 0.195686 0.431540
O O12 0.000000 0.000000 0.500000
O O13 0.975202 0.030344 0.742281
O O14 0.890965 0.309589 0.261157
O O15 0.199948 0.111175 0.265748
O O16 0.500000 0.500000 0.000000
#
# Coordination Sequence:
#
# PCOD9049323 Si02
#       7
#     2   2   2   2   2   2   2
#     4  10  24  46  72 104 153 190 254 312 382 459
#     4  12  30  50  77 117 156 204 257 328 398 463
#     4   9  21  43  69  97 139 191 245 305 372 453
#     4  12  22  43  71 103 148 197 247 312 382 453
#     4  11  23  42  72 101 143 190 253 310 379 457
#     4  11  26  46  76 105 148 200 256 316 390 459
#     4   9  22  42  65  99 136 190 242 299 368 450
#
# _framework density 24.490476000000001
#
# number of rings (size 3 to 8) (size 9 to 14) (size 15 to 20)
#    0.857    0.571    1.429    2.571    8.000    0.571 
#    0.000    1.429    0.000    0.000    0.000    0.000 
#    0.000    0.000    0.000    0.000    0.000    0.000 
#
# Total GULP energy -78121.674267 kJ/mol
# GULP energy per Si atom -5580.119591 kJ/mol
# Density = 2.443473 g / cm^3
# Si number density = 24.490476 Si / 1000 Ang^3
#
#
#
# Elastic Constant Matrix: (Units=GPa)
#
#
# Indices 1 2 3 4 5 6 
#
# 1 74.6364 37.3374 24.9205 14.5721 -15.4673 4.9680
# 2 37.3374 97.4425 32.9502 17.6287 -20.7006 14.3540
# 3 24.9205 32.9502 117.0157 1.8747 -19.0608 -5.2069
# 4 14.5721 17.6287 1.8747 39.3162 6.9451 -7.7822
# 5 -15.4673 -20.7006 -19.0608 6.9451 41.3954 -11.7208
# 6 4.9680 14.3540 -5.2069 -7.7822 -11.7208 40.7803
#
#
#
# Elastic Compliance Matrix: (Units=1/GPa)
#
#
# Indices 1 2 3 4 5 6 
#
# 1 0.018271 -0.004237 -0.001893 -0.005741 0.004587 -0.000753
# 2 -0.004237 0.016068 -0.002977 -0.007434 0.004750 -0.005573
# 3 -0.001893 -0.002977 0.010500 0.001703 0.003469 0.003941
# 4 -0.005741 -0.007434 0.001703 0.033825 -0.008628 0.007509
# 5 0.004587 0.004750 0.003469 -0.008628 0.033005 0.006052
# 6 -0.000753 -0.005573 0.003941 0.007509 0.006052 0.030251
#
#
# Mechanical properties :
#
#
# Convention : Reuss Voigt Hill
#
# Bulk Modulus (GPa) = 37.55711 53.27897 45.41804
# Shear Modulus (GPa) = 29.58404 37.22413 33.40409
#
# Velocity S-wave (km/s) = 3.47937 3.90287 3.69719
# Velocity P-wave (km/s) = 5.61338 6.48938 6.06721
#
# Compressibility (1/GPa) = 0.02662611
#
# Stress axis : x y z
#
# Youngs Moduli (GPa) = 54.73011 62.23611 95.23383
#
# Poissons Ratio (x) = 0.26370 0.18023
# Poissons Ratio (y) = 0.23190 0.28353
# Poissons Ratio (z) = 0.10358 0.18529
#
# Static dielectric constant tensor:
#      x y z
#    x 1.988210 -0.041630 -0.019960 
#    y -0.041630 1.991280 -0.011210 
#    z -0.019960 -0.011210 1.920960 
# 
# From -- ./inp_files/367801.got.cif
#   From: 2010.05.17/outbox.cif.g08.bks.cpg/sg2_184_cif.got.tgz:367801.got - 2010.06.03 11:33:40.
