data_PCOD9049237
_publ_section_title
;
Structure prediction by ZEFSAII (Michael W. Deem and Ramdas Pophale) SiO2 
 PCOD9049237
Probable space group: P -1
;
_chemical_formula_sum "Si O2"
_cell_formula_units_Z 16
_cell_length_a 6.452130
_cell_length_b 19.629525
_cell_length_c 8.437576
_cell_angle_alpha 120.201364
_cell_angle_beta 93.641269
_cell_angle_gamma 115.964903
_cell_volume 773.014037
_symmetry_space_group_name_H-M "P -1"
_symmetry_group_IT_number 2
_symmetry_cell_setting 'triclinic'
loop_
_space_group_symop_operation_xyz
x,y,z
-x,-y,-z
loop_
_atom_site_type_symbol
_atom_site_label
_atom_site_fract_x
_atom_site_fract_y
_atom_site_fract_z
Si Si1 0.132157 0.486003 0.207274
Si Si2 0.057354 0.606233 0.635850
Si Si3 0.418202 0.811341 0.435715
Si Si4 0.237596 0.110819 0.776730
Si Si5 0.680892 0.639764 0.498316
Si Si6 0.433446 0.214656 0.246740
Si Si7 0.774972 0.065776 0.520000
Si Si8 0.048600 0.388232 0.785019
O O1 0.393317 0.558777 0.385495
O O2 0.934148 0.388437 0.168344
O O3 0.003027 0.543075 0.236714
O O4 0.197348 0.452245 0.013897
O O5 0.289912 0.695167 0.670754
O O6 0.000000 0.500000 0.500000
O O7 0.821072 0.607975 0.579464
O O8 0.587798 0.844214 0.321846
O O9 0.553760 0.830723 0.638028
O O10 0.253201 0.857167 0.479708
O O11 0.222302 0.699908 0.289640
O O12 0.988072 0.106857 0.712680
O O13 0.177859 0.004684 0.658386
O O14 0.343045 0.157824 0.009317
O O15 0.718029 0.736892 0.667106
O O16 0.801592 0.646352 0.342397
O O17 0.500000 0.000000 0.500000
#
# Coordination Sequence:
#
# PCOD9049237 Si02
#       8
#     2   2   2   2   2   2   2   2
#     4  11  23  39  60  86 122 180 222 271 324 372
#     4  12  22  42  58  85 133 170 220 276 312 371
#     4  11  22  45  68  96 136 170 212 277 323 386
#     4  10  24  46  71 102 129 170 215 261 334 402
#     4  12  22  40  59  88 129 171 221 273 321 377
#     4  12  26  41  67 101 134 173 223 269 325 390
#     4   9  22  47  74  98 135 164 208 272 328 400
#     4  11  23  40  60  89 131 165 223 273 318 379
#
# _framework density 20.6982
#
# number of rings (size 3 to 8) (size 9 to 14) (size 15 to 20)
#    0.000    1.000    5.000    1.500    1.750    3.500 
#    0.000    5.625    0.000    0.000    0.000    0.000 
#    0.000    0.000    0.000    0.000    0.000    0.000 
#
# Total GULP energy -89077.621097 kJ/mol
# GULP energy per Si atom -5567.351319 kJ/mol
# Density = 2.065109 g / cm^3
# Si number density = 20.698200 Si / 1000 Ang^3
#
#
#
# Elastic Constant Matrix: (Units=GPa)
#
#
# Indices 1 2 3 4 5 6 
#
# 1 83.7287 21.7318 31.6920 -15.3122 -9.9205 -9.9285
# 2 21.7318 67.6056 28.2867 -17.2835 1.7520 -21.1846
# 3 31.6920 28.2867 139.0299 -13.2983 -2.5022 -17.3165
# 4 -15.3122 -17.2835 -13.2983 14.5124 0.4377 5.1806
# 5 -9.9205 1.7520 -2.5022 0.4377 18.6976 4.4167
# 6 -9.9285 -21.1846 -17.3165 5.1806 4.4167 39.2151
#
#
#
# Elastic Compliance Matrix: (Units=1/GPa)
#
#
# Indices 1 2 3 4 5 6 
#
# 1 0.016553 -0.001122 -0.002069 0.014025 0.008310 -0.000118
# 2 -0.001122 0.025296 -0.001412 0.024172 -0.006143 0.010256
# 3 -0.002069 -0.001412 0.008511 0.003200 -0.000396 0.002094
# 4 0.014025 0.024172 0.003200 0.114409 0.002300 0.002648
# 5 0.008310 -0.006143 -0.000396 0.002300 0.060367 -0.008492
# 6 -0.000118 0.010256 0.002094 0.002648 -0.008492 0.032542
#
#
# Mechanical properties :
#
#
# Convention : Reuss Voigt Hill
#
# Bulk Modulus (GPa) = 24.29853 50.42059 37.35956
# Shear Modulus (GPa) = 17.81884 28.39530 23.10707
#
# Velocity S-wave (km/s) = 2.93727 3.70790 3.34485
# Velocity P-wave (km/s) = 4.82373 6.53790 5.74511
#
# Compressibility (1/GPa) = 0.04115476
#
# Stress axis : x y z
#
# Youngs Moduli (GPa) = 60.41158 39.53215 117.49236
#
# Poissons Ratio (x) = 0.04437 0.24304
# Poissons Ratio (y) = 0.06780 0.16588
# Poissons Ratio (z) = 0.12497 0.05581
#
# Static dielectric constant tensor:
#      x y z
#    x 1.767700 0.041000 -0.059810 
#    y 0.041000 1.838810 -0.110970 
#    z -0.059810 -0.110970 1.872310 
# 
# From -- ./inp_files/140792.got.cif
#   From: 2010.05.17/outbox.cif.g08.bks.cpg/sg2_71_cif.got.tgz:140792.got - 2010.06.03 11:33:40.
