data_PCOD9049493
_publ_section_title
;
Structure prediction by ZEFSAII (Michael W. Deem and Ramdas Pophale) SiO2 
 PCOD9049493
Probable space group: P -1
;
_chemical_formula_sum "Si O2"
_cell_formula_units_Z 12
_cell_length_a 9.970555
_cell_length_b 5.354700
_cell_length_c 18.094522
_cell_angle_alpha 98.925397
_cell_angle_beta 34.654545
_cell_angle_gamma 113.700199
_cell_volume 473.562419
_symmetry_space_group_name_H-M "P -1"
_symmetry_group_IT_number 2
_symmetry_cell_setting 'triclinic'
loop_
_space_group_symop_operation_xyz
x,y,z
-x,-y,-z
loop_
_atom_site_type_symbol
_atom_site_label
_atom_site_fract_x
_atom_site_fract_y
_atom_site_fract_z
Si Si1 0.063004 0.237043 0.546313
Si Si2 0.512309 0.899213 0.172767
Si Si3 0.406492 0.182142 0.496262
Si Si4 0.461597 0.751130 0.948492
Si Si5 0.144794 0.195970 0.114105
Si Si6 0.416936 0.140777 0.696957
O O1 0.114657 0.110207 0.593118
O O2 0.326228 0.546383 0.422076
O O3 0.808148 0.289492 0.675957
O O4 0.000000 0.000000 0.500000
O O5 0.526640 0.182433 0.139977
O O6 0.645471 0.905614 0.190338
O O7 0.666518 0.823935 0.036509
O O8 0.500000 0.500000 0.500000
O O9 0.522602 0.116661 0.365798
O O10 0.500000 0.000000 0.500000
O O11 0.709425 0.719605 0.868958
O O12 0.164342 0.494343 0.091882
O O13 0.500000 0.000000 0.000000
O O14 0.851213 0.925002 0.230067
#
# Coordination Sequence:
#
# PCOD9049493 Si02
#       6
#     2   2   2   2   2   2
#     4  12  28  50  76 112 163 210 266 329 403 478
#     4  11  25  44  76 108 152 205 255 324 397 473
#     4  12  28  50  77 115 156 212 264 330 392 470
#     4   9  22  45  68 104 148 200 252 311 394 470
#     4  10  24  46  75 109 154 201 260 329 394 476
#     4  12  27  48  76 119 158 204 270 331 397 477
#
# _framework density 25.339846999999999
#
# number of rings (size 3 to 8) (size 9 to 14) (size 15 to 20)
#    0.000    1.000    3.333    1.000    4.667    7.333 
#    0.000    0.000    0.000    0.000    0.000    0.000 
#    0.000    0.000    0.000    0.000    0.000    0.000 
#
# Total GULP energy -66826.827102 kJ/mol
# GULP energy per Si atom -5568.902258 kJ/mol
# Density = 2.528217 g / cm^3
# Si number density = 25.339847 Si / 1000 Ang^3
#
#
#
# Elastic Constant Matrix: (Units=GPa)
#
#
# Indices 1 2 3 4 5 6 
#
# 1 106.0673 24.9955 -7.9304 -18.1528 0.0380 -11.1821
# 2 24.9955 138.3246 57.2725 -9.1637 -3.6229 13.2784
# 3 -7.9304 57.2725 97.7732 -12.7122 -4.7945 13.2102
# 4 -18.1528 -9.1637 -12.7122 54.3258 -0.6246 2.3509
# 5 0.0380 -3.6229 -4.7945 -0.6246 47.0995 -8.2940
# 6 -11.1821 13.2784 13.2102 2.3509 -8.2940 32.7332
#
#
#
# Elastic Compliance Matrix: (Units=1/GPa)
#
#
# Indices 1 2 3 4 5 6 
#
# 1 0.011527 -0.003408 0.002913 0.003791 0.000793 0.004073
# 2 -0.003408 0.010654 -0.006214 -0.000669 -0.000351 -0.003019
# 3 0.002913 -0.006214 0.014948 0.003543 0.000628 -0.002612
# 4 0.003791 -0.000669 0.003543 0.020448 0.000359 -0.001241
# 5 0.000793 -0.000351 0.000628 0.000359 0.022291 0.005782
# 6 0.004073 -0.003019 -0.002612 -0.001241 0.005782 0.035775
#
#
# Mechanical properties :
#
#
# Convention : Reuss Voigt Hill
#
# Bulk Modulus (GPa) = 42.17362 54.53780 48.35571
# Shear Modulus (GPa) = 36.50571 44.68688 40.59629
#
# Velocity S-wave (km/s) = 3.79970 4.20396 4.00693
# Velocity P-wave (km/s) = 5.99413 6.71816 6.36645
#
# Compressibility (1/GPa) = 0.02371150
#
# Stress axis : x y z
#
# Youngs Moduli (GPa) = 86.75395 93.85940 66.89783
#
# Poissons Ratio (x) = 0.31987 -0.19485
# Poissons Ratio (y) = 0.29566 0.41567
# Poissons Ratio (z) = -0.25269 0.58320
#
# Static dielectric constant tensor:
#      x y z
#    x 1.803280 -0.150040 0.085670 
#    y -0.150040 2.343320 -0.034830 
#    z 0.085670 -0.034830 2.050450 
# 
# From -- ./inp_files/80624.got.cif
#   From: 2010.05.17/outbox.cif.g08.bks.cpg/sg2_41_cif.got.tgz:80624.got - 2010.06.03 11:33:40.
