data_PCOD9049560
_publ_section_title
;
Structure prediction by ZEFSAII (Michael W. Deem and Ramdas Pophale) SiO2 
 PCOD9049560
Probable space group: P -1
;
_chemical_formula_sum "Si O2"
_cell_formula_units_Z 9
_cell_length_a 6.446054
_cell_length_b 5.147583
_cell_length_c 12.222974
_cell_angle_alpha 51.199392
_cell_angle_beta 78.739103
_cell_angle_gamma 77.225286
_cell_volume 307.395956
_symmetry_space_group_name_H-M "P -1"
_symmetry_group_IT_number 2
_symmetry_cell_setting 'triclinic'
loop_
_space_group_symop_operation_xyz
x,y,z
-x,-y,-z
loop_
_atom_site_type_symbol
_atom_site_label
_atom_site_fract_x
_atom_site_fract_y
_atom_site_fract_z
Si Si1 0.500000 0.000000 0.500000
Si Si2 0.909328 0.689991 0.154395
Si Si3 0.141339 0.360023 0.420441
Si Si4 0.649426 0.729154 0.983161
Si Si5 0.527275 0.167585 0.706283
O O1 0.225706 0.970514 0.527682
O O2 0.502637 0.002144 0.637310
O O3 0.700314 0.797183 0.221301
O O4 0.074022 0.499153 0.272484
O O5 0.818183 0.524988 0.099220
O O6 0.000000 0.000000 0.000000
O O7 0.387442 0.462674 0.395713
O O8 0.000000 0.500000 0.500000
O O9 0.711219 0.950628 0.816667
O O10 0.500000 0.500000 0.000000
O O11 0.500000 0.000000 0.000000
#
# Coordination Sequence:
#
# PCOD9049560 Si02
#       5
#     1   2   2   2   2
#     4  12  28  46  80 112 164 224 270 344 420 500
#     4  11  24  51  84 117 166 219 278 353 428 502
#     4  12  27  52  78 119 168 218 283 342 424 512
#     4  10  24  46  79 116 166 213 273 352 425 498
#     4  11  26  48  78 118 168 211 283 353 412 510
#
# _framework density 29.278199000000001
#
# number of rings (size 3 to 8) (size 9 to 14) (size 15 to 20)
#    0.000    0.889    4.444    0.667    6.222    0.889 
#    8.000    5.556    0.000    0.000    0.000    0.000 
#    0.000    0.000    0.000    0.000    0.000    0.000 
#
# Total GULP energy -50266.749464 kJ/mol
# GULP energy per Si atom -5585.194385 kJ/mol
# Density = 2.921156 g / cm^3
# Si number density = 29.278199 Si / 1000 Ang^3
#
#
#
# Elastic Constant Matrix: (Units=GPa)
#
#
# Indices 1 2 3 4 5 6 
#
# 1 172.0482 59.2482 116.0913 9.1075 46.9768 -21.9141
# 2 59.2482 152.8279 76.3755 33.0486 4.6927 4.4722
# 3 116.0913 76.3755 230.9916 29.6880 68.1915 -7.8316
# 4 9.1075 33.0486 29.6880 67.9039 2.9768 -10.1542
# 5 46.9768 4.6927 68.1915 2.9768 113.5558 -0.0273
# 6 -21.9141 4.4722 -7.8316 -10.1542 -0.0273 77.2861
#
#
#
# Elastic Compliance Matrix: (Units=1/GPa)
#
#
# Indices 1 2 3 4 5 6 
#
# 1 0.009986 -0.002406 -0.003867 0.002025 -0.001762 0.002844
# 2 -0.002406 0.009276 -0.002016 -0.003680 0.001919 -0.001906
# 3 -0.003867 -0.002016 0.008102 -0.001968 -0.003131 -0.000418
# 4 0.002025 -0.003680 -0.001968 0.017537 0.000037 0.002892
# 5 -0.001762 0.001919 -0.003131 0.000037 0.011335 -0.000919
# 6 0.002844 -0.001906 -0.000418 0.002892 -0.000919 0.014193
#
#
# Mechanical properties :
#
#
# Convention : Reuss Voigt Hill
#
# Bulk Modulus (GPa) = 92.70627 117.69975 105.20301
# Shear Modulus (GPa) = 55.18553 72.02600 63.60576
#
# Velocity S-wave (km/s) = 4.34622 4.96528 4.66602
# Velocity P-wave (km/s) = 7.54445 8.55334 8.06469
#
# Compressibility (1/GPa) = 0.01078676
#
# Stress axis : x y z
#
# Youngs Moduli (GPa) = 100.13575 107.80371 123.42242
#
# Poissons Ratio (x) = 0.25937 0.47729
# Poissons Ratio (y) = 0.24092 0.24882
# Poissons Ratio (z) = 0.38723 0.21733
#
# Static dielectric constant tensor:
#      x y z
#    x 2.569960 -0.067580 -0.025500 
#    y -0.067580 2.391320 -0.226140 
#    z -0.025500 -0.226140 2.399020 
# 
# From -- ./inp_files/1941.got.cif
#   From: 2010.05.17/outbox.cif.g08.bks.cpg/sg2_1_cif.got.tgz:1941.got - 2010.06.03 11:33:40.
