data_PCOD9049084
_publ_section_title
;
Structure prediction by ZEFSAII (Michael W. Deem and Ramdas Pophale) SiO2 
 PCOD9049084
Probable space group: P -1
;
_chemical_formula_sum "Si O2"
_cell_formula_units_Z 13
_cell_length_a 7.888185
_cell_length_b 4.726048
_cell_length_c 16.164232
_cell_angle_alpha 101.457155
_cell_angle_beta 51.838398
_cell_angle_gamma 107.661233
_cell_volume 451.426009
_symmetry_space_group_name_H-M "P -1"
_symmetry_group_IT_number 2
_symmetry_cell_setting 'triclinic'
loop_
_space_group_symop_operation_xyz
x,y,z
-x,-y,-z
loop_
_atom_site_type_symbol
_atom_site_label
_atom_site_fract_x
_atom_site_fract_y
_atom_site_fract_z
Si Si1 0.911029 0.957701 0.719936
Si Si2 0.756613 0.314402 0.487928
Si Si3 0.259114 0.111885 0.922469
Si Si4 0.446941 0.961396 0.293616
Si Si5 0.000000 0.000000 0.500000
Si Si6 0.703143 0.535766 0.338293
Si Si7 0.497751 0.725515 0.924417
O O1 0.727229 0.083049 0.731490
O O2 0.745524 0.734144 0.817019
O O3 0.029937 0.873822 0.594473
O O4 0.078854 0.211452 0.733448
O O5 0.780827 0.355050 0.379346
O O6 0.483008 0.290706 0.568333
O O7 0.859512 0.662698 0.501682
O O8 0.359763 0.395142 0.966415
O O9 0.367154 0.198081 0.804119
O O10 0.349918 0.826612 0.902834
O O11 0.000000 0.000000 0.000000
O O12 0.268844 0.856957 0.415471
O O13 0.580413 0.286387 0.297853
O O14 0.500000 0.000000 0.000000
#
# Coordination Sequence:
#
# PCOD9049084 Si02
#       7
#     2   2   2   2   1   2   2
#     4  10  25  46  71 104 158 194 266 325 397 476
#     4  10  25  44  68 111 152 205 262 322 391 474
#     4  11  26  50  76 113 157 198 267 326 394 484
#     4  10  26  44  72 110 147 211 250 324 407 457
#     4  10  24  46  68 110 160 202 256 326 392 480
#     4  11  25  44  73 109 153 206 267 323 387 483
#     4  11  26  48  80 112 151 206 257 327 408 466
#
# _framework density 28.797630999999999
#
# number of rings (size 3 to 8) (size 9 to 14) (size 15 to 20)
#    0.000    1.538    0.000    1.385   17.231    6.154 
#    0.000    0.000    0.000    0.000    0.000    0.000 
#    0.000    0.000    0.000    0.000    0.000    0.000 
#
# Total GULP energy -72581.205772 kJ/mol
# GULP energy per Si atom -5583.169675 kJ/mol
# Density = 2.873209 g / cm^3
# Si number density = 28.797631 Si / 1000 Ang^3
#
#
#
# Elastic Constant Matrix: (Units=GPa)
#
#
# Indices 1 2 3 4 5 6 
#
# 1 110.7860 63.1159 26.4012 -13.3645 -14.4543 3.8513
# 2 63.1159 258.7804 64.2603 -4.6555 -18.8127 22.1294
# 3 26.4012 64.2603 195.4669 -12.2148 -24.2026 31.6016
# 4 -13.3645 -4.6555 -12.2148 48.1723 20.0188 -10.7852
# 5 -14.4543 -18.8127 -24.2026 20.0188 42.9646 -6.3510
# 6 3.8513 22.1294 31.6016 -10.7852 -6.3510 75.3603
#
#
#
# Elastic Compliance Matrix: (Units=1/GPa)
#
#
# Indices 1 2 3 4 5 6 
#
# 1 0.010988 -0.002488 -0.000483 0.002291 0.001388 0.000816
# 2 -0.002488 0.004871 -0.001050 -0.001154 0.001104 -0.000935
# 3 -0.000483 -0.001050 0.006175 -0.000239 0.002662 -0.002066
# 4 0.002291 -0.001154 -0.000239 0.026888 -0.011929 0.003165
# 5 0.001388 0.001104 0.002662 -0.011929 0.031196 -0.000590
# 6 0.000816 -0.000935 -0.002066 0.003165 -0.000590 0.014772
#
#
# Mechanical properties :
#
#
# Convention : Reuss Voigt Hill
#
# Bulk Modulus (GPa) = 71.46309 96.95424 84.20866
# Shear Modulus (GPa) = 46.47008 60.71651 53.59329
#
# Velocity S-wave (km/s) = 4.02142 4.59670 4.31865
# Velocity P-wave (km/s) = 6.81409 7.86850 7.36021
#
# Compressibility (1/GPa) = 0.01399324
#
# Stress axis : x y z
#
# Youngs Moduli (GPa) = 91.00892 205.29167 161.94170
#
# Poissons Ratio (x) = 0.51069 0.07825
# Poissons Ratio (y) = 0.22640 0.16997
# Poissons Ratio (z) = 0.04398 0.21547
#
# Static dielectric constant tensor:
#      x y z
#    x 3.070410 -0.405200 0.009690 
#    y -0.405200 2.202260 -0.050930 
#    z 0.009690 -0.050930 2.839630 
# 
# From -- ./inp_files/42714.got.cif
#   From: 2010.05.17/outbox.cif.g08.bks.cpg/sg2_22_cif.got.tgz:42714.got - 2010.06.03 11:33:40.
