data_PCOD9049784
_publ_section_title
;
Structure prediction by ZEFSAII (Michael W. Deem and Ramdas Pophale) SiO2 
 PCOD9049784
Probable space group: P -1
;
_chemical_formula_sum "Si O2"
_cell_formula_units_Z 12
_cell_length_a 10.024603
_cell_length_b 13.406895
_cell_length_c 5.089725
_cell_angle_alpha 68.762397
_cell_angle_beta 79.736741
_cell_angle_gamma 44.742881
_cell_volume 445.546143
_symmetry_space_group_name_H-M "P -1"
_symmetry_group_IT_number 2
_symmetry_cell_setting 'triclinic'
loop_
_space_group_symop_operation_xyz
x,y,z
-x,-y,-z
loop_
_atom_site_type_symbol
_atom_site_label
_atom_site_fract_x
_atom_site_fract_y
_atom_site_fract_z
Si Si1 0.691336 0.397560 0.361464
Si Si2 0.655004 0.828157 0.705921
Si Si3 0.959767 0.748789 0.328211
Si Si4 0.780941 0.132982 0.349120
Si Si5 0.345221 0.924669 0.064182
Si Si6 0.157344 0.482086 0.118719
O O1 0.500000 0.500000 0.500000
O O2 0.706786 0.295531 0.239405
O O3 0.738505 0.485400 0.125864
O O4 0.864205 0.277744 0.617088
O O5 0.849788 0.779559 0.605716
O O6 0.558607 0.845382 0.996539
O O7 0.500000 0.000000 0.500000
O O8 0.692657 0.692338 0.686572
O O9 0.052264 0.599074 0.283051
O O10 0.804984 0.894103 0.065320
O O11 0.734172 0.107047 0.110749
O O12 0.669671 0.126874 0.611422
O O13 0.000000 0.000000 0.500000
O O14 0.000000 0.500000 0.000000
#
# Coordination Sequence:
#
# PCOD9049784 Si02
#       6
#     2   2   2   2   2   2
#     4  12  28  44  72 109 148 198 251 313 377 458
#     4  10  24  47  74 107 142 195 253 314 375 452
#     4  11  25  46  72 108 149 193 253 312 380 452
#     4  12  25  47  75 107 155 201 251 311 381 450
#     4  11  26  47  76 111 152 201 253 316 376 454
#     4  12  26  47  77 103 149 201 250 315 386 452
#
# _framework density 26.933235
#
# number of rings (size 3 to 8) (size 9 to 14) (size 15 to 20)
#    0.000    0.667    3.333    3.000    4.667    2.000 
#    0.000    4.167    0.000    0.000    0.000    0.000 
#    0.000    0.000    0.000    0.000    0.000    0.000 
#
# Total GULP energy -67298.944417 kJ/mol
# GULP energy per Si atom -5608.245368 kJ/mol
# Density = 2.687193 g / cm^3
# Si number density = 26.933235 Si / 1000 Ang^3
#
#
#
# Elastic Constant Matrix: (Units=GPa)
#
#
# Indices 1 2 3 4 5 6 
#
# 1 146.6664 88.4227 52.4181 9.8283 -10.2718 -14.6209
# 2 88.4227 201.1309 57.9741 21.7173 -12.8307 19.4324
# 3 52.4181 57.9741 116.5282 6.3343 -30.3493 -10.2116
# 4 9.8283 21.7173 6.3343 42.7715 2.4905 -15.0779
# 5 -10.2718 -12.8307 -30.3493 2.4905 55.8842 12.8831
# 6 -14.6209 19.4324 -10.2116 -15.0779 12.8831 66.8755
#
#
#
# Elastic Compliance Matrix: (Units=1/GPa)
#
#
# Indices 1 2 3 4 5 6 
#
# 1 0.010729 -0.004618 -0.002677 0.001766 -0.001536 0.003973
# 2 -0.004618 0.008749 -0.002083 -0.005022 0.001471 -0.005285
# 3 -0.002677 -0.002083 0.012351 -0.000203 0.005565 0.000788
# 4 0.001766 -0.005022 -0.000203 0.029052 -0.004355 0.009203
# 5 -0.001536 0.001471 0.005565 -0.004355 0.022365 -0.005204
# 6 0.003973 -0.005285 0.000788 0.009203 -0.005204 0.020555
#
#
# Mechanical properties :
#
#
# Convention : Reuss Voigt Hill
#
# Bulk Modulus (GPa) = 76.48183 95.77280 86.12732
# Shear Modulus (GPa) = 39.39661 50.80694 45.10177
#
# Velocity S-wave (km/s) = 3.82874 4.34799 4.09660
# Velocity P-wave (km/s) = 6.92850 7.80020 7.37724
#
# Compressibility (1/GPa) = 0.01307500
#
# Stress axis : x y z
#
# Youngs Moduli (GPa) = 93.20618 114.29982 80.96322
#
# Poissons Ratio (x) = 0.52779 0.21673
# Poissons Ratio (y) = 0.43039 0.16861
# Poissons Ratio (z) = 0.24950 0.23804
#
# Static dielectric constant tensor:
#      x y z
#    x 2.175220 -0.003120 0.038080 
#    y -0.003120 2.146010 -0.020350 
#    z 0.038080 -0.020350 2.110570 
# 
# From -- ./inp_files/75375.got.cif
#   From: 2010.05.17/outbox.cif.g08.bks.cpg/sg2_38_cif.got.tgz:75375.got - 2010.06.03 11:33:40.
