data_PCOD9049229
_publ_section_title
;
Structure prediction by ZEFSAII (Michael W. Deem and Ramdas Pophale) SiO2 
 PCOD9049229
Probable space group: P -1
;
_chemical_formula_sum "Si O2"
_cell_formula_units_Z 16
_cell_length_a 9.620438
_cell_length_b 7.872465
_cell_length_c 11.059024
_cell_angle_alpha 56.631643
_cell_angle_beta 85.934013
_cell_angle_gamma 99.714462
_cell_volume 675.696732
_symmetry_space_group_name_H-M "P -1"
_symmetry_group_IT_number 2
_symmetry_cell_setting 'triclinic'
loop_
_space_group_symop_operation_xyz
x,y,z
-x,-y,-z
loop_
_atom_site_type_symbol
_atom_site_label
_atom_site_fract_x
_atom_site_fract_y
_atom_site_fract_z
Si Si1 0.697267 0.639747 0.714711
Si Si2 0.043801 0.969367 0.828158
Si Si3 0.901639 0.267913 0.581132
Si Si4 0.857592 0.579880 0.959416
Si Si5 0.675369 0.856600 0.110046
Si Si6 0.196805 0.925162 0.586747
Si Si7 0.374908 0.824995 0.215748
Si Si8 0.380226 0.624135 0.778734
O O1 0.818380 0.651475 0.803218
O O2 0.665165 0.402704 0.759369
O O3 0.550562 0.677213 0.766683
O O4 0.745039 0.827328 0.542258
O O5 0.173659 0.029633 0.887280
O O6 0.974903 0.152406 0.720702
O O7 0.109797 0.903057 0.725468
O O8 0.908840 0.789889 0.952554
O O9 0.900587 0.180356 0.479690
O O10 0.733366 0.215061 0.649343
O O11 0.000000 0.500000 0.500000
O O12 0.714555 0.419856 0.076899
O O13 0.000000 0.500000 0.000000
O O14 0.546241 0.873550 0.204256
O O15 0.657242 0.606863 0.191458
O O16 0.648906 0.985887 0.941933
O O17 0.321213 0.799071 0.643202
#
# Coordination Sequence:
#
# PCOD9049229 Si02
#       8
#     2   2   2   2   2   2   2   2
#     4  11  25  45  71 100 141 183 231 288 345 417
#     4  12  25  43  69 101 139 183 227 291 342 412
#     4  12  26  43  70  99 140 186 225 284 347 419
#     4  12  24  42  69 103 136 178 230 290 343 407
#     4  10  24  46  71 101 137 179 237 291 342 409
#     4  12  26  45  68 105 145 182 236 277 352 417
#     4  10  24  46  71 100 136 184 234 288 347 409
#     4  11  25  45  70 102 138 186 233 284 347 411
#
# _framework density 23.679262999999999
#
# number of rings (size 3 to 8) (size 9 to 14) (size 15 to 20)
#    0.000    0.750    2.500    4.125    1.750    6.000 
#    0.000    3.125    0.000    0.000    0.000    0.000 
#    0.000    0.000    0.000    0.000    0.000    0.000 
#
# Total GULP energy -89475.275298 kJ/mol
# GULP energy per Si atom -5592.204706 kJ/mol
# Density = 2.362537 g / cm^3
# Si number density = 23.679263 Si / 1000 Ang^3
#
#
#
# Elastic Constant Matrix: (Units=GPa)
#
#
# Indices 1 2 3 4 5 6 
#
# 1 85.9662 5.5917 37.1875 -6.5994 3.0457 -6.7989
# 2 5.5917 40.1118 8.4364 -12.3814 -3.0440 7.0357
# 3 37.1875 8.4364 88.9009 -14.5048 0.1329 -9.4912
# 4 -6.5994 -12.3814 -14.5048 43.8830 -11.4519 0.9385
# 5 3.0457 -3.0440 0.1329 -11.4519 47.1975 1.0730
# 6 -6.7989 7.0357 -9.4912 0.9385 1.0730 34.9286
#
#
#
# Elastic Compliance Matrix: (Units=1/GPa)
#
#
# Indices 1 2 3 4 5 6 
#
# 1 0.014346 -0.001272 -0.005788 -0.000443 -0.001134 0.001523
# 2 -0.001272 0.029777 -0.001590 0.008969 0.004344 -0.007052
# 3 -0.005788 -0.001590 0.014763 0.003776 0.001076 0.003070
# 4 -0.000443 0.008969 0.003776 0.028512 0.007557 -0.001865
# 5 -0.001134 0.004344 0.001076 0.007557 0.023411 -0.001725
# 6 0.001523 -0.007052 0.003070 -0.001865 -0.001725 0.031284
#
#
# Mechanical properties :
#
#
# Convention : Reuss Voigt Hill
#
# Bulk Modulus (GPa) = 24.04689 35.26778 29.65734
# Shear Modulus (GPa) = 28.85939 36.11938 32.48938
#
# Velocity S-wave (km/s) = 3.49486 3.90982 3.70815
# Velocity P-wave (km/s) = 5.14419 5.94210 5.55749
#
# Compressibility (1/GPa) = 0.04158541
#
# Stress axis : x y z
#
# Youngs Moduli (GPa) = 69.70746 33.58294 67.73797
#
# Poissons Ratio (x) = 0.04273 0.39208
# Poissons Ratio (y) = 0.08869 0.10767
# Poissons Ratio (z) = 0.40348 0.05338
#
# Static dielectric constant tensor:
#      x y z
#    x 1.907640 -0.071620 -0.056320 
#    y -0.071620 1.945870 0.007170 
#    z -0.056320 0.007170 1.852460 
# 
# From -- ./inp_files/381060.got.cif
#   From: 2010.05.17/outbox.cif.g08.bks.cpg/sg2_191_cif.got.tgz:381060.got - 2010.06.03 11:33:40.
