data_PCOD9049764
_publ_section_title
;
Structure prediction by ZEFSAII (Michael W. Deem and Ramdas Pophale) SiO2 
 PCOD9049764
Probable space group: P -1
;
_chemical_formula_sum "Si O2"
_cell_formula_units_Z 15
_cell_length_a 6.725345
_cell_length_b 18.971470
_cell_length_c 5.345036
_cell_angle_alpha 89.954418
_cell_angle_beta 106.749685
_cell_angle_gamma 57.634512
_cell_volume 541.355765
_symmetry_space_group_name_H-M "P -1"
_symmetry_group_IT_number 2
_symmetry_cell_setting 'triclinic'
loop_
_space_group_symop_operation_xyz
x,y,z
-x,-y,-z
loop_
_atom_site_type_symbol
_atom_site_label
_atom_site_fract_x
_atom_site_fract_y
_atom_site_fract_z
Si Si1 0.756512 0.302276 0.198000
Si Si2 0.887872 0.699892 0.312652
Si Si3 0.455760 0.769714 0.523921
Si Si4 0.860446 0.050349 0.703768
Si Si5 0.132911 0.524252 0.179808
Si Si6 0.234218 0.165146 0.097591
Si Si7 0.381664 0.469447 0.819077
Si Si8 0.500000 0.000000 0.500000
O O1 0.596215 0.288659 0.335004
O O2 0.897783 0.337595 0.398314
O O3 0.980899 0.213277 0.169166
O O4 0.579717 0.367701 0.925295
O O5 0.636598 0.724711 0.357540
O O6 0.973292 0.627953 0.138182
O O7 0.849688 0.786926 0.199276
O O8 0.201569 0.855949 0.340454
O O9 0.589864 0.802900 0.747880
O O10 0.604226 0.055460 0.626465
O O11 0.000000 0.000000 0.500000
O O12 0.000000 0.000000 0.000000
O O13 0.262178 0.487787 0.497839
O O14 0.404797 0.503120 0.137192
O O15 0.887223 0.509391 0.123592
O O16 0.370050 0.066167 0.202468
#
# Coordination Sequence:
#
# PCOD9049764 Si02
#       8
#     2   2   2   2   2   2   2   1
#     4  11  25  46  78 109 152 207 264 328 406 474
#     4  11  26  48  76 110 159 204 265 335 405 484
#     4  10  26  47  73 113 154 210 261 326 402 484
#     4  11  26  47  77 116 159 203 267 331 396 487
#     4  12  29  51  76 113 157 208 266 339 409 484
#     4  10  24  47  73 111 157 204 262 330 398 486
#     4  12  26  50  78 112 154 205 269 332 408 488
#     4  10  24  48  78 112 158 210 260 324 412 470
#
# _framework density 27.708212
#
# number of rings (size 3 to 8) (size 9 to 14) (size 15 to 20)
#    0.000    1.067    1.333    2.400   11.200    2.667 
#    0.000    0.000    0.000    0.000    0.000    0.000 
#    0.000    0.000    0.000    0.000    0.000    0.000 
#
# Total GULP energy -83823.531808 kJ/mol
# GULP energy per Si atom -5588.235454 kJ/mol
# Density = 2.764515 g / cm^3
# Si number density = 27.708212 Si / 1000 Ang^3
#
#
#
# Elastic Constant Matrix: (Units=GPa)
#
#
# Indices 1 2 3 4 5 6 
#
# 1 154.8972 54.2027 94.0225 16.7778 -18.6004 2.7944
# 2 54.2027 104.2000 62.5569 -11.1936 -2.8853 6.5139
# 3 94.0225 62.5569 220.7076 -28.3792 -9.6694 1.8605
# 4 16.7778 -11.1936 -28.3792 48.2666 -0.0680 -1.1778
# 5 -18.6004 -2.8853 -9.6694 -0.0680 73.6611 13.2973
# 6 2.7944 6.5139 1.8605 -1.1778 13.2973 50.3148
#
#
#
# Elastic Compliance Matrix: (Units=1/GPa)
#
#
# Indices 1 2 3 4 5 6 
#
# 1 0.012004 -0.004059 -0.004882 -0.008000 0.002363 -0.000773
# 2 -0.004059 0.013068 -0.001535 0.003509 -0.000495 -0.001197
# 3 -0.004882 -0.001535 0.007790 0.005931 -0.000339 0.000410
# 4 -0.008000 0.003509 0.005931 0.027816 -0.001212 0.000742
# 5 0.002363 -0.000495 -0.000339 -0.001212 0.014830 -0.004002
# 6 -0.000773 -0.001197 0.000410 0.000742 -0.004002 0.021133
#
#
# Mechanical properties :
#
#
# Convention : Reuss Voigt Hill
#
# Bulk Modulus (GPa) = 83.96454 100.15211 92.05833
# Shear Modulus (GPa) = 41.13120 52.38333 46.75727
#
# Velocity S-wave (km/s) = 3.85702 4.35274 4.11236
# Velocity P-wave (km/s) = 7.08551 7.84128 7.47295
#
# Compressibility (1/GPa) = 0.01190979
#
# Stress axis : x y z
#
# Youngs Moduli (GPa) = 83.30802 76.52252 128.37039
#
# Poissons Ratio (x) = 0.31060 0.62667
# Poissons Ratio (y) = 0.33814 0.19709
# Poissons Ratio (z) = 0.40669 0.11748
#
# Static dielectric constant tensor:
#      x y z
#    x 2.243440 -0.013110 0.062430 
#    y -0.013110 2.077950 0.031480 
#    z 0.062430 0.031480 2.173300 
# 
# From -- ./inp_files/10414.got.cif
#   From: 2010.05.17/outbox.cif.g08.bks.cpg/sg2_6_cif.got.tgz:10414.got - 2010.06.03 11:33:40.
