data_PCOD9049123
_publ_section_title
;
Structure prediction by ZEFSAII (Michael W. Deem and Ramdas Pophale) SiO2 
 PCOD9049123
Probable space group: P -1
;
_chemical_formula_sum "Si O2"
_cell_formula_units_Z 12
_cell_length_a 11.117597
_cell_length_b 14.622304
_cell_length_c 11.832338
_cell_angle_alpha 36.403429
_cell_angle_beta 56.951469
_cell_angle_gamma 30.576448
_cell_volume 506.558950
_symmetry_space_group_name_H-M "P -1"
_symmetry_group_IT_number 2
_symmetry_cell_setting 'triclinic'
loop_
_space_group_symop_operation_xyz
x,y,z
-x,-y,-z
loop_
_atom_site_type_symbol
_atom_site_label
_atom_site_fract_x
_atom_site_fract_y
_atom_site_fract_z
Si Si1 0.893114 0.266702 0.705429
Si Si2 0.290131 0.138600 0.066741
Si Si3 0.288498 0.630715 0.073221
Si Si4 0.505313 0.676710 0.318401
Si Si5 0.287738 0.324772 0.245499
Si Si6 0.431106 0.895375 0.898126
O O1 0.666546 0.426707 0.756072
O O2 0.770357 0.472382 0.460528
O O3 0.119084 0.160375 0.761468
O O4 0.040796 0.980176 0.862522
O O5 0.438169 0.057465 0.185299
O O6 0.271000 0.974445 0.214630
O O7 0.997810 0.475175 0.856368
O O8 0.500000 0.000000 0.000000
O O9 0.234925 0.503613 0.187859
O O10 0.500000 0.500000 0.000000
O O11 0.500000 0.500000 0.500000
O O12 0.497763 0.739234 0.131595
O O13 0.419078 0.293147 0.103288
O O14 0.500000 0.000000 0.500000
#
# Coordination Sequence:
#
# PCOD9049123 Si02
#       6
#     2   2   2   2   2   2
#     4  11  24  46  79 105 150 192 244 306 372 429
#     4  10  24  46  69 103 147 186 248 304 353 446
#     4  11  23  45  74 110 143 190 251 299 357 447
#     4  11  24  45  75 104 144 194 245 297 374 426
#     4  12  27  46  74 107 150 195 247 303 372 437
#     4  11  25  46  70 105 148 187 246 302 357 444
#
# _framework density 23.689245
#
# number of rings (size 3 to 8) (size 9 to 14) (size 15 to 20)
#    0.000    1.000    1.667    5.500    7.000    0.667 
#    3.000    1.667    0.000    0.000    0.000    0.000 
#    0.000    0.000    0.000    0.000    0.000    0.000 
#
# Total GULP energy -66902.223002 kJ/mol
# GULP energy per Si atom -5575.185250 kJ/mol
# Density = 2.363533 g / cm^3
# Si number density = 23.689245 Si / 1000 Ang^3
#
#
#
# Elastic Constant Matrix: (Units=GPa)
#
#
# Indices 1 2 3 4 5 6 
#
# 1 138.9539 43.5721 61.5215 -11.7631 8.8620 23.9266
# 2 43.5721 144.7257 30.5710 8.6413 13.8577 14.5393
# 3 61.5215 30.5710 146.7418 -3.1957 28.5548 4.8158
# 4 -11.7631 8.6413 -3.1957 35.7539 6.2471 -1.2635
# 5 8.8620 13.8577 28.5548 6.2471 46.4993 -8.9303
# 6 23.9266 14.5393 4.8158 -1.2635 -8.9303 48.5650
#
#
#
# Elastic Compliance Matrix: (Units=1/GPa)
#
#
# Indices 1 2 3 4 5 6 
#
# 1 0.010549 -0.002156 -0.003683 0.003583 -0.000387 -0.004164
# 2 -0.002156 0.008140 -0.000452 -0.002475 -0.001734 -0.001713
# 3 -0.003683 -0.000452 0.009441 0.000623 -0.005024 0.000106
# 4 0.003583 -0.002475 0.000623 0.030575 -0.004656 -0.001147
# 5 -0.000387 -0.001734 -0.005024 -0.004656 0.026968 0.006046
# 6 -0.004164 -0.001713 0.000106 -0.001147 0.006046 0.024227
#
#
# Mechanical properties :
#
#
# Convention : Reuss Voigt Hill
#
# Bulk Modulus (GPa) = 64.32448 77.97228 71.14838
# Shear Modulus (GPa) = 39.16520 45.81407 42.48963
#
# Velocity S-wave (km/s) = 4.07048 4.40245 4.23972
# Velocity P-wave (km/s) = 7.02169 7.66996 7.35297
#
# Compressibility (1/GPa) = 0.01554618
#
# Stress axis : x y z
#
# Youngs Moduli (GPa) = 94.79953 122.84707 105.92298
#
# Poissons Ratio (x) = 0.26490 0.39014
# Poissons Ratio (y) = 0.20442 0.04789
# Poissons Ratio (z) = 0.34917 0.05554
#
# Static dielectric constant tensor:
#      x y z
#    x 2.119100 -0.047750 -0.069230 
#    y -0.047750 1.892320 -0.006470 
#    z -0.069230 -0.006470 1.984410 
# 
# From -- ./inp_files/281494.got.cif
#   From: 2010.05.17/outbox.cif.g08.bks.cpg/sg2_141_cif.got.tgz:281494.got - 2010.06.03 11:33:40.
