data_PCOD9049410
_publ_section_title
;
Structure prediction by ZEFSAII (Michael W. Deem and Ramdas Pophale) SiO2 
 PCOD9049410
Probable space group: P -1
;
_chemical_formula_sum "Si O2"
_cell_formula_units_Z 16
_cell_length_a 11.785338
_cell_length_b 24.554516
_cell_length_c 18.854570
_cell_angle_alpha 15.338726
_cell_angle_beta 35.543342
_cell_angle_gamma 29.450220
_cell_volume 695.199868
_symmetry_space_group_name_H-M "P -1"
_symmetry_group_IT_number 2
_symmetry_cell_setting 'triclinic'
loop_
_space_group_symop_operation_xyz
x,y,z
-x,-y,-z
loop_
_atom_site_type_symbol
_atom_site_label
_atom_site_fract_x
_atom_site_fract_y
_atom_site_fract_z
Si Si1 0.383386 0.424065 0.378445
Si Si2 0.672767 0.841062 0.782074
Si Si3 0.497675 0.705863 0.788008
Si Si4 0.194301 0.570631 0.883395
Si Si5 0.117711 0.520130 0.540172
Si Si6 0.338891 0.016257 0.848611
Si Si7 0.943342 0.159684 0.078387
Si Si8 0.569526 0.158400 0.817178
O O1 0.649013 0.347321 0.338195
O O2 0.246516 0.433206 0.506728
O O3 0.394418 0.226642 0.567292
O O4 0.215412 0.701374 0.084604
O O5 0.917515 0.785595 0.759322
O O6 0.490109 0.108772 0.503109
O O7 0.526042 0.815782 0.950298
O O8 0.758740 0.648376 0.916787
O O9 0.500000 0.500000 0.000000
O O10 0.685833 0.562312 0.935433
O O11 0.231343 0.866190 0.752342
O O12 0.336220 0.433277 0.589232
O O13 0.922413 0.810665 0.267857
O O14 0.009833 0.357611 0.818582
O O15 0.365231 0.924220 0.031024
O O16 0.189785 0.904215 0.260701
O O17 0.500000 0.000000 0.000000
#
# Coordination Sequence:
#
# PCOD9049410 Si02
#       8
#     2   2   2   2   2   2   2   2
#     4  10  17  34  60  84 118 150 198 254 294 357
#     4  11  25  43  62  84 129 173 204 252 302 372
#     4  11  23  40  66  96 122 154 210 266 307 362
#     4  10  25  43  60  89 122 173 212 241 309 368
#     4  10  18  31  55  87 122 149 186 248 316 352
#     4  11  20  36  58  89 120 151 201 255 304 356
#     4   9  17  31  52  87 121 144 185 242 311 357
#     4  10  18  29  52  88 117 150 185 240 312 354
#
# _framework density 23.014963000000002
#
# number of rings (size 3 to 8) (size 9 to 14) (size 15 to 20)
#    0.000    1.750    3.750    3.375    1.750    5.000 
#    0.000    0.625    0.000    0.750    0.000    0.000 
#    0.000    0.000    0.000    0.000    0.000    0.000 
#
# Total GULP energy -89201.514017 kJ/mol
# GULP energy per Si atom -5575.094626 kJ/mol
# Density = 2.296258 g / cm^3
# Si number density = 23.014963 Si / 1000 Ang^3
#
#
#
# Elastic Constant Matrix: (Units=GPa)
#
#
# Indices 1 2 3 4 5 6 
#
# 1 64.5935 28.5679 24.5244 -16.5726 27.4158 -9.3986
# 2 28.5679 77.2680 4.4094 -7.4037 30.6492 -7.8765
# 3 24.5244 4.4094 38.2989 -4.4775 17.7227 -0.3713
# 4 -16.5726 -7.4037 -4.4775 27.2833 -10.4138 4.9723
# 5 27.4158 30.6492 17.7227 -10.4138 32.1197 -10.3420
# 6 -9.3986 -7.8765 -0.3713 4.9723 -10.3420 26.9515
#
#
#
# Elastic Compliance Matrix: (Units=1/GPa)
#
#
# Indices 1 2 3 4 5 6 
#
# 1 0.029695 -0.005683 -0.013402 0.010621 -0.007960 0.003496
# 2 -0.005683 0.025256 0.014119 -0.004905 -0.030278 -0.005120
# 3 -0.013402 0.014119 0.048228 -0.007558 -0.034923 -0.011890
# 4 0.010621 -0.004905 -0.007558 0.046217 0.014515 -0.000791
# 5 -0.007960 -0.030278 -0.034923 0.014515 0.098164 0.022885
# 6 0.003496 -0.005120 -0.011890 -0.000791 0.022885 0.045590
#
#
# Mechanical properties :
#
#
# Convention : Reuss Voigt Hill
#
# Bulk Modulus (GPa) = 10.72405 32.79598 21.76002
# Shear Modulus (GPa) = 14.96273 25.44815 20.20544
#
# Velocity S-wave (km/s) = 2.55253 3.32885 2.96620
# Velocity P-wave (km/s) = 3.65471 5.39034 4.60503
#
# Compressibility (1/GPa) = 0.09324832
#
# Stress axis : x y z
#
# Youngs Moduli (GPa) = 33.67550 39.59512 20.73464
#
# Poissons Ratio (x) = 0.22502 0.27788
# Poissons Ratio (y) = 0.19138 -0.29276
# Poissons Ratio (z) = 0.45132 -0.55906
#
# Static dielectric constant tensor:
#      x y z
#    x 1.966400 -0.019210 -0.003950 
#    y -0.019210 1.905230 -0.027800 
#    z -0.003950 -0.027800 1.935740 
# 
# From -- ./inp_files/571020.got.cif
#   From: 2010.05.17/outbox.cif.g08.bks.cpg/sg2_286_cif.got.tgz:571020.got - 2010.06.03 11:33:40.
