data_PCOD9049538
_publ_section_title
;
Structure prediction by ZEFSAII (Michael W. Deem and Ramdas Pophale) SiO2 
 PCOD9049538
Probable space group: P -1
;
_chemical_formula_sum "Si O2"
_cell_formula_units_Z 11
_cell_length_a 7.991230
_cell_length_b 14.184456
_cell_length_c 8.957564
_cell_angle_alpha 48.343646
_cell_angle_beta 121.523368
_cell_angle_gamma 146.900834
_cell_volume 412.834095
_symmetry_space_group_name_H-M "P -1"
_symmetry_group_IT_number 2
_symmetry_cell_setting 'triclinic'
loop_
_space_group_symop_operation_xyz
x,y,z
-x,-y,-z
loop_
_atom_site_type_symbol
_atom_site_label
_atom_site_fract_x
_atom_site_fract_y
_atom_site_fract_z
Si Si1 0.132732 0.793212 0.057475
Si Si2 0.646404 0.663364 0.174286
Si Si3 0.727865 0.763556 0.434414
Si Si4 0.500000 0.000000 0.500000
Si Si5 0.189219 0.583812 0.847183
Si Si6 0.267197 0.988787 0.645909
O O1 0.956966 0.762205 0.147272
O O2 0.015415 0.594772 0.178849
O O3 0.500000 0.000000 0.000000
O O4 0.027693 0.816957 0.833948
O O5 0.691576 0.766678 0.238162
O O6 0.443356 0.445693 0.369209
O O7 0.484324 0.653656 0.971574
O O8 0.625288 0.829066 0.422020
O O9 0.092548 0.923309 0.473809
O O10 0.283344 0.764115 0.636469
O O11 0.514612 0.011930 0.309186
O O12 0.000000 0.500000 0.000000
#
# Coordination Sequence:
#
# PCOD9049538 Si02
#       6
#     2   2   2   1   2   2
#     4  12  28  49  77 118 162 209 263 330 397 476
#     4  11  25  49  80 112 155 208 267 329 397 470
#     4  10  24  46  77 114 148 206 267 323 399 476
#     4  12  26  46  82 112 158 210 258 330 398 466
#     4  12  26  51  79 116 160 206 266 331 398 471
#     4  11  25  45  72 112 159 202 259 325 398 468
#
# _framework density 26.645087
#
# number of rings (size 3 to 8) (size 9 to 14) (size 15 to 20)
#    0.000    0.727    3.636    1.636   10.182    0.727 
#    0.000    1.818    0.000    1.091    0.000    0.000 
#    0.000    0.000    0.000    0.000    0.000    0.000 
#
# Total GULP energy -61378.116140 kJ/mol
# GULP energy per Si atom -5579.828740 kJ/mol
# Density = 2.658444 g / cm^3
# Si number density = 26.645087 Si / 1000 Ang^3
#
#
#
# Elastic Constant Matrix: (Units=GPa)
#
#
# Indices 1 2 3 4 5 6 
#
# 1 111.7047 71.7674 8.8177 2.2690 -25.7891 -28.2844
# 2 71.7674 169.4960 40.6809 -4.2278 3.6266 -14.3735
# 3 8.8177 40.6809 80.9997 -20.1936 -12.5388 -16.6834
# 4 2.2690 -4.2278 -20.1936 47.7668 -9.3168 9.0738
# 5 -25.7891 3.6266 -12.5388 -9.3168 46.3467 -7.3813
# 6 -28.2844 -14.3735 -16.6834 9.0738 -7.3813 49.9259
#
#
#
# Elastic Compliance Matrix: (Units=1/GPa)
#
#
# Indices 1 2 3 4 5 6 
#
# 1 0.024962 -0.012138 0.010938 0.003290 0.021141 0.016830
# 2 -0.012138 0.012822 -0.009333 -0.003169 -0.012117 -0.007519
# 3 0.010938 -0.009333 0.023335 0.009534 0.016971 0.012084
# 4 0.003290 -0.003169 0.009534 0.026336 0.010087 0.000843
# 5 0.021141 -0.012117 0.016971 0.010087 0.043904 0.018817
# 6 0.016830 -0.007519 0.012084 0.000843 0.018817 0.034067
#
#
# Mechanical properties :
#
#
# Convention : Reuss Voigt Hill
#
# Bulk Modulus (GPa) = 24.96602 67.19246 46.07924
# Shear Modulus (GPa) = 25.01975 44.87016 34.94495
#
# Velocity S-wave (km/s) = 3.06764 4.10810 3.62539
# Velocity P-wave (km/s) = 4.68373 6.91190 5.90388
#
# Compressibility (1/GPa) = 0.04005445
#
# Stress axis : x y z
#
# Youngs Moduli (GPa) = 40.06028 77.99303 42.85403
#
# Poissons Ratio (x) = 0.94666 -0.46874
# Poissons Ratio (y) = 0.48624 0.39994
# Poissons Ratio (z) = -0.43818 0.72787
#
# Static dielectric constant tensor:
#      x y z
#    x 1.704070 0.020590 -0.046180 
#    y 0.020590 2.249960 0.172000 
#    z -0.046180 0.172000 2.196110 
# 
# From -- ./inp_files/199898.got.cif
#   From: 2010.05.17/outbox.cif.g08.bks.cpg/sg2_100_cif.got.tgz:199898.got - 2010.06.03 11:33:40.
