data_PCOD9049001
_publ_section_title
;
Structure prediction by ZEFSAII (Michael W. Deem and Ramdas Pophale) SiO2 
 PCOD9049001
Probable space group: P -1
;
_chemical_formula_sum "Si O2"
_cell_formula_units_Z 14
_cell_length_a 22.224724
_cell_length_b 14.956889
_cell_length_c 8.195049
_cell_angle_alpha 128.055408
_cell_angle_beta 32.151826
_cell_angle_gamma 150.814499
_cell_volume 622.863609
_symmetry_space_group_name_H-M "P -1"
_symmetry_group_IT_number 2
_symmetry_cell_setting 'triclinic'
loop_
_space_group_symop_operation_xyz
x,y,z
-x,-y,-z
loop_
_atom_site_type_symbol
_atom_site_label
_atom_site_fract_x
_atom_site_fract_y
_atom_site_fract_z
Si Si1 0.779800 0.802882 0.197053
Si Si2 0.528822 0.329452 0.790069
Si Si3 0.748562 0.348071 0.536179
Si Si4 0.357898 0.056326 0.325391
Si Si5 0.410816 0.029623 0.540761
Si Si6 0.869831 0.334805 0.760726
Si Si7 0.517823 0.482424 0.697764
O O1 0.683001 0.846004 0.488401
O O2 0.663997 0.608483 0.347325
O O3 0.718594 0.724789 0.060915
O O4 0.000000 0.000000 0.000000
O O5 0.702343 0.410520 0.587018
O O6 0.374701 0.098072 0.832387
O O7 0.580724 0.433459 0.616516
O O8 0.449322 0.369749 0.121297
O O9 0.976647 0.540138 0.299157
O O10 0.683854 0.170323 0.417035
O O11 0.587752 0.226661 0.920667
O O12 0.330784 0.996315 0.507571
O O13 0.205692 0.852041 0.336303
O O14 0.658390 0.223250 0.163118
O O15 0.000000 0.500000 0.500000
#
# Coordination Sequence:
#
# PCOD9049001 Si02
#       7
#     2   2   2   2   2   2   2
#     4  11  24  43  71  96 115 164 227 263 309 364
#     4  11  23  42  66  88 137 172 197 258 329 378
#     4  11  22  41  64  91 130 169 205 257 317 373
#     4  11  21  39  65  92 125 162 212 267 307 368
#     4  11  22  40  62  96 126 169 208 253 317 380
#     4  11  21  36  65  95 123 159 218 259 301 364
#     4  10  24  46  65  93 125 167 214 263 316 371
#
# _framework density 22.476832000000002
#
# number of rings (size 3 to 8) (size 9 to 14) (size 15 to 20)
#    0.000    1.143    5.714    1.286    2.000    1.714 
#    0.000    7.143    0.000    0.000    0.000    0.000 
#    0.000    0.000    0.000    0.000    0.000    0.000 
#
# Total GULP energy -78222.200375 kJ/mol
# GULP energy per Si atom -5587.300027 kJ/mol
# Density = 2.242567 g / cm^3
# Si number density = 22.476832 Si / 1000 Ang^3
#
#
#
# Elastic Constant Matrix: (Units=GPa)
#
#
# Indices 1 2 3 4 5 6 
#
# 1 148.9083 29.7490 13.7196 -14.6924 -21.7506 -11.2468
# 2 29.7490 129.3017 42.5679 12.5692 -18.3166 14.7319
# 3 13.7196 42.5679 35.2592 -6.7364 -6.8596 -0.3098
# 4 -14.6924 12.5692 -6.7364 42.8504 2.3267 -6.9457
# 5 -21.7506 -18.3166 -6.8596 2.3267 28.6119 3.4484
# 6 -11.2468 14.7319 -0.3098 -6.9457 3.4484 37.3492
#
#
#
# Elastic Compliance Matrix: (Units=1/GPa)
#
#
# Indices 1 2 3 4 5 6 
#
# 1 0.008491 -0.002907 0.001919 0.004515 0.004184 0.004173
# 2 -0.002907 0.020098 -0.024307 -0.013076 0.007352 -0.012115
# 3 0.001919 -0.024307 0.060284 0.019800 -0.003022 0.014627
# 4 0.004515 -0.013076 0.019800 0.034268 -0.004603 0.013479
# 5 0.004184 0.007352 -0.003022 -0.004603 0.043273 -0.006517
# 6 0.004173 -0.012115 0.014627 0.013479 -0.006517 0.036039
#
#
# Mechanical properties :
#
#
# Convention : Reuss Voigt Hill
#
# Bulk Modulus (GPa) = 26.12168 53.94914 40.03541
# Shear Modulus (GPa) = 18.81082 36.92448 27.86765
#
# Velocity S-wave (km/s) = 2.89606 4.05752 3.52495
# Velocity P-wave (km/s) = 4.77804 6.78273 5.86665
#
# Compressibility (1/GPa) = 0.03828238
#
# Stress axis : x y z
#
# Youngs Moduli (GPa) = 117.76749 49.75671 16.58822
#
# Poissons Ratio (x) = 0.14464 -0.03183
# Poissons Ratio (y) = 0.34234 0.40321
# Poissons Ratio (z) = -0.22597 1.20944
#
# Static dielectric constant tensor:
#      x y z
#    x 1.883550 0.061900 0.031550 
#    y 0.061900 1.860540 -0.002960 
#    z 0.031550 -0.002960 1.836650 
# 
# From -- ./inp_files/28316.got.cif
#   From: 2010.05.17/outbox.cif.g08.bks.cpg/sg2_15_cif.got.tgz:28316.got - 2010.06.03 11:33:40.
