data_PCOD9049095
_publ_section_title
;
Structure prediction by ZEFSAII (Michael W. Deem and Ramdas Pophale) SiO2 
 PCOD9049095
Probable space group: P -1
;
_chemical_formula_sum "Si O2"
_cell_formula_units_Z 16
_cell_length_a 23.486131
_cell_length_b 17.015823
_cell_length_c 6.140608
_cell_angle_alpha 71.653623
_cell_angle_beta 97.369466
_cell_angle_gamma 159.536429
_cell_volume 704.231235
_symmetry_space_group_name_H-M "P -1"
_symmetry_group_IT_number 2
_symmetry_cell_setting 'triclinic'
loop_
_space_group_symop_operation_xyz
x,y,z
-x,-y,-z
loop_
_atom_site_type_symbol
_atom_site_label
_atom_site_fract_x
_atom_site_fract_y
_atom_site_fract_z
Si Si1 0.167313 0.916606 0.020424
Si Si2 0.442659 0.591445 0.462045
Si Si3 0.369050 0.245471 0.243380
Si Si4 0.254141 0.486706 0.256898
Si Si5 0.444455 0.050946 0.361291
Si Si6 0.353120 0.772623 0.311929
Si Si7 0.859083 0.959591 0.347172
Si Si8 0.936181 0.439734 0.270053
O O1 0.359564 0.150227 0.791731
O O2 0.106215 0.926703 0.927123
O O3 0.232428 0.011384 0.216701
O O4 0.005631 0.630546 0.132321
O O5 0.491844 0.631474 0.694139
O O6 0.348564 0.550223 0.408780
O O7 0.294459 0.319648 0.542344
O O8 0.236954 0.111261 0.465328
O O9 0.500000 0.500000 0.000000
O O10 0.220001 0.526638 0.332690
O O11 0.052699 0.185810 0.324804
O O12 0.405473 0.705488 0.944846
O O13 0.314638 0.808308 0.368931
O O14 0.286064 0.886027 0.547723
O O15 0.555007 0.153161 0.512090
O O16 0.500000 0.000000 0.000000
O O17 0.000000 0.500000 0.500000
O O18 0.000000 0.500000 0.000000
#
# Coordination Sequence:
#
# PCOD9049095 Si02
#       8
#     2   2   2   2   2   2   2   2
#     4  11  25  44  74  97 140 194 240 295 376 435
#     4  11  23  44  67 101 143 184 233 309 368 435
#     4  11  21  45  72  97 136 192 246 299 360 444
#     4  11  25  41  70 102 147 187 234 301 377 425
#     4  10  24  46  68  97 143 186 242 289 366 442
#     4   9  22  42  69  94 136 191 234 291 356 442
#     4  11  24  42  69 104 139 186 247 294 364 456
#     4  12  31  47  74 113 148 188 251 313 369 443
#
# _framework density 22.719809000000001
#
# number of rings (size 3 to 8) (size 9 to 14) (size 15 to 20)
#    0.000    1.250    2.500    1.875   15.750    1.000 
#    0.000    0.625    0.000    0.000    0.000    0.000 
#    0.000    0.000    0.000    0.000    0.000    0.000 
#
# Total GULP energy -89225.229481 kJ/mol
# GULP energy per Si atom -5576.576843 kJ/mol
# Density = 2.266810 g / cm^3
# Si number density = 22.719809 Si / 1000 Ang^3
#
#
#
# Elastic Constant Matrix: (Units=GPa)
#
#
# Indices 1 2 3 4 5 6 
#
# 1 43.6807 6.8033 19.8695 -7.0563 9.6161 5.6273
# 2 6.8033 71.9452 28.8188 -12.1921 -3.6002 4.7402
# 3 19.8695 28.8188 88.5186 2.6668 2.2316 9.0342
# 4 -7.0563 -12.1921 2.6668 36.8338 0.5840 2.8649
# 5 9.6161 -3.6002 2.2316 0.5840 33.5220 7.5130
# 6 5.6273 4.7402 9.0342 2.8649 7.5130 49.4672
#
#
#
# Elastic Compliance Matrix: (Units=1/GPa)
#
#
# Indices 1 2 3 4 5 6 
#
# 1 0.028611 0.000706 -0.006517 0.006412 -0.007504 -0.001364
# 2 0.000706 0.017522 -0.005973 0.006439 0.002276 -0.001387
# 3 -0.006517 -0.005973 0.014945 -0.004219 0.000589 -0.001261
# 4 0.006412 0.006439 -0.004219 0.031002 -0.000906 -0.002234
# 5 -0.007504 0.002276 0.000589 -0.000906 0.033205 -0.004463
# 6 -0.001364 -0.001387 -0.001261 -0.002234 -0.004463 0.021541
#
#
# Mechanical properties :
#
#
# Convention : Reuss Voigt Hill
#
# Bulk Modulus (GPa) = 26.65906 35.01418 30.83662
# Shear Modulus (GPa) = 27.33775 33.87479 30.60627
#
# Velocity S-wave (km/s) = 3.47256 3.86551 3.67429
# Velocity P-wave (km/s) = 5.27613 5.94707 5.62162
#
# Compressibility (1/GPa) = 0.03751070
#
# Stress axis : x y z
#
# Youngs Moduli (GPa) = 34.95129 57.07222 66.91051
#
# Poissons Ratio (x) = -0.04028 0.43605
# Poissons Ratio (y) = -0.02467 0.39964
# Poissons Ratio (z) = 0.22777 0.34088
#
# Static dielectric constant tensor:
#      x y z
#    x 1.929580 -0.013920 -0.023070 
#    y -0.013920 1.808900 0.050160 
#    z -0.023070 0.050160 1.903400 
# 
# From -- ./inp_files/124690.got.cif
#   From: 2010.05.17/outbox.cif.g08.bks.cpg/sg2_63_cif.got.tgz:124690.got - 2010.06.03 11:33:40.
