data_PCOD9049309
_publ_section_title
;
Structure prediction by ZEFSAII (Michael W. Deem and Ramdas Pophale) SiO2 
 PCOD9049309
Probable space group: P -1
;
_chemical_formula_sum "Si O2"
_cell_formula_units_Z 14
_cell_length_a 14.832859
_cell_length_b 7.110356
_cell_length_c 13.431598
_cell_angle_alpha 91.618167
_cell_angle_beta 150.879209
_cell_angle_gamma 74.019850
_cell_volume 590.606759
_symmetry_space_group_name_H-M "P -1"
_symmetry_group_IT_number 2
_symmetry_cell_setting 'triclinic'
loop_
_space_group_symop_operation_xyz
x,y,z
-x,-y,-z
loop_
_atom_site_type_symbol
_atom_site_label
_atom_site_fract_x
_atom_site_fract_y
_atom_site_fract_z
Si Si1 0.780961 0.962559 0.473003
Si Si2 0.980124 0.504514 0.348935
Si Si3 0.903931 0.555948 0.048378
Si Si4 0.553075 0.108849 0.460439
Si Si5 0.102940 0.036216 0.697899
Si Si6 0.494052 0.287497 0.026547
Si Si7 0.855299 0.257123 0.834635
O O1 0.829636 0.744391 0.457011
O O2 0.709641 0.969580 0.518233
O O3 0.609234 0.170432 0.242226
O O4 0.012384 0.949878 0.695560
O O5 0.016934 0.705434 0.397176
O O6 0.927408 0.495077 0.183507
O O7 0.762275 0.598235 0.203259
O O8 0.672327 0.766397 0.810931
O O9 0.889695 0.378477 0.963269
O O10 0.072224 0.631116 0.178981
O O11 0.638173 0.263208 0.589232
O O12 0.500000 0.000000 0.500000
O O13 0.358229 0.901149 0.916674
O O14 0.000000 0.000000 0.500000
O O15 0.500000 0.500000 0.000000
O O16 0.000000 0.000000 0.000000
#
# Coordination Sequence:
#
# PCOD9049309 Si02
#       7
#     2   2   2   2   2   2   2
#     4  11  25  47  70 105 147 185 244 303 364 437
#     4  12  24  46  74 101 148 187 244 305 369 443
#     4  11  25  44  70 107 141 200 250 302 371 439
#     4  12  24  46  72 108 149 198 249 300 370 445
#     4  10  24  46  72 103 140 190 239 301 374 437
#     4  11  23  47  72 105 139 185 239 298 368 447
#     4  11  23  44  71 100 148 193 248 309 366 432
#
# _framework density 23.704436999999999
#
# number of rings (size 3 to 8) (size 9 to 14) (size 15 to 20)
#    0.000    0.857    4.286    2.571    2.000    2.286 
#    7.714    0.000    0.000    0.000    0.000    0.000 
#    0.000    0.000    0.000    0.000    0.000    0.000 
#
# Total GULP energy -78102.398405 kJ/mol
# GULP energy per Si atom -5578.742743 kJ/mol
# Density = 2.365048 g / cm^3
# Si number density = 23.704437 Si / 1000 Ang^3
#
#
#
# Elastic Constant Matrix: (Units=GPa)
#
#
# Indices 1 2 3 4 5 6 
#
# 1 181.4704 76.1995 37.5943 5.2161 11.7320 0.9655
# 2 76.1995 165.0023 24.4066 1.2843 17.2973 -3.6524
# 3 37.5943 24.4066 64.3311 3.3964 0.8385 7.7182
# 4 5.2161 1.2843 3.3964 47.7088 9.4946 7.0451
# 5 11.7320 17.2973 0.8385 9.4946 36.6252 -1.6606
# 6 0.9655 -3.6524 7.7182 7.0451 -1.6606 29.5887
#
#
#
# Elastic Compliance Matrix: (Units=1/GPa)
#
#
# Indices 1 2 3 4 5 6 
#
# 1 0.007454 -0.002859 -0.003276 -0.000380 -0.000850 0.000301
# 2 -0.002859 0.007922 -0.001467 0.000611 -0.002899 0.001146
# 3 -0.003276 -0.001467 0.018594 -0.000469 0.001223 -0.004744
# 4 -0.000380 0.000611 -0.000469 0.023130 -0.006409 -0.005657
# 5 -0.000850 -0.002899 0.001223 -0.006409 0.030696 0.002600
# 6 0.000301 0.001146 -0.004744 -0.005657 0.002600 0.036659
#
#
# Mechanical properties :
#
#
# Convention : Reuss Voigt Hill
#
# Bulk Modulus (GPa) = 53.28870 76.35606 64.82238
# Shear Modulus (GPa) = 34.26671 40.95810 37.61240
#
# Velocity S-wave (km/s) = 3.80621 4.16127 3.98769
# Velocity P-wave (km/s) = 6.46881 7.44109 6.97192
#
# Compressibility (1/GPa) = 0.01876570
#
# Stress axis : x y z
#
# Youngs Moduli (GPa) = 134.15498 126.22671 53.78148
#
# Poissons Ratio (x) = 0.36088 0.17621
# Poissons Ratio (y) = 0.38354 0.07889
# Poissons Ratio (z) = 0.43955 0.18515
#
# Static dielectric constant tensor:
#      x y z
#    x 9.212060 3.349170 1.745720 
#    y 3.349170 3.539140 0.823320 
#    z 1.745720 0.823320 2.416720 
# 
# From -- ./inp_files/525807.got.cif
#   From: 2010.05.17/outbox.cif.g08.bks.cpg/sg2_263_cif.got.tgz:525807.got - 2010.06.03 11:33:40.
