data_PCOD9049896
_publ_section_title
;
Structure prediction by ZEFSAII (Michael W. Deem and Ramdas Pophale) SiO2 
 PCOD9049896
Probable space group: P -1
;
_chemical_formula_sum "Si O2"
_cell_formula_units_Z 14
_cell_length_a 7.522254
_cell_length_b 9.312400
_cell_length_c 13.294761
_cell_angle_alpha 123.922626
_cell_angle_beta 56.538209
_cell_angle_gamma 87.493697
_cell_volume 555.441148
_symmetry_space_group_name_H-M "P -1"
_symmetry_group_IT_number 2
_symmetry_cell_setting 'triclinic'
loop_
_space_group_symop_operation_xyz
x,y,z
-x,-y,-z
loop_
_atom_site_type_symbol
_atom_site_label
_atom_site_fract_x
_atom_site_fract_y
_atom_site_fract_z
Si Si1 0.262528 0.358620 0.470081
Si Si2 0.320020 0.707412 0.083218
Si Si3 0.973303 0.745498 0.842071
Si Si4 0.973943 0.553763 0.144314
Si Si5 0.638753 0.205720 0.120661
Si Si6 0.968304 0.906323 0.575755
Si Si7 0.539695 0.174313 0.508704
O O1 0.385769 0.314683 0.305276
O O2 0.926502 0.722755 0.496594
O O3 0.482007 0.214889 0.424183
O O4 0.124110 0.586979 0.643758
O O5 0.057024 0.717700 0.188450
O O6 0.500000 0.500000 0.000000
O O7 0.378555 0.697797 0.944267
O O8 0.275441 0.912608 0.225350
O O9 0.874631 0.631954 0.900589
O O10 0.164147 0.776566 0.862879
O O11 0.755454 0.967465 0.970198
O O12 0.694328 0.634294 0.294712
O O13 0.000000 0.500000 0.000000
O O14 0.207108 0.843480 0.544735
O O15 0.000000 0.000000 0.500000
O O16 0.500000 0.000000 0.500000
#
# Coordination Sequence:
#
# PCOD9049896 Si02
#       7
#     2   2   2   2   2   2   2
#     4  11  26  49  80 118 161 211 268 330 403 476
#     4  12  29  49  76 120 159 204 271 327 405 481
#     4  10  24  47  80 117 155 209 274 319 405 475
#     4  11  23  45  76 112 148 203 259 327 384 465
#     4  11  26  50  81 112 164 215 259 336 404 479
#     4  12  26  48  77 121 158 212 265 332 398 476
#     4  11  23  44  79 110 157 203 262 323 397 466
#
# _framework density 25.205190000000002
#
# number of rings (size 3 to 8) (size 9 to 14) (size 15 to 20)
#    0.000    0.857    4.286    1.286   10.000    0.571 
#    2.571    0.714    0.000    0.000    0.000    0.000 
#    0.000    0.000    0.000    0.000    0.000    0.000 
#
# Total GULP energy -78465.961504 kJ/mol
# GULP energy per Si atom -5604.711536 kJ/mol
# Density = 2.514782 g / cm^3
# Si number density = 25.205190 Si / 1000 Ang^3
#
#
#
# Elastic Constant Matrix: (Units=GPa)
#
#
# Indices 1 2 3 4 5 6 
#
# 1 111.3156 52.8847 32.9028 8.3430 2.4974 -9.5226
# 2 52.8847 176.9685 90.1751 -8.2106 5.4478 -1.8339
# 3 32.9028 90.1751 159.1835 -2.6713 11.4840 -8.0576
# 4 8.3430 -8.2106 -2.6713 50.7525 10.7765 1.9028
# 5 2.4974 5.4478 11.4840 10.7765 29.0545 7.5209
# 6 -9.5226 -1.8339 -8.0576 1.9028 7.5209 38.2804
#
#
#
# Elastic Compliance Matrix: (Units=1/GPa)
#
#
# Indices 1 2 3 4 5 6 
#
# 1 0.011017 -0.003184 -0.000384 -0.002452 0.000032 0.002623
# 2 -0.003184 0.008935 -0.004449 0.001774 0.000061 -0.001401
# 3 -0.000384 -0.004449 0.009266 0.000505 -0.003583 0.002321
# 4 -0.002452 0.001774 0.000505 0.022243 -0.008615 0.000168
# 5 0.000032 0.000061 -0.003583 -0.008615 0.041192 -0.008408
# 6 0.002623 -0.001401 0.002321 0.000168 -0.008408 0.028840
#
#
# Mechanical properties :
#
#
# Convention : Reuss Voigt Hill
#
# Bulk Modulus (GPa) = 75.85022 88.82144 82.33583
# Shear Modulus (GPa) = 35.23025 41.71782 38.47404
#
# Velocity S-wave (km/s) = 3.74269 4.07274 3.91120
# Velocity P-wave (km/s) = 6.98823 7.57840 7.28929
#
# Compressibility (1/GPa) = 0.01318388
#
# Stress axis : x y z
#
# Youngs Moduli (GPa) = 90.76760 111.91665 107.91855
#
# Poissons Ratio (x) = 0.35636 0.04146
# Poissons Ratio (y) = 0.28902 0.48014
# Poissons Ratio (z) = 0.03487 0.49793
#
# Static dielectric constant tensor:
#      x y z
#    x 2.063270 -0.079620 -0.030310 
#    y -0.079620 1.860340 -0.084000 
#    z -0.030310 -0.084000 1.920570 
# 
# From -- ./inp_files/306593.got.cif
#   From: 2010.05.17/outbox.cif.g08.bks.cpg/sg2_154_cif.got.tgz:306593.got - 2010.06.03 11:33:40.
