data_PCOD9049615
_publ_section_title
;
Structure prediction by ZEFSAII (Michael W. Deem and Ramdas Pophale) SiO2 
 PCOD9049615
Probable space group: P -1
;
_chemical_formula_sum "Si O2"
_cell_formula_units_Z 16
_cell_length_a 11.086055
_cell_length_b 16.121176
_cell_length_c 5.975540
_cell_angle_alpha 62.708253
_cell_angle_beta 83.679383
_cell_angle_gamma 46.752890
_cell_volume 656.058705
_symmetry_space_group_name_H-M "P -1"
_symmetry_group_IT_number 2
_symmetry_cell_setting 'triclinic'
loop_
_space_group_symop_operation_xyz
x,y,z
-x,-y,-z
loop_
_atom_site_type_symbol
_atom_site_label
_atom_site_fract_x
_atom_site_fract_y
_atom_site_fract_z
Si Si1 0.323506 0.677333 0.735561
Si Si2 0.157373 0.271618 0.298552
Si Si3 0.271007 0.006906 0.450293
Si Si4 0.914237 0.031357 0.731184
Si Si5 0.573830 0.865239 0.252233
Si Si6 0.449625 0.236872 0.034156
Si Si7 0.647971 0.445149 0.718682
Si Si8 0.784460 0.459217 0.279952
O O1 0.238428 0.808570 0.459564
O O2 0.528905 0.565366 0.774544
O O3 0.240480 0.628673 0.713807
O O4 0.288554 0.681121 0.002767
O O5 0.229927 0.241571 0.573389
O O6 0.284954 0.262637 0.125347
O O7 0.954332 0.407471 0.190294
O O8 0.180691 0.148686 0.387760
O O9 0.166163 0.025539 0.235485
O O10 0.460563 0.927435 0.420586
O O11 0.350341 0.888596 0.759931
O O12 0.000000 0.000000 0.500000
O O13 0.000000 0.000000 0.000000
O O14 0.539370 0.798145 0.182941
O O15 0.500000 0.000000 0.000000
O O16 0.376026 0.380695 0.905322
O O17 0.500000 0.500000 0.500000
O O18 0.789400 0.428904 0.581804
#
# Coordination Sequence:
#
# PCOD9049615 Si02
#       8
#     2   2   2   2   2   2   2   2
#     4  10  24  47  69 101 148 189 253 309 375 456
#     4  11  23  45  66 107 146 188 243 318 383 450
#     4  11  25  44  75  99 144 198 251 302 384 453
#     4  12  31  49  77 117 155 195 258 323 384 461
#     4  11  21  42  72  98 136 191 250 303 366 454
#     4  11  24  42  70 109 141 192 255 304 371 473
#     4   9  22  42  68  96 135 193 249 300 368 450
#     4  11  25  40  71 102 148 190 239 314 390 435
#
# _framework density 24.388059999999999
#
# number of rings (size 3 to 8) (size 9 to 14) (size 15 to 20)
#    0.000    1.250    2.500    1.875   12.250    3.500 
#    0.000    0.000    0.000    0.000    0.000    0.000 
#    0.000    0.000    0.000    0.000    0.000    0.000 
#
# Total GULP energy -89107.185303 kJ/mol
# GULP energy per Si atom -5569.199081 kJ/mol
# Density = 2.433255 g / cm^3
# Si number density = 24.388060 Si / 1000 Ang^3
#
#
#
# Elastic Constant Matrix: (Units=GPa)
#
#
# Indices 1 2 3 4 5 6 
#
# 1 61.0022 23.1903 13.2085 8.2684 0.2395 6.0592
# 2 23.1903 85.7260 24.6955 4.0683 10.8333 8.0877
# 3 13.2085 24.6955 94.9778 9.4248 10.7753 14.3055
# 4 8.2684 4.0683 9.4248 27.7880 2.4457 -3.8163
# 5 0.2395 10.8333 10.7753 2.4457 36.2661 15.0161
# 6 6.0592 8.0877 14.3055 -3.8163 15.0161 47.8445
#
#
#
# Elastic Compliance Matrix: (Units=1/GPa)
#
#
# Indices 1 2 3 4 5 6 
#
# 1 0.019433 -0.004890 -0.000821 -0.005445 0.003102 -0.002797
# 2 -0.004890 0.014161 -0.002693 0.000630 -0.003517 0.000185
# 3 -0.000821 -0.002693 0.012331 -0.003838 -0.001348 -0.003011
# 4 -0.005445 0.000630 -0.003838 0.040058 -0.004313 0.006280
# 5 0.003102 -0.003517 -0.001348 -0.004313 0.033547 -0.010268
# 6 -0.002797 0.000185 -0.003011 0.006280 -0.010268 0.025848
#
#
# Mechanical properties :
#
#
# Convention : Reuss Voigt Hill
#
# Bulk Modulus (GPa) = 34.34658 40.43273 37.38965
# Shear Modulus (GPa) = 29.08790 34.42050 31.75420
#
# Velocity S-wave (km/s) = 3.45731 3.76089 3.61229
# Velocity P-wave (km/s) = 5.48190 5.95600 5.72386
#
# Compressibility (1/GPa) = 0.02911498
#
# Stress axis : x y z
#
# Youngs Moduli (GPa) = 51.45799 70.61709 81.09907
#
# Poissons Ratio (x) = 0.34533 0.06662
# Poissons Ratio (y) = 0.25164 0.21843
# Poissons Ratio (z) = 0.04227 0.19020
#
# Static dielectric constant tensor:
#      x y z
#    x 1.722800 0.355460 0.142400 
#    y 0.355460 1.581660 0.115300 
#    z 0.142400 0.115300 2.164630 
# 
# From -- ./inp_files/77392.got.cif
#   From: 2010.05.17/outbox.cif.g08.bks.cpg/sg2_39_cif.got.tgz:77392.got - 2010.06.03 11:33:40.
