data_PCOD9049712
_publ_section_title
;
Structure prediction by ZEFSAII (Michael W. Deem and Ramdas Pophale) SiO2 
 PCOD9049712
Probable space group: P -1
;
_chemical_formula_sum "Si O2"
_cell_formula_units_Z 11
_cell_length_a 5.368213
_cell_length_b 8.337434
_cell_length_c 17.352109
_cell_angle_alpha 140.108737
_cell_angle_beta 91.418210
_cell_angle_gamma 107.054750
_cell_volume 434.871366
_symmetry_space_group_name_H-M "P -1"
_symmetry_group_IT_number 2
_symmetry_cell_setting 'triclinic'
loop_
_space_group_symop_operation_xyz
x,y,z
-x,-y,-z
loop_
_atom_site_type_symbol
_atom_site_label
_atom_site_fract_x
_atom_site_fract_y
_atom_site_fract_z
Si Si1 0.217457 0.815799 0.703855
Si Si2 0.000000 0.000000 0.000000
Si Si3 0.682709 0.766789 0.390583
Si Si4 0.840672 0.689942 0.055832
Si Si5 0.634219 0.238866 0.478398
Si Si6 0.701644 0.240498 0.151066
O O1 0.400623 0.828360 0.636424
O O2 0.387602 0.873329 0.805920
O O3 0.957988 0.491119 0.585157
O O4 0.090616 0.036724 0.786640
O O5 0.995068 0.728742 0.854419
O O6 0.908504 0.817055 0.015676
O O7 0.539446 0.654536 0.431175
O O8 0.680898 0.521921 0.248088
O O9 0.561328 0.939023 0.406125
O O10 0.000000 0.000000 0.500000
O O11 0.500000 0.500000 0.000000
O O12 0.000000 0.500000 0.000000
O O13 0.500000 0.000000 0.000000
#
# Coordination Sequence:
#
# PCOD9049712 Si02
#       6
#     2   1   2   2   2   2
#     4  10  24  48  72 110 149 199 260 332 402 472
#     4  10  28  46  76 108 166 206 266 342 416 476
#     4  11  24  44  74 108 143 201 260 313 397 485
#     4  11  28  49  77 120 160 217 276 334 423 505
#     4  10  24  47  72 104 150 194 262 325 389 485
#     4  11  26  44  74 109 149 205 258 329 419 477
#
# _framework density 25.294833000000001
#
# number of rings (size 3 to 8) (size 9 to 14) (size 15 to 20)
#    0.000    1.455    1.818    0.000   12.727    2.182 
#    0.000    0.000    0.000    0.000    0.000    0.000 
#    0.000    0.000    0.000    0.000    0.000    0.000 
#
# Total GULP energy -61235.131997 kJ/mol
# GULP energy per Si atom -5566.830182 kJ/mol
# Density = 2.523726 g / cm^3
# Si number density = 25.294833 Si / 1000 Ang^3
#
#
#
# Elastic Constant Matrix: (Units=GPa)
#
#
# Indices 1 2 3 4 5 6 
#
# 1 85.8775 47.1806 36.2369 11.6747 -21.6817 -0.4550
# 2 47.1806 162.4319 59.1385 -18.9525 -16.5293 15.7777
# 3 36.2369 59.1385 171.5898 -7.6537 -39.2077 -8.1464
# 4 11.6747 -18.9525 -7.6537 52.4483 -8.9625 -17.8723
# 5 -21.6817 -16.5293 -39.2077 -8.9625 50.4306 5.1884
# 6 -0.4550 15.7777 -8.1464 -17.8723 5.1884 39.1604
#
#
#
# Elastic Compliance Matrix: (Units=1/GPa)
#
#
# Indices 1 2 3 4 5 6 
#
# 1 0.016227 -0.004319 -0.001381 -0.005151 0.003695 -0.001199
# 2 -0.004319 0.008792 -0.002064 0.002955 0.000224 -0.002703
# 3 -0.001381 -0.002064 0.008328 0.002748 0.005375 0.003090
# 4 -0.005151 0.002955 0.002748 0.026060 0.004428 0.010628
# 5 0.003695 0.000224 0.005375 0.004428 0.026501 -0.000419
# 6 -0.001199 -0.002703 0.003090 0.010628 -0.000419 0.032160
#
#
# Mechanical properties :
#
#
# Convention : Reuss Voigt Hill
#
# Bulk Modulus (GPa) = 56.11446 78.33458 67.22452
# Shear Modulus (GPa) = 35.83318 46.89742 41.36530
#
# Velocity S-wave (km/s) = 3.76789 4.31052 4.04830
# Velocity P-wave (km/s) = 6.41573 7.47060 6.96317
#
# Compressibility (1/GPa) = 0.01782072
#
# Stress axis : x y z
#
# Youngs Moduli (GPa) = 61.62596 113.73465 120.07422
#
# Poissons Ratio (x) = 0.49125 0.16577
# Poissons Ratio (y) = 0.26618 0.24778
# Poissons Ratio (z) = 0.08508 0.23470
#
# Static dielectric constant tensor:
#      x y z
#    x 2.036940 -0.074160 -0.063530 
#    y -0.074160 1.988410 -0.004660 
#    z -0.063530 -0.004660 1.993130 
# 
# From -- ./inp_files/546811.got.cif
#   From: 2010.05.17/outbox.cif.g08.bks.cpg/sg2_274_cif.got.tgz:546811.got - 2010.06.03 11:33:40.
