data_PCOD9049737
_publ_section_title
;
Structure prediction by ZEFSAII (Michael W. Deem and Ramdas Pophale) SiO2 
 PCOD9049737
Probable space group: P -1
;
_chemical_formula_sum "Si O2"
_cell_formula_units_Z 16
_cell_length_a 20.371421
_cell_length_b 14.330920
_cell_length_c 8.599267
_cell_angle_alpha 106.534300
_cell_angle_beta 62.720908
_cell_angle_gamma 158.780905
_cell_volume 723.814989
_symmetry_space_group_name_H-M "P -1"
_symmetry_group_IT_number 2
_symmetry_cell_setting 'triclinic'
loop_
_space_group_symop_operation_xyz
x,y,z
-x,-y,-z
loop_
_atom_site_type_symbol
_atom_site_label
_atom_site_fract_x
_atom_site_fract_y
_atom_site_fract_z
Si Si1 0.266788 0.733783 0.700435
Si Si2 0.421277 0.059043 0.942908
Si Si3 0.051450 0.537425 0.287117
Si Si4 0.550389 0.365523 0.702537
Si Si5 0.276673 0.276115 0.086784
Si Si6 0.850554 0.618666 0.264137
Si Si7 0.677587 0.743970 0.290935
Si Si8 0.126348 0.399214 0.126998
O O1 0.128626 0.464168 0.731461
O O2 0.135687 0.652323 0.711068
O O3 0.500000 0.000000 0.500000
O O4 0.328515 0.849328 0.857144
O O5 0.402220 0.120810 0.866930
O O6 0.671459 0.361809 0.863346
O O7 0.268835 0.868781 0.167100
O O8 0.070100 0.444183 0.206896
O O9 0.000000 0.500000 0.500000
O O10 0.724723 0.632475 0.756399
O O11 0.666824 0.443236 0.484321
O O12 0.414617 0.278696 0.717765
O O13 0.500000 0.500000 0.000000
O O14 0.290390 0.301488 0.895706
O O15 0.070622 0.953537 0.194173
O O16 0.804661 0.549677 0.097228
O O17 0.500000 0.500000 0.500000
O O18 0.914414 0.072452 0.248755
#
# Coordination Sequence:
#
# PCOD9049737 Si02
#       8
#     2   2   2   2   2   2   2   2
#     4  12  25  45  71 104 140 185 239 284 359 423
#     4  12  26  44  73 104 144 186 237 295 347 428
#     4  12  28  44  70 103 146 189 236 287 357 420
#     4  11  24  44  73 103 137 185 239 289 364 414
#     4   9  22  42  68 101 137 177 237 287 349 424
#     4  11  24  42  73  98 142 183 234 295 353 424
#     4  10  24  47  73 101 145 186 235 298 355 422
#     4  11  26  45  68 105 144 186 240 293 353 419
#
# _framework density 22.105094999999999
#
# number of rings (size 3 to 8) (size 9 to 14) (size 15 to 20)
#    0.000    1.000    2.500    2.625    7.000    5.000 
#    0.000    2.500    0.000    0.000    0.000    0.000 
#    0.000    0.000    0.000    0.000    0.000    0.000 
#
# Total GULP energy -89455.752821 kJ/mol
# GULP energy per Si atom -5590.984551 kJ/mol
# Density = 2.205478 g / cm^3
# Si number density = 22.105095 Si / 1000 Ang^3
#
#
#
# Elastic Constant Matrix: (Units=GPa)
#
#
# Indices 1 2 3 4 5 6 
#
# 1 56.7331 20.6271 29.8749 -3.1521 -6.5016 1.6441
# 2 20.6271 114.4477 37.5501 1.8525 -0.8915 0.2175
# 3 29.8749 37.5501 132.2065 -0.2161 18.2670 -11.9691
# 4 -3.1521 1.8525 -0.2161 39.6885 -11.7346 -3.9675
# 5 -6.5016 -0.8915 18.2670 -11.7346 24.5216 -9.8277
# 6 1.6441 0.2175 -11.9691 -3.9675 -9.8277 35.3546
#
#
#
# Elastic Compliance Matrix: (Units=1/GPa)
#
#
# Indices 1 2 3 4 5 6 
#
# 1 0.024002 -0.002099 -0.006763 0.006584 0.015094 0.001542
# 2 -0.002099 0.009986 -0.002602 -0.000275 0.001421 -0.000481
# 3 -0.006763 -0.002602 0.011548 -0.003920 -0.012202 0.000408
# 4 0.006584 -0.000275 -0.003920 0.033831 0.024435 0.008957
# 5 0.015094 0.001421 -0.012202 0.024435 0.072897 0.018164
# 6 0.001542 -0.000481 0.000408 0.008957 0.018164 0.034409
#
#
# Mechanical properties :
#
#
# Convention : Reuss Voigt Hill
#
# Bulk Modulus (GPa) = 44.23298 53.27684 48.75491
# Shear Modulus (GPa) = 23.02701 34.26862 28.64782
#
# Velocity S-wave (km/s) = 3.23105 3.94160 3.60388
# Velocity P-wave (km/s) = 5.82866 6.69843 6.27862
#
# Compressibility (1/GPa) = 0.02260757
#
# Stress axis : x y z
#
# Youngs Moduli (GPa) = 41.66374 100.13860 86.59670
#
# Poissons Ratio (x) = 0.21019 0.58563
# Poissons Ratio (y) = 0.08745 0.22535
# Poissons Ratio (z) = 0.28176 0.26059
#
# Static dielectric constant tensor:
#      x y z
#    x 1.811880 -0.024750 -0.007810 
#    y -0.024750 1.800320 -0.010390 
#    z -0.007810 -0.010390 1.849330 
# 
# From -- ./inp_files/347618.got.cif
#   From: 2010.05.17/outbox.cif.g08.bks.cpg/sg2_174_cif.got.tgz:347618.got - 2010.06.03 11:33:40.
