data_PCOD9049785
_publ_section_title
;
Structure prediction by ZEFSAII (Michael W. Deem and Ramdas Pophale) SiO2 
 PCOD9049785
Probable space group: P -1
;
_chemical_formula_sum "Si O2"
_cell_formula_units_Z 14
_cell_length_a 5.753585
_cell_length_b 18.125915
_cell_length_c 6.521200
_cell_angle_alpha 97.598432
_cell_angle_beta 71.464599
_cell_angle_gamma 120.367649
_cell_volume 556.005540
_symmetry_space_group_name_H-M "P -1"
_symmetry_group_IT_number 2
_symmetry_cell_setting 'triclinic'
loop_
_space_group_symop_operation_xyz
x,y,z
-x,-y,-z
loop_
_atom_site_type_symbol
_atom_site_label
_atom_site_fract_x
_atom_site_fract_y
_atom_site_fract_z
Si Si1 0.922207 0.903151 0.010865
Si Si2 0.921728 0.679300 0.929972
Si Si3 0.522205 0.783932 0.760866
Si Si4 0.076597 0.389588 0.497727
Si Si5 0.958336 0.808542 0.319956
Si Si6 0.439742 0.578277 0.291849
Si Si7 0.629574 0.097801 0.423732
O O1 0.637767 0.830557 0.962145
O O2 0.135093 0.893131 0.797907
O O3 0.952469 0.886469 0.232700
O O4 0.000000 0.000000 0.000000
O O5 0.932861 0.749989 0.110993
O O6 0.616032 0.601216 0.040935
O O7 0.939111 0.682161 0.680211
O O8 0.240868 0.695854 0.870029
O O9 0.710989 0.766637 0.540809
O O10 0.507562 0.858556 0.659734
O O11 0.229281 0.479378 0.364807
O O12 0.292630 0.397121 0.618495
O O13 0.768731 0.379714 0.633779
O O14 0.240586 0.846389 0.387497
O O15 0.500000 0.000000 0.500000
#
# Coordination Sequence:
#
# PCOD9049785 Si02
#       7
#     2   2   2   2   2   2   2
#     4  11  24  43  68  96 127 179 239 294 363 423
#     4  12  25  42  71 100 141 182 233 289 367 421
#     4  11  26  42  63  98 134 174 233 293 351 428
#     4  10  24  47  74 108 146 189 242 283 355 433
#     4  11  26  42  63  98 134 175 231 295 353 418
#     4  10  24  47  74 107 147 191 234 294 349 430
#     4  11  24  43  64  91 129 176 230 287 351 422
#
# _framework density 25.179604000000001
#
# number of rings (size 3 to 8) (size 9 to 14) (size 15 to 20)
#    0.000    1.143    1.429    3.000    6.000    6.857 
#    0.000    4.286    0.000    0.000    0.000    0.000 
#    0.000    0.000    0.000    0.000    0.000    0.000 
#
# Total GULP energy -77969.494232 kJ/mol
# GULP energy per Si atom -5569.249588 kJ/mol
# Density = 2.512229 g / cm^3
# Si number density = 25.179604 Si / 1000 Ang^3
#
#
#
# Elastic Constant Matrix: (Units=GPa)
#
#
# Indices 1 2 3 4 5 6 
#
# 1 98.4807 21.4629 78.9002 -3.2090 -1.8662 0.1541
# 2 21.4629 63.0394 21.2058 -14.7219 -5.0138 -7.3144
# 3 78.9002 21.2058 140.5360 2.6210 -32.1716 -5.5580
# 4 -3.2090 -14.7219 2.6210 52.1972 3.1691 -4.1821
# 5 -1.8662 -5.0138 -32.1716 3.1691 47.5123 -5.8606
# 6 0.1541 -7.3144 -5.5580 -4.1821 -5.8606 40.7931
#
#
#
# Elastic Compliance Matrix: (Units=1/GPa)
#
#
# Indices 1 2 3 4 5 6 
#
# 1 0.022425 -0.003703 -0.014481 0.001342 -0.009899 -0.004006
# 2 -0.003703 0.019131 -0.000328 0.005412 0.001810 0.004215
# 3 -0.014481 -0.000328 0.018356 -0.002338 0.012482 0.004050
# 4 0.001342 0.005412 -0.002338 0.021212 -0.002062 0.002525
# 5 -0.009899 0.001810 0.012482 -0.002062 0.030202 0.006190
# 6 -0.004006 0.004215 0.004050 0.002525 0.006190 0.026985
#
#
# Mechanical properties :
#
#
# Convention : Reuss Voigt Hill
#
# Bulk Modulus (GPa) = 43.68805 60.57708 52.13256
# Shear Modulus (GPa) = 27.32772 40.13299 33.73035
#
# Velocity S-wave (km/s) = 3.29798 3.99666 3.66401
# Velocity P-wave (km/s) = 5.64716 6.73854 6.21685
#
# Compressibility (1/GPa) = 0.02288956
#
# Stress axis : x y z
#
# Youngs Moduli (GPa) = 44.59214 52.27123 54.47770
#
# Poissons Ratio (x) = 0.19355 0.78889
# Poissons Ratio (y) = 0.16511 0.01785
# Poissons Ratio (z) = 0.64574 0.01713
#
# Static dielectric constant tensor:
#      x y z
#    x 2.127200 0.076500 -0.006950 
#    y 0.076500 1.954460 0.032050 
#    z -0.006950 0.032050 1.907750 
# 
# From -- ./inp_files/7936.got.cif
#   From: 2010.05.17/outbox.cif.g08.bks.cpg/sg2_4_cif.got.tgz:7936.got - 2010.06.03 11:33:40.
