data_PCOD9049600
_publ_section_title
;
Structure prediction by ZEFSAII (Michael W. Deem and Ramdas Pophale) SiO2 
 PCOD9049600
Probable space group: P -1
;
_chemical_formula_sum "Si O2"
_cell_formula_units_Z 12
_cell_length_a 7.994252
_cell_length_b 14.137269
_cell_length_c 11.744541
_cell_angle_alpha 32.238184
_cell_angle_beta 81.630346
_cell_angle_gamma 58.269516
_cell_volume 452.613211
_symmetry_space_group_name_H-M "P -1"
_symmetry_group_IT_number 2
_symmetry_cell_setting 'triclinic'
loop_
_space_group_symop_operation_xyz
x,y,z
-x,-y,-z
loop_
_atom_site_type_symbol
_atom_site_label
_atom_site_fract_x
_atom_site_fract_y
_atom_site_fract_z
Si Si1 0.537376 0.072098 0.042797
Si Si2 0.039348 0.676134 0.288480
Si Si3 0.480272 0.658790 0.940357
Si Si4 0.497763 0.529014 0.306792
Si Si5 0.062657 0.243631 0.274691
Si Si6 0.211893 0.051187 0.201243
O O1 0.380349 0.378993 0.763195
O O2 0.460746 0.990939 0.229045
O O3 0.500000 0.000000 0.000000
O O4 0.825767 0.922492 0.147002
O O5 0.296793 0.590269 0.348495
O O6 0.000000 0.500000 0.500000
O O7 0.964638 0.736153 0.100312
O O8 0.314772 0.961640 0.603462
O O9 0.500000 0.500000 0.000000
O O10 0.354574 0.691153 0.035894
O O11 0.789015 0.419831 0.182660
O O12 0.695843 0.214213 0.576939
O O13 0.095713 0.142633 0.245604
O O14 0.000000 0.500000 0.000000
#
# Coordination Sequence:
#
# PCOD9049600 Si02
#       6
#     2   2   2   2   2   2
#     4  10  24  47  68 106 143 191 254 313 378 459
#     4  11  24  45  71 104 145 195 255 319 381 464
#     4  12  26  47  77 116 157 199 265 317 391 471
#     4  12  25  45  77 103 150 204 250 317 396 453
#     4  12  27  49  77 114 158 205 259 324 386 470
#     4  11  25  46  72 103 151 199 252 319 384 466
#
# _framework density 26.512702999999998
#
# number of rings (size 3 to 8) (size 9 to 14) (size 15 to 20)
#    0.000    0.667    3.333    3.500    2.333    4.000 
#    6.000    0.000    0.000    0.000    0.000    0.000 
#    0.000    0.000    0.000    0.000    0.000    0.000 
#
# Total GULP energy -66991.664242 kJ/mol
# GULP energy per Si atom -5582.638687 kJ/mol
# Density = 2.645236 g / cm^3
# Si number density = 26.512703 Si / 1000 Ang^3
#
#
#
# Elastic Constant Matrix: (Units=GPa)
#
#
# Indices 1 2 3 4 5 6 
#
# 1 108.9916 47.0333 45.2652 -16.3042 -35.4234 -8.7177
# 2 47.0333 141.9066 54.5374 -3.7727 -13.9813 -19.9297
# 3 45.2652 54.5374 179.6605 -2.6189 -34.8805 0.9122
# 4 -16.3042 -3.7727 -2.6189 57.4265 2.4100 -6.9988
# 5 -35.4234 -13.9813 -34.8805 2.4100 54.9914 -12.3013
# 6 -8.7177 -19.9297 0.9122 -6.9988 -12.3013 49.6993
#
#
#
# Elastic Compliance Matrix: (Units=1/GPa)
#
#
# Indices 1 2 3 4 5 6 
#
# 1 0.014666 -0.002887 -0.001074 0.004066 0.008790 0.004183
# 2 -0.002887 0.009263 -0.002126 0.000091 -0.000135 0.003227
# 3 -0.001074 -0.002126 0.007099 -0.000307 0.003188 -0.000425
# 4 0.004066 0.000091 -0.000307 0.018948 0.002523 0.004048
# 5 0.008790 -0.000135 0.003188 0.002523 0.027655 0.008629
# 6 0.004183 0.003227 -0.000425 0.004048 0.008629 0.024862
#
#
# Mechanical properties :
#
#
# Convention : Reuss Voigt Hill
#
# Bulk Modulus (GPa) = 53.03756 80.47006 66.75381
# Shear Modulus (GPa) = 41.33906 51.33829 46.33868
#
# Velocity S-wave (km/s) = 3.95298 4.40519 4.18520
# Velocity P-wave (km/s) = 6.39396 7.50278 6.97045
#
# Compressibility (1/GPa) = 0.01885456
#
# Stress axis : x y z
#
# Youngs Moduli (GPa) = 68.18266 107.95810 140.86936
#
# Poissons Ratio (x) = 0.31162 0.15136
# Poissons Ratio (y) = 0.19681 0.29946
# Poissons Ratio (z) = 0.07326 0.22950
#
# Static dielectric constant tensor:
#      x y z
#    x 2.443630 -0.064610 0.121770 
#    y -0.064610 1.927740 0.036850 
#    z 0.121770 0.036850 2.287710 
# 
# From -- ./inp_files/398061.got.cif
#   From: 2010.05.17/outbox.cif.g08.bks.cpg/sg2_200_cif.got.tgz:398061.got - 2010.06.03 11:33:40.
