data_PCOD9049327
_publ_section_title
;
Structure prediction by ZEFSAII (Michael W. Deem and Ramdas Pophale) SiO2 
 PCOD9049327
Probable space group: P -1
;
_chemical_formula_sum "Si O2"
_cell_formula_units_Z 10
_cell_length_a 17.283505
_cell_length_b 5.237453
_cell_length_c 16.499577
_cell_angle_alpha 118.547885
_cell_angle_beta 17.002248
_cell_angle_gamma 116.732689
_cell_volume 383.484187
_symmetry_space_group_name_H-M "P -1"
_symmetry_group_IT_number 2
_symmetry_cell_setting 'triclinic'
loop_
_space_group_symop_operation_xyz
x,y,z
-x,-y,-z
loop_
_atom_site_type_symbol
_atom_site_label
_atom_site_fract_x
_atom_site_fract_y
_atom_site_fract_z
Si Si1 0.449875 0.722715 0.889632
Si Si2 0.747430 0.692037 0.259152
Si Si3 0.863788 0.816728 0.828880
Si Si4 0.249943 0.494803 0.308464
Si Si5 0.559765 0.802124 0.286611
O O1 0.236028 0.513386 0.113896
O O2 0.291000 0.994790 0.054477
O O3 0.673470 0.753179 0.738937
O O4 0.539641 0.508428 0.693677
O O5 0.500000 0.500000 0.500000
O O6 0.725536 0.762978 0.196797
O O7 0.687760 0.987308 0.413190
O O8 0.000000 0.500000 0.000000
O O9 0.170265 0.773583 0.489341
O O10 0.753432 0.929805 0.042910
O O11 0.000000 0.500000 0.500000
O O12 0.500000 0.500000 0.000000
#
# Coordination Sequence:
#
# PCOD9049327 Si02
#       5
#     2   2   2   2   2
#     4  10  24  46  72 105 144 194 243 296 364 432
#     4  11  24  43  72 106 147 190 241 300 359 426
#     4  10  24  46  72 105 144 194 243 296 364 432
#     4  12  25  50  75 111 146 191 245 308 367 438
#     4   9  23  44  69 106 144 192 241 298 353 439
#
# _framework density 26.076695000000001
#
# number of rings (size 3 to 8) (size 9 to 14) (size 15 to 20)
#    1.200    0.400    2.000    1.200    0.000   12.800 
#    0.000    0.000    0.000    0.000    0.000    0.000 
#    0.000    0.000    0.000    0.000    0.000    0.000 
#
# Total GULP energy -55870.682900 kJ/mol
# GULP energy per Si atom -5587.068290 kJ/mol
# Density = 2.601734 g / cm^3
# Si number density = 26.076695 Si / 1000 Ang^3
#
#
#
# Elastic Constant Matrix: (Units=GPa)
#
#
# Indices 1 2 3 4 5 6 
#
# 1 163.7614 34.8031 120.7230 20.1490 10.5459 -41.7285
# 2 34.8031 88.2800 58.7904 22.5834 -8.1448 -22.6884
# 3 120.7230 58.7904 251.6102 24.9177 -21.1343 -28.9546
# 4 20.1490 22.5834 24.9177 45.4469 -4.2084 -5.6306
# 5 10.5459 -8.1448 -21.1343 -4.2084 47.0881 10.2789
# 6 -41.7285 -22.6884 -28.9546 -5.6306 10.2789 49.7669
#
#
#
# Elastic Compliance Matrix: (Units=1/GPa)
#
#
# Indices 1 2 3 4 5 6 
#
# 1 0.013751 0.001178 -0.006134 -0.002844 -0.008030 0.009835
# 2 0.001178 0.015913 -0.003060 -0.006085 -0.000722 0.005923
# 3 -0.006134 -0.003060 0.007685 0.000105 0.004976 -0.003083
# 4 -0.002844 -0.006085 0.000105 0.026136 0.002550 -0.002667
# 5 -0.008030 -0.000722 0.004976 0.002550 0.027456 -0.009549
# 6 0.009835 0.005923 -0.003083 -0.002667 -0.009549 0.030917
#
#
# Mechanical properties :
#
#
# Convention : Reuss Voigt Hill
#
# Bulk Modulus (GPa) = 46.90860 103.58717 75.24789
# Shear Modulus (GPa) = 34.48321 47.74939 41.11630
#
# Velocity S-wave (km/s) = 3.64039 4.28379 3.97513
# Velocity P-wave (km/s) = 5.97476 8.01736 7.07021
#
# Compressibility (1/GPa) = 0.02131805
#
# Stress axis : x y z
#
# Youngs Moduli (GPa) = 72.72011 62.84083 130.11687
#
# Poissons Ratio (x) = -0.07404 0.79817
# Poissons Ratio (y) = -0.08568 0.39815
# Poissons Ratio (z) = 0.44609 0.19229
#
# Static dielectric constant tensor:
#      x y z
#    x 2.105170 0.093400 0.064130 
#    y 0.093400 2.107160 -0.037600 
#    z 0.064130 -0.037600 2.091400 
# 
# From -- ./inp_files/10144.got.cif
#   From: 2010.05.17/outbox.cif.g08.bks.cpg/sg2_6_cif.got.tgz:10144.got - 2010.06.03 11:33:40.
