data_PCOD9049130
_publ_section_title
;
Structure prediction by ZEFSAII (Michael W. Deem and Ramdas Pophale) SiO2 
 PCOD9049130
Probable space group: P -1
;
_chemical_formula_sum "Si O2"
_cell_formula_units_Z 12
_cell_length_a 8.071623
_cell_length_b 15.169168
_cell_length_c 8.857401
_cell_angle_alpha 144.778016
_cell_angle_beta 52.177194
_cell_angle_gamma 121.761300
_cell_volume 493.303375
_symmetry_space_group_name_H-M "P -1"
_symmetry_group_IT_number 2
_symmetry_cell_setting 'triclinic'
loop_
_space_group_symop_operation_xyz
x,y,z
-x,-y,-z
loop_
_atom_site_type_symbol
_atom_site_label
_atom_site_fract_x
_atom_site_fract_y
_atom_site_fract_z
Si Si1 0.069297 0.118856 0.261327
Si Si2 0.734650 0.560023 0.395166
Si Si3 0.621718 0.147938 0.713318
Si Si4 0.527299 0.485655 0.141139
Si Si5 0.133818 0.622536 0.689745
Si Si6 0.183139 0.938431 0.209969
O O1 0.183320 0.276347 0.360242
O O2 0.853328 0.157817 0.521307
O O3 0.227037 0.058096 0.217366
O O4 0.000000 0.000000 0.000000
O O5 0.500000 0.500000 0.500000
O O6 0.734321 0.551376 0.203591
O O7 0.874118 0.435208 0.215659
O O8 0.650562 0.116323 0.834159
O O9 0.500000 0.000000 0.500000
O O10 0.514802 0.306325 0.949207
O O11 0.359495 0.599826 0.459835
O O12 0.500000 0.500000 0.000000
O O13 0.000000 0.500000 0.500000
O O14 0.085969 0.796047 0.967322
O O15 0.000000 0.000000 0.500000
#
# Coordination Sequence:
#
# PCOD9049130 Si02
#       6
#     2   2   2   2   2   2
#     4  11  26  45  76 106 143 190 243 294 363 432
#     4  10  24  47  71 102 140 187 242 299 354 425
#     4  11  27  46  70 105 151 189 237 301 362 430
#     4  11  27  44  69 106 143 190 245 297 358 427
#     4  11  24  44  75  98 145 190 238 300 363 423
#     4  10  24  46  69 106 144 192 239 297 362 431
#
# _framework density 24.325800999999998
#
# number of rings (size 3 to 8) (size 9 to 14) (size 15 to 20)
#    0.000    1.333    1.667    1.000   16.333    2.000 
#    0.000    4.167    0.000    0.000    0.000    0.000 
#    0.000    0.000    0.000    0.000    0.000    0.000 
#
# Total GULP energy -66944.355089 kJ/mol
# GULP energy per Si atom -5578.696257 kJ/mol
# Density = 2.427043 g / cm^3
# Si number density = 24.325801 Si / 1000 Ang^3
#
#
#
# Elastic Constant Matrix: (Units=GPa)
#
#
# Indices 1 2 3 4 5 6 
#
# 1 65.4569 32.9932 8.6153 -5.3222 25.4903 -16.8282
# 2 32.9932 100.2148 34.9454 0.4912 0.6374 -5.5832
# 3 8.6153 34.9454 136.5499 11.9542 13.1882 6.0178
# 4 -5.3222 0.4912 11.9542 55.0320 0.8779 8.6598
# 5 25.4903 0.6374 13.1882 0.8779 45.4982 0.6911
# 6 -16.8282 -5.5832 6.0178 8.6598 0.6911 48.7391
#
#
#
# Elastic Compliance Matrix: (Units=1/GPa)
#
#
# Indices 1 2 3 4 5 6 
#
# 1 0.028539 -0.009416 0.001705 0.001391 -0.016508 0.008551
# 2 -0.009416 0.014215 -0.003567 -0.000165 0.006132 -0.001240
# 3 0.001705 -0.003567 0.008612 -0.001532 -0.003363 -0.000564
# 4 0.001391 -0.000165 -0.001532 0.019080 -0.000660 -0.002730
# 5 -0.016508 0.006132 -0.003363 -0.000660 0.032204 -0.004921
# 6 0.008551 -0.001240 -0.000564 -0.002730 -0.004921 0.023952
#
#
# Mechanical properties :
#
#
# Convention : Reuss Voigt Hill
#
# Bulk Modulus (GPa) = 34.70944 50.59214 42.65079
# Shear Modulus (GPa) = 31.49378 44.89836 38.19607
#
# Velocity S-wave (km/s) = 3.60205 4.30083 3.96686
# Velocity P-wave (km/s) = 5.62132 6.74580 6.20907
#
# Compressibility (1/GPa) = 0.02881061
#
# Stress axis : x y z
#
# Youngs Moduli (GPa) = 35.04002 70.34857 116.11193
#
# Poissons Ratio (x) = 0.66237 -0.19793
# Poissons Ratio (y) = 0.32992 0.41416
# Poissons Ratio (z) = -0.05973 0.25093
#
# Static dielectric constant tensor:
#      x y z
#    x 2.036620 -0.091720 -0.026980 
#    y -0.091720 2.015050 -0.001810 
#    z -0.026980 -0.001810 1.967230 
# 
# From -- ./inp_files/155865.got.cif
#   From: 2010.05.17/outbox.cif.g08.bks.cpg/sg2_78_cif.got.tgz:155865.got - 2010.06.03 11:33:40.
