data_PCOD9049726
_publ_section_title
;
Structure prediction by ZEFSAII (Michael W. Deem and Ramdas Pophale) SiO2 
 PCOD9049726
Probable space group: P -1
;
_chemical_formula_sum "Si O2"
_cell_formula_units_Z 15
_cell_length_a 21.877211
_cell_length_b 6.133455
_cell_length_c 8.250839
_cell_angle_alpha 108.013994
_cell_angle_beta 44.242125
_cell_angle_gamma 85.935466
_cell_volume 659.373056
_symmetry_space_group_name_H-M "P -1"
_symmetry_group_IT_number 2
_symmetry_cell_setting 'triclinic'
loop_
_space_group_symop_operation_xyz
x,y,z
-x,-y,-z
loop_
_atom_site_type_symbol
_atom_site_label
_atom_site_fract_x
_atom_site_fract_y
_atom_site_fract_z
Si Si1 0.313954 0.980998 0.802271
Si Si2 0.158406 0.845122 0.191431
Si Si3 0.409555 0.184168 0.428109
Si Si4 0.025937 0.639093 0.227202
Si Si5 0.261870 0.498597 0.205528
Si Si6 0.943222 0.300841 0.189882
Si Si7 0.500000 0.500000 0.500000
Si Si8 0.429087 0.364602 0.095074
O O1 0.412938 0.744407 0.619763
O O2 0.332994 0.091888 0.623246
O O3 0.222499 0.913392 0.957359
O O4 0.287327 0.213505 0.033166
O O5 0.109153 0.669008 0.178763
O O6 0.233292 0.689703 0.153412
O O7 0.071993 0.102061 0.488006
O O8 0.441155 0.329781 0.535813
O O9 0.382690 0.350261 0.352960
O O10 0.506117 0.927335 0.145024
O O11 0.996568 0.406721 0.243209
O O12 0.056813 0.614130 0.975214
O O13 0.166278 0.599371 0.520174
O O14 0.350327 0.500408 0.138623
O O15 0.000000 0.000000 0.000000
O O16 0.500000 0.500000 0.000000
#
# Coordination Sequence:
#
# PCOD9049726 Si02
#       8
#     2   2   2   2   2   2   1   2
#     4  12  26  44  72 112 145 196 245 310 368 450
#     4  11  25  45  77 111 147 191 252 312 369 452
#     4  11  26  46  73 104 149 193 244 305 373 433
#     4  10  24  47  72 111 149 191 247 310 382 431
#     4  12  26  45  75 110 144 198 251 303 378 446
#     4  11  23  46  75 106 151 195 239 312 373 445
#     4  12  24  46  76 102 150 186 244 312 362 432
#     4  11  27  49  73 109 150 197 245 312 368 443
#
# _framework density 22.74888
#
# number of rings (size 3 to 8) (size 9 to 14) (size 15 to 20)
#    0.000    0.800    4.000    2.000    5.600    4.800 
#    0.000    2.667    0.000    0.000    0.000    0.000 
#    0.000    0.000    0.000    0.000    0.000    0.000 
#
# Total GULP energy -83685.007977 kJ/mol
# GULP energy per Si atom -5579.000532 kJ/mol
# Density = 2.269710 g / cm^3
# Si number density = 22.748880 Si / 1000 Ang^3
#
#
#
# Elastic Constant Matrix: (Units=GPa)
#
#
# Indices 1 2 3 4 5 6 
#
# 1 136.7875 55.1480 40.8210 -11.5353 -21.5757 13.8622
# 2 55.1480 105.3148 36.3776 -1.3219 -10.3593 10.2953
# 3 40.8210 36.3776 101.0270 -9.8103 3.4092 1.5013
# 4 -11.5353 -1.3219 -9.8103 38.9441 2.6136 3.3086
# 5 -21.5757 -10.3593 3.4092 2.6136 24.1883 -0.2782
# 6 13.8622 10.2953 1.5013 3.3086 -0.2782 36.4532
#
#
#
# Elastic Compliance Matrix: (Units=1/GPa)
#
#
# Indices 1 2 3 4 5 6 
#
# 1 0.011832 -0.003726 -0.003486 0.002176 0.009175 -0.003431
# 2 -0.003726 0.013090 -0.003427 -0.001550 0.002910 -0.001976
# 3 -0.003486 -0.003427 0.012981 0.002441 -0.006654 0.001487
# 4 0.002176 -0.001550 0.002441 0.027275 -0.002049 -0.002981
# 5 0.009175 0.002910 -0.006654 -0.002049 0.051892 -0.003455
# 6 -0.003431 -0.001976 0.001487 -0.002981 -0.003455 0.029478
#
#
# Mechanical properties :
#
#
# Convention : Reuss Voigt Hill
#
# Bulk Modulus (GPa) = 60.15793 67.53584 63.84688
# Shear Modulus (GPa) = 28.84027 33.96930 31.40479
#
# Velocity S-wave (km/s) = 3.56443 3.86842 3.71954
# Velocity P-wave (km/s) = 6.59106 7.05017 6.82448
#
# Compressibility (1/GPa) = 0.01662291
#
# Stress axis : x y z
#
# Youngs Moduli (GPa) = 84.51967 76.39170 77.03794
#
# Poissons Ratio (x) = 0.28465 0.26858
# Poissons Ratio (y) = 0.31494 0.26404
# Poissons Ratio (z) = 0.29466 0.26182
#
# Static dielectric constant tensor:
#      x y z
#    x 1.817510 -0.016890 0.039140 
#    y -0.016890 1.897000 -0.042620 
#    z 0.039140 -0.042620 1.861220 
# 
# From -- ./inp_files/340531.got.cif
#   From: 2010.05.17/outbox.cif.g08.bks.cpg/sg2_171_cif.got.tgz:340531.got - 2010.06.03 11:33:40.
