data_PCOD9049407
_publ_section_title
;
Structure prediction by ZEFSAII (Michael W. Deem and Ramdas Pophale) SiO2 
 PCOD9049407
Probable space group: P -1
;
_chemical_formula_sum "Si O2"
_cell_formula_units_Z 16
_cell_length_a 5.569556
_cell_length_b 11.514713
_cell_length_c 11.896794
_cell_angle_alpha 108.901983
_cell_angle_beta 76.089213
_cell_angle_gamma 114.790074
_cell_volume 650.428363
_symmetry_space_group_name_H-M "P -1"
_symmetry_group_IT_number 2
_symmetry_cell_setting 'triclinic'
loop_
_space_group_symop_operation_xyz
x,y,z
-x,-y,-z
loop_
_atom_site_type_symbol
_atom_site_label
_atom_site_fract_x
_atom_site_fract_y
_atom_site_fract_z
Si Si1 0.792044 0.008389 0.430507
Si Si2 0.600565 0.733539 0.968725
Si Si3 0.932786 0.384320 0.880772
Si Si4 0.822571 0.220208 0.329662
Si Si5 0.671152 0.427708 0.519934
Si Si6 0.552801 0.929153 0.862215
Si Si7 0.763026 0.531911 0.768541
Si Si8 0.899852 0.850428 0.180366
O O1 0.738011 0.895304 0.305624
O O2 0.500000 0.000000 0.500000
O O3 0.917784 0.149068 0.395336
O O4 0.000000 0.000000 0.500000
O O5 0.355878 0.712009 0.073255
O O6 0.835887 0.833377 0.048688
O O7 0.573013 0.797673 0.873641
O O8 0.621747 0.592851 0.894939
O O9 0.924353 0.455110 0.788087
O O10 0.103117 0.293477 0.833467
O O11 0.000000 0.500000 0.000000
O O12 0.627149 0.286448 0.426507
O O13 0.675202 0.113786 0.218319
O O14 0.046505 0.336514 0.274793
O O15 0.500000 0.500000 0.500000
O O16 0.598708 0.434625 0.660030
O O17 0.000000 0.500000 0.500000
O O18 0.814912 0.030820 0.807707
O O19 0.500000 0.000000 0.000000
#
# Coordination Sequence:
#
# PCOD9049407 Si02
#       8
#     2   2   2   2   2   2   2   2
#     4  12  30  52  79 110 153 208 264 326 391 458
#     4  12  24  44  74 110 152 196 253 320 385 470
#     4  12  26  47  70 113 154 198 252 315 393 470
#     4  11  25  50  76 111 155 196 267 322 381 469
#     4  10  24  46  73 108 146 197 256 313 379 452
#     4  12  22  43  78 110 154 202 258 316 390 459
#     4  11  24  45  75 110 149 203 251 316 393 463
#     4  12  27  47  76 110 156 199 264 316 395 464
#
# _framework density 24.599171999999999
#
# number of rings (size 3 to 8) (size 9 to 14) (size 15 to 20)
#    0.000    0.500    2.500    5.250    3.500    4.000 
#    2.250    0.000    0.000    0.000    0.000    0.000 
#    0.000    0.000    0.000    0.000    0.000    0.000 
#
# Total GULP energy -89524.749509 kJ/mol
# GULP energy per Si atom -5595.296844 kJ/mol
# Density = 2.454318 g / cm^3
# Si number density = 24.599172 Si / 1000 Ang^3
#
#
#
# Elastic Constant Matrix: (Units=GPa)
#
#
# Indices 1 2 3 4 5 6 
#
# 1 90.6500 33.1202 45.2501 -13.7437 -1.2463 -26.9793
# 2 33.1202 108.2286 20.3779 -26.7249 -2.2901 -26.1035
# 3 45.2501 20.3779 149.8519 10.6689 -7.9555 -21.0250
# 4 -13.7437 -26.7249 10.6689 47.5409 -21.5251 0.1379
# 5 -1.2463 -2.2901 -7.9555 -21.5251 48.4165 -7.3448
# 6 -26.9793 -26.1035 -21.0250 0.1379 -7.3448 53.4215
#
#
#
# Elastic Compliance Matrix: (Units=1/GPa)
#
#
# Indices 1 2 3 4 5 6 
#
# 1 0.016591 -0.000825 -0.004236 0.007002 0.003839 0.006818
# 2 -0.000825 0.014183 -0.001147 0.010836 0.006326 0.006904
# 3 -0.004236 -0.001147 0.008447 -0.003972 -0.000454 0.000573
# 4 0.007002 0.010836 -0.003972 0.038436 0.018604 0.009726
# 5 0.003839 0.006326 -0.000454 0.018604 0.030615 0.009012
# 6 0.006818 0.006904 0.000573 0.009726 0.009012 0.026976
#
#
# Mechanical properties :
#
#
# Convention : Reuss Voigt Hill
#
# Bulk Modulus (GPa) = 37.30434 60.69186 48.99810
# Shear Modulus (GPa) = 31.92892 46.54126 39.23509
#
# Velocity S-wave (km/s) = 3.60664 4.35441 3.99805
# Velocity P-wave (km/s) = 5.70452 7.07157 6.42451
#
# Compressibility (1/GPa) = 0.02680653
#
# Stress axis : x y z
#
# Youngs Moduli (GPa) = 60.27437 70.50828 118.38140
#
# Poissons Ratio (x) = 0.05817 0.50143
# Poissons Ratio (y) = 0.04972 0.13573
# Poissons Ratio (z) = 0.25530 0.08084
#
# Static dielectric constant tensor:
#      x y z
#    x 2.085180 -0.006300 -0.017690 
#    y -0.006300 1.941700 0.025560 
#    z -0.017690 0.025560 1.958310 
# 
# From -- ./inp_files/365001.got.cif
#   From: 2010.05.17/outbox.cif.g08.bks.cpg/sg2_183_cif.got.tgz:365001.got - 2010.06.03 11:33:40.
