data_PCOD9049789
_publ_section_title
;
Structure prediction by ZEFSAII (Michael W. Deem and Ramdas Pophale) SiO2 
 PCOD9049789
Probable space group: P -1
;
_chemical_formula_sum "Si O2"
_cell_formula_units_Z 12
_cell_length_a 14.382960
_cell_length_b 9.220308
_cell_length_c 5.091441
_cell_angle_alpha 131.310675
_cell_angle_beta 108.467717
_cell_angle_gamma 64.987145
_cell_volume 458.903064
_symmetry_space_group_name_H-M "P -1"
_symmetry_group_IT_number 2
_symmetry_cell_setting 'triclinic'
loop_
_space_group_symop_operation_xyz
x,y,z
-x,-y,-z
loop_
_atom_site_type_symbol
_atom_site_label
_atom_site_fract_x
_atom_site_fract_y
_atom_site_fract_z
Si Si1 0.388029 0.618127 0.435681
Si Si2 0.056427 0.651033 0.608764
Si Si3 0.505876 0.855389 0.576867
Si Si4 0.281576 0.382264 0.331808
Si Si5 0.770401 0.015488 0.048477
Si Si6 0.901247 0.987399 0.622152
O O1 0.500000 0.500000 0.500000
O O2 0.415302 0.749666 0.383930
O O3 0.319100 0.465214 0.196444
O O4 0.326121 0.787404 0.787349
O O5 0.175047 0.539519 0.515905
O O6 0.000000 0.500000 0.500000
O O7 0.056811 0.833661 0.022044
O O8 0.985661 0.768538 0.447337
O O9 0.614347 0.676913 0.470702
O O10 0.500000 0.000000 0.500000
O O11 0.500000 0.000000 0.000000
O O12 0.257488 0.170942 0.066692
O O13 0.852582 0.047191 0.367606
O O14 0.817430 0.973875 0.752054
#
# Coordination Sequence:
#
# PCOD9049789 Si02
#       6
#     2   2   2   2   2   2
#     4  10  24  47  74 109 147 193 245 302 366 438
#     4  11  24  48  74 109 146 193 245 301 365 437
#     4  11  25  48  75 105 149 193 240 304 368 430
#     4  11  24  48  75 112 146 197 248 304 367 439
#     4  12  25  49  76 104 151 191 243 305 367 430
#     4  11  28  48  71 108 147 193 242 304 363 435
#
# _framework density 26.149315999999999
#
# number of rings (size 3 to 8) (size 9 to 14) (size 15 to 20)
#    0.000    1.000    5.000    0.000    2.333    4.667 
#    6.000    5.000    0.000    0.000    0.000    0.000 
#    0.000    0.000    0.000    0.000    0.000    0.000 
#
# Total GULP energy -67193.244569 kJ/mol
# GULP energy per Si atom -5599.437047 kJ/mol
# Density = 2.608980 g / cm^3
# Si number density = 26.149316 Si / 1000 Ang^3
#
#
#
# Elastic Constant Matrix: (Units=GPa)
#
#
# Indices 1 2 3 4 5 6 
#
# 1 222.6198 98.3102 40.9836 19.0164 -10.9970 15.5874
# 2 98.3102 161.9476 44.1611 17.8861 -27.9439 -4.1157
# 3 40.9836 44.1611 52.2934 8.3953 -13.1291 8.4740
# 4 19.0164 17.8861 8.3953 51.0485 9.8517 -0.4959
# 5 -10.9970 -27.9439 -13.1291 9.8517 44.8604 28.2130
# 6 15.5874 -4.1157 8.4740 -0.4959 28.2130 75.3605
#
#
#
# Elastic Compliance Matrix: (Units=1/GPa)
#
#
# Indices 1 2 3 4 5 6 
#
# 1 0.006496 -0.003360 -0.001897 -0.000938 -0.000026 -0.001310
# 2 -0.003360 0.010659 -0.004610 -0.002723 0.005162 -0.000155
# 3 -0.001897 -0.004610 0.029084 -0.004593 0.010688 -0.007161
# 4 -0.000938 -0.002723 -0.004593 0.023966 -0.011753 0.005120
# 5 -0.000026 0.005162 0.010688 -0.011753 0.041637 -0.016580
# 6 -0.001310 -0.000155 -0.007161 0.005120 -0.016580 0.020578
#
#
# Mechanical properties :
#
#
# Convention : Reuss Voigt Hill
#
# Bulk Modulus (GPa) = 37.72860 89.30782 63.51821
# Shear Modulus (GPa) = 31.05833 51.14762 41.10298
#
# Velocity S-wave (km/s) = 3.45009 4.42745 3.96897
# Velocity P-wave (km/s) = 5.50729 7.76940 6.73401
#
# Compressibility (1/GPa) = 0.02650509
#
# Stress axis : x y z
#
# Youngs Moduli (GPa) = 153.95089 93.81678 34.38370
#
# Poissons Ratio (x) = 0.31523 0.06522
# Poissons Ratio (y) = 0.51728 0.15850
# Poissons Ratio (z) = 0.29200 0.43248
#
# Static dielectric constant tensor:
#      x y z
#    x 2.119250 -0.005990 0.051470 
#    y -0.005990 2.051000 -0.008700 
#    z 0.051470 -0.008700 2.088130 
# 
# From -- ./inp_files/31477.got.cif
#   From: 2010.05.17/outbox.cif.g08.bks.cpg/sg2_16_cif.got.tgz:31477.got - 2010.06.03 11:33:40.
