data_PCOD9049628
_publ_section_title
;
Structure prediction by ZEFSAII (Michael W. Deem and Ramdas Pophale) SiO2 
 PCOD9049628
Probable space group: P -1
;
_chemical_formula_sum "Si O2"
_cell_formula_units_Z 14
_cell_length_a 5.619811
_cell_length_b 13.591336
_cell_length_c 11.938101
_cell_angle_alpha 43.254910
_cell_angle_beta 65.743960
_cell_angle_gamma 69.987164
_cell_volume 568.320874
_symmetry_space_group_name_H-M "P -1"
_symmetry_group_IT_number 2
_symmetry_cell_setting 'triclinic'
loop_
_space_group_symop_operation_xyz
x,y,z
-x,-y,-z
loop_
_atom_site_type_symbol
_atom_site_label
_atom_site_fract_x
_atom_site_fract_y
_atom_site_fract_z
Si Si1 0.438866 0.156048 0.931488
Si Si2 0.484295 0.914477 0.786490
Si Si3 0.011758 0.695550 0.258517
Si Si4 0.082269 0.154429 0.399801
Si Si5 0.297850 0.628984 0.064640
Si Si6 0.255031 0.232100 0.525473
Si Si7 0.301698 0.600005 0.826267
O O1 0.713500 0.234301 0.820239
O O2 0.223930 0.226641 0.832037
O O3 0.349086 0.130027 0.098571
O O4 0.500000 0.000000 0.000000
O O5 0.622088 0.863710 0.687070
O O6 0.400113 0.081968 0.665352
O O7 0.260353 0.802607 0.930029
O O8 0.112277 0.579929 0.239791
O O9 0.874644 0.681771 0.416754
O O10 0.054383 0.174685 0.520727
O O11 0.938277 0.297946 0.257540
O O12 0.000000 0.000000 0.500000
O O13 0.592443 0.562657 0.092243
O O14 0.256844 0.588119 0.978241
O O15 0.454887 0.317096 0.340728
#
# Coordination Sequence:
#
# PCOD9049628 Si02
#       7
#     2   2   2   2   2   2   2
#     4  11  23  41  67 104 141 185 227 293 345 418
#     4  11  22  42  70 101 135 177 239 283 353 409
#     4  11  26  44  70 103 146 182 237 285 360 410
#     4  12  24  39  70 101 135 178 228 296 347 415
#     4  10  24  47  69  97 137 187 229 291 343 428
#     4  12  25  42  69 104 138 177 229 297 344 423
#     4  11  24  47  69  97 137 180 240 281 355 412
#
# _framework density 24.633969
#
# number of rings (size 3 to 8) (size 9 to 14) (size 15 to 20)
#    0.000    0.857    4.286    2.571    6.000    1.143 
#    5.143    0.714    0.000    0.000    0.000    0.000 
#    0.000    0.000    0.000    0.000    0.000    0.000 
#
# Total GULP energy -77994.033042 kJ/mol
# GULP energy per Si atom -5571.002360 kJ/mol
# Density = 2.457790 g / cm^3
# Si number density = 24.633969 Si / 1000 Ang^3
#
#
#
# Elastic Constant Matrix: (Units=GPa)
#
#
# Indices 1 2 3 4 5 6 
#
# 1 93.8507 13.5982 53.6921 2.0585 18.2402 -13.2402
# 2 13.5982 120.8310 84.6439 48.1958 13.0817 -15.9789
# 3 53.6921 84.6439 142.3164 13.4732 16.3862 -2.5624
# 4 2.0585 48.1958 13.4732 55.6664 1.6760 3.5749
# 5 18.2402 13.0817 16.3862 1.6760 35.5803 3.5973
# 6 -13.2402 -15.9789 -2.5624 3.5749 3.5973 29.8099
#
#
#
# Elastic Compliance Matrix: (Units=1/GPa)
#
#
# Indices 1 2 3 4 5 6 
#
# 1 0.024306 0.020769 -0.018063 -0.015637 -0.013455 0.023875
# 2 0.020769 0.051341 -0.031920 -0.039600 -0.017084 0.040812
# 3 -0.018063 -0.031920 0.029147 0.022673 0.009180 -0.026454
# 4 -0.015637 -0.039600 0.022673 0.049106 0.013229 -0.033708
# 5 -0.013455 -0.017084 0.009180 0.013229 0.038514 -0.020579
# 6 0.023875 0.040812 -0.026454 -0.033708 -0.020579 0.070278
#
#
# Mechanical properties :
#
#
# Convention : Reuss Voigt Hill
#
# Bulk Modulus (GPa) = 21.56806 73.42960 47.49883
# Shear Modulus (GPa) = 14.85548 37.88225 26.36887
#
# Velocity S-wave (km/s) = 2.45837 3.92574 3.27529
# Velocity P-wave (km/s) = 4.10275 7.10081 5.79888
#
# Compressibility (1/GPa) = 0.04636486
#
# Stress axis : x y z
#
# Youngs Moduli (GPa) = 41.14188 19.47761 34.30924
#
# Poissons Ratio (x) = -0.40454 0.61974
# Poissons Ratio (y) = -0.85449 1.09517
# Poissons Ratio (z) = 0.74316 0.62173
#
# Static dielectric constant tensor:
#      x y z
#    x 2.885840 -0.428980 0.211740 
#    y -0.428980 2.194390 -0.163310 
#    z 0.211740 -0.163310 2.299100 
# 
# From -- ./inp_files/78847.got.cif
#   From: 2010.05.17/outbox.cif.g08.bks.cpg/sg2_40_cif.got.tgz:78847.got - 2010.06.03 11:33:40.
