data_PCOD9049675
_publ_section_title
;
Structure prediction by ZEFSAII (Michael W. Deem and Ramdas Pophale) SiO2 
 PCOD9049675
Probable space group: P -1
;
_chemical_formula_sum "Si O2"
_cell_formula_units_Z 13
_cell_length_a 15.813414
_cell_length_b 12.883336
_cell_length_c 10.363500
_cell_angle_alpha 42.037402
_cell_angle_beta 152.410152
_cell_angle_gamma 147.354533
_cell_volume 527.436263
_symmetry_space_group_name_H-M "P -1"
_symmetry_group_IT_number 2
_symmetry_cell_setting 'triclinic'
loop_
_space_group_symop_operation_xyz
x,y,z
-x,-y,-z
loop_
_atom_site_type_symbol
_atom_site_label
_atom_site_fract_x
_atom_site_fract_y
_atom_site_fract_z
Si Si1 0.323264 0.091721 0.362383
Si Si2 0.011692 0.326556 0.145860
Si Si3 0.902817 0.745757 0.963537
Si Si4 0.000000 0.500000 0.500000
Si Si5 0.244791 0.188938 0.702016
Si Si6 0.552702 0.343192 0.209224
Si Si7 0.532582 0.960741 0.938257
O O1 0.523654 0.236378 0.401967
O O2 0.343294 0.942459 0.609672
O O3 0.288212 0.220445 0.291906
O O4 0.117917 0.951784 0.117258
O O5 0.200404 0.345824 0.477551
O O6 0.764036 0.141186 0.024202
O O7 0.000000 0.500000 0.000000
O O8 0.073206 0.297518 0.112065
O O9 0.895048 0.590863 0.185968
O O10 0.794689 0.426833 0.397814
O O11 0.346174 0.190861 0.974070
O O12 0.000000 0.000000 0.500000
O O13 0.435418 0.206936 0.854480
O O14 0.500000 0.500000 0.000000
O O15 0.500000 0.000000 0.000000
#
# Coordination Sequence:
#
# PCOD9049675 Si02
#       7
#     2   2   2   1   2   2   2
#     4  11  24  47  77 105 145 199 255 313 379 458
#     4  11  26  43  69 101 146 190 242 308 372 445
#     4  11  25  45  73 109 147 197 256 309 381 462
#     4  12  26  44  74 116 154 192 252 320 390 446
#     4  10  24  47  71 103 145 198 247 305 376 452
#     4  12  26  47  77 112 154 195 253 324 380 450
#     4  11  24  45  69 101 140 193 243 299 372 449
#
# _framework density 24.647528000000001
#
# number of rings (size 3 to 8) (size 9 to 14) (size 15 to 20)
#    0.000    0.923    1.538    4.615    4.308    8.000 
#    2.769    2.308    0.000    0.000    0.000    0.000 
#    0.000    0.000    0.000    0.000    0.000    0.000 
#
# Total GULP energy -72370.194189 kJ/mol
# GULP energy per Si atom -5566.938015 kJ/mol
# Density = 2.459143 g / cm^3
# Si number density = 24.647528 Si / 1000 Ang^3
#
#
#
# Elastic Constant Matrix: (Units=GPa)
#
#
# Indices 1 2 3 4 5 6 
#
# 1 174.1747 21.6653 41.0012 -2.5863 5.6342 -4.7629
# 2 21.6653 48.1325 -0.1831 5.7869 19.8922 -15.5526
# 3 41.0012 -0.1831 103.5492 -20.4686 17.8730 -17.0676
# 4 -2.5863 5.7869 -20.4686 44.4445 -11.3530 6.8264
# 5 5.6342 19.8922 17.8730 -11.3530 40.5293 -12.1534
# 6 -4.7629 -15.5526 -17.0676 6.8264 -12.1534 41.5531
#
#
#
# Elastic Compliance Matrix: (Units=1/GPa)
#
#
# Indices 1 2 3 4 5 6 
#
# 1 0.007024 -0.004799 -0.003433 0.000350 0.002470 -0.001736
# 2 -0.004799 0.034895 0.005114 -0.008703 -0.017914 0.010801
# 3 -0.003433 0.005114 0.013417 0.003131 -0.005610 0.004876
# 4 0.000350 -0.008703 0.003131 0.028122 0.009597 -0.003744
# 5 0.002470 -0.017914 -0.005610 0.009597 0.038579 0.000981
# 6 -0.001736 0.010801 0.004876 -0.003744 0.000981 0.030814
#
#
# Mechanical properties :
#
#
# Convention : Reuss Voigt Hill
#
# Bulk Modulus (GPa) = 20.36647 50.09144 35.22896
# Shear Modulus (GPa) = 28.49753 42.86359 35.68056
#
# Velocity S-wave (km/s) = 3.40399 4.17473 3.80890
# Velocity P-wave (km/s) = 4.87140 6.60341 5.80240
#
# Compressibility (1/GPa) = 0.04910031
#
# Stress axis : x y z
#
# Youngs Moduli (GPa) = 142.36388 28.65712 74.53424
#
# Poissons Ratio (x) = 0.13752 0.25588
# Poissons Ratio (y) = 0.68317 -0.38116
# Poissons Ratio (z) = 0.48875 -0.14655
#
# Static dielectric constant tensor:
#      x y z
#    x 2.014230 -0.081600 0.036500 
#    y -0.081600 2.150420 0.018360 
#    z 0.036500 0.018360 2.005500 
# 
# From -- ./inp_files/157798.got.cif
#   From: 2010.05.17/outbox.cif.g08.bks.cpg/sg2_79_cif.got.tgz:157798.got - 2010.06.03 11:33:40.
