data_PCOD9049721
_publ_section_title
;
Structure prediction by ZEFSAII (Michael W. Deem and Ramdas Pophale) SiO2 
 PCOD9049721
Probable space group: P -1
;
_chemical_formula_sum "Si O2"
_cell_formula_units_Z 13
_cell_length_a 8.901061
_cell_length_b 9.372442
_cell_length_c 9.134107
_cell_angle_alpha 65.478823
_cell_angle_beta 48.385328
_cell_angle_gamma 72.199992
_cell_volume 517.810957
_symmetry_space_group_name_H-M "P -1"
_symmetry_group_IT_number 2
_symmetry_cell_setting 'triclinic'
loop_
_space_group_symop_operation_xyz
x,y,z
-x,-y,-z
loop_
_atom_site_type_symbol
_atom_site_label
_atom_site_fract_x
_atom_site_fract_y
_atom_site_fract_z
Si Si1 0.000000 0.500000 0.000000
Si Si2 0.411456 0.862691 0.950885
Si Si3 0.944033 0.249462 0.382549
Si Si4 0.960077 0.928334 0.326745
Si Si5 0.509294 0.691246 0.231741
Si Si6 0.370710 0.650795 0.806899
Si Si7 0.627636 0.850626 0.342734
O O1 0.858709 0.364151 0.082650
O O2 0.026042 0.395504 0.180947
O O3 0.537378 0.818297 0.032318
O O4 0.185444 0.906084 0.129617
O O5 0.403793 0.707258 0.924448
O O6 0.471029 0.005376 0.748569
O O7 0.064397 0.201772 0.474157
O O8 0.713221 0.288374 0.565661
O O9 0.944054 0.093905 0.349186
O O10 0.811417 0.905796 0.296555
O O11 0.534274 0.518414 0.226157
O O12 0.669575 0.717049 0.247076
O O13 0.474020 0.777179 0.584298
#
# Coordination Sequence:
#
# PCOD9049721 Si02
#       7
#     1   2   2   2   2   2   2
#     4  12  26  46  70 104 142 190 232 294 360 418
#     4  11  26  47  74 108 143 188 238 293 354 428
#     4  10  24  47  72 107 144 190 234 295 353 428
#     4  10  25  46  75 106 143 187 241 291 355 417
#     4  11  26  47  72 108 145 185 236 296 360 418
#     4  12  28  44  72 105 147 187 236 295 364 417
#     4  12  25  47  75 108 141 189 245 291 350 423
#
# _framework density 25.105689999999999
#
# number of rings (size 3 to 8) (size 9 to 14) (size 15 to 20)
#    0.000    0.923    1.538    3.231    6.462    2.462 
#    0.000    3.077    0.000    0.000    0.000    0.000 
#    0.000    0.000    0.000    0.000    0.000    0.000 
#
# Total GULP energy -72685.947505 kJ/mol
# GULP energy per Si atom -5591.226731 kJ/mol
# Density = 2.504855 g / cm^3
# Si number density = 25.105690 Si / 1000 Ang^3
#
#
#
# Elastic Constant Matrix: (Units=GPa)
#
#
# Indices 1 2 3 4 5 6 
#
# 1 125.8934 29.6578 43.9769 6.6511 20.8864 14.7778
# 2 29.6578 137.4850 54.1102 19.0867 9.7787 2.1048
# 3 43.9769 54.1102 128.6903 -20.7111 20.3624 -9.6866
# 4 6.6511 19.0867 -20.7111 51.9569 -4.5614 10.5853
# 5 20.8864 9.7787 20.3624 -4.5614 41.2615 -7.6783
# 6 14.7778 2.1048 -9.6866 10.5853 -7.6783 40.9409
#
#
#
# Elastic Compliance Matrix: (Units=1/GPa)
#
#
# Indices 1 2 3 4 5 6 
#
# 1 0.010731 -0.000213 -0.003534 -0.002096 -0.004810 -0.005059
# 2 -0.000213 0.010136 -0.005050 -0.005699 -0.000480 -0.000255
# 3 -0.003534 -0.005050 0.012690 0.006691 -0.002088 0.002416
# 4 -0.002096 -0.005699 0.006691 0.025123 0.001210 -0.003636
# 5 -0.004810 -0.000480 -0.002088 0.001210 0.029143 0.006420
# 6 -0.005059 -0.000255 0.002416 -0.003636 0.006420 0.028980
#
#
# Mechanical properties :
#
#
# Convention : Reuss Voigt Hill
#
# Bulk Modulus (GPa) = 62.64438 71.95092 67.29765
# Shear Modulus (GPa) = 35.78624 44.45343 40.11984
#
# Velocity S-wave (km/s) = 3.77957 4.21248 4.00188
# Velocity P-wave (km/s) = 6.63727 7.23750 6.94387
#
# Compressibility (1/GPa) = 0.01596312
#
# Stress axis : x y z
#
# Youngs Moduli (GPa) = 93.19132 98.65680 78.79915
#
# Poissons Ratio (x) = 0.02104 0.27849
# Poissons Ratio (y) = 0.01988 0.39790
# Poissons Ratio (z) = 0.32936 0.49817
#
# Static dielectric constant tensor:
#      x y z
#    x 2.034030 -0.135600 -0.024560 
#    y -0.135600 1.994110 0.093180 
#    z -0.024560 0.093180 2.018060 
# 
# From -- ./inp_files/157058.got.cif
#   From: 2010.05.17/outbox.cif.g08.bks.cpg/sg2_79_cif.got.tgz:157058.got - 2010.06.03 11:33:40.
