data_PCOD9049203
_publ_section_title
;
Structure prediction by ZEFSAII (Michael W. Deem and Ramdas Pophale) SiO2 
 PCOD9049203
Probable space group: P -1
;
_chemical_formula_sum "Si O2"
_cell_formula_units_Z 15
_cell_length_a 13.033978
_cell_length_b 19.518107
_cell_length_c 10.222912
_cell_angle_alpha 38.063319
_cell_angle_beta 129.739004
_cell_angle_gamma 155.223872
_cell_volume 642.566305
_symmetry_space_group_name_H-M "P -1"
_symmetry_group_IT_number 2
_symmetry_cell_setting 'triclinic'
loop_
_space_group_symop_operation_xyz
x,y,z
-x,-y,-z
loop_
_atom_site_type_symbol
_atom_site_label
_atom_site_fract_x
_atom_site_fract_y
_atom_site_fract_z
Si Si1 0.707039 0.571553 0.211280
Si Si2 0.183402 0.140682 0.310895
Si Si3 0.057737 0.851145 0.448024
Si Si4 0.666342 0.149387 0.205399
Si Si5 0.536914 0.429944 0.789804
Si Si6 0.121950 0.679788 0.424170
Si Si7 0.800345 0.421219 0.115895
Si Si8 0.000000 0.000000 0.000000
O O1 0.479120 0.349904 0.280400
O O2 0.554025 0.527259 0.267864
O O3 0.912081 0.627582 0.339352
O O4 0.836690 0.761125 0.942227
O O5 0.121631 0.993156 0.390542
O O6 0.000000 0.000000 0.500000
O O7 0.259106 0.895984 0.564080
O O8 0.776150 0.608675 0.621495
O O9 0.067681 0.919867 0.216206
O O10 0.695385 0.284384 0.106399
O O11 0.400051 0.933264 0.242468
O O12 0.912418 0.327157 0.044256
O O13 0.617995 0.398036 0.014765
O O14 0.279063 0.210179 0.839343
O O15 0.177079 0.652235 0.642925
O O16 0.000000 0.500000 0.500000
#
# Coordination Sequence:
#
# PCOD9049203 Si02
#       8
#     2   2   2   2   2   2   2   1
#     4  11  26  41  68 103 130 169 218 274 334 391
#     4  11  23  43  68  95 133 173 218 267 332 392
#     4  11  23  42  68  98 128 179 219 273 323 394
#     4  10  24  46  70  92 134 182 227 265 330 401
#     4  11  24  43  67  98 133 170 222 270 330 394
#     4  12  27  43  69 101 135 172 223 279 332 394
#     4  10  25  46  69  95 133 181 224 268 331 401
#     4  12  24  38  62  98 134 162 218 274 326 374
#
# _framework density 23.343893999999999
#
# number of rings (size 3 to 8) (size 9 to 14) (size 15 to 20)
#    0.000    1.067    2.667    2.400    7.467    1.600 
#    2.400    0.000    0.000    0.000    0.000    0.000 
#    0.000    0.000    0.000    0.000    0.000    0.000 
#
# Total GULP energy -83612.599547 kJ/mol
# GULP energy per Si atom -5574.173303 kJ/mol
# Density = 2.329076 g / cm^3
# Si number density = 23.343894 Si / 1000 Ang^3
#
#
#
# Elastic Constant Matrix: (Units=GPa)
#
#
# Indices 1 2 3 4 5 6 
#
# 1 74.3453 44.1283 1.2711 -1.1167 29.9416 1.5796
# 2 44.1283 135.9253 31.8820 -19.4102 19.0996 18.9790
# 3 1.2711 31.8820 93.2006 3.6411 16.3277 15.3828
# 4 -1.1167 -19.4102 3.6411 40.5119 4.4283 12.1495
# 5 29.9416 19.0996 16.3277 4.4283 31.2166 2.4410
# 6 1.5796 18.9790 15.3828 12.1495 2.4410 43.2559
#
#
#
# Elastic Compliance Matrix: (Units=1/GPa)
#
#
# Indices 1 2 3 4 5 6 
#
# 1 0.028009 -0.007364 0.006403 -0.001023 -0.025694 0.001668
# 2 -0.007364 0.012483 -0.003572 0.007883 0.000659 -0.006189
# 3 0.006403 -0.003572 0.014323 -0.000729 -0.011115 -0.002928
# 4 -0.001023 0.007883 -0.000729 0.032880 -0.007187 -0.011992
# 5 -0.025694 0.000659 -0.011115 -0.007187 0.062868 0.003073
# 6 0.001668 -0.006189 -0.002928 -0.011992 0.003073 0.030009
#
#
# Mechanical properties :
#
#
# Convention : Reuss Voigt Hill
#
# Bulk Modulus (GPa) = 21.85792 50.89266 36.37529
# Shear Modulus (GPa) = 24.40369 38.07621 31.23995
#
# Velocity S-wave (km/s) = 3.23677 4.04307 3.66218
# Velocity P-wave (km/s) = 4.83246 6.60635 5.78777
#
# Compressibility (1/GPa) = 0.04575000
#
# Stress axis : x y z
#
# Youngs Moduli (GPa) = 35.70253 80.11211 69.81742
#
# Poissons Ratio (x) = 0.58992 -0.44703
# Poissons Ratio (y) = 0.26290 0.24936
# Poissons Ratio (z) = -0.22860 0.28613
#
# Static dielectric constant tensor:
#      x y z
#    x 1.939030 -0.228370 -0.035550 
#    y -0.228370 1.814760 -0.323190 
#    z -0.035550 -0.323190 1.641450 
# 
# From -- ./inp_files/458049.got.cif
#   From: 2010.05.17/outbox.cif.g08.bks.cpg/sg2_230_cif.got.tgz:458049.got - 2010.06.03 11:33:40.
