data_PCOD9049125
_publ_section_title
;
Structure prediction by ZEFSAII (Michael W. Deem and Ramdas Pophale) SiO2 
 PCOD9049125
Probable space group: P -1
;
_chemical_formula_sum "Si O2"
_cell_formula_units_Z 14
_cell_length_a 7.946907
_cell_length_b 5.509126
_cell_length_c 17.721739
_cell_angle_alpha 114.998245
_cell_angle_beta 132.443122
_cell_angle_gamma 86.068613
_cell_volume 490.940017
_symmetry_space_group_name_H-M "P -1"
_symmetry_group_IT_number 2
_symmetry_cell_setting 'triclinic'
loop_
_space_group_symop_operation_xyz
x,y,z
-x,-y,-z
loop_
_atom_site_type_symbol
_atom_site_label
_atom_site_fract_x
_atom_site_fract_y
_atom_site_fract_z
Si Si1 0.935616 0.588546 0.410328
Si Si2 0.740221 0.998301 0.194103
Si Si3 0.455694 0.246943 0.740374
Si Si4 0.224876 0.712811 0.940166
Si Si5 0.827473 0.686928 0.988070
Si Si6 0.206440 0.640054 0.350504
Si Si7 0.281868 0.091255 0.314973
O O1 0.759899 0.775878 0.384765
O O2 0.000000 0.500000 0.500000
O O3 0.143621 0.694850 0.424402
O O4 0.781148 0.301977 0.283770
O O5 0.671213 0.812235 0.224289
O O6 0.995583 0.025902 0.237349
O O7 0.510498 0.900110 0.057083
O O8 0.639348 0.560113 0.847261
O O9 0.614066 0.048338 0.740208
O O10 0.040791 0.529686 0.795991
O O11 0.242842 0.464799 0.971028
O O12 0.115058 0.974553 0.954801
O O13 0.000000 0.500000 0.000000
O O14 0.333156 0.922073 0.379392
O O15 0.361688 0.426094 0.371623
#
# Coordination Sequence:
#
# PCOD9049125 Si02
#       7
#     2   2   2   2   2   2   2
#     4  11  25  48  75  98 139 189 237 295 351 410
#     4  10  24  46  69 104 143 185 233 288 353 419
#     4  11  23  45  70 104 143 183 237 286 353 415
#     4  11  22  38  69  95 142 187 222 280 353 411
#     4  11  22  38  64 105 142 184 225 279 348 420
#     4  11  24  46  67 108 141 185 235 287 345 422
#     4  11  25  42  73 100 147 183 232 289 345 419
#
# _framework density 28.516719999999999
#
# number of rings (size 3 to 8) (size 9 to 14) (size 15 to 20)
#    0.000    1.143    2.857    3.000    2.000    4.571 
#    2.571    3.571    0.000    0.000    0.000    0.000 
#    0.000    0.000    0.000    0.000    0.000    0.000 
#
# Total GULP energy -78088.236374 kJ/mol
# GULP energy per Si atom -5577.731170 kJ/mol
# Density = 2.845181 g / cm^3
# Si number density = 28.516720 Si / 1000 Ang^3
#
#
#
# Elastic Constant Matrix: (Units=GPa)
#
#
# Indices 1 2 3 4 5 6 
#
# 1 129.4901 41.9772 35.0450 -24.0985 -3.6180 -31.3398
# 2 41.9772 184.7244 38.4727 -15.3385 -14.3502 -29.4758
# 3 35.0450 38.4727 143.6634 -26.6364 2.8734 -12.0801
# 4 -24.0985 -15.3385 -26.6364 49.5261 2.4503 -8.2182
# 5 -3.6180 -14.3502 2.8734 2.4503 34.1000 -2.4696
# 6 -31.3398 -29.4758 -12.0801 -8.2182 -2.4696 56.0036
#
#
#
# Elastic Compliance Matrix: (Units=1/GPa)
#
#
# Indices 1 2 3 4 5 6 
#
# 1 0.010788 -0.000719 -0.000899 0.005543 0.000977 0.006321
# 2 -0.000719 0.006679 -0.001123 0.001503 0.002954 0.003221
# 3 -0.000899 -0.001123 0.008352 0.003983 -0.001469 0.001227
# 4 0.005543 0.001503 0.003983 0.026959 -0.000423 0.008690
# 5 0.000977 0.002954 -0.001469 -0.000423 0.031050 0.003092
# 6 0.006321 0.003221 0.001227 0.008690 0.003092 0.024765
#
#
# Mechanical properties :
#
#
# Convention : Reuss Voigt Hill
#
# Bulk Modulus (GPa) = 49.17341 76.54086 62.85713
# Shear Modulus (GPa) = 41.37204 50.75147 46.06175
#
# Velocity S-wave (km/s) = 3.81307 4.22324 4.02338
# Velocity P-wave (km/s) = 6.05534 7.11898 6.60860
#
# Compressibility (1/GPa) = 0.02033619
#
# Stress axis : x y z
#
# Youngs Moduli (GPa) = 92.69635 149.72029 119.73575
#
# Poissons Ratio (x) = 0.10771 0.10767
# Poissons Ratio (y) = 0.06669 0.13443
# Poissons Ratio (z) = 0.08335 0.16809
#
# Static dielectric constant tensor:
#      x y z
#    x 1.951750 -0.040460 0.242740 
#    y -0.040460 2.354850 0.064700 
#    z 0.242740 0.064700 2.152990 
# 
# From -- ./inp_files/288439.got.cif
#   From: 2010.05.17/outbox.cif.g08.bks.cpg/sg2_145_cif.got.tgz:288439.got - 2010.06.03 11:33:40.
