data_PCOD9049332
_publ_section_title
;
Structure prediction by ZEFSAII (Michael W. Deem and Ramdas Pophale) SiO2 
 PCOD9049332
Probable space group: P -1
;
_chemical_formula_sum "Si O2"
_cell_formula_units_Z 14
_cell_length_a 12.485225
_cell_length_b 8.145035
_cell_length_c 11.757465
_cell_angle_alpha 135.987547
_cell_angle_beta 40.011193
_cell_angle_gamma 126.454594
_cell_volume 531.601915
_symmetry_space_group_name_H-M "P -1"
_symmetry_group_IT_number 2
_symmetry_cell_setting 'triclinic'
loop_
_space_group_symop_operation_xyz
x,y,z
-x,-y,-z
loop_
_atom_site_type_symbol
_atom_site_label
_atom_site_fract_x
_atom_site_fract_y
_atom_site_fract_z
Si Si1 0.438621 0.727105 0.222471
Si Si2 0.766306 0.668590 0.570826
Si Si3 0.391565 0.011885 0.982506
Si Si4 0.787491 0.958745 0.470506
Si Si5 0.086992 0.387124 0.135475
Si Si6 0.102450 0.945190 0.064122
Si Si7 0.406938 0.370183 0.726090
O O1 0.523856 0.776006 0.297586
O O2 0.245749 0.768819 0.400448
O O3 0.500000 0.500000 0.000000
O O4 0.487257 0.926066 0.188895
O O5 0.722381 0.781252 0.783733
O O6 0.785736 0.864398 0.553370
O O7 0.583739 0.516494 0.618443
O O8 0.941176 0.549551 0.373012
O O9 0.258727 0.829219 0.936812
O O10 0.500000 0.000000 0.000000
O O11 0.676645 0.782990 0.384977
O O12 0.973493 0.946491 0.270541
O O13 0.138563 0.199869 0.096430
O O14 0.257656 0.490903 0.979183
O O15 0.984096 0.223765 0.044898
#
# Coordination Sequence:
#
# PCOD9049332 Si02
#       7
#     2   2   2   2   2   2   2
#     4  12  24  45  70 103 137 186 241 288 347 422
#     4  12  26  43  69 107 146 187 228 288 355 421
#     4  12  26  45  68 103 144 185 231 288 359 416
#     4  11  26  45  70 105 141 186 233 292 358 408
#     4  10  24  46  72 106 138 182 244 290 345 412
#     4  10  24  46  72  99 142 186 235 294 344 421
#     4  11  24  45  74 103 139 187 239 288 346 421
#
# _framework density 26.335495000000002
#
# number of rings (size 3 to 8) (size 9 to 14) (size 15 to 20)
#    0.000    0.857    4.286    1.714    2.000    6.857 
#    0.000    0.000    0.000    0.000    0.000    0.000 
#    0.000    0.000    0.000    0.000    0.000    0.000 
#
# Total GULP energy -78080.142842 kJ/mol
# GULP energy per Si atom -5577.153060 kJ/mol
# Density = 2.627555 g / cm^3
# Si number density = 26.335495 Si / 1000 Ang^3
#
#
#
# Elastic Constant Matrix: (Units=GPa)
#
#
# Indices 1 2 3 4 5 6 
#
# 1 146.6219 29.2052 -9.0604 -8.9232 -20.4331 -5.3160
# 2 29.2052 48.8310 7.0204 -6.0242 -3.7148 -8.2708
# 3 -9.0604 7.0204 87.2185 12.5556 -14.9633 -11.0664
# 4 -8.9232 -6.0242 12.5556 21.8901 -1.1940 5.0278
# 5 -20.4331 -3.7148 -14.9633 -1.1940 41.4013 -12.8807
# 6 -5.3160 -8.2708 -11.0664 5.0278 -12.8807 43.2936
#
#
#
# Elastic Compliance Matrix: (Units=1/GPa)
#
#
# Indices 1 2 3 4 5 6 
#
# 1 0.008816 -0.004718 0.002467 0.000634 0.005584 0.002400
# 2 -0.004718 0.024922 -0.003075 0.006084 -0.000211 0.002626
# 3 0.002467 -0.003075 0.015903 -0.010224 0.008750 0.007571
# 4 0.000634 0.006084 -0.010224 0.055327 -0.004041 -0.009001
# 5 0.005584 -0.000211 0.008750 -0.004041 0.034139 0.013508
# 6 0.002400 0.002626 0.007571 -0.009001 0.013508 0.030894
#
#
# Mechanical properties :
#
#
# Convention : Reuss Voigt Hill
#
# Bulk Modulus (GPa) = 25.64859 37.44464 31.54662
# Shear Modulus (GPa) = 25.81982 38.35075 32.08528
#
# Velocity S-wave (km/s) = 3.13456 3.82021 3.49424
# Velocity P-wave (km/s) = 4.78131 5.80585 5.31831
#
# Compressibility (1/GPa) = 0.03898850
#
# Stress axis : x y z
#
# Youngs Moduli (GPa) = 113.42656 40.12503 62.88233
#
# Poissons Ratio (x) = 0.18931 -0.15512
# Poissons Ratio (y) = 0.53516 0.19337
# Poissons Ratio (z) = -0.27981 0.12339
#
# Static dielectric constant tensor:
#      x y z
#    x 2.142430 0.060720 -0.125990 
#    y 0.060720 2.247390 0.057820 
#    z -0.125990 0.057820 2.156320 
# 
# From -- ./inp_files/238038.got.cif
#   From: 2010.05.17/outbox.cif.g08.bks.cpg/sg2_120_cif.got.tgz:238038.got - 2010.06.03 11:33:40.
