data_PCOD9049363
_publ_section_title
;
Structure prediction by ZEFSAII (Michael W. Deem and Ramdas Pophale) SiO2 
 PCOD9049363
Probable space group: P -1
;
_chemical_formula_sum "Si O2"
_cell_formula_units_Z 13
_cell_length_a 13.072909
_cell_length_b 13.187809
_cell_length_c 10.488169
_cell_angle_alpha 49.850153
_cell_angle_beta 38.492225
_cell_angle_gamma 33.560882
_cell_volume 622.020528
_symmetry_space_group_name_H-M "P -1"
_symmetry_group_IT_number 2
_symmetry_cell_setting 'triclinic'
loop_
_space_group_symop_operation_xyz
x,y,z
-x,-y,-z
loop_
_atom_site_type_symbol
_atom_site_label
_atom_site_fract_x
_atom_site_fract_y
_atom_site_fract_z
Si Si1 0.672032 0.913232 0.284162
Si Si2 0.352723 0.279804 0.755323
Si Si3 0.142463 0.983020 0.489276
Si Si4 0.082685 0.327336 0.223691
Si Si5 0.128867 0.919364 0.075150
Si Si6 0.118154 0.513333 0.259522
Si Si7 0.500000 0.500000 0.000000
O O1 0.593317 0.858690 0.293757
O O2 0.923165 0.721388 0.230927
O O3 0.500000 0.000000 0.500000
O O4 0.708819 0.043405 0.101398
O O5 0.592638 0.201046 0.631383
O O6 0.179786 0.485240 0.700182
O O7 0.221900 0.280919 0.997114
O O8 0.112690 0.158547 0.368707
O O9 0.000000 0.000000 0.500000
O O10 0.047992 0.984475 0.714806
O O11 0.166628 0.380178 0.208807
O O12 0.274879 0.704919 0.105561
O O13 0.000000 0.000000 0.000000
O O14 0.000000 0.500000 0.500000
O O15 0.334606 0.473445 0.126362
#
# Coordination Sequence:
#
# PCOD9049363 Si02
#       7
#     2   2   2   2   2   2   1
#     4  11  23  44  71  97 137 185 236 288 354 431
#     4  10  24  46  72  97 136 188 233 286 360 425
#     4  12  27  43  70 108 139 180 240 296 357 424
#     4  10  24  47  70  99 139 187 234 287 354 430
#     4  12  26  45  66 104 144 183 231 295 357 421
#     4  11  24  43  69 104 138 183 235 290 359 416
#     4  12  26  42  70 104 142 182 236 294 350 424
#
# _framework density 20.899630999999999
#
# number of rings (size 3 to 8) (size 9 to 14) (size 15 to 20)
#    0.000    0.923    1.538    4.154    6.462    4.308 
#    0.000    0.000    0.000    0.000    0.000    0.000 
#    0.000    0.000    0.000    0.000    0.000    0.000 
#
# Total GULP energy -72493.338971 kJ/mol
# GULP energy per Si atom -5576.410690 kJ/mol
# Density = 2.085206 g / cm^3
# Si number density = 20.899631 Si / 1000 Ang^3
#
#
#
# Elastic Constant Matrix: (Units=GPa)
#
#
# Indices 1 2 3 4 5 6 
#
# 1 148.3341 28.9273 46.6813 16.6742 -16.8972 -7.1196
# 2 28.9273 75.5194 30.0176 8.2319 -8.4043 10.9201
# 3 46.6813 30.0176 91.8237 8.8362 4.8715 -1.8058
# 4 16.6742 8.2319 8.8362 32.9434 -0.1444 -0.2627
# 5 -16.8972 -8.4043 4.8715 -0.1444 42.3728 10.0108
# 6 -7.1196 10.9201 -1.8058 -0.2627 10.0108 29.8192
#
#
#
# Elastic Compliance Matrix: (Units=1/GPa)
#
#
# Indices 1 2 3 4 5 6 
#
# 1 0.009087 -0.001302 -0.004054 -0.003162 0.003541 0.001184
# 2 -0.001302 0.018227 -0.005559 -0.002453 0.005933 -0.009336
# 3 -0.004054 -0.005559 0.015188 -0.000626 -0.005361 0.003782
# 4 -0.003162 -0.002453 -0.000626 0.032736 -0.001800 0.000998
# 5 0.003541 0.005933 -0.005361 -0.001800 0.029536 -0.011583
# 6 0.001184 -0.009336 0.003782 0.000998 -0.011583 0.041364
#
#
# Mechanical properties :
#
#
# Convention : Reuss Voigt Hill
#
# Bulk Modulus (GPa) = 48.37494 58.54771 53.46133
# Shear Modulus (GPa) = 28.59446 35.03047 31.81247
#
# Velocity S-wave (km/s) = 3.70290 4.09850 3.90571
# Velocity P-wave (km/s) = 6.44039 7.10433 6.78049
#
# Compressibility (1/GPa) = 0.02067186
#
# Stress axis : x y z
#
# Youngs Moduli (GPa) = 110.04818 54.86222 65.84156
#
# Poissons Ratio (x) = 0.07141 0.26695
# Poissons Ratio (y) = 0.14324 0.36603
# Poissons Ratio (z) = 0.44618 0.30499
#
# Static dielectric constant tensor:
#      x y z
#    x 1.720930 -0.005580 0.013380 
#    y -0.005580 1.767010 -0.024210 
#    z 0.013380 -0.024210 1.698460 
# 
# From -- ./inp_files/261887.got.cif
#   From: 2010.05.17/outbox.cif.g08.bks.cpg/sg2_131_cif.got.tgz:261887.got - 2010.06.03 11:33:40.
