data_PCOD9049435
_publ_section_title
;
Structure prediction by ZEFSAII (Michael W. Deem and Ramdas Pophale) SiO2 
 PCOD9049435
Probable space group: P -1
;
_chemical_formula_sum "Si O2"
_cell_formula_units_Z 15
_cell_length_a 12.315791
_cell_length_b 8.528114
_cell_length_c 12.865495
_cell_angle_alpha 84.871291
_cell_angle_beta 144.457882
_cell_angle_gamma 73.848742
_cell_volume 622.275594
_symmetry_space_group_name_H-M "P -1"
_symmetry_group_IT_number 2
_symmetry_cell_setting 'triclinic'
loop_
_space_group_symop_operation_xyz
x,y,z
-x,-y,-z
loop_
_atom_site_type_symbol
_atom_site_label
_atom_site_fract_x
_atom_site_fract_y
_atom_site_fract_z
Si Si1 0.124449 0.595972 0.122475
Si Si2 0.500000 0.000000 0.000000
Si Si3 0.876590 0.708591 0.451382
Si Si4 0.400957 0.838713 0.170051
Si Si5 0.646267 0.572909 0.067369
Si Si6 0.294209 0.979257 0.310130
Si Si7 0.089186 0.793425 0.287953
Si Si8 0.507456 0.555363 0.749565
O O1 0.142175 0.628826 0.255258
O O2 0.371564 0.469748 0.264652
O O3 0.000000 0.500000 0.000000
O O4 0.946663 0.812909 0.922530
O O5 0.755648 0.894283 0.268255
O O6 0.577437 0.772820 0.056494
O O7 0.650638 0.780071 0.339729
O O8 0.000000 0.500000 0.500000
O O9 0.089310 0.628517 0.701243
O O10 0.371414 0.856850 0.270030
O O11 0.396838 0.665083 0.135446
O O12 0.192053 0.043657 0.940389
O O13 0.500000 0.500000 0.000000
O O14 0.588939 0.629105 0.897914
O O15 0.204868 0.895761 0.327713
O O16 0.500000 0.000000 0.500000
O O17 0.229298 0.687229 0.508011
#
# Coordination Sequence:
#
# PCOD9049435 Si02
#       8
#     2   1   2   2   2   2   2   2
#     4  11  23  40  65 103 148 192 241 298 354 437
#     4  10  24  50  76  98 150 180 234 324 368 424
#     4  10  24  46  74 104 140 183 247 306 369 439
#     4  11  24  43  69  99 145 190 231 305 360 430
#     4  11  27  49  73 111 142 189 251 305 380 443
#     4  11  23  41  64  99 146 191 233 290 360 431
#     4  11  24  45  64 102 149 187 240 291 362 436
#     4  12  24  41  75 101 144 192 241 295 370 434
#
# _framework density 24.105074999999999
#
# number of rings (size 3 to 8) (size 9 to 14) (size 15 to 20)
#    0.000    1.067    2.667    3.600    3.733    8.000 
#    0.000    0.000    0.000    0.000    0.000    0.000 
#    0.000    0.000    0.000    0.000    0.000    0.000 
#
# Total GULP energy -83598.384911 kJ/mol
# GULP energy per Si atom -5573.225661 kJ/mol
# Density = 2.405021 g / cm^3
# Si number density = 24.105075 Si / 1000 Ang^3
#
#
#
# Elastic Constant Matrix: (Units=GPa)
#
#
# Indices 1 2 3 4 5 6 
#
# 1 28.1720 17.0998 28.2075 -15.1860 19.1037 -2.3499
# 2 17.0998 98.1512 36.4557 -0.8174 1.9593 7.4627
# 3 28.2075 36.4557 216.2358 -21.8326 10.7171 -12.0024
# 4 -15.1860 -0.8174 -21.8326 47.7910 0.0455 1.5273
# 5 19.1037 1.9593 10.7171 0.0455 48.7781 4.0980
# 6 -2.3499 7.4627 -12.0024 1.5273 4.0980 19.7677
#
#
#
# Elastic Compliance Matrix: (Units=1/GPa)
#
#
# Indices 1 2 3 4 5 6 
#
# 1 0.085149 -0.014022 -0.003578 0.024630 -0.033559 0.018297
# 2 -0.014022 0.013800 -0.001769 -0.004751 0.006073 -0.008843
# 3 -0.003578 -0.001769 0.005731 0.001335 -0.000094 0.003638
# 4 0.024630 -0.004751 0.001335 0.029116 -0.010230 0.005403
# 5 -0.033559 0.006073 -0.000094 -0.010230 0.034498 -0.012700
# 6 0.018297 -0.008843 0.003638 0.005403 -0.012700 0.060525
#
#
# Mechanical properties :
#
#
# Convention : Reuss Voigt Hill
#
# Bulk Modulus (GPa) = 15.16470 56.23166 35.69818
# Shear Modulus (GPa) = 17.26893 40.65377 28.96135
#
# Velocity S-wave (km/s) = 2.67947 4.11119 3.46997
# Velocity P-wave (km/s) = 3.98466 6.77600 5.55840
#
# Compressibility (1/GPa) = 0.06594260
#
# Stress axis : x y z
#
# Youngs Moduli (GPa) = 11.74408 72.46495 174.49274
#
# Poissons Ratio (x) = 1.01609 0.62431
# Poissons Ratio (y) = 0.16467 0.30866
# Poissons Ratio (z) = 0.04202 0.12818
#
# Static dielectric constant tensor:
#      x y z
#    x 2.045800 -0.052330 -0.086140 
#    y -0.052330 2.004500 0.008860 
#    z -0.086140 0.008860 1.928380 
# 
# From -- ./inp_files/528759.got.cif
#   From: 2010.05.17/outbox.cif.g08.bks.cpg/sg2_265_cif.got.tgz:528759.got - 2010.06.03 11:33:40.
