data_PCOD9049059
_publ_section_title
;
Structure prediction by ZEFSAII (Michael W. Deem and Ramdas Pophale) SiO2 
 PCOD9049059
Probable space group: P -1
;
_chemical_formula_sum "Si O2"
_cell_formula_units_Z 15
_cell_length_a 9.816868
_cell_length_b 14.851581
_cell_length_c 8.753160
_cell_angle_alpha 140.345292
_cell_angle_beta 94.463051
_cell_angle_gamma 58.887006
_cell_volume 565.131363
_symmetry_space_group_name_H-M "P -1"
_symmetry_group_IT_number 2
_symmetry_cell_setting 'triclinic'
loop_
_space_group_symop_operation_xyz
x,y,z
-x,-y,-z
loop_
_atom_site_type_symbol
_atom_site_label
_atom_site_fract_x
_atom_site_fract_y
_atom_site_fract_z
Si Si1 0.669561 0.009055 0.126785
Si Si2 0.215976 0.378265 0.307480
Si Si3 0.551493 0.801357 0.193381
Si Si4 0.500000 0.500000 0.000000
Si Si5 0.901734 0.036410 0.376703
Si Si6 0.315505 0.480157 0.705258
Si Si7 0.818492 0.987827 0.778392
Si Si8 0.116546 0.559121 0.078867
O O1 0.806620 0.959648 0.214818
O O2 0.465020 0.239205 0.431856
O O3 0.656496 0.851140 0.928209
O O4 0.757219 0.995526 0.954674
O O5 0.269261 0.486731 0.533419
O O6 0.000000 0.500000 0.500000
O O7 0.258929 0.346721 0.092583
O O8 0.500000 0.000000 0.500000
O O9 0.367433 0.888456 0.190588
O O10 0.645009 0.627844 0.104266
O O11 0.712133 0.277346 0.675287
O O12 0.416785 0.540007 0.864085
O O13 0.069728 0.948133 0.152226
O O14 0.000000 0.000000 0.500000
O O15 0.129617 0.592611 0.946022
O O16 0.983750 0.758498 0.429803
O O17 0.000000 0.500000 0.000000
#
# Coordination Sequence:
#
# PCOD9049059 Si02
#       8
#     2   2   2   1   2   2   2   2
#     4  11  25  46  70  98 141 184 228 293 352 411
#     4  12  26  43  70 105 141 181 231 292 349 417
#     4  12  26  41  68 105 141 182 235 286 348 414
#     4  10  24  46  68 102 136 184 222 292 340 418
#     4  11  27  45  75 101 135 187 239 285 351 422
#     4  11  23  45  70  96 142 180 232 278 358 407
#     4  12  25  46  67 101 142 181 233 286 355 415
#     4  12  24  42  67 101 141 186 224 289 348 416
#
# _framework density 26.5425
#
# number of rings (size 3 to 8) (size 9 to 14) (size 15 to 20)
#    0.000    0.533    4.000    4.000    7.467    0.000 
#    0.000    0.000    0.000    5.600    0.000    0.000 
#    0.000    0.000    0.000    0.000    0.000    0.000 
#
# Total GULP energy -83710.668098 kJ/mol
# GULP energy per Si atom -5580.711207 kJ/mol
# Density = 2.648209 g / cm^3
# Si number density = 26.542500 Si / 1000 Ang^3
#
#
#
# Elastic Constant Matrix: (Units=GPa)
#
#
# Indices 1 2 3 4 5 6 
#
# 1 71.4090 10.1502 19.4407 -10.7910 8.7514 -35.2003
# 2 10.1502 113.7075 45.1253 3.4253 1.1678 -23.7882
# 3 19.4407 45.1253 171.3108 -8.9152 -5.8021 -6.8955
# 4 -10.7910 3.4253 -8.9152 65.7245 -5.9118 -3.3926
# 5 8.7514 1.1678 -5.8021 -5.9118 58.2336 -8.6098
# 6 -35.2003 -23.7882 -6.8955 -3.3926 -8.6098 44.9412
#
#
#
# Elastic Compliance Matrix: (Units=1/GPa)
#
#
# Indices 1 2 3 4 5 6 
#
# 1 0.025759 0.003153 -0.002648 0.004781 -0.000504 0.021703
# 2 0.003153 0.011406 -0.003034 -0.000055 0.000183 0.008072
# 3 -0.002648 -0.003034 0.006901 0.000611 0.000852 -0.002412
# 4 0.004781 -0.000055 0.000611 0.016529 0.001821 0.005406
# 5 -0.000504 0.000183 0.000852 0.001821 0.018020 0.003422
# 6 0.021703 0.008072 -0.002412 0.005406 0.003422 0.044217
#
#
# Mechanical properties :
#
#
# Convention : Reuss Voigt Hill
#
# Bulk Modulus (GPa) = 25.63659 56.20664 40.92161
# Shear Modulus (GPa) = 35.48838 52.56059 44.02448
#
# Velocity S-wave (km/s) = 3.66052 4.45482 4.07706
# Velocity P-wave (km/s) = 5.24839 6.90526 6.13303
#
# Compressibility (1/GPa) = 0.03900674
#
# Stress axis : x y z
#
# Youngs Moduli (GPa) = 38.82132 87.67618 144.91379
#
# Poissons Ratio (x) = -0.27646 0.38380
# Poissons Ratio (y) = -0.12241 0.43966
# Poissons Ratio (z) = 0.10282 0.26601
#
# Static dielectric constant tensor:
#      x y z
#    x 1.941460 -0.102770 0.071060 
#    y -0.102770 2.142200 0.053820 
#    z 0.071060 0.053820 1.962420 
# 
# From -- ./inp_files/236840.got.cif
#   From: 2010.05.17/outbox.cif.g08.bks.cpg/sg2_119_cif.got.tgz:236840.got - 2010.06.03 11:33:40.
