data_PCOD9049948
_publ_section_title
;
Structure prediction by ZEFSAII (Michael W. Deem and Ramdas Pophale) SiO2 
 PCOD9049948
Probable space group: P -1
;
_chemical_formula_sum "Si O2"
_cell_formula_units_Z 16
_cell_length_a 17.795958
_cell_length_b 23.472352
_cell_length_c 5.025658
_cell_angle_alpha 114.088901
_cell_angle_beta 107.189164
_cell_angle_gamma 18.905523
_cell_volume 591.099793
_symmetry_space_group_name_H-M "P -1"
_symmetry_group_IT_number 2
_symmetry_cell_setting 'triclinic'
loop_
_space_group_symop_operation_xyz
x,y,z
-x,-y,-z
loop_
_atom_site_type_symbol
_atom_site_label
_atom_site_fract_x
_atom_site_fract_y
_atom_site_fract_z
Si Si1 0.140220 0.980862 0.632881
Si Si2 0.607748 0.983697 0.699262
Si Si3 0.751015 0.994280 0.556842
Si Si4 0.529216 0.691048 0.863995
Si Si5 0.092011 0.378379 0.064455
Si Si6 0.381756 0.675209 0.158009
Si Si7 0.049776 0.587251 0.521945
Si Si8 0.697693 0.434967 0.555223
O O1 0.204139 0.004455 0.673927
O O2 0.853982 0.185934 0.730097
O O3 0.261212 0.872345 0.832328
O O4 0.268675 0.830423 0.300596
O O5 0.669902 0.986005 0.537620
O O6 0.845817 0.792022 0.760642
O O7 0.500000 0.000000 0.500000
O O8 0.379309 0.176035 0.005436
O O9 0.025324 0.795823 0.588209
O O10 0.529924 0.202217 0.837383
O O11 0.675495 0.598349 0.569407
O O12 0.688978 0.514128 0.800693
O O13 0.020055 0.374916 0.787510
O O14 0.000000 0.500000 0.000000
O O15 0.986753 0.440779 0.360789
O O16 0.583157 0.523390 0.311343
O O17 0.502606 0.555228 0.792529
#
# Coordination Sequence:
#
# PCOD9049948 Si02
#       8
#     2   2   2   2   2   2   2   2
#     4  10  25  43  76 106 148 192 247 298 367 438
#     4  10  24  48  70 103 144 193 242 304 367 435
#     4  12  25  46  73 109 140 197 249 303 363 445
#     4  11  25  45  69 108 144 193 241 307 360 434
#     4  11  24  43  70 102 134 184 236 295 358 426
#     4  10  24  48  74 106 153 195 235 305 372 432
#     4  11  24  45  69  96 141 184 234 294 360 423
#     4  11  25  46  74 105 150 194 241 300 370 433
#
# _framework density 27.068189
#
# number of rings (size 3 to 8) (size 9 to 14) (size 15 to 20)
#    0.000    1.250    2.500    1.500    7.000    2.500 
#    6.750    0.000    0.000    0.000    0.000    0.000 
#    0.000    0.000    0.000    0.000    0.000    0.000 
#
# Total GULP energy -89399.725439 kJ/mol
# GULP energy per Si atom -5587.482840 kJ/mol
# Density = 2.700658 g / cm^3
# Si number density = 27.068189 Si / 1000 Ang^3
#
#
#
# Elastic Constant Matrix: (Units=GPa)
#
#
# Indices 1 2 3 4 5 6 
#
# 1 103.8190 0.6888 11.5066 1.4375 -7.8438 16.3911
# 2 0.6888 142.1736 36.0374 19.4710 -7.4224 10.0970
# 3 11.5066 36.0374 121.1837 4.5407 -18.7566 6.8849
# 4 1.4375 19.4710 4.5407 50.5240 4.6584 -3.0820
# 5 -7.8438 -7.4224 -18.7566 4.6584 28.9406 7.4791
# 6 16.3911 10.0970 6.8849 -3.0820 7.4791 41.4706
#
#
#
# Elastic Compliance Matrix: (Units=1/GPa)
#
#
# Indices 1 2 3 4 5 6 
#
# 1 0.010870 0.000809 -0.000197 -0.001361 0.004640 -0.005399
# 2 0.000809 0.008296 -0.001894 -0.003434 0.002372 -0.002708
# 3 -0.000197 -0.001894 0.010051 -0.000938 0.006751 -0.002417
# 4 -0.001361 -0.003434 -0.000938 0.022107 -0.006540 0.004352
# 5 0.004640 0.002372 0.006751 -0.006540 0.044982 -0.012131
# 6 -0.005399 -0.002708 -0.002417 0.004352 -0.012131 0.029819
#
#
# Mechanical properties :
#
#
# Convention : Reuss Voigt Hill
#
# Bulk Modulus (GPa) = 37.51766 51.51577 44.51671
# Shear Modulus (GPa) = 36.34366 45.44995 40.89680
#
# Velocity S-wave (km/s) = 3.66822 4.10212 3.89122
# Velocity P-wave (km/s) = 5.64195 6.44280 6.05563
#
# Compressibility (1/GPa) = 0.02665412
#
# Stress axis : x y z
#
# Youngs Moduli (GPa) = 91.99288 120.53481 99.49024
#
# Poissons Ratio (x) = -0.09754 0.01959
# Poissons Ratio (y) = -0.07445 0.18847
# Poissons Ratio (z) = 0.01811 0.22833
#
# Static dielectric constant tensor:
#      x y z
#    x 2.302100 -0.053350 0.091550 
#    y -0.053350 2.094160 0.037750 
#    z 0.091550 0.037750 2.271500 
# 
# From -- ./inp_files/112899.got.cif
#   From: 2010.05.17/outbox.cif.g08.bks.cpg/sg2_57_cif.got.tgz:112899.got - 2010.06.03 11:33:40.
