data_PCOD9049659
_publ_section_title
;
Structure prediction by ZEFSAII (Michael W. Deem and Ramdas Pophale) SiO2 
 PCOD9049659
Probable space group: P -1
;
_chemical_formula_sum "Si O2"
_cell_formula_units_Z 16
_cell_length_a 12.340202
_cell_length_b 24.538170
_cell_length_c 5.065098
_cell_angle_alpha 114.474075
_cell_angle_beta 77.616532
_cell_angle_gamma 149.891759
_cell_volume 664.541917
_symmetry_space_group_name_H-M "P -1"
_symmetry_group_IT_number 2
_symmetry_cell_setting 'triclinic'
loop_
_space_group_symop_operation_xyz
x,y,z
-x,-y,-z
loop_
_atom_site_type_symbol
_atom_site_label
_atom_site_fract_x
_atom_site_fract_y
_atom_site_fract_z
Si Si1 0.156372 0.130823 0.716826
Si Si2 0.018074 0.183039 0.030548
Si Si3 0.450665 0.422858 0.572451
Si Si4 0.852987 0.411004 0.148422
Si Si5 0.386347 0.203779 0.242514
Si Si6 0.124742 0.340552 0.951859
Si Si7 0.420217 0.076375 0.009610
Si Si8 0.277875 0.785465 0.349784
O O1 0.363677 0.219713 0.580056
O O2 0.028845 0.132363 0.721308
O O3 0.198986 0.144223 0.033499
O O4 0.000000 0.000000 0.500000
O O5 0.270818 0.298080 0.259954
O O6 0.001434 0.241126 0.032299
O O7 0.802238 0.066193 0.087107
O O8 0.500000 0.500000 0.500000
O O9 0.298126 0.376059 0.795648
O O10 0.704848 0.528044 0.755373
O O11 0.611084 0.323150 0.193511
O O12 0.000000 0.500000 0.500000
O O13 0.795403 0.314932 0.916932
O O14 0.000000 0.500000 0.000000
O O15 0.366137 0.122080 0.108483
O O16 0.946301 0.280963 0.715783
O O17 0.611403 0.162506 0.314816
O O18 0.527773 0.104215 0.737636
#
# Coordination Sequence:
#
# PCOD9049659 Si02
#       8
#     2   2   2   2   2   2   2   2
#     4  12  25  41  71 104 139 189 228 286 365 417
#     4  11  26  41  73 102 146 182 244 286 360 433
#     4   9  22  47  67  96 137 183 234 307 346 398
#     4  11  23  45  68 100 135 182 237 291 341 419
#     4  11  24  45  66 102 147 178 233 295 351 418
#     4  10  24  47  70  98 146 180 244 296 350 419
#     4  11  25  44  71 104 142 185 229 293 353 430
#     4  11  26  45  73 101 143 191 229 290 367 411
#
# _framework density 24.076737000000001
#
# number of rings (size 3 to 8) (size 9 to 14) (size 15 to 20)
#    0.000    1.250    1.250    4.125    7.000    2.000 
#   11.250    0.000    0.000    0.000    0.000    0.000 
#    0.000    0.000    0.000    0.000    0.000    0.000 
#
# Total GULP energy -89349.400396 kJ/mol
# GULP energy per Si atom -5584.337525 kJ/mol
# Density = 2.402194 g / cm^3
# Si number density = 24.076737 Si / 1000 Ang^3
#
#
#
# Elastic Constant Matrix: (Units=GPa)
#
#
# Indices 1 2 3 4 5 6 
#
# 1 74.3357 20.9811 16.6148 10.9365 19.3625 -1.6307
# 2 20.9811 152.1971 14.2500 -3.7311 3.7076 -11.2507
# 3 16.6148 14.2500 63.7995 -3.5990 17.5526 -21.1527
# 4 10.9365 -3.7311 -3.5990 50.7080 -1.8717 -1.6673
# 5 19.3625 3.7076 17.5526 -1.8717 29.8264 -4.1979
# 6 -1.6307 -11.2507 -21.1527 -1.6673 -4.1979 19.9134
#
#
#
# Elastic Compliance Matrix: (Units=1/GPa)
#
#
# Indices 1 2 3 4 5 6 
#
# 1 0.018374 -0.002532 -0.003756 -0.005025 -0.010644 -0.006580
# 2 -0.002532 0.007230 0.000262 0.001294 0.001311 0.004541
# 3 -0.003756 0.000262 0.029325 0.003477 -0.010544 0.029059
# 4 -0.005025 0.001294 0.003477 0.021483 0.003320 0.006512
# 5 -0.010644 0.001311 -0.010544 0.003320 0.046512 -0.001248
# 6 -0.006580 0.004541 0.029059 0.006512 -0.001248 0.083394
#
#
# Mechanical properties :
#
#
# Convention : Reuss Voigt Hill
#
# Bulk Modulus (GPa) = 23.32169 43.78047 33.55108
# Shear Modulus (GPa) = 21.49035 35.98866 28.73950
#
# Velocity S-wave (km/s) = 2.99084 3.87039 3.45869
# Velocity P-wave (km/s) = 4.65127 6.18033 5.46949
#
# Compressibility (1/GPa) = 0.04287854
#
# Stress axis : x y z
#
# Youngs Moduli (GPa) = 54.42446 138.30614 34.10032
#
# Poissons Ratio (x) = 0.35013 0.12809
# Poissons Ratio (y) = 0.13778 -0.00895
# Poissons Ratio (z) = 0.20444 -0.03628
#
# Static dielectric constant tensor:
#      x y z
#    x 2.012500 0.072240 0.150010 
#    y 0.072240 2.046660 0.090340 
#    z 0.150010 0.090340 2.228120 
# 
# From -- ./inp_files/84513.got.cif
#   From: 2010.05.17/outbox.cif.g08.bks.cpg/sg2_43_cif.got.tgz:84513.got - 2010.06.03 11:33:40.
