data_PCOD9049797
_publ_section_title
;
Structure prediction by ZEFSAII (Michael W. Deem and Ramdas Pophale) SiO2 
 PCOD9049797
Probable space group: P -1
;
_chemical_formula_sum "Si O2"
_cell_formula_units_Z 16
_cell_length_a 17.696244
_cell_length_b 9.025388
_cell_length_c 20.533632
_cell_angle_alpha 32.406961
_cell_angle_beta 159.540102
_cell_angle_gamma 144.928563
_cell_volume 607.749895
_symmetry_space_group_name_H-M "P -1"
_symmetry_group_IT_number 2
_symmetry_cell_setting 'triclinic'
loop_
_space_group_symop_operation_xyz
x,y,z
-x,-y,-z
loop_
_atom_site_type_symbol
_atom_site_label
_atom_site_fract_x
_atom_site_fract_y
_atom_site_fract_z
Si Si1 0.305154 0.014782 0.286651
Si Si2 0.202081 0.226913 0.648705
Si Si3 0.174631 0.754995 0.575924
Si Si4 0.424297 0.051308 0.768357
Si Si5 0.307688 0.472800 0.407203
Si Si6 0.979562 0.750204 0.222710
Si Si7 0.543576 0.624302 0.839173
Si Si8 0.931532 0.248882 0.090764
O O1 0.291776 0.770626 0.313881
O O2 0.093079 0.950724 0.182966
O O3 0.500000 0.000000 0.500000
O O4 0.358024 0.287933 0.184751
O O5 0.285981 0.058790 0.719612
O O6 0.400948 0.327207 0.821031
O O7 0.003825 0.097125 0.582425
O O8 0.115157 0.500156 0.443698
O O9 0.359117 0.809209 0.647672
O O10 0.000000 0.500000 0.500000
O O11 0.348788 0.763785 0.773899
O O12 0.363728 0.280609 0.582585
O O13 0.680619 0.165410 0.940728
O O14 0.500000 0.500000 0.500000
O O15 0.090674 0.344227 0.242756
O O16 0.977169 0.957936 0.204110
O O17 0.741370 0.644806 0.040948
O O18 0.000000 0.500000 0.000000
#
# Coordination Sequence:
#
# PCOD9049797 Si02
#       8
#     2   2   2   2   2   2   2   2
#     4  12  23  42  68 103 141 182 221 277 342 424
#     4  11  26  44  74  96 137 177 241 284 342 399
#     4  10  24  47  74  97 131 190 235 289 344 401
#     4  12  24  47  66 105 138 181 230 288 347 404
#     4  12  24  40  68 100 143 181 224 275 343 416
#     4  12  25  43  68 105 138 186 225 278 346 414
#     4  11  23  43  68 101 138 180 228 279 343 411
#     4  12  27  41  68 105 147 183 223 277 348 421
#
# _framework density 26.326618
#
# number of rings (size 3 to 8) (size 9 to 14) (size 15 to 20)
#    0.000    0.500    5.000    3.000    7.000    0.500 
#    0.000    0.000    0.000    3.750    0.000    0.000 
#    0.000    0.000    0.000    0.000    0.000    0.000 
#
# Total GULP energy -89500.356098 kJ/mol
# GULP energy per Si atom -5593.772256 kJ/mol
# Density = 2.626670 g / cm^3
# Si number density = 26.326618 Si / 1000 Ang^3
#
#
#
# Elastic Constant Matrix: (Units=GPa)
#
#
# Indices 1 2 3 4 5 6 
#
# 1 132.7742 37.8299 41.3237 9.9403 28.3647 -1.1602
# 2 37.8299 103.7557 67.2122 39.2364 0.7224 -13.2652
# 3 41.3237 67.2122 151.7951 44.7959 0.2248 -5.1456
# 4 9.9403 39.2364 44.7959 64.6213 4.0173 -12.3718
# 5 28.3647 0.7224 0.2248 4.0173 35.7265 3.6533
# 6 -1.1602 -13.2652 -5.1456 -12.3718 3.6533 68.7356
#
#
#
# Elastic Compliance Matrix: (Units=1/GPa)
#
#
# Indices 1 2 3 4 5 6 
#
# 1 0.010891 -0.003416 -0.002170 0.002509 -0.008875 0.000286
# 2 -0.003416 0.016234 -0.004385 -0.006193 0.002957 0.001475
# 3 -0.002170 -0.004385 0.010434 -0.004586 0.002369 -0.001053
# 4 0.002509 -0.006193 -0.004586 0.022870 -0.004703 0.002870
# 5 -0.008875 0.002957 0.002369 -0.004703 0.035711 -0.002146
# 6 0.000286 0.001475 -0.001053 0.002870 -0.002146 0.015390
#
#
# Mechanical properties :
#
#
# Convention : Reuss Voigt Hill
#
# Bulk Modulus (GPa) = 56.76207 75.67296 66.21752
# Shear Modulus (GPa) = 36.40499 49.94729 43.17614
#
# Velocity S-wave (km/s) = 3.72266 4.36043 4.05411
# Velocity P-wave (km/s) = 6.33128 7.35917 6.86450
#
# Compressibility (1/GPa) = 0.01761740
#
# Stress axis : x y z
#
# Youngs Moduli (GPa) = 91.81983 61.59902 95.83771
#
# Poissons Ratio (x) = 0.21041 0.20799
# Poissons Ratio (y) = 0.31363 0.42025
# Poissons Ratio (z) = 0.19927 0.27011
#
# Static dielectric constant tensor:
#      x y z
#    x 2.080820 0.044270 -0.134140 
#    y 0.044270 2.178160 -0.073870 
#    z -0.134140 -0.073870 2.343950 
# 
# From -- ./inp_files/348965.got.cif
#   From: 2010.05.17/outbox.cif.g08.bks.cpg/sg2_175_cif.got.tgz:348965.got - 2010.06.03 11:33:40.
