data_PCOD9049149
_publ_section_title
;
Structure prediction by ZEFSAII (Michael W. Deem and Ramdas Pophale) SiO2 
 PCOD9049149
Probable space group: P -1
;
_chemical_formula_sum "Si O2"
_cell_formula_units_Z 16
_cell_length_a 29.761207
_cell_length_b 12.689683
_cell_length_c 9.015849
_cell_angle_alpha 140.128464
_cell_angle_beta 151.760973
_cell_angle_gamma 28.825643
_cell_volume 776.618274
_symmetry_space_group_name_H-M "P -1"
_symmetry_group_IT_number 2
_symmetry_cell_setting 'triclinic'
loop_
_space_group_symop_operation_xyz
x,y,z
-x,-y,-z
loop_
_atom_site_type_symbol
_atom_site_label
_atom_site_fract_x
_atom_site_fract_y
_atom_site_fract_z
Si Si1 0.455094 0.193034 0.682461
Si Si2 0.510259 0.554753 0.422176
Si Si3 0.076796 0.774026 0.385640
Si Si4 0.402956 0.036700 0.640342
Si Si5 0.294444 0.660879 0.699423
Si Si6 0.869692 0.577636 0.636075
Si Si7 0.939045 0.662610 0.642241
Si Si8 0.301679 0.857348 0.639484
O O1 0.397715 0.170975 0.635469
O O2 0.350351 0.424747 0.548568
O O3 0.500000 0.000000 0.500000
O O4 0.581806 0.149660 0.037954
O O5 0.500000 0.500000 0.500000
O O6 0.648431 0.348802 0.540907
O O7 0.469196 0.788551 0.530881
O O8 0.403509 0.585855 0.049686
O O9 0.169961 0.769934 0.547432
O O10 0.141796 0.588133 0.501827
O O11 0.000000 0.000000 0.500000
O O12 0.015580 0.707447 0.019990
O O13 0.259470 0.179068 0.435047
O O14 0.500000 0.000000 0.000000
O O15 0.285523 0.803294 0.698383
O O16 0.890850 0.575416 0.520273
O O17 0.000000 0.500000 0.000000
O O18 0.000000 0.500000 0.500000
O O19 0.822431 0.906268 0.513004
#
# Coordination Sequence:
#
# PCOD9049149 Si02
#       8
#     2   2   2   2   2   2   2   2
#     4  11  22  40  66 100 130 176 228 278 346 417
#     4  11  24  41  69 100 138 182 229 292 357 419
#     4  11  27  46  74 101 135 189 243 287 345 435
#     4  12  23  40  68 102 134 175 234 293 342 412
#     4  11  24  44  66 100 139 183 225 285 366 417
#     4  10  24  46  69  99 141 189 237 290 357 425
#     4  11  27  48  71 102 140 187 236 294 356 417
#     4  11  25  45  66  99 144 181 226 294 364 419
#
# _framework density 20.602142000000001
#
# number of rings (size 3 to 8) (size 9 to 14) (size 15 to 20)
#    0.000    1.000    1.250    6.000    8.750    1.500 
#    2.250    0.000    0.000    0.000    0.000    0.000 
#    0.000    0.000    0.000    0.000    0.000    0.000 
#
# Total GULP energy -89217.559549 kJ/mol
# GULP energy per Si atom -5576.097472 kJ/mol
# Density = 2.055525 g / cm^3
# Si number density = 20.602142 Si / 1000 Ang^3
#
#
#
# Elastic Constant Matrix: (Units=GPa)
#
#
# Indices 1 2 3 4 5 6 
#
# 1 169.8378 58.2435 30.6559 -11.0456 -1.2517 3.8916
# 2 58.2435 157.9773 41.8688 -2.3681 -4.8628 -15.5313
# 3 30.6559 41.8688 56.8280 1.5224 -1.6690 -13.8802
# 4 -11.0456 -2.3681 1.5224 32.5017 1.9122 -2.4917
# 5 -1.2517 -4.8628 -1.6690 1.9122 26.4001 -3.7375
# 6 3.8916 -15.5313 -13.8802 -2.4917 -3.7375 45.8629
#
#
#
# Elastic Compliance Matrix: (Units=1/GPa)
#
#
# Indices 1 2 3 4 5 6 
#
# 1 0.007358 -0.002110 -0.003032 0.002363 -0.000712 -0.002186
# 2 -0.002110 0.008578 -0.004709 0.000182 0.001422 0.001785
# 3 -0.003032 -0.004709 0.024274 -0.002139 0.001530 0.006018
# 4 0.002363 0.000182 -0.002139 0.031872 -0.002190 0.000767
# 5 -0.000712 0.001422 0.001530 -0.002190 0.038937 0.004059
# 6 -0.002186 0.001785 0.006018 0.000767 0.004059 0.024788
#
#
# Mechanical properties :
#
#
# Convention : Reuss Voigt Hill
#
# Bulk Modulus (GPa) = 48.76481 71.79773 60.28127
# Shear Modulus (GPa) = 30.79871 37.87794 34.33832
#
# Velocity S-wave (km/s) = 3.87062 4.29248 4.08700
# Velocity P-wave (km/s) = 6.61036 7.71313 7.18294
#
# Compressibility (1/GPa) = 0.02050659
#
# Stress axis : x y z
#
# Youngs Moduli (GPa) = 135.91409 116.57773 41.19614
#
# Poissons Ratio (x) = 0.24602 0.12493
# Poissons Ratio (y) = 0.28683 0.19398
# Poissons Ratio (z) = 0.41215 0.54893
#
# Static dielectric constant tensor:
#      x y z
#    x 1.726420 -0.044540 -0.037560 
#    y -0.044540 1.735330 -0.026630 
#    z -0.037560 -0.026630 1.588110 
# 
# From -- ./inp_files/357106.got.cif
#   From: 2010.05.17/outbox.cif.g08.bks.cpg/sg2_179_cif.got.tgz:357106.got - 2010.06.03 11:33:40.
