data_PCOD9049851
_publ_section_title
;
Structure prediction by ZEFSAII (Michael W. Deem and Ramdas Pophale) SiO2 
 PCOD9049851
Probable space group: P -1
;
_chemical_formula_sum "Si O2"
_cell_formula_units_Z 14
_cell_length_a 20.882826
_cell_length_b 14.908437
_cell_length_c 4.852860
_cell_angle_alpha 87.643527
_cell_angle_beta 87.176710
_cell_angle_gamma 19.903890
_cell_volume 513.671955
_symmetry_space_group_name_H-M "P -1"
_symmetry_group_IT_number 2
_symmetry_cell_setting 'triclinic'
loop_
_space_group_symop_operation_xyz
x,y,z
-x,-y,-z
loop_
_atom_site_type_symbol
_atom_site_label
_atom_site_fract_x
_atom_site_fract_y
_atom_site_fract_z
Si Si1 0.287824 0.639845 0.017874
Si Si2 0.149699 0.926890 0.485080
Si Si3 0.682078 0.134542 0.899261
Si Si4 0.674240 0.791371 0.699597
Si Si5 0.418612 0.904359 0.406741
Si Si6 0.062514 0.337832 0.798763
Si Si7 0.236530 0.517349 0.213766
O O1 0.142028 0.860174 0.261060
O O2 0.253190 0.578962 0.995379
O O3 0.253644 0.745385 0.744926
O O4 0.500753 0.385625 0.103753
O O5 0.254844 0.866929 0.302341
O O6 0.959977 0.217117 0.617294
O O7 0.594743 0.171793 0.726593
O O8 0.859595 0.853402 0.039188
O O9 0.715458 0.646358 0.877923
O O10 0.891979 0.529381 0.613499
O O11 0.500000 0.000000 0.500000
O O12 0.611065 0.971493 0.804694
O O13 0.603155 0.672943 0.573540
O O14 0.240954 0.137401 0.618962
O O15 0.000000 0.500000 0.000000
#
# Coordination Sequence:
#
# PCOD9049851 Si02
#       7
#     2   2   2   2   2   2   2
#     4  12  27  53  76 116 157 215 276 338 398 475
#     4  12  29  49  81 113 159 209 283 335 399 472
#     4  12  27  48  81 113 156 211 263 336 403 475
#     4  10  24  47  76 114 159 202 254 321 402 488
#     4  11  24  49  75 115 162 200 262 325 407 492
#     4  12  25  46  79 117 157 208 266 323 400 492
#     4  11  25  49  78 112 159 216 258 336 405 475
#
# _framework density 27.254747999999999
#
# number of rings (size 3 to 8) (size 9 to 14) (size 15 to 20)
#    0.000    0.571    2.857    3.857    6.000    1.143 
#    0.000    3.571    0.000    0.000    0.000    0.000 
#    0.000    0.000    0.000    0.000    0.000    0.000 
#
# Total GULP energy -78363.411925 kJ/mol
# GULP energy per Si atom -5597.386566 kJ/mol
# Density = 2.719272 g / cm^3
# Si number density = 27.254748 Si / 1000 Ang^3
#
#
#
# Elastic Constant Matrix: (Units=GPa)
#
#
# Indices 1 2 3 4 5 6 
#
# 1 140.2169 50.8589 34.7643 -10.3259 -32.8136 22.0317
# 2 50.8589 176.2908 51.0749 -10.5805 -29.7961 -14.5022
# 3 34.7643 51.0749 96.0579 5.4878 -26.8958 11.6186
# 4 -10.3259 -10.5805 5.4878 57.2119 -3.7315 -5.4204
# 5 -32.8136 -29.7961 -26.8958 -3.7315 40.7649 -22.2262
# 6 22.0317 -14.5022 11.6186 -5.4204 -22.2262 44.7740
#
#
#
# Elastic Compliance Matrix: (Units=1/GPa)
#
#
# Indices 1 2 3 4 5 6 
#
# 1 0.009626 -0.001882 -0.001022 0.001510 0.004341 -0.002743
# 2 -0.001882 0.009716 -0.003328 0.003298 0.009052 0.009830
# 3 -0.001022 -0.003328 0.014272 -0.002058 0.004805 -0.002142
# 4 0.001510 0.003298 -0.002058 0.019768 0.008022 0.007234
# 5 0.004341 0.009052 0.004805 0.008022 0.053239 0.026949
# 6 -0.002743 0.009830 -0.002142 0.007234 0.026949 0.041678
#
#
# Mechanical properties :
#
#
# Convention : Reuss Voigt Hill
#
# Bulk Modulus (GPa) = 47.28152 76.21795 61.74974
# Shear Modulus (GPa) = 29.79523 46.94133 38.36828
#
# Velocity S-wave (km/s) = 3.30996 4.15458 3.75609
# Velocity P-wave (km/s) = 5.65628 7.14422 6.44334
#
# Compressibility (1/GPa) = 0.02114991
#
# Stress axis : x y z
#
# Youngs Moduli (GPa) = 103.88434 102.92148 70.06919
#
# Poissons Ratio (x) = 0.19373 0.07161
# Poissons Ratio (y) = 0.19555 0.23317
# Poissons Ratio (z) = 0.10617 0.34249
#
# Static dielectric constant tensor:
#      x y z
#    x 2.135020 0.030540 -0.003070 
#    y 0.030540 2.216660 -0.005980 
#    z -0.003070 -0.005980 2.086040 
# 
# From -- ./inp_files/119409.got.cif
#   From: 2010.05.17/outbox.cif.g08.bks.cpg/sg2_60_cif.got.tgz:119409.got - 2010.06.03 11:33:40.
