data_PCOD9049842
_publ_section_title
;
Structure prediction by ZEFSAII (Michael W. Deem and Ramdas Pophale) SiO2 
 PCOD9049842
Probable space group: P -1
;
_chemical_formula_sum "Si O2"
_cell_formula_units_Z 11
_cell_length_a 9.570597
_cell_length_b 5.121714
_cell_length_c 8.723571
_cell_angle_alpha 86.425015
_cell_angle_beta 88.362758
_cell_angle_gamma 105.374181
_cell_volume 411.054181
_symmetry_space_group_name_H-M "P -1"
_symmetry_group_IT_number 2
_symmetry_cell_setting 'triclinic'
loop_
_space_group_symop_operation_xyz
x,y,z
-x,-y,-z
loop_
_atom_site_type_symbol
_atom_site_label
_atom_site_fract_x
_atom_site_fract_y
_atom_site_fract_z
Si Si1 0.864608 0.726582 0.496892
Si Si2 0.034891 0.543595 0.237989
Si Si3 0.212675 0.830463 0.906851
Si Si4 0.000000 0.000000 0.000000
Si Si5 0.592952 0.904148 0.371604
Si Si6 0.566530 0.298522 0.911837
O O1 0.851009 0.557568 0.660514
O O2 0.716290 0.790805 0.451210
O O3 0.913455 0.549964 0.370632
O O4 0.000000 0.000000 0.500000
O O5 0.958709 0.303500 0.128384
O O6 0.051685 0.830799 0.147634
O O7 0.314928 0.865066 0.755974
O O8 0.268110 0.670851 0.044486
O O9 0.179729 0.113021 0.939899
O O10 0.483568 0.711556 0.261576
O O11 0.500000 0.000000 0.500000
O O12 0.500000 0.500000 0.000000
O O13 0.500000 0.000000 0.000000
#
# Coordination Sequence:
#
# PCOD9049842 Si02
#       6
#     2   2   2   1   2   2
#     4  11  22  44  74 105 156 191 256 322 404 463
#     4  11  23  42  75 108 144 202 255 335 382 476
#     4  11  24  46  74 107 150 200 264 326 393 468
#     4  12  24  44  74 106 148 196 268 314 396 456
#     4  11  24  48  77 112 160 207 259 324 402 489
#     4  10  24  47  76 107 155 208 261 324 393 480
#
# _framework density 26.760459000000001
#
# number of rings (size 3 to 8) (size 9 to 14) (size 15 to 20)
#    0.000    1.091    3.636    1.636    2.545    2.909 
#    6.545    4.545    0.000    0.000    0.000    1.273 
#    0.000    0.000    0.000    0.000    0.000    0.000 
#
# Total GULP energy -61329.174818 kJ/mol
# GULP energy per Si atom -5575.379529 kJ/mol
# Density = 2.669955 g / cm^3
# Si number density = 26.760459 Si / 1000 Ang^3
#
#
#
# Elastic Constant Matrix: (Units=GPa)
#
#
# Indices 1 2 3 4 5 6 
#
# 1 188.6522 39.7598 96.2192 5.9119 45.6256 -46.1861
# 2 39.7598 103.4518 50.2289 -5.1044 21.4476 -13.3036
# 3 96.2192 50.2289 247.3222 -23.8020 31.8529 -26.3195
# 4 5.9119 -5.1044 -23.8020 64.2366 -8.1446 0.7532
# 5 45.6256 21.4476 31.8529 -8.1446 67.1956 -9.5704
# 6 -46.1861 -13.3036 -26.3195 0.7532 -9.5704 49.8538
#
#
#
# Elastic Compliance Matrix: (Units=1/GPa)
#
#
# Indices 1 2 3 4 5 6 
#
# 1 0.009455 -0.000809 -0.002509 -0.002492 -0.004360 0.006420
# 2 -0.000809 0.011333 -0.001591 0.000100 -0.002156 0.001019
# 3 -0.002509 -0.001591 0.005584 0.002152 -0.000155 0.000137
# 4 -0.002492 0.000100 0.002152 0.016938 0.002563 -0.000910
# 5 -0.004360 -0.002156 -0.000155 0.002563 0.018753 -0.001135
# 6 0.006420 0.001019 0.000137 -0.000910 -0.001135 0.026146
#
#
# Mechanical properties :
#
#
# Convention : Reuss Voigt Hill
#
# Bulk Modulus (GPa) = 60.40962 101.31577 80.86270
# Shear Modulus (GPa) = 48.28727 59.80509 54.04618
#
# Velocity S-wave (km/s) = 4.25246 4.73253 4.49890
# Velocity P-wave (km/s) = 6.83626 8.23437 7.56767
#
# Compressibility (1/GPa) = 0.01655365
#
# Stress axis : x y z
#
# Youngs Moduli (GPa) = 105.75857 88.23908 179.07171
#
# Poissons Ratio (x) = 0.07139 0.44937
# Poissons Ratio (y) = 0.08557 0.28490
# Poissons Ratio (z) = 0.26539 0.14039
#
# Static dielectric constant tensor:
#      x y z
#    x 2.260950 0.120400 -0.089240 
#    y 0.120400 1.425520 -0.170040 
#    z -0.089240 -0.170040 2.126410 
# 
# From -- ./inp_files/143737.got.cif
#   From: 2010.05.17/outbox.cif.g08.bks.cpg/sg2_72_cif.got.tgz:143737.got - 2010.06.03 11:33:40.
