data_PCOD9049606
_publ_section_title
;
Structure prediction by ZEFSAII (Michael W. Deem and Ramdas Pophale) SiO2 
 PCOD9049606
Probable space group: P -1
;
_chemical_formula_sum "Si O2"
_cell_formula_units_Z 16
_cell_length_a 7.061067
_cell_length_b 9.896045
_cell_length_c 18.576894
_cell_angle_alpha 37.395493
_cell_angle_beta 113.780317
_cell_angle_gamma 101.065613
_cell_volume 701.891789
_symmetry_space_group_name_H-M "P -1"
_symmetry_group_IT_number 2
_symmetry_cell_setting 'triclinic'
loop_
_space_group_symop_operation_xyz
x,y,z
-x,-y,-z
loop_
_atom_site_type_symbol
_atom_site_label
_atom_site_fract_x
_atom_site_fract_y
_atom_site_fract_z
Si Si1 0.140558 0.382708 0.006292
Si Si2 0.732228 0.433269 0.200074
Si Si3 0.944993 0.496511 0.653578
Si Si4 0.461389 0.947611 0.722624
Si Si5 0.483890 0.647884 0.507499
Si Si6 0.227057 0.300438 0.660037
Si Si7 0.875371 0.028824 0.895666
Si Si8 0.534579 0.077154 0.052254
O O1 0.377149 0.255308 0.123483
O O2 0.028512 0.182685 0.049725
O O3 0.153585 0.531187 0.873634
O O4 0.000000 0.500000 0.000000
O O5 0.875387 0.461967 0.280136
O O6 0.669031 0.191584 0.287907
O O7 0.525068 0.648321 0.075327
O O8 0.008521 0.460974 0.593250
O O9 0.718754 0.670996 0.557120
O O10 0.875251 0.267794 0.761951
O O11 0.609662 0.090829 0.642327
O O12 0.306547 0.132967 0.673549
O O13 0.500000 0.500000 0.500000
O O14 0.369742 0.492853 0.605199
O O15 0.262293 0.098555 0.811182
O O16 0.645012 0.996397 0.895253
O O17 0.000000 0.000000 0.000000
O O18 0.500000 0.000000 0.000000
#
# Coordination Sequence:
#
# PCOD9049606 Si02
#       8
#     2   2   2   2   2   2   2   2
#     4  11  24  41  64  97 133 175 214 265 338 396
#     4  11  24  41  62 101 135 168 212 275 344 381
#     4  12  23  41  71  99 129 170 226 272 324 396
#     4  11  24  45  63  93 140 173 216 276 321 398
#     4  10  24  47  68  93 134 174 228 270 319 388
#     4  11  22  41  72  98 125 178 223 267 328 386
#     4  11  19  37  61  98 131 160 215 275 320 376
#     4  11  19  36  65  98 132 163 210 270 331 386
#
# _framework density 22.795538000000001
#
# number of rings (size 3 to 8) (size 9 to 14) (size 15 to 20)
#    0.000    1.000    7.500    1.125    1.750    3.500 
#    4.500    0.625    0.000    0.000    0.000    0.000 
#    0.000    0.000    0.000    0.000    0.000    0.000 
#
# Total GULP energy -89074.731129 kJ/mol
# GULP energy per Si atom -5567.170696 kJ/mol
# Density = 2.274365 g / cm^3
# Si number density = 22.795538 Si / 1000 Ang^3
#
#
#
# Elastic Constant Matrix: (Units=GPa)
#
#
# Indices 1 2 3 4 5 6 
#
# 1 69.5869 23.5414 13.0318 -8.9023 0.4389 -8.1404
# 2 23.5414 140.6281 25.2403 -21.9274 -14.2019 -4.4590
# 3 13.0318 25.2403 62.6075 -19.8670 -22.3994 4.3793
# 4 -8.9023 -21.9274 -19.8670 32.7859 5.7701 -7.7489
# 5 0.4389 -14.2019 -22.3994 5.7701 38.9581 -3.5336
# 6 -8.1404 -4.4590 4.3793 -7.7489 -3.5336 40.8274
#
#
#
# Elastic Compliance Matrix: (Units=1/GPa)
#
#
# Indices 1 2 3 4 5 6 
#
# 1 0.016373 -0.001943 -0.002991 0.002667 -0.002677 0.003648
# 2 -0.001943 0.008603 -0.000955 0.004690 0.002070 0.001724
# 3 -0.002991 -0.000955 0.025082 0.011537 0.012386 -0.000129
# 4 0.002667 0.004690 0.011537 0.042805 0.002714 0.008166
# 5 -0.002677 0.002070 0.012386 0.002714 0.033333 0.001764
# 6 0.003648 0.001724 -0.000129 0.008166 0.001764 0.027125
#
#
# Mechanical properties :
#
#
# Convention : Reuss Voigt Hill
#
# Bulk Modulus (GPa) = 26.12437 44.04996 35.08717
# Shear Modulus (GPa) = 28.11217 36.58154 32.34686
#
# Velocity S-wave (km/s) = 3.51555 4.01030 3.77105
# Velocity P-wave (km/s) = 5.28810 6.38821 5.86401
#
# Compressibility (1/GPa) = 0.03827843
#
# Stress axis : x y z
#
# Youngs Moduli (GPa) = 61.07718 116.24228 39.86965
#
# Poissons Ratio (x) = 0.22583 0.11926
# Poissons Ratio (y) = 0.11866 0.03809
# Poissons Ratio (z) = 0.18270 0.11105
#
# Static dielectric constant tensor:
#      x y z
#    x 2.083860 0.041860 0.223540 
#    y 0.041860 1.864890 0.117540 
#    z 0.223540 0.117540 2.079460 
# 
# From -- ./inp_files/556797.got.cif
#   From: 2010.05.17/outbox.cif.g08.bks.cpg/sg2_279_cif.got.tgz:556797.got - 2010.06.03 11:33:40.
