data_PCOD9049307
_publ_section_title
;
Structure prediction by ZEFSAII (Michael W. Deem and Ramdas Pophale) SiO2 
 PCOD9049307
Probable space group: P -1
;
_chemical_formula_sum "Si O2"
_cell_formula_units_Z 12
_cell_length_a 5.092788
_cell_length_b 9.370949
_cell_length_c 15.660821
_cell_angle_alpha 93.774478
_cell_angle_beta 134.278221
_cell_angle_gamma 78.731397
_cell_volume 522.132958
_symmetry_space_group_name_H-M "P -1"
_symmetry_group_IT_number 2
_symmetry_cell_setting 'triclinic'
loop_
_space_group_symop_operation_xyz
x,y,z
-x,-y,-z
loop_
_atom_site_type_symbol
_atom_site_label
_atom_site_fract_x
_atom_site_fract_y
_atom_site_fract_z
Si Si1 0.106123 0.456210 0.424618
Si Si2 0.698143 0.907842 0.321246
Si Si3 0.152446 0.129820 0.450709
Si Si4 0.069266 0.856595 0.068141
Si Si5 0.810186 0.589026 0.041881
Si Si6 0.840914 0.662414 0.225872
O O1 0.500000 0.500000 0.500000
O O2 0.145831 0.284341 0.414022
O O3 0.000000 0.500000 0.500000
O O4 0.846275 0.543023 0.295185
O O5 0.821981 0.852121 0.440960
O O6 0.271011 0.900801 0.201630
O O7 0.950281 0.798238 0.306156
O O8 0.785579 0.067595 0.341440
O O9 0.500000 0.000000 0.500000
O O10 0.420102 0.738983 0.105269
O O11 0.751722 0.762323 0.007404
O O12 0.000000 0.000000 0.000000
O O13 0.043876 0.596372 0.183750
O O14 0.500000 0.500000 0.000000
O O15 0.000000 0.500000 0.000000
#
# Coordination Sequence:
#
# PCOD9049307 Si02
#       6
#     2   2   2   2   2   2
#     4  12  26  44  74 108 148 197 247 298 380 448
#     4   9  22  43  68 102 145 189 247 295 379 424
#     4  11  23  42  70 106 150 190 249 307 359 461
#     4  10  24  47  77 102 148 197 256 313 378 446
#     4  12  25  49  73 107 146 196 253 318 377 448
#     4  10  24  46  72 102 151 193 248 308 379 444
#
# _framework density 22.982652999999999
#
# number of rings (size 3 to 8) (size 9 to 14) (size 15 to 20)
#    1.000    0.333    3.333    1.000    9.333    2.000 
#    3.000    0.000    0.000    0.000    0.000    0.000 
#    0.000    0.000    0.000    0.000    0.000    0.000 
#
# Total GULP energy -66869.692251 kJ/mol
# GULP energy per Si atom -5572.474354 kJ/mol
# Density = 2.293034 g / cm^3
# Si number density = 22.982653 Si / 1000 Ang^3
#
#
#
# Elastic Constant Matrix: (Units=GPa)
#
#
# Indices 1 2 3 4 5 6 
#
# 1 126.3236 54.1083 48.1527 1.9583 -25.4251 15.5481
# 2 54.1083 226.3482 78.7434 -3.9276 -3.5119 42.9572
# 3 48.1527 78.7434 98.2519 12.4380 -33.6008 -1.7716
# 4 1.9583 -3.9276 12.4380 48.0086 -1.1915 0.4586
# 5 -25.4251 -3.5119 -33.6008 -1.1915 46.7896 11.4557
# 6 15.5481 42.9572 -1.7716 0.4586 11.4557 43.6240
#
#
#
# Elastic Compliance Matrix: (Units=1/GPa)
#
#
# Indices 1 2 3 4 5 6 
#
# 1 0.010985 -0.000270 -0.003825 0.000679 0.004438 -0.004977
# 2 -0.000270 0.009263 -0.009173 0.003129 -0.003901 -0.008406
# 3 -0.003825 -0.009173 0.024823 -0.006782 0.012906 0.008087
# 4 0.000679 0.003129 -0.006782 0.022771 -0.002936 -0.003067
# 5 0.004438 -0.003901 0.012906 -0.002936 0.034193 -0.006164
# 6 -0.004977 -0.008406 0.008087 -0.003067 -0.006164 0.034954
#
#
# Mechanical properties :
#
#
# Convention : Reuss Voigt Hill
#
# Bulk Modulus (GPa) = 53.95614 90.32582 72.14098
# Shear Modulus (GPa) = 29.46297 45.67904 37.57101
#
# Velocity S-wave (km/s) = 3.58434 4.46302 4.04760
# Velocity P-wave (km/s) = 6.37635 8.12066 7.30079
#
# Compressibility (1/GPa) = 0.01853357
#
# Stress axis : x y z
#
# Youngs Moduli (GPa) = 91.03060 107.95900 40.28603
#
# Poissons Ratio (x) = 0.02914 0.15411
# Poissons Ratio (y) = 0.02457 0.36955
# Poissons Ratio (z) = 0.34824 0.99032
#
# Static dielectric constant tensor:
#      x y z
#    x 2.012640 0.053690 0.037180 
#    y 0.053690 1.985270 0.114900 
#    z 0.037180 0.114900 1.934050 
# 
# From -- ./inp_files/478575.got.cif
#   From: 2010.05.17/outbox.cif.g08.bks.cpg/sg2_240_cif.got.tgz:478575.got - 2010.06.03 11:33:40.
