data_PCOD9049706
_publ_section_title
;
Structure prediction by ZEFSAII (Michael W. Deem and Ramdas Pophale) SiO2 
 PCOD9049706
Probable space group: P -1
;
_chemical_formula_sum "Si O2"
_cell_formula_units_Z 11
_cell_length_a 13.973529
_cell_length_b 8.324623
_cell_length_c 5.557197
_cell_angle_alpha 68.361942
_cell_angle_beta 53.517461
_cell_angle_gamma 55.286487
_cell_volume 426.803372
_symmetry_space_group_name_H-M "P -1"
_symmetry_group_IT_number 2
_symmetry_cell_setting 'triclinic'
loop_
_space_group_symop_operation_xyz
x,y,z
-x,-y,-z
loop_
_atom_site_type_symbol
_atom_site_label
_atom_site_fract_x
_atom_site_fract_y
_atom_site_fract_z
Si Si1 0.656798 0.364554 0.762789
Si Si2 0.435228 0.169624 0.803074
Si Si3 0.699460 0.002336 0.190880
Si Si4 0.960887 0.744071 0.181176
Si Si5 0.500000 0.500000 0.500000
Si Si6 0.085083 0.633048 0.555087
O O1 0.634390 0.344269 0.528058
O O2 0.754382 0.457083 0.611549
O O3 0.500000 0.500000 0.000000
O O4 0.717572 0.161657 0.921835
O O5 0.548533 0.119312 0.454797
O O6 0.416252 0.380424 0.782171
O O7 0.307211 0.159363 0.886333
O O8 0.500000 0.000000 0.000000
O O9 0.806886 0.906691 0.291042
O O10 0.957384 0.537760 0.295704
O O11 0.030235 0.751101 0.322626
O O12 0.028778 0.751985 0.821883
#
# Coordination Sequence:
#
# PCOD9049706 Si02
#       6
#     2   2   2   2   1   2
#     4  12  26  44  69 108 147 189 244 309 377 440
#     4  11  24  42  67 106 146 190 241 305 365 446
#     4  11  25  44  69 107 145 190 248 308 374 439
#     4  10  24  47  72 102 145 196 251 306 370 446
#     4  12  24  42  70 100 146 190 238 304 368 436
#     4  10  25  46  71 104 144 198 247 306 375 449
#
# _framework density 25.772994000000001
#
# number of rings (size 3 to 8) (size 9 to 14) (size 15 to 20)
#    0.000    1.091    3.636    1.091    7.636    1.455 
#    0.000    0.000    0.000    0.000    0.000    0.000 
#    0.000    0.000    0.000    0.000    0.000    0.000 
#
# Total GULP energy -61285.006890 kJ/mol
# GULP energy per Si atom -5571.364263 kJ/mol
# Density = 2.571433 g / cm^3
# Si number density = 25.772994 Si / 1000 Ang^3
#
#
#
# Elastic Constant Matrix: (Units=GPa)
#
#
# Indices 1 2 3 4 5 6 
#
# 1 162.4382 10.0287 40.2537 1.7197 22.6711 -19.6258
# 2 10.0287 42.2633 25.2988 -6.6743 14.0938 -7.2315
# 3 40.2537 25.2988 91.7437 -13.9964 18.3719 7.5835
# 4 1.7197 -6.6743 -13.9964 45.9648 -16.1312 -1.0402
# 5 22.6711 14.0938 18.3719 -16.1312 40.2401 -12.6865
# 6 -19.6258 -7.2315 7.5835 -1.0402 -12.6865 39.2251
#
#
#
# Elastic Compliance Matrix: (Units=1/GPa)
#
#
# Indices 1 2 3 4 5 6 
#
# 1 0.007987 0.001896 -0.004137 -0.002184 -0.002836 0.004171
# 2 0.001896 0.031670 -0.008909 -0.000180 -0.006106 0.006530
# 3 -0.004137 -0.008909 0.017010 0.002486 -0.003903 -0.008198
# 4 -0.002184 -0.000180 0.002486 0.026782 0.011817 0.002926
# 5 -0.002836 -0.006106 -0.003903 0.011817 0.038574 0.010999
# 6 0.004171 0.006530 -0.008198 0.002926 0.010999 0.034004
#
#
# Mechanical properties :
#
#
# Convention : Reuss Voigt Hill
#
# Bulk Modulus (GPa) = 29.09921 49.73417 39.41669
# Shear Modulus (GPa) = 26.34573 39.81024 33.07799
#
# Velocity S-wave (km/s) = 3.20069 3.93447 3.58639
# Velocity P-wave (km/s) = 4.99743 6.32289 5.69883
#
# Compressibility (1/GPa) = 0.03436519
#
# Stress axis : x y z
#
# Youngs Moduli (GPa) = 125.20027 31.57611 58.78767
#
# Poissons Ratio (x) = -0.05986 0.24322
# Poissons Ratio (y) = -0.23733 0.52375
# Poissons Ratio (z) = 0.51799 0.28132
#
# Static dielectric constant tensor:
#      x y z
#    x 2.256580 0.331080 0.127350 
#    y 0.331080 2.259540 0.187770 
#    z 0.127350 0.187770 2.114810 
# 
# From -- ./inp_files/32649.got.cif
#   From: 2010.05.17/outbox.cif.g08.bks.cpg/sg2_17_cif.got.tgz:32649.got - 2010.06.03 11:33:40.
