data_PCOD9049678
_publ_section_title
;
Structure prediction by ZEFSAII (Michael W. Deem and Ramdas Pophale) SiO2 
 PCOD9049678
Probable space group: P -1
;
_chemical_formula_sum "Si O2"
_cell_formula_units_Z 14
_cell_length_a 10.988043
_cell_length_b 9.632124
_cell_length_c 5.080189
_cell_angle_alpha 92.836089
_cell_angle_beta 91.625075
_cell_angle_gamma 99.782550
_cell_volume 528.841686
_symmetry_space_group_name_H-M "P -1"
_symmetry_group_IT_number 2
_symmetry_cell_setting 'triclinic'
loop_
_space_group_symop_operation_xyz
x,y,z
-x,-y,-z
loop_
_atom_site_type_symbol
_atom_site_label
_atom_site_fract_x
_atom_site_fract_y
_atom_site_fract_z
Si Si1 0.826632 0.413091 0.857429
Si Si2 0.376635 0.752000 0.520736
Si Si3 0.023368 0.317873 0.255156
Si Si4 0.602239 0.441560 0.159854
Si Si5 0.815467 0.903322 0.966163
Si Si6 0.467828 0.148633 0.935536
Si Si7 0.834111 0.094619 0.469768
O O1 0.733587 0.284902 0.717516
O O2 0.892327 0.530975 0.671678
O O3 0.735735 0.483076 0.050772
O O4 0.924465 0.354932 0.041659
O O5 0.384589 0.576796 0.533648
O O6 0.495686 0.818381 0.361045
O O7 0.295577 0.867398 0.643798
O O8 0.109494 0.217299 0.124517
O O9 0.943476 0.230201 0.469987
O O10 0.500000 0.500000 0.000000
O O11 0.555689 0.265966 0.138669
O O12 0.819660 0.012306 0.734878
O O13 0.672052 0.839615 0.010706
O O14 0.868241 0.986244 0.238496
O O15 0.500000 0.000000 0.000000
#
# Coordination Sequence:
#
# PCOD9049678 Si02
#       7
#     2   2   2   2   2   2   2
#     4  10  24  47  71 104 145 194 243 301 372 437
#     4  11  24  45  78 104 147 192 244 309 376 445
#     4  11  24  48  72 104 149 194 247 300 365 442
#     4  11  24  46  71 105 146 188 250 307 375 442
#     4  12  27  46  73 113 149 192 249 304 369 444
#     4  11  24  43  74 106 148 191 244 304 378 442
#     4  12  25  47  74 107 151 194 241 307 366 439
#
# _framework density 26.472949
#
# number of rings (size 3 to 8) (size 9 to 14) (size 15 to 20)
#    0.000    0.857    2.857    3.429    2.000    5.143 
#    7.714    0.000    0.000    0.000    0.000    0.000 
#    0.000    0.000    0.000    0.000    0.000    0.000 
#
# Total GULP energy -78292.617123 kJ/mol
# GULP energy per Si atom -5592.329795 kJ/mol
# Density = 2.641270 g / cm^3
# Si number density = 26.472949 Si / 1000 Ang^3
#
#
#
# Elastic Constant Matrix: (Units=GPa)
#
#
# Indices 1 2 3 4 5 6 
#
# 1 196.7750 49.6631 43.8105 -38.8880 -21.9517 -21.5298
# 2 49.6631 91.5113 35.9214 -28.4196 -3.3200 3.1082
# 3 43.8105 35.9214 109.9347 -29.1353 -24.8224 -7.3092
# 4 -38.8880 -28.4196 -29.1353 49.1954 9.6524 9.5104
# 5 -21.9517 -3.3200 -24.8224 9.6524 56.9068 -9.4871
# 6 -21.5298 3.1082 -7.3092 9.5104 -9.4871 59.6427
#
#
#
# Elastic Compliance Matrix: (Units=1/GPa)
#
#
# Indices 1 2 3 4 5 6 
#
# 1 0.006943 -0.002752 -0.000475 0.002682 0.002277 0.002526
# 2 -0.002752 0.015697 -0.003365 0.006273 -0.003302 -0.003749
# 3 -0.000475 -0.003365 0.012596 0.003886 0.004736 0.001681
# 4 0.002682 0.006273 0.003886 0.029663 -0.002607 -0.004027
# 5 0.002277 -0.003302 0.004736 -0.002607 0.021673 0.005437
# 6 0.002526 -0.003749 0.001681 -0.004027 0.005437 0.019587
#
#
# Mechanical properties :
#
#
# Convention : Reuss Voigt Hill
#
# Bulk Modulus (GPa) = 45.34467 73.00124 59.17295
# Shear Modulus (GPa) = 39.46574 51.07071 45.26822
#
# Velocity S-wave (km/s) = 3.86527 4.39699 4.13968
# Velocity P-wave (km/s) = 6.08985 7.30847 6.72681
#
# Compressibility (1/GPa) = 0.02205331
#
# Stress axis : x y z
#
# Youngs Moduli (GPa) = 144.04031 63.70454 79.38912
#
# Poissons Ratio (x) = 0.17528 0.03769
# Poissons Ratio (y) = 0.39633 0.26715
# Poissons Ratio (z) = 0.06839 0.21437
#
# Static dielectric constant tensor:
#      x y z
#    x 2.198380 -0.129120 -0.086740 
#    y -0.129120 2.313260 0.138920 
#    z -0.086740 0.138920 2.171880 
# 
# From -- ./inp_files/60428.got.cif
#   From: 2010.05.17/outbox.cif.g08.bks.cpg/sg2_31_cif.got.tgz:60428.got - 2010.06.03 11:33:40.
