data_PCOD9049655
_publ_section_title
;
Structure prediction by ZEFSAII (Michael W. Deem and Ramdas Pophale) SiO2 
 PCOD9049655
Probable space group: P -1
;
_chemical_formula_sum "Si O2"
_cell_formula_units_Z 16
_cell_length_a 11.377679
_cell_length_b 11.676383
_cell_length_c 8.755451
_cell_angle_alpha 67.512405
_cell_angle_beta 110.192739
_cell_angle_gamma 133.545416
_cell_volume 773.172092
_symmetry_space_group_name_H-M "P -1"
_symmetry_group_IT_number 2
_symmetry_cell_setting 'triclinic'
loop_
_space_group_symop_operation_xyz
x,y,z
-x,-y,-z
loop_
_atom_site_type_symbol
_atom_site_label
_atom_site_fract_x
_atom_site_fract_y
_atom_site_fract_z
Si Si1 0.039803 0.591334 0.311241
Si Si2 0.698825 0.284978 0.222023
Si Si3 0.174827 0.860256 0.449694
Si Si4 0.888925 0.824980 0.462520
Si Si5 0.813949 0.411091 0.912826
Si Si6 0.644621 0.822193 0.811624
Si Si7 0.889117 0.987419 0.091362
Si Si8 0.205209 0.313102 0.199835
O O1 0.114827 0.767830 0.308043
O O2 0.171315 0.610844 0.248879
O O3 0.000000 0.500000 0.500000
O O4 0.859555 0.473153 0.220025
O O5 0.725843 0.178345 0.389456
O O6 0.542591 0.259862 0.219869
O O7 0.701440 0.259771 0.054224
O O8 0.010277 0.787885 0.504033
O O9 0.272108 0.045612 0.355488
O O10 0.766389 0.711766 0.599202
O O11 0.840395 0.854190 0.264809
O O12 0.000000 0.000000 0.500000
O O13 0.768020 0.523939 0.865867
O O14 0.000000 0.500000 0.000000
O O15 0.686490 0.705689 0.851385
O O16 0.727900 0.917855 0.959834
O O17 0.014559 0.163844 0.139405
O O18 0.000000 0.000000 0.000000
#
# Coordination Sequence:
#
# PCOD9049655 Si02
#       8
#     2   2   2   2   2   2   2   2
#     4   9  20  38  62  83 111 158 204 236 283 355
#     4  10  23  39  59  90 125 161 195 242 307 359
#     4  11  20  39  65  88 118 157 205 250 292 358
#     4  10  17  34  60  93 113 146 202 251 292 344
#     4  10  21  38  61  83 118 158 204 238 290 360
#     4  11  22  38  60  94 122 155 195 254 314 344
#     4   9  18  32  54  87 116 146 193 242 292 347
#     4  10  20  36  62  89 118 157 205 248 294 357
#
# _framework density 20.693971999999999
#
# number of rings (size 3 to 8) (size 9 to 14) (size 15 to 20)
#    0.000    2.000    3.750    2.625    3.500    0.500 
#    0.000    3.125    0.000    4.500    0.000    0.000 
#    0.000    0.000    0.000    0.000    0.000    0.000 
#
# Total GULP energy -89080.006043 kJ/mol
# GULP energy per Si atom -5567.500378 kJ/mol
# Density = 2.064687 g / cm^3
# Si number density = 20.693972 Si / 1000 Ang^3
#
#
#
# Elastic Constant Matrix: (Units=GPa)
#
#
# Indices 1 2 3 4 5 6 
#
# 1 102.2516 24.8408 19.8619 11.1394 0.5645 -8.5979
# 2 24.8408 31.5425 9.8623 5.9187 1.5993 -13.8955
# 3 19.8619 9.8623 112.6060 7.7964 -5.2831 -1.1390
# 4 11.1394 5.9187 7.7964 13.9382 -7.1682 -4.0743
# 5 0.5645 1.5993 -5.2831 -7.1682 31.0075 0.2368
# 6 -8.5979 -13.8955 -1.1390 -4.0743 0.2368 26.4124
#
#
#
# Elastic Compliance Matrix: (Units=1/GPa)
#
#
# Indices 1 2 3 4 5 6 
#
# 1 0.012843 -0.009142 -0.001064 -0.007110 -0.001574 -0.001757
# 2 -0.009142 0.051640 -0.002275 -0.009409 -0.005233 0.022689
# 3 -0.001064 -0.002275 0.009539 -0.003517 0.000962 -0.001683
# 4 -0.007110 -0.009409 -0.003517 0.097058 0.022397 0.007355
# 5 -0.001574 -0.005233 0.000962 0.022397 0.037891 -0.000109
# 6 -0.001757 0.022689 -0.001683 0.007355 -0.000109 0.050289
#
#
# Mechanical properties :
#
#
# Convention : Reuss Voigt Hill
#
# Bulk Modulus (GPa) = 20.38286 39.50334 29.94310
# Shear Modulus (GPa) = 16.63478 27.06064 21.84771
#
# Velocity S-wave (km/s) = 2.83830 3.62008 3.25276
# Velocity P-wave (km/s) = 4.54007 6.05013 5.34866
#
# Compressibility (1/GPa) = 0.04906084
#
# Stress axis : x y z
#
# Youngs Moduli (GPa) = 77.86456 19.36478 104.83270
#
# Poissons Ratio (x) = 0.17703 0.11154
# Poissons Ratio (y) = 0.71181 0.23849
# Poissons Ratio (z) = 0.08284 0.04405
#
# Static dielectric constant tensor:
#      x y z
#    x 1.753650 -0.007420 -0.018380 
#    y -0.007420 1.805020 0.023770 
#    z -0.018380 0.023770 1.874220 
# 
# From -- ./inp_files/252583.got.cif
#   From: 2010.05.17/outbox.cif.g08.bks.cpg/sg2_127_cif.got.tgz:252583.got - 2010.06.03 11:33:40.
