data_PCOD9049638
_publ_section_title
;
Structure prediction by ZEFSAII (Michael W. Deem and Ramdas Pophale) SiO2 
 PCOD9049638
Probable space group: P -1
;
_chemical_formula_sum "Si O2"
_cell_formula_units_Z 14
_cell_length_a 6.067361
_cell_length_b 10.396687
_cell_length_c 14.239332
_cell_angle_alpha 47.106758
_cell_angle_beta 60.690798
_cell_angle_gamma 73.038621
_cell_volume 572.611994
_symmetry_space_group_name_H-M "P -1"
_symmetry_group_IT_number 2
_symmetry_cell_setting 'triclinic'
loop_
_space_group_symop_operation_xyz
x,y,z
-x,-y,-z
loop_
_atom_site_type_symbol
_atom_site_label
_atom_site_fract_x
_atom_site_fract_y
_atom_site_fract_z
Si Si1 0.913881 0.940610 0.148169
Si Si2 0.415703 0.492622 0.857527
Si Si3 0.431650 0.266343 0.462763
Si Si4 0.738966 0.984228 0.619045
Si Si5 0.364680 0.389252 0.720812
Si Si6 0.385962 0.725113 0.909750
Si Si7 0.853937 0.210251 0.665511
O O1 0.781674 0.747238 0.249085
O O2 0.138318 0.921803 0.182898
O O3 0.745765 0.093358 0.143765
O O4 0.000000 0.000000 0.000000
O O5 0.552423 0.648606 0.686887
O O6 0.289244 0.379309 0.852876
O O7 0.268797 0.593652 0.919420
O O8 0.583042 0.370672 0.949077
O O9 0.531167 0.074771 0.553074
O O10 0.630057 0.404754 0.406605
O O11 0.146328 0.268982 0.556660
O O12 0.765301 0.104980 0.645288
O O13 0.657503 0.792847 0.774116
O O14 0.000000 0.000000 0.500000
O O15 0.658422 0.348380 0.669267
#
# Coordination Sequence:
#
# PCOD9049638 Si02
#       7
#     2   2   2   2   2   2   2
#     4  12  27  44  75 106 149 187 247 289 367 427
#     4   9  24  43  76  94 147 183 243 298 356 418
#     4  10  24  47  70 104 144 189 239 291 358 429
#     4  12  27  44  75 106 149 187 247 289 367 427
#     4  10  24  47  70 104 144 189 239 291 358 429
#     4  11  22  50  69 106 140 192 239 302 350 431
#     4  12  23  42  76 103 144 196 232 303 348 430
#
# _framework density 24.449366000000001
#
# number of rings (size 3 to 8) (size 9 to 14) (size 15 to 20)
#    0.857    0.286    2.857    2.143    4.000    5.714 
#    5.143    1.429    0.000    0.000    0.000    0.000 
#    0.000    0.000    0.000    0.000    0.000    0.000 
#
# Total GULP energy -78112.744091 kJ/mol
# GULP energy per Si atom -5579.481721 kJ/mol
# Density = 2.439372 g / cm^3
# Si number density = 24.449366 Si / 1000 Ang^3
#
#
#
# Elastic Constant Matrix: (Units=GPa)
#
#
# Indices 1 2 3 4 5 6 
#
# 1 60.1714 31.9842 34.6297 3.9962 21.8163 21.4577
# 2 31.9842 102.3869 13.2411 11.8850 23.8685 30.9117
# 3 34.6297 13.2411 128.6828 -6.3404 35.0457 -5.1477
# 4 3.9962 11.8850 -6.3404 38.1530 5.2610 4.1673
# 5 21.8163 23.8685 35.0457 5.2610 41.2598 10.9660
# 6 21.4577 30.9117 -5.1477 4.1673 10.9660 36.8721
#
#
#
# Elastic Compliance Matrix: (Units=1/GPa)
#
#
# Indices 1 2 3 4 5 6 
#
# 1 0.028551 -0.002777 -0.007037 -0.001261 -0.003618 -0.014051
# 2 -0.002777 0.014711 -0.000147 -0.002743 -0.004121 -0.009201
# 3 -0.007037 -0.000147 0.012860 0.003339 -0.009817 0.008556
# 4 -0.001261 -0.002743 0.003339 0.028205 -0.004628 0.001688
# 5 -0.003618 -0.004121 -0.009817 -0.004628 0.039318 -0.006980
# 6 -0.014051 -0.009201 0.008556 0.001688 -0.006980 0.046091
#
#
# Mechanical properties :
#
#
# Convention : Reuss Voigt Hill
#
# Bulk Modulus (GPa) = 27.62375 50.10569 38.86472
# Shear Modulus (GPa) = 24.78616 37.34937 31.06777
#
# Velocity S-wave (km/s) = 3.18744 3.91272 3.56855
# Velocity P-wave (km/s) = 4.98691 6.39927 5.73672
#
# Compressibility (1/GPa) = 0.03620073
#
# Stress axis : x y z
#
# Youngs Moduli (GPa) = 35.02466 67.97863 77.75870
#
# Poissons Ratio (x) = 0.18878 0.54715
# Poissons Ratio (y) = 0.09726 0.01144
# Poissons Ratio (z) = 0.24645 0.01000
#
# Static dielectric constant tensor:
#      x y z
#    x 1.993700 0.031140 -0.033060 
#    y 0.031140 1.988160 -0.006430 
#    z -0.033060 -0.006430 1.982010 
# 
# From -- ./inp_files/481468.got.cif
#   From: 2010.05.17/outbox.cif.g08.bks.cpg/sg2_241_cif.got.tgz:481468.got - 2010.06.03 11:33:40.
