data_PCOD9049780
_publ_section_title
;
Structure prediction by ZEFSAII (Michael W. Deem and Ramdas Pophale) SiO2 
 PCOD9049780
Probable space group: P -1
;
_chemical_formula_sum "Si O2"
_cell_formula_units_Z 16
_cell_length_a 8.771535
_cell_length_b 5.722420
_cell_length_c 16.239756
_cell_angle_alpha 83.801003
_cell_angle_beta 106.227823
_cell_angle_gamma 70.476964
_cell_volume 719.175108
_symmetry_space_group_name_H-M "P -1"
_symmetry_group_IT_number 2
_symmetry_cell_setting 'triclinic'
loop_
_space_group_symop_operation_xyz
x,y,z
-x,-y,-z
loop_
_atom_site_type_symbol
_atom_site_label
_atom_site_fract_x
_atom_site_fract_y
_atom_site_fract_z
Si Si1 0.258819 0.351969 0.223258
Si Si2 0.360206 0.784934 0.463739
Si Si3 0.079282 0.766752 0.297004
Si Si4 0.608052 0.662949 0.112757
Si Si5 0.101855 0.480954 0.600925
Si Si6 0.420306 0.998027 0.622207
Si Si7 0.584599 0.733187 0.913423
Si Si8 0.061725 0.708853 0.736242
O O1 0.197114 0.630979 0.243397
O O2 0.261535 0.337340 0.126639
O O3 0.123317 0.253872 0.250974
O O4 0.455742 0.196163 0.286925
O O5 0.500000 0.500000 0.500000
O O6 0.199070 0.796615 0.386691
O O7 0.444797 0.945431 0.418669
O O8 0.322845 0.884898 0.547162
O O9 0.998853 0.588217 0.336707
O O10 0.928678 0.026462 0.241368
O O11 0.508672 0.466117 0.114174
O O12 0.786482 0.525438 0.191829
O O13 0.516441 0.957056 0.118575
O O14 0.636058 0.681461 0.018608
O O15 0.287315 0.262183 0.626619
O O16 0.097343 0.725166 0.641548
O O17 0.000000 0.500000 0.500000
#
# Coordination Sequence:
#
# PCOD9049780 Si02
#       8
#     2   2   2   2   2   2   2   2
#     4  11  24  40  64  96 130 170 220 276 334 404
#     4  11  21  38  59  82 121 168 216 271 327 384
#     4  11  24  41  58  92 129 171 219 277 332 400
#     4  10  24  47  75 103 138 176 220 279 338 409
#     4  11  25  41  60  91 128 173 227 282 333 394
#     4  11  23  37  60  87 120 166 221 272 329 395
#     4  10  24  47  74 106 135 173 227 276 336 409
#     4  11  25  42  64  94 136 175 219 277 342 404
#
# _framework density 22.247710000000001
#
# number of rings (size 3 to 8) (size 9 to 14) (size 15 to 20)
#    0.000    1.250    2.500    2.250   10.500    4.500 
#    0.000    0.625    0.000    0.000    0.000    0.000 
#    0.000    0.000    0.000    0.000    0.000    0.000 
#
# Total GULP energy -89186.978759 kJ/mol
# GULP energy per Si atom -5574.186172 kJ/mol
# Density = 2.219707 g / cm^3
# Si number density = 22.247710 Si / 1000 Ang^3
#
#
#
# Elastic Constant Matrix: (Units=GPa)
#
#
# Indices 1 2 3 4 5 6 
#
# 1 55.7406 4.7658 38.6407 17.3525 -14.1333 -16.3421
# 2 4.7658 95.0993 39.0491 8.5856 -3.8266 -24.3843
# 3 38.6407 39.0491 95.6138 10.4915 -11.5113 -14.2947
# 4 17.3525 8.5856 10.4915 36.4676 -6.9980 -0.4056
# 5 -14.1333 -3.8266 -11.5113 -6.9980 33.7304 2.8076
# 6 -16.3421 -24.3843 -14.2947 -0.4056 2.8076 26.6177
#
#
#
# Elastic Compliance Matrix: (Units=1/GPa)
#
#
# Indices 1 2 3 4 5 6 
#
# 1 0.044823 0.014306 -0.016371 -0.018009 0.008529 0.030660
# 2 0.014306 0.020159 -0.009679 -0.008247 0.001455 0.021774
# 3 -0.016371 -0.009679 0.019296 0.004473 0.000264 -0.008515
# 4 -0.018009 -0.008247 0.004473 0.036855 0.002012 -0.015860
# 5 0.008529 0.001455 0.000264 0.002012 0.033627 0.003195
# 6 0.030660 0.021774 -0.008515 -0.015860 0.003195 0.071188
#
#
# Mechanical properties :
#
#
# Convention : Reuss Voigt Hill
#
# Bulk Modulus (GPa) = 16.44989 45.70721 31.07855
# Shear Modulus (GPa) = 18.53917 30.29634 24.41775
#
# Velocity S-wave (km/s) = 2.88984 3.69422 3.31651
# Velocity P-wave (km/s) = 4.30638 6.22781 5.35400
#
# Compressibility (1/GPa) = 0.06079069
#
# Stress axis : x y z
#
# Youngs Moduli (GPa) = 22.30974 49.60597 51.82522
#
# Poissons Ratio (x) = -0.70967 0.84841
# Poissons Ratio (y) = -0.31917 0.50163
# Poissons Ratio (z) = 0.36522 0.48015
#
# Static dielectric constant tensor:
#      x y z
#    x 2.026570 0.599840 0.158420 
#    y 0.599840 3.243230 0.371170 
#    z 0.158420 0.371170 1.892120 
# 
# From -- ./inp_files/38900.got.cif
#   From: 2010.05.17/outbox.cif.g08.bks.cpg/sg2_20_cif.got.tgz:38900.got - 2010.06.03 11:33:40.
