data_PCOD9049626
_publ_section_title
;
Structure prediction by ZEFSAII (Michael W. Deem and Ramdas Pophale) SiO2 
 PCOD9049626
Probable space group: P -1
;
_chemical_formula_sum "Si O2"
_cell_formula_units_Z 16
_cell_length_a 16.425075
_cell_length_b 14.352698
_cell_length_c 6.706211
_cell_angle_alpha 80.964777
_cell_angle_beta 112.033478
_cell_angle_gamma 149.616805
_cell_volume 692.848390
_symmetry_space_group_name_H-M "P -1"
_symmetry_group_IT_number 2
_symmetry_cell_setting 'triclinic'
loop_
_space_group_symop_operation_xyz
x,y,z
-x,-y,-z
loop_
_atom_site_type_symbol
_atom_site_label
_atom_site_fract_x
_atom_site_fract_y
_atom_site_fract_z
Si Si1 0.290966 0.168446 0.504840
Si Si2 0.713211 0.265326 0.949136
Si Si3 0.600692 0.165266 0.315268
Si Si4 0.426643 0.532899 0.991078
Si Si5 0.942607 0.543482 0.723338
Si Si6 0.949474 0.150949 0.293451
Si Si7 0.393992 0.153522 0.219426
Si Si8 0.845474 0.784197 0.849873
O O1 0.452621 0.317467 0.762853
O O2 0.318714 0.120500 0.369644
O O3 0.287137 0.267694 0.367841
O O4 0.114695 0.975852 0.541727
O O5 0.832340 0.448035 0.863195
O O6 0.535911 0.052340 0.750313
O O7 0.638848 0.233117 0.099856
O O8 0.861964 0.322622 0.112151
O O9 0.801993 0.345705 0.535412
O O10 0.491327 0.145543 0.327443
O O11 0.232762 0.337413 0.982919
O O12 0.500000 0.500000 0.000000
O O13 0.458123 0.633110 0.804769
O O14 0.972476 0.675425 0.620695
O O15 0.084153 0.222729 0.245762
O O16 0.772024 0.006146 0.039033
O O17 0.000000 0.000000 0.000000
#
# Coordination Sequence:
#
# PCOD9049626 Si02
#       8
#     2   2   2   2   2   2   2   2
#     4  11  24  44  64  91 136 180 217 270 333 388
#     4  10  24  47  69  96 139 167 221 281 334 407
#     4  11  24  43  72  98 131 179 219 270 347 403
#     4  11  24  42  67  93 132 175 225 275 327 394
#     4  11  24  44  69 103 130 176 220 276 339 400
#     4  11  25  42  64  98 135 173 223 277 326 395
#     4  11  24  44  63  97 132 175 220 277 329 395
#     4  12  23  42  66  93 132 178 221 272 327 385
#
# _framework density 23.093074999999999
#
# number of rings (size 3 to 8) (size 9 to 14) (size 15 to 20)
#    0.000    1.000    3.750    2.250    3.500    3.000 
#    2.250    0.000    0.000    0.000    0.000    0.000 
#    0.000    0.000    0.000    0.000    0.000    0.000 
#
# Total GULP energy -89512.993183 kJ/mol
# GULP energy per Si atom -5594.562074 kJ/mol
# Density = 2.304051 g / cm^3
# Si number density = 23.093075 Si / 1000 Ang^3
#
#
#
# Elastic Constant Matrix: (Units=GPa)
#
#
# Indices 1 2 3 4 5 6 
#
# 1 65.0157 14.3038 16.5832 -4.9202 -8.6581 12.9237
# 2 14.3038 84.7871 18.8021 4.2651 -14.7006 14.5452
# 3 16.5832 18.8021 82.3050 8.5206 -5.6448 9.2322
# 4 -4.9202 4.2651 8.5206 38.7826 10.3402 -2.4962
# 5 -8.6581 -14.7006 -5.6448 10.3402 22.4122 -6.9333
# 6 12.9237 14.5452 9.2322 -2.4962 -6.9333 27.9285
#
#
#
# Elastic Compliance Matrix: (Units=1/GPa)
#
#
# Indices 1 2 3 4 5 6 
#
# 1 0.018018 -0.000987 -0.002716 0.001824 0.002920 -0.006038
# 2 -0.000987 0.015016 -0.001589 -0.004284 0.009543 -0.004852
# 3 -0.002716 -0.001589 0.013909 -0.004061 0.002595 -0.002232
# 4 0.001824 -0.004284 -0.004061 0.032145 -0.017575 0.001239
# 5 0.002920 0.009543 0.002595 -0.017575 0.062891 0.006863
# 6 -0.006038 -0.004852 -0.002232 0.001239 0.006863 0.043679
#
#
# Mechanical properties :
#
#
# Convention : Reuss Voigt Hill
#
# Bulk Modulus (GPa) = 27.50447 36.83176 32.16812
# Shear Modulus (GPa) = 23.99671 29.98592 26.99132
#
# Velocity S-wave (km/s) = 3.22705 3.60735 3.42249
# Velocity P-wave (km/s) = 5.08146 5.77361 5.43856
#
# Compressibility (1/GPa) = 0.03635773
#
# Stress axis : x y z
#
# Youngs Moduli (GPa) = 55.50033 66.59739 71.89600
#
# Poissons Ratio (x) = 0.06574 0.19528
# Poissons Ratio (y) = 0.05478 0.11425
# Poissons Ratio (z) = 0.15075 0.10583
#
# Static dielectric constant tensor:
#      x y z
#    x 1.976920 0.025980 0.219900 
#    y 0.025980 1.908130 -0.003810 
#    z 0.219900 -0.003810 2.126550 
# 
# From -- ./inp_files/38481.got.cif
#   From: 2010.05.17/outbox.cif.g08.bks.cpg/sg2_20_cif.got.tgz:38481.got - 2010.06.03 11:33:40.
