data_PCOD9049459
_publ_section_title
;
Structure prediction by ZEFSAII (Michael W. Deem and Ramdas Pophale) SiO2 
 PCOD9049459
Probable space group: P -1
;
_chemical_formula_sum "Si O2"
_cell_formula_units_Z 14
_cell_length_a 11.779214
_cell_length_b 14.619059
_cell_length_c 5.157016
_cell_angle_alpha 73.672018
_cell_angle_beta 84.606848
_cell_angle_gamma 43.243010
_cell_volume 575.504093
_symmetry_space_group_name_H-M "P -1"
_symmetry_group_IT_number 2
_symmetry_cell_setting 'triclinic'
loop_
_space_group_symop_operation_xyz
x,y,z
-x,-y,-z
loop_
_atom_site_type_symbol
_atom_site_label
_atom_site_fract_x
_atom_site_fract_y
_atom_site_fract_z
Si Si1 0.927756 0.761063 0.265765
Si Si2 0.797011 0.054429 0.562789
Si Si3 0.453658 0.970606 0.782868
Si Si4 0.622913 0.497245 0.133864
Si Si5 0.410895 0.803409 0.027224
Si Si6 0.043037 0.586247 0.901543
Si Si7 0.107064 0.799358 0.433614
O O1 0.002577 0.648783 0.569891
O O2 0.044498 0.783164 0.208000
O O3 0.747595 0.909598 0.269182
O O4 0.922654 0.708345 0.042655
O O5 0.716844 0.132878 0.239423
O O6 0.863036 0.107583 0.655937
O O7 0.659245 0.108995 0.758527
O O8 0.951025 0.890792 0.596280
O O9 0.526158 0.819284 0.887003
O O10 0.500000 0.000000 0.500000
O O11 0.500000 0.000000 0.000000
O O12 0.771608 0.480157 0.012490
O O13 0.730746 0.356951 0.388114
O O14 0.500000 0.500000 0.000000
O O15 0.501810 0.647792 0.180792
O O16 0.000000 0.500000 0.000000
#
# Coordination Sequence:
#
# PCOD9049459 Si02
#       7
#     2   2   2   2   2   2   2
#     4  11  25  45  77  99 142 194 254 302 371 445
#     4  11  25  45  76 105 151 192 252 293 384 451
#     4  12  27  47  75 104 145 189 255 320 378 436
#     4  11  26  47  76 112 158 194 249 315 382 440
#     4  12  27  47  73 112 147 195 249 316 380 447
#     4  11  27  49  74 106 145 200 253 305 372 457
#     4  10  24  46  74 109 148 202 242 310 368 462
#
# _framework density 24.326497
#
# number of rings (size 3 to 8) (size 9 to 14) (size 15 to 20)
#    0.000    0.857    2.857    2.143   10.000    5.143 
#    0.000    0.000    0.000    0.000    0.000    0.000 
#    0.000    0.000    0.000    0.000    0.000    0.000 
#
# Total GULP energy -78167.078134 kJ/mol
# GULP energy per Si atom -5583.362724 kJ/mol
# Density = 2.427113 g / cm^3
# Si number density = 24.326497 Si / 1000 Ang^3
#
#
#
# Elastic Constant Matrix: (Units=GPa)
#
#
# Indices 1 2 3 4 5 6 
#
# 1 139.6286 12.2204 12.1245 -12.5901 11.1704 28.0149
# 2 12.2204 100.5128 30.0494 -10.6375 -10.9374 12.0396
# 3 12.1245 30.0494 97.6340 3.9340 3.7937 2.8021
# 4 -12.5901 -10.6375 3.9340 30.1687 -4.4572 2.4812
# 5 11.1704 -10.9374 3.7937 -4.4572 30.3898 -4.6099
# 6 28.0149 12.0396 2.8021 2.4812 -4.6099 49.7807
#
#
#
# Elastic Compliance Matrix: (Units=1/GPa)
#
#
# Indices 1 2 3 4 5 6 
#
# 1 0.008972 -0.000144 -0.000927 0.003745 -0.003515 -0.005474
# 2 -0.000144 0.012831 -0.004325 0.006082 0.005716 -0.002553
# 3 -0.000927 -0.004325 0.011950 -0.004005 -0.003174 0.000801
# 4 0.003745 0.006082 -0.004005 0.038690 0.006274 -0.004701
# 5 -0.003515 0.005716 -0.003174 0.006274 0.038178 0.003997
# 6 -0.005474 -0.002553 0.000801 -0.004701 0.003997 0.024346
#
#
# Mechanical properties :
#
#
# Convention : Reuss Voigt Hill
#
# Bulk Modulus (GPa) = 43.55196 49.61823 46.58509
# Shear Modulus (GPa) = 32.59165 40.95991 36.77578
#
# Velocity S-wave (km/s) = 3.66424 4.10781 3.89235
# Velocity P-wave (km/s) = 5.98700 6.55285 6.27631
#
# Compressibility (1/GPa) = 0.02296108
#
# Stress axis : x y z
#
# Youngs Moduli (GPa) = 111.45440 77.93645 83.67977
#
# Poissons Ratio (x) = 0.01123 0.07758
# Poissons Ratio (y) = 0.01606 0.36192
# Poissons Ratio (z) = 0.10333 0.33708
#
# Static dielectric constant tensor:
#      x y z
#    x 2.093440 -0.071400 -0.037350 
#    y -0.071400 1.937340 0.008250 
#    z -0.037350 0.008250 1.963010 
# 
# From -- ./inp_files/74247.got.cif
#   From: 2010.05.17/outbox.cif.g08.bks.cpg/sg2_38_cif.got.tgz:74247.got - 2010.06.03 11:33:40.
