data_PCOD9049357
_publ_section_title
;
Structure prediction by ZEFSAII (Michael W. Deem and Ramdas Pophale) SiO2 
 PCOD9049357
Probable space group: P -1
;
_chemical_formula_sum "Si O2"
_cell_formula_units_Z 16
_cell_length_a 20.063242
_cell_length_b 8.154828
_cell_length_c 10.591806
_cell_angle_alpha 49.563095
_cell_angle_beta 140.577435
_cell_angle_gamma 134.335116
_cell_volume 764.240093
_symmetry_space_group_name_H-M "P -1"
_symmetry_group_IT_number 2
_symmetry_cell_setting 'triclinic'
loop_
_space_group_symop_operation_xyz
x,y,z
-x,-y,-z
loop_
_atom_site_type_symbol
_atom_site_label
_atom_site_fract_x
_atom_site_fract_y
_atom_site_fract_z
Si Si1 0.233458 0.347771 0.058269
Si Si2 0.379850 0.297441 0.883778
Si Si3 0.843398 0.761690 0.273075
Si Si4 0.563718 0.129901 0.901489
Si Si5 0.018192 0.294158 0.281112
Si Si6 0.593144 0.894238 0.539630
Si Si7 0.367769 0.640413 0.500804
Si Si8 0.861468 0.572749 0.866548
O O1 0.329890 0.617518 0.052902
O O2 0.303416 0.183667 0.252740
O O3 0.159504 0.310654 0.095877
O O4 0.157214 0.291217 0.848790
O O5 0.285597 0.287727 0.851945
O O6 0.348559 0.392759 0.660106
O O7 0.500000 0.500000 0.000000
O O8 0.391791 0.052444 0.008158
O O9 0.896838 0.632262 0.511629
O O10 0.919374 0.034111 0.278710
O O11 0.467917 0.161576 0.657404
O O12 0.500000 0.000000 0.000000
O O13 0.088164 0.290818 0.258450
O O14 0.951269 0.460524 0.085296
O O15 0.491418 0.749120 0.560883
O O16 0.631539 0.170011 0.489019
O O17 0.266815 0.609737 0.270348
#
# Coordination Sequence:
#
# PCOD9049357 Si02
#       8
#     2   2   2   2   2   2   2   2
#     4  12  26  42  65 101 142 170 216 281 347 393
#     4  12  23  42  68  98 135 177 225 266 331 408
#     4  11  24  44  68  98 128 178 221 283 328 395
#     4  12  25  37  60  99 141 177 214 269 334 398
#     4  10  24  46  72  91 127 177 242 269 324 395
#     4  11  24  40  64  97 139 180 217 267 329 415
#     4  11  22  41  67  94 128 185 227 264 323 403
#     4  11  23  43  68  97 124 176 225 286 326 391
#
# _framework density 20.935828000000001
#
# number of rings (size 3 to 8) (size 9 to 14) (size 15 to 20)
#    0.000    0.750    3.750    4.125    3.500    1.000 
#    0.000    0.000    0.000    0.000    0.000    0.000 
#    0.000    0.000    0.000    0.000    0.000    0.000 
#
# Total GULP energy -89468.252766 kJ/mol
# GULP energy per Si atom -5591.765798 kJ/mol
# Density = 2.088818 g / cm^3
# Si number density = 20.935828 Si / 1000 Ang^3
#
#
#
# Elastic Constant Matrix: (Units=GPa)
#
#
# Indices 1 2 3 4 5 6 
#
# 1 94.8225 -9.8430 42.3654 4.7748 7.8360 -2.8825
# 2 -9.8430 29.2254 15.7258 -0.3356 6.3346 -3.2131
# 3 42.3654 15.7258 126.1698 8.4733 -4.8371 -9.6211
# 4 4.7748 -0.3356 8.4733 32.2134 2.3289 -6.6294
# 5 7.8360 6.3346 -4.8371 2.3289 30.8841 6.3758
# 6 -2.8825 -3.2131 -9.6211 -6.6294 6.3758 23.7923
#
#
#
# Elastic Compliance Matrix: (Units=1/GPa)
#
#
# Indices 1 2 3 4 5 6 
#
# 1 0.015301 0.010719 -0.006599 0.000743 -0.007774 0.002923
# 2 0.010719 0.047711 -0.009760 0.004602 -0.016333 0.009454
# 3 -0.006599 -0.009760 0.011777 -0.002539 0.005623 0.000430
# 4 0.000743 0.004602 -0.002539 0.034369 -0.006387 0.010973
# 5 -0.007774 -0.016333 0.005623 -0.006387 0.041931 -0.013890
# 6 0.002923 0.009454 0.000430 0.010973 -0.013890 0.050615
#
#
# Mechanical properties :
#
#
# Convention : Reuss Voigt Hill
#
# Bulk Modulus (GPa) = 15.74586 38.52378 27.13482
# Shear Modulus (GPa) = 21.35348 30.84259 26.09803
#
# Velocity S-wave (km/s) = 3.19713 3.84239 3.53451
# Velocity P-wave (km/s) = 4.60067 6.17463 5.44483
#
# Compressibility (1/GPa) = 0.06350877
#
# Stress axis : x y z
#
# Youngs Moduli (GPa) = 65.35629 20.95942 84.91135
#
# Poissons Ratio (x) = -0.22466 0.56030
# Poissons Ratio (y) = -0.70054 0.82875
# Poissons Ratio (z) = 0.43127 0.20457
#
# Static dielectric constant tensor:
#      x y z
#    x 1.773330 0.016420 -0.043350 
#    y 0.016420 1.732630 -0.007160 
#    z -0.043350 -0.007160 1.768590 
# 
# From -- ./inp_files/392756.got.cif
#   From: 2010.05.17/outbox.cif.g08.bks.cpg/sg2_197_cif.got.tgz:392756.got - 2010.06.03 11:33:40.
