data_PCOD9049340
_publ_section_title
;
Structure prediction by ZEFSAII (Michael W. Deem and Ramdas Pophale) SiO2 
 PCOD9049340
Probable space group: P -1
;
_chemical_formula_sum "Si O2"
_cell_formula_units_Z 12
_cell_length_a 5.106319
_cell_length_b 11.532460
_cell_length_c 8.464943
_cell_angle_alpha 86.584188
_cell_angle_beta 90.976863
_cell_angle_gamma 72.047358
_cell_volume 473.044819
_symmetry_space_group_name_H-M "P -1"
_symmetry_group_IT_number 2
_symmetry_cell_setting 'triclinic'
loop_
_space_group_symop_operation_xyz
x,y,z
-x,-y,-z
loop_
_atom_site_type_symbol
_atom_site_label
_atom_site_fract_x
_atom_site_fract_y
_atom_site_fract_z
Si Si1 0.814227 0.418418 0.058878
Si Si2 0.854806 0.128516 0.404878
Si Si3 0.761381 0.995047 0.114405
Si Si4 0.998134 0.720502 0.212530
Si Si5 0.449036 0.483150 0.320697
Si Si6 0.738002 0.717247 0.532807
O O1 0.703822 0.379573 0.750451
O O2 0.500000 0.500000 0.000000
O O3 0.727928 0.413280 0.238395
O O4 0.000000 0.500000 0.000000
O O5 0.739473 0.099872 0.236318
O O6 0.079413 0.200551 0.408872
O O7 0.581910 0.202701 0.490385
O O8 0.000000 0.000000 0.500000
O O9 0.840751 0.675204 0.358029
O O10 0.015385 0.704102 0.021852
O O11 0.875453 0.865192 0.216556
O O12 0.500000 0.000000 0.000000
O O13 0.000000 0.000000 0.000000
O O14 0.500000 0.500000 0.500000
O O15 0.268506 0.390451 0.337193
#
# Coordination Sequence:
#
# PCOD9049340 Si02
#       6
#     2   2   2   2   2   2
#     4  10  24  46  72 107 156 204 253 315 395 474
#     4  12  27  52  81 116 159 218 273 338 403 476
#     4  12  30  52  79 114 160 213 277 336 405 486
#     4  11  26  51  77 111 164 206 266 332 410 471
#     4  11  25  48  82 125 161 210 271 334 412 487
#     4  12  26  46  86 118 163 206 275 339 404 486
#
# _framework density 25.367577000000001
#
# number of rings (size 3 to 8) (size 9 to 14) (size 15 to 20)
#    0.000    0.667    1.667    4.000    4.667    8.000 
#    6.000    0.000    0.000    0.000    0.000    0.000 
#    0.000    0.000    0.000    0.000    0.000    0.000 
#
# Total GULP energy -66916.028897 kJ/mol
# GULP energy per Si atom -5576.335741 kJ/mol
# Density = 2.530984 g / cm^3
# Si number density = 25.367577 Si / 1000 Ang^3
#
#
#
# Elastic Constant Matrix: (Units=GPa)
#
#
# Indices 1 2 3 4 5 6 
#
# 1 180.2940 54.1075 35.5192 -0.0527 -19.0942 24.5326
# 2 54.1075 123.3710 36.0311 7.3787 -0.6252 10.0948
# 3 35.5192 36.0311 144.5753 28.1622 -34.7912 9.0790
# 4 -0.0527 7.3787 28.1622 70.7097 -20.2128 -1.4809
# 5 -19.0942 -0.6252 -34.7912 -20.2128 47.1396 -3.6736
# 6 24.5326 10.0948 9.0790 -1.4809 -3.6736 46.3289
#
#
#
# Elastic Compliance Matrix: (Units=1/GPa)
#
#
# Indices 1 2 3 4 5 6 
#
# 1 0.007174 -0.002850 -0.000426 0.001231 0.002861 -0.002828
# 2 -0.002850 0.010139 -0.002373 -0.001060 -0.003267 -0.000528
# 3 -0.000426 -0.002373 0.009439 -0.001834 0.005922 -0.000696
# 4 0.001231 -0.001060 -0.001834 0.016843 0.006430 0.000987
# 5 0.002861 -0.003267 0.005922 0.006430 0.029502 0.000581
# 6 -0.002828 -0.000528 -0.000696 0.000987 0.000581 0.023411
#
#
# Mechanical properties :
#
#
# Convention : Reuss Voigt Hill
#
# Bulk Modulus (GPa) = 64.70938 77.72846 71.21892
# Shear Modulus (GPa) = 44.26488 54.34114 49.30301
#
# Velocity S-wave (km/s) = 4.18178 4.63336 4.41335
# Velocity P-wave (km/s) = 6.99145 7.70269 7.35567
#
# Compressibility (1/GPa) = 0.01545371
#
# Stress axis : x y z
#
# Youngs Moduli (GPa) = 139.39675 98.63376 105.94488
#
# Poissons Ratio (x) = 0.28106 0.04513
# Poissons Ratio (y) = 0.39722 0.25143
# Poissons Ratio (z) = 0.05938 0.23408
#
# Static dielectric constant tensor:
#      x y z
#    x 2.138090 0.098210 0.209840 
#    y 0.098210 2.200100 0.064610 
#    z 0.209840 0.064610 2.412440 
# 
# From -- ./inp_files/130538.got.cif
#   From: 2010.05.17/outbox.cif.g08.bks.cpg/sg2_66_cif.got.tgz:130538.got - 2010.06.03 11:33:40.
