data_PCOD9049558
_publ_section_title
;
Structure prediction by ZEFSAII (Michael W. Deem and Ramdas Pophale) SiO2 
 PCOD9049558
Probable space group: P -1
;
_chemical_formula_sum "Si O2"
_cell_formula_units_Z 12
_cell_length_a 5.980947
_cell_length_b 21.315000
_cell_length_c 9.184362
_cell_angle_alpha 151.970759
_cell_angle_beta 99.135912
_cell_angle_gamma 70.000682
_cell_volume 489.124728
_symmetry_space_group_name_H-M "P -1"
_symmetry_group_IT_number 2
_symmetry_cell_setting 'triclinic'
loop_
_space_group_symop_operation_xyz
x,y,z
-x,-y,-z
loop_
_atom_site_type_symbol
_atom_site_label
_atom_site_fract_x
_atom_site_fract_y
_atom_site_fract_z
Si Si1 0.127687 0.310621 0.409143
Si Si2 0.321650 0.445569 0.277035
Si Si3 0.003209 0.947631 0.159187
Si Si4 0.426586 0.379451 0.813278
Si Si5 0.593753 0.116188 0.686935
Si Si6 0.615217 0.087523 0.089773
O O1 0.964131 0.427442 0.510281
O O2 0.186079 0.382027 0.704981
O O3 0.412028 0.190555 0.158669
O O4 0.002609 0.201157 0.208984
O O5 0.500000 0.500000 0.500000
O O6 0.399143 0.415601 0.053866
O O7 0.373599 0.281664 0.997759
O O8 0.187639 0.888821 0.195040
O O9 0.137732 0.003385 0.164810
O O10 0.737446 0.058619 0.429121
O O11 0.626951 0.213453 0.453050
O O12 0.500000 0.500000 0.000000
O O13 0.500000 0.000000 0.500000
O O14 0.500000 0.000000 0.000000
#
# Coordination Sequence:
#
# PCOD9049558 Si02
#       6
#     2   2   2   2   2   2
#     4  10  24  46  79 112 156 206 259 331 399 469
#     4  12  25  49  77 113 157 212 262 325 401 474
#     4  11  23  49  76 114 155 208 263 334 388 482
#     4  10  25  47  75 114 157 202 263 329 396 476
#     4  11  27  47  78 113 161 203 267 328 400 466
#     4  10  25  46  79 112 158 203 270 326 401 462
#
# _framework density 24.533619000000002
#
# number of rings (size 3 to 8) (size 9 to 14) (size 15 to 20)
#    1.000    0.333    1.667    2.500    4.667    0.667 
#    9.000    4.167    0.000    0.000    0.000    0.000 
#    0.000    0.000    0.000    0.000    0.000    0.000 
#
# Total GULP energy -66966.021035 kJ/mol
# GULP energy per Si atom -5580.501753 kJ/mol
# Density = 2.447778 g / cm^3
# Si number density = 24.533619 Si / 1000 Ang^3
#
#
#
# Elastic Constant Matrix: (Units=GPa)
#
#
# Indices 1 2 3 4 5 6 
#
# 1 137.2739 61.8890 69.9728 14.2419 -24.0603 11.1084
# 2 61.8890 173.5319 70.6701 -1.9279 -2.4324 -17.6123
# 3 69.9728 70.6701 165.1834 -4.2518 8.6267 10.1202
# 4 14.2419 -1.9279 -4.2518 63.4127 -8.3030 -2.9276
# 5 -24.0603 -2.4324 8.6267 -8.3030 36.0702 7.6841
# 6 11.1084 -17.6123 10.1202 -2.9276 7.6841 58.2435
#
#
#
# Elastic Compliance Matrix: (Units=1/GPa)
#
#
# Indices 1 2 3 4 5 6 
#
# 1 0.013500 -0.003217 -0.004680 -0.002292 0.010276 -0.004205
# 2 -0.003217 0.008199 -0.002267 0.000774 -0.001670 0.003746
# 3 -0.004680 -0.002267 0.009341 0.000902 -0.005154 -0.000691
# 4 -0.002292 0.000774 0.000902 0.016669 0.001910 0.001100
# 5 0.010276 -0.001670 -0.005154 0.001910 0.037506 -0.006421
# 6 -0.004205 0.003746 -0.000691 0.001100 -0.006421 0.020127
#
#
# Mechanical properties :
#
#
# Convention : Reuss Voigt Hill
#
# Bulk Modulus (GPa) = 93.36419 97.89478 95.62949
# Shear Modulus (GPa) = 38.68756 49.77577 44.23166
#
# Velocity S-wave (km/s) = 3.97535 4.50920 4.25066
# Velocity P-wave (km/s) = 7.69477 8.19142 7.94698
#
# Compressibility (1/GPa) = 0.01071074
#
# Stress axis : x y z
#
# Youngs Moduli (GPa) = 74.07500 121.97249 107.05208
#
# Poissons Ratio (x) = 0.39236 0.50105
# Poissons Ratio (y) = 0.23828 0.24272
# Poissons Ratio (z) = 0.34670 0.27654
#
# Static dielectric constant tensor:
#      x y z
#    x 2.033350 -0.059280 -0.034050 
#    y -0.059280 2.095570 -0.089010 
#    z -0.034050 -0.089010 1.973320 
# 
# From -- ./inp_files/191104.got.cif
#   From: 2010.05.17/outbox.cif.g08.bks.cpg/sg2_96_cif.got.tgz:191104.got - 2010.06.03 11:33:40.
