data_PCOD9049178
_publ_section_title
;
Structure prediction by ZEFSAII (Michael W. Deem and Ramdas Pophale) SiO2 
 PCOD9049178
Probable space group: P -1
;
_chemical_formula_sum "Si O2"
_cell_formula_units_Z 10
_cell_length_a 15.449733
_cell_length_b 5.286465
_cell_length_c 12.482346
_cell_angle_alpha 115.684686
_cell_angle_beta 28.231663
_cell_angle_gamma 124.218172
_cell_volume 393.732701
_symmetry_space_group_name_H-M "P -1"
_symmetry_group_IT_number 2
_symmetry_cell_setting 'triclinic'
loop_
_space_group_symop_operation_xyz
x,y,z
-x,-y,-z
loop_
_atom_site_type_symbol
_atom_site_label
_atom_site_fract_x
_atom_site_fract_y
_atom_site_fract_z
Si Si1 0.584757 0.955316 0.155199
Si Si2 0.674448 0.836317 0.388883
Si Si3 0.944582 0.154316 0.951791
Si Si4 0.237357 0.404425 0.323870
Si Si5 0.190374 0.712295 0.213521
O O1 0.445914 0.641087 0.189931
O O2 0.445077 0.971124 0.406764
O O3 0.802829 0.033837 0.981638
O O4 0.646953 0.226041 0.046747
O O5 0.500000 0.500000 0.500000
O O6 0.805402 0.939809 0.158311
O O7 0.841347 0.857185 0.298027
O O8 0.000000 0.500000 0.000000
O O9 0.215487 0.516642 0.248183
O O10 0.042602 0.424330 0.596167
O O11 0.223001 0.058148 0.279406
#
# Coordination Sequence:
#
# PCOD9049178 Si02
#       5
#     2   2   2   2   2
#     4  12  25  42  77 101 138 189 237 286 369 417
#     4  11  26  45  70 101 142 187 239 297 351 424
#     4  11  26  47  66 102 146 181 238 295 349 432
#     4  10  24  46  70 105 146 186 236 299 358 431
#     4  10  24  46  70 106 145 182 243 297 354 436
#
# _framework density 25.397940999999999
#
# number of rings (size 3 to 8) (size 9 to 14) (size 15 to 20)
#    0.000    1.200    2.000    1.800    2.800    8.000 
#    0.000    0.000    0.000    0.000    0.000    0.000 
#    0.000    0.000    0.000    0.000    0.000    0.000 
#
# Total GULP energy -55982.333758 kJ/mol
# GULP energy per Si atom -5598.233376 kJ/mol
# Density = 2.534013 g / cm^3
# Si number density = 25.397941 Si / 1000 Ang^3
#
#
#
# Elastic Constant Matrix: (Units=GPa)
#
#
# Indices 1 2 3 4 5 6 
#
# 1 118.0485 41.0711 34.3108 -12.3684 -42.3772 19.3562
# 2 41.0711 107.2801 19.1266 -21.1616 -17.9146 13.8511
# 3 34.3108 19.1266 121.9039 -29.1207 -27.9473 7.5954
# 4 -12.3684 -21.1616 -29.1207 42.1176 1.9905 -4.6443
# 5 -42.3772 -17.9146 -27.9473 1.9905 54.1906 -14.0522
# 6 19.3562 13.8511 7.5954 -4.6443 -14.0522 38.1126
#
#
#
# Elastic Compliance Matrix: (Units=1/GPa)
#
#
# Indices 1 2 3 4 5 6 
#
# 1 0.013241 -0.003020 -0.000972 0.001060 0.008227 -0.002271
# 2 -0.003020 0.011835 0.000638 0.005244 0.001219 -0.001806
# 3 -0.000972 0.000638 0.011380 0.007751 0.005263 0.000879
# 4 0.001060 0.005244 0.007751 0.031999 0.005928 0.002096
# 5 0.008227 0.001219 0.005263 0.005928 0.029305 0.005857
# 6 -0.002271 -0.001806 0.000879 0.002096 0.005857 0.030288
#
#
# Mechanical properties :
#
#
# Convention : Reuss Voigt Hill
#
# Bulk Modulus (GPa) = 33.61652 59.58328 46.59990
# Shear Modulus (GPa) = 34.56074 43.73243 39.14659
#
# Velocity S-wave (km/s) = 3.69286 4.15407 3.93024
# Velocity P-wave (km/s) = 5.60782 6.82050 6.24367
#
# Compressibility (1/GPa) = 0.02974728
#
# Stress axis : x y z
#
# Youngs Moduli (GPa) = 75.52263 84.49603 87.87173
#
# Poissons Ratio (x) = 0.25516 0.08543
# Poissons Ratio (y) = 0.22806 -0.05603
# Poissons Ratio (z) = 0.07343 -0.05388
#
# Static dielectric constant tensor:
#      x y z
#    x 2.056970 -0.022040 0.062940 
#    y -0.022040 1.998990 0.069770 
#    z 0.062940 0.069770 2.059710 
# 
# From -- ./inp_files/61515.got.cif
#   From: 2010.05.17/outbox.cif.g08.bks.cpg/sg2_31_cif.got.tgz:61515.got - 2010.06.03 11:33:40.
