data_PCOD9049279
_publ_section_title
;
Structure prediction by ZEFSAII (Michael W. Deem and Ramdas Pophale) SiO2 
 PCOD9049279
Probable space group: P -1
;
_chemical_formula_sum "Si O2"
_cell_formula_units_Z 16
_cell_length_a 8.521228
_cell_length_b 6.686464
_cell_length_c 17.322646
_cell_angle_alpha 83.833064
_cell_angle_beta 127.688800
_cell_angle_gamma 99.745871
_cell_volume 769.766326
_symmetry_space_group_name_H-M "P -1"
_symmetry_group_IT_number 2
_symmetry_cell_setting 'triclinic'
loop_
_space_group_symop_operation_xyz
x,y,z
-x,-y,-z
loop_
_atom_site_type_symbol
_atom_site_label
_atom_site_fract_x
_atom_site_fract_y
_atom_site_fract_z
Si Si1 0.981997 0.818231 0.941153
Si Si2 0.009575 0.712064 0.672625
Si Si3 0.451458 0.765616 0.388949
Si Si4 0.682704 0.420195 0.487605
Si Si5 0.067634 0.969227 0.243413
Si Si6 0.705904 0.483895 0.961883
Si Si7 0.757928 0.596054 0.151654
Si Si8 0.199099 0.898714 0.578224
O O1 0.809465 0.644428 0.925087
O O2 0.936015 0.901285 0.840352
O O3 0.186139 0.716750 0.004557
O O4 0.000000 0.000000 0.000000
O O5 0.111634 0.566091 0.766244
O O6 0.180269 0.825601 0.663598
O O7 0.844693 0.576517 0.576216
O O8 0.909593 0.879164 0.683659
O O9 0.523640 0.551514 0.396065
O O10 0.427545 0.733835 0.475672
O O11 0.239992 0.824336 0.296349
O O12 0.615658 0.940322 0.398811
O O13 0.791866 0.296654 0.464171
O O14 0.861906 0.819294 0.195119
O O15 0.468329 0.442313 0.884795
O O16 0.753217 0.571891 0.058617
O O17 0.000000 0.000000 0.500000
#
# Coordination Sequence:
#
# PCOD9049279 Si02
#       8
#     2   2   2   2   2   2   2   2
#     4  11  23  45  70 100 133 175 217 280 334 407
#     4  12  26  44  68 100 136 176 224 284 332 395
#     4  11  26  42  70  99 135 182 222 277 337 394
#     4  11  25  47  70  94 138 184 224 273 338 397
#     4  12  26  44  67 103 137 173 233 275 334 400
#     4  10  24  46  71  97 135 175 223 268 351 400
#     4  11  24  45  69  98 134 176 219 283 332 402
#     4  12  26  44  68  99 135 180 231 274 335 401
#
# _framework density 20.785530000000001
#
# number of rings (size 3 to 8) (size 9 to 14) (size 15 to 20)
#    0.000    0.750    5.000    1.500    5.250    1.500 
#    2.250    0.000    0.000    0.000    0.000    0.000 
#    0.000    0.000    0.000    0.000    0.000    0.000 
#
# Total GULP energy -89511.053313 kJ/mol
# GULP energy per Si atom -5594.440832 kJ/mol
# Density = 2.073822 g / cm^3
# Si number density = 20.785530 Si / 1000 Ang^3
#
#
#
# Elastic Constant Matrix: (Units=GPa)
#
#
# Indices 1 2 3 4 5 6 
#
# 1 98.6087 45.2406 28.9534 -1.3657 10.5611 -4.9261
# 2 45.2406 101.3546 43.8818 -14.4980 1.7821 -7.6918
# 3 28.9534 43.8818 55.9648 -16.7515 8.9416 3.9803
# 4 -1.3657 -14.4980 -16.7515 32.7505 -3.6637 -4.3825
# 5 10.5611 1.7821 8.9416 -3.6637 34.7592 -5.2606
# 6 -4.9261 -7.6918 3.9803 -4.3825 -5.2606 52.8138
#
#
#
# Elastic Compliance Matrix: (Units=1/GPa)
#
#
# Indices 1 2 3 4 5 6 
#
# 1 0.013906 -0.004991 -0.003959 -0.004001 -0.003342 0.000204
# 2 -0.004991 0.017599 -0.011349 0.002750 0.004371 0.003617
# 3 -0.003959 -0.011349 0.033289 0.010558 -0.006314 -0.004284
# 4 -0.004001 0.002750 0.010558 0.037641 0.002724 0.002626
# 5 -0.003342 0.004371 -0.006314 0.002724 0.032111 0.004225
# 6 0.000204 0.003617 -0.004284 0.002626 0.004225 0.020442
#
#
# Mechanical properties :
#
#
# Convention : Reuss Voigt Hill
#
# Bulk Modulus (GPa) = 41.33022 54.67552 48.00287
# Shear Modulus (GPa) = 24.55155 33.25485 28.90320
#
# Velocity S-wave (km/s) = 3.44057 4.00422 3.73305
# Velocity P-wave (km/s) = 5.97584 6.90942 6.45952
#
# Compressibility (1/GPa) = 0.02419537
#
# Stress axis : x y z
#
# Youngs Moduli (GPa) = 71.91099 56.82136 30.03962
#
# Poissons Ratio (x) = 0.28361 0.11892
# Poissons Ratio (y) = 0.35892 0.34093
# Poissons Ratio (z) = 0.28469 0.64489
#
# Static dielectric constant tensor:
#      x y z
#    x 1.730400 0.009020 -0.001360 
#    y 0.009020 1.747600 -0.000130 
#    z -0.001360 -0.000130 1.728020 
# 
# From -- ./inp_files/488598.got.cif
#   From: 2010.05.17/outbox.cif.g08.bks.cpg/sg2_245_cif.got.tgz:488598.got - 2010.06.03 11:33:40.
