data_PCOD9049679
_publ_section_title
;
Structure prediction by ZEFSAII (Michael W. Deem and Ramdas Pophale) SiO2 
 PCOD9049679
Probable space group: P -1
;
_chemical_formula_sum "Si O2"
_cell_formula_units_Z 16
_cell_length_a 11.981921
_cell_length_b 8.963848
_cell_length_c 10.140236
_cell_angle_alpha 43.715043
_cell_angle_beta 56.541675
_cell_angle_gamma 66.588427
_cell_volume 627.923955
_symmetry_space_group_name_H-M "P -1"
_symmetry_group_IT_number 2
_symmetry_cell_setting 'triclinic'
loop_
_space_group_symop_operation_xyz
x,y,z
-x,-y,-z
loop_
_atom_site_type_symbol
_atom_site_label
_atom_site_fract_x
_atom_site_fract_y
_atom_site_fract_z
Si Si1 0.678843 0.843156 0.789923
Si Si2 0.670095 0.617087 0.581662
Si Si3 0.959094 0.808280 0.250508
Si Si4 0.433433 0.027861 0.733348
Si Si5 0.763382 0.315663 0.922390
Si Si6 0.214341 0.562531 0.890197
Si Si7 0.545496 0.678391 0.222719
Si Si8 0.082230 0.931686 0.618915
O O1 0.765959 0.027220 0.551068
O O2 0.546373 0.846199 0.783678
O O3 0.787688 0.656507 0.877515
O O4 0.605912 0.858420 0.968785
O O5 0.589771 0.837039 0.469869
O O6 0.687500 0.517027 0.779157
O O7 0.589312 0.429661 0.676238
O O8 0.819296 0.686232 0.392201
O O9 0.085268 0.654371 0.242740
O O10 0.952884 0.916161 0.330824
O O11 0.000000 0.000000 0.000000
O O12 0.465787 0.215408 0.697277
O O13 0.299520 0.906306 0.947094
O O14 0.746241 0.284736 0.110059
O O15 0.334668 0.499128 0.754970
O O16 0.091782 0.684201 0.822390
O O17 0.000000 0.000000 0.500000
#
# Coordination Sequence:
#
# PCOD9049679 Si02
#       8
#     2   2   2   2   2   2   2   2
#     4  10  25  45  72 105 150 185 244 305 371 434
#     4  12  25  43  75 107 143 195 247 302 362 445
#     4  12  26  49  74 106 154 200 250 302 374 449
#     4  12  24  45  77 108 150 196 246 304 372 444
#     4  12  25  47  74 104 148 200 247 304 366 442
#     4  10  24  47  71 104 147 186 248 304 370 437
#     4  10  25  46  74 109 151 189 248 307 377 431
#     4  12  27  47  76 106 146 197 247 309 374 438
#
# _framework density 25.480792999999998
#
# number of rings (size 3 to 8) (size 9 to 14) (size 15 to 20)
#    0.750    0.000    3.750    2.625    1.750    4.500 
#    0.000    4.375    0.000    0.000    0.000    0.000 
#    0.000    0.000    0.000    0.000    0.000    0.000 
#
# Total GULP energy -89188.382720 kJ/mol
# GULP energy per Si atom -5574.273920 kJ/mol
# Density = 2.542280 g / cm^3
# Si number density = 25.480793 Si / 1000 Ang^3
#
#
#
# Elastic Constant Matrix: (Units=GPa)
#
#
# Indices 1 2 3 4 5 6 
#
# 1 95.0048 52.2216 26.5242 -1.8554 21.8414 -17.7724
# 2 52.2216 134.2869 29.1384 6.4081 8.7868 -14.5806
# 3 26.5242 29.1384 113.8789 1.2547 16.0613 10.9779
# 4 -1.8554 6.4081 1.2547 30.1873 -5.6236 13.6090
# 5 21.8414 8.7868 16.0613 -5.6236 69.0470 -15.4680
# 6 -17.7724 -14.5806 10.9779 13.6090 -15.4680 29.8851
#
#
#
# Elastic Compliance Matrix: (Units=1/GPa)
#
#
# Indices 1 2 3 4 5 6 
#
# 1 0.015724 -0.004326 -0.003041 -0.002090 -0.002037 0.008255
# 2 -0.004326 0.010533 -0.002516 -0.005097 0.001697 0.006690
# 3 -0.003041 -0.002516 0.011658 0.004190 -0.003569 -0.011074
# 4 -0.002090 -0.005097 0.004190 0.045773 -0.002021 -0.027159
# 5 -0.002037 0.001697 -0.003569 -0.002021 0.018088 0.011210
# 6 0.008255 0.006690 -0.011074 -0.027159 0.011210 0.063872
#
#
# Mechanical properties :
#
#
# Convention : Reuss Voigt Hill
#
# Bulk Modulus (GPa) = 55.09419 62.10430 58.59925
# Shear Modulus (GPa) = 26.11450 41.50963 33.81207
#
# Velocity S-wave (km/s) = 3.20483 4.04053 3.64670
# Velocity P-wave (km/s) = 5.94671 6.79660 6.38581
#
# Compressibility (1/GPa) = 0.01815073
#
# Stress axis : x y z
#
# Youngs Moduli (GPa) = 63.59588 94.93591 85.77788
#
# Poissons Ratio (x) = 0.41066 0.26086
# Poissons Ratio (y) = 0.27509 0.21580
# Poissons Ratio (z) = 0.19340 0.23884
#
# Static dielectric constant tensor:
#      x y z
#    x 2.136780 -0.031160 0.016440 
#    y -0.031160 2.065680 -0.104550 
#    z 0.016440 -0.104550 2.001160 
# 
# From -- ./inp_files/422749.got.cif
#   From: 2010.05.17/outbox.cif.g08.bks.cpg/sg2_212_cif.got.tgz:422749.got - 2010.06.03 11:33:40.
