data_PCOD9049582
_publ_section_title
;
Structure prediction by ZEFSAII (Michael W. Deem and Ramdas Pophale) SiO2 
 PCOD9049582
Probable space group: P -1
;
_chemical_formula_sum "Si O2"
_cell_formula_units_Z 16
_cell_length_a 17.548765
_cell_length_b 11.304137
_cell_length_c 13.507049
_cell_angle_alpha 137.997865
_cell_angle_beta 157.855001
_cell_angle_gamma 37.445459
_cell_volume 613.747104
_symmetry_space_group_name_H-M "P -1"
_symmetry_group_IT_number 2
_symmetry_cell_setting 'triclinic'
loop_
_space_group_symop_operation_xyz
x,y,z
-x,-y,-z
loop_
_atom_site_type_symbol
_atom_site_label
_atom_site_fract_x
_atom_site_fract_y
_atom_site_fract_z
Si Si1 0.106920 0.733834 0.517982
Si Si2 0.698603 0.262969 0.034515
Si Si3 0.690879 0.658190 0.194586
Si Si4 0.517252 0.354844 0.249071
Si Si5 0.362146 0.104521 0.040103
Si Si6 0.731047 0.720682 0.563730
Si Si7 0.088305 0.131697 0.285032
Si Si8 0.464567 0.248159 0.435581
O O1 0.175017 0.791571 0.742183
O O2 0.272529 0.718598 0.617465
O O3 0.143248 0.511024 0.432381
O O4 0.143315 0.138383 0.736307
O O5 0.638295 0.491806 0.081799
O O6 0.863167 0.145431 0.070616
O O7 0.478525 0.225903 0.731028
O O8 0.876836 0.702854 0.502391
O O9 0.505973 0.880653 0.099349
O O10 0.697973 0.589977 0.047347
O O11 0.509086 0.191864 0.210141
O O12 0.516830 0.547099 0.417491
O O13 0.299475 0.228596 0.142729
O O14 0.892928 0.807684 0.767125
O O15 0.623790 0.776654 0.577899
O O16 0.295998 0.922719 0.410339
#
# Coordination Sequence:
#
# PCOD9049582 Si02
#       8
#     2   2   2   2   2   2   2   2
#     4  11  24  42  73 105 137 181 229 292 347 413
#     4  12  23  44  72 109 138 177 233 291 354 403
#     4  11  22  44  70 104 139 176 233 290 339 413
#     4  11  23  45  69 101 143 182 228 288 346 409
#     4  11  26  45  70 102 141 189 232 279 349 416
#     4  11  23  42  70 101 144 179 229 288 348 410
#     4  11  24  41  72 103 141 181 228 286 354 414
#     4  10  24  47  67 101 143 184 231 287 342 415
#
# _framework density 26.069368999999998
#
# number of rings (size 3 to 8) (size 9 to 14) (size 15 to 20)
#    0.000    1.000    3.750    3.375    1.750    4.000 
#    0.000    8.750    0.000    0.000    0.000    0.000 
#    0.000    0.000    0.000    0.000    0.000    0.000 
#
# Total GULP energy -89622.838562 kJ/mol
# GULP energy per Si atom -5601.427410 kJ/mol
# Density = 2.601003 g / cm^3
# Si number density = 26.069369 Si / 1000 Ang^3
#
#
#
# Elastic Constant Matrix: (Units=GPa)
#
#
# Indices 1 2 3 4 5 6 
#
# 1 167.9659 49.4191 47.3339 -10.9384 8.0395 2.2410
# 2 49.4191 125.6024 44.5045 10.8311 4.4602 -3.3089
# 3 47.3339 44.5045 89.7183 1.7752 -21.1677 -4.8313
# 4 -10.9384 10.8311 1.7752 42.5262 -6.2138 -6.8454
# 5 8.0395 4.4602 -21.1677 -6.2138 56.1124 -3.4237
# 6 2.2410 -3.3089 -4.8313 -6.8454 -3.4237 41.1372
#
#
#
# Elastic Compliance Matrix: (Units=1/GPa)
#
#
# Indices 1 2 3 4 5 6 
#
# 1 0.007840 -0.001860 -0.003829 0.002188 -0.002229 -0.000848
# 2 -0.001860 0.010885 -0.005063 -0.003540 -0.002928 -0.000451
# 3 -0.003829 -0.005063 0.017668 0.001162 0.007911 0.002728
# 4 0.002188 -0.003540 0.001162 0.026158 0.003570 0.004383
# 5 -0.002229 -0.002928 0.007911 0.003570 0.021951 0.003236
# 6 -0.000848 -0.000451 0.002728 0.004383 0.003236 0.025638
#
#
# Mechanical properties :
#
#
# Convention : Reuss Voigt Hill
#
# Bulk Modulus (GPa) = 67.16196 73.97796 70.56996
# Shear Modulus (GPa) = 36.60152 44.09043 40.34598
#
# Velocity S-wave (km/s) = 3.75107 4.11697 3.93827
# Velocity P-wave (km/s) = 6.67678 7.14410 6.91439
#
# Compressibility (1/GPa) = 0.01488938
#
# Stress axis : x y z
#
# Youngs Moduli (GPa) = 127.54626 91.87066 56.59985
#
# Poissons Ratio (x) = 0.17089 0.21670
# Poissons Ratio (y) = 0.23725 0.28657
# Poissons Ratio (z) = 0.48833 0.46515
#
# Static dielectric constant tensor:
#      x y z
#    x 2.136280 -0.023690 0.012470 
#    y -0.023690 2.031510 -0.030090 
#    z 0.012470 -0.030090 2.110670 
# 
# From -- ./inp_files/538068.got.cif
#   From: 2010.05.17/outbox.cif.g08.bks.cpg/sg2_270_cif.got.tgz:538068.got - 2010.06.03 11:33:40.
