data_PCOD9049846
_publ_section_title
;
Structure prediction by ZEFSAII (Michael W. Deem and Ramdas Pophale) SiO2 
 PCOD9049846
Probable space group: P -1
;
_chemical_formula_sum "Si O2"
_cell_formula_units_Z 14
_cell_length_a 4.919902
_cell_length_b 15.868662
_cell_length_c 16.860359
_cell_angle_alpha 26.881875
_cell_angle_beta 88.495064
_cell_angle_gamma 86.558841
_cell_volume 593.021459
_symmetry_space_group_name_H-M "P -1"
_symmetry_group_IT_number 2
_symmetry_cell_setting 'triclinic'
loop_
_space_group_symop_operation_xyz
x,y,z
-x,-y,-z
loop_
_atom_site_type_symbol
_atom_site_label
_atom_site_fract_x
_atom_site_fract_y
_atom_site_fract_z
Si Si1 0.164608 0.423342 0.373770
Si Si2 0.309365 0.136558 0.235588
Si Si3 0.585689 0.279526 0.387094
Si Si4 0.190323 0.323311 0.911745
Si Si5 0.652052 0.376451 0.532001
Si Si6 0.171351 0.827269 0.688965
Si Si7 0.751357 0.996420 0.944102
O O1 0.708036 0.468966 0.256408
O O2 0.916485 0.431270 0.433834
O O3 0.417135 0.374152 0.470793
O O4 0.122925 0.620372 0.161086
O O5 0.268615 0.223545 0.076709
O O6 0.601171 0.137120 0.276526
O O7 0.078828 0.248732 0.197489
O O8 0.271523 0.914232 0.416982
O O9 0.651222 0.273328 0.298229
O O10 0.270547 0.289892 0.410213
O O11 0.279981 0.183099 0.959319
O O12 0.500000 0.500000 0.500000
O O13 0.742277 0.176869 0.736756
O O14 0.000000 0.000000 0.500000
O O15 0.500000 0.000000 0.000000
O O16 0.000000 0.000000 0.000000
#
# Coordination Sequence:
#
# PCOD9049846 Si02
#       7
#     2   2   2   2   2   2   2
#     4  12  26  45  71 106 146 188 248 297 372 440
#     4  11  27  47  77 108 153 199 253 307 377 441
#     4  11  26  48  75 107 155 194 253 307 372 445
#     4  12  29  46  76 112 148 199 250 311 375 441
#     4  12  25  48  77 104 140 200 238 304 379 442
#     4  10  24  47  76 109 150 203 249 308 376 442
#     4  12  28  51  75 110 153 188 249 314 369 451
#
# _framework density 23.607911999999999
#
# number of rings (size 3 to 8) (size 9 to 14) (size 15 to 20)
#    0.000    0.571    1.429    5.571   10.000    1.143 
#    0.000    0.000    0.000    0.000    0.000    0.000 
#    0.000    0.000    0.000    0.000    0.000    0.000 
#
# Total GULP energy -78006.641891 kJ/mol
# GULP energy per Si atom -5571.902992 kJ/mol
# Density = 2.355418 g / cm^3
# Si number density = 23.607912 Si / 1000 Ang^3
#
#
#
# Elastic Constant Matrix: (Units=GPa)
#
#
# Indices 1 2 3 4 5 6 
#
# 1 141.0136 45.6521 31.7986 18.4483 26.0814 -19.4137
# 2 45.6521 145.7856 70.9642 17.5553 17.5972 -29.5672
# 3 31.7986 70.9642 159.5262 18.8242 20.8622 12.2012
# 4 18.4483 17.5553 18.8242 43.8844 6.3591 4.7128
# 5 26.0814 17.5972 20.8622 6.3591 30.1528 6.7195
# 6 -19.4137 -29.5672 12.2012 4.7128 6.7195 55.6451
#
#
#
# Elastic Compliance Matrix: (Units=1/GPa)
#
#
# Indices 1 2 3 4 5 6 
#
# 1 0.009958 -0.000492 -0.000687 -0.002995 -0.008247 0.004613
# 2 -0.000492 0.011854 -0.004905 -0.002660 -0.004308 0.007948
# 3 -0.000687 -0.004905 0.009282 -0.000986 -0.001735 -0.004588
# 4 -0.002995 -0.002660 -0.000986 0.025964 0.000349 -0.004483
# 5 -0.008247 -0.004308 -0.001735 0.000349 0.046257 -0.010401
# 6 0.004613 0.007948 -0.004588 -0.004483 -0.010401 0.026445
#
#
# Mechanical properties :
#
#
# Convention : Reuss Voigt Hill
#
# Bulk Modulus (GPa) = 52.84224 82.57279 67.70752
# Shear Modulus (GPa) = 33.72973 45.79716 39.76344
#
# Velocity S-wave (km/s) = 3.78398 4.40922 4.10851
# Velocity P-wave (km/s) = 6.44385 7.80860 7.15882
#
# Compressibility (1/GPa) = 0.01892425
#
# Stress axis : x y z
#
# Youngs Moduli (GPa) = 100.42151 84.36209 107.73790
#
# Poissons Ratio (x) = 0.04153 0.07399
# Poissons Ratio (y) = 0.04944 0.52851
# Poissons Ratio (z) = 0.06897 0.41384
#
# Static dielectric constant tensor:
#      x y z
#    x 2.091270 0.042330 -0.013040 
#    y 0.042330 1.956020 0.005350 
#    z -0.013040 0.005350 1.872930 
# 
# From -- ./inp_files/484140.got.cif
#   From: 2010.05.17/outbox.cif.g08.bks.cpg/sg2_243_cif.got.tgz:484140.got - 2010.06.03 11:33:40.
