data_PCOD9049841
_publ_section_title
;
Structure prediction by ZEFSAII (Michael W. Deem and Ramdas Pophale) SiO2 
 PCOD9049841
Probable space group: P -1
;
_chemical_formula_sum "Si O2"
_cell_formula_units_Z 16
_cell_length_a 5.967599
_cell_length_b 16.613163
_cell_length_c 18.948517
_cell_angle_alpha 157.592532
_cell_angle_beta 77.074391
_cell_angle_gamma 105.110945
_cell_volume 690.566858
_symmetry_space_group_name_H-M "P -1"
_symmetry_group_IT_number 2
_symmetry_cell_setting 'triclinic'
loop_
_space_group_symop_operation_xyz
x,y,z
-x,-y,-z
loop_
_atom_site_type_symbol
_atom_site_label
_atom_site_fract_x
_atom_site_fract_y
_atom_site_fract_z
Si Si1 0.920459 0.762332 0.844145
Si Si2 0.350151 0.032003 0.342423
Si Si3 0.133319 0.215946 0.633914
Si Si4 0.830763 0.488725 0.784028
Si Si5 0.588245 0.141601 0.041923
Si Si6 0.572042 0.452280 0.035074
Si Si7 0.926896 0.030642 0.818424
Si Si8 0.225507 0.671512 0.503642
O O1 0.846463 0.550586 0.630229
O O2 0.649871 0.775815 0.901725
O O3 0.168013 0.725863 0.836191
O O4 0.000000 0.000000 0.000000
O O5 0.324552 0.134867 0.503523
O O6 0.518804 0.198078 0.417123
O O7 0.116373 0.988829 0.277807
O O8 0.423031 0.798687 0.158271
O O9 0.198795 0.386192 0.829742
O O10 0.987675 0.339495 0.691166
O O11 0.000000 0.000000 0.500000
O O12 0.598577 0.478390 0.837296
O O13 0.815231 0.411154 0.641733
O O14 0.937950 0.736527 0.985766
O O15 0.691136 0.023015 0.873539
O O16 0.500000 0.000000 0.000000
O O17 0.500000 0.500000 0.000000
O O18 0.066855 0.843255 0.678074
#
# Coordination Sequence:
#
# PCOD9049841 Si02
#       8
#     2   2   2   2   2   2   2   2
#     4  10  24  47  76 107 152 197 239 303 380 445
#     4  12  27  44  70 110 138 188 256 304 372 448
#     4  12  28  45  68  99 144 190 240 308 372 443
#     4  12  25  46  70  98 144 184 240 308 366 432
#     4  10  24  47  76 107 152 197 239 303 380 445
#     4  12  28  45  68  99 144 190 240 308 372 443
#     4  12  26  44  76 107 142 191 252 303 374 450
#     4  12  26  44  76 107 142 191 252 303 374 450
#
# _framework density 23.169370000000001
#
# number of rings (size 3 to 8) (size 9 to 14) (size 15 to 20)
#    0.000    0.500    6.250    0.750   10.500    2.000 
#    0.000    5.000    0.000    0.000    0.000    0.000 
#    0.000    0.000    0.000    0.000    0.000    0.000 
#
# Total GULP energy -89126.260573 kJ/mol
# GULP energy per Si atom -5570.391286 kJ/mol
# Density = 2.311664 g / cm^3
# Si number density = 23.169370 Si / 1000 Ang^3
#
#
#
# Elastic Constant Matrix: (Units=GPa)
#
#
# Indices 1 2 3 4 5 6 
#
# 1 86.2046 7.9108 33.5936 -6.3095 7.8732 8.2627
# 2 7.9108 53.1473 23.8908 0.5759 8.6130 7.6270
# 3 33.5936 23.8908 158.5727 18.8239 -1.4184 7.4215
# 4 -6.3095 0.5759 18.8239 56.1520 -8.7533 1.3532
# 5 7.8732 8.6130 -1.4184 -8.7533 54.5334 -7.6076
# 6 8.2627 7.6270 7.4215 1.3532 -7.6076 36.8876
#
#
#
# Elastic Compliance Matrix: (Units=1/GPa)
#
#
# Indices 1 2 3 4 5 6 
#
# 1 0.013397 0.000086 -0.003001 0.002258 -0.002071 -0.002925
# 2 0.000086 0.021540 -0.003117 0.000307 -0.004102 -0.004703
# 3 -0.003001 -0.003117 0.007750 -0.002797 0.000678 0.000000
# 4 0.002258 0.000307 -0.002797 0.019414 0.002645 -0.000173
# 5 -0.002071 -0.004102 0.000678 0.002645 0.020466 0.005300
# 6 -0.002925 -0.004703 0.000000 -0.000173 0.005300 0.029836
#
#
# Mechanical properties :
#
#
# Convention : Reuss Voigt Hill
#
# Bulk Modulus (GPa) = 32.65454 47.63502 40.14478
# Shear Modulus (GPa) = 37.12700 45.01655 41.07178
#
# Velocity S-wave (km/s) = 4.00736 4.41265 4.21488
# Velocity P-wave (km/s) = 5.96124 6.82394 6.40713
#
# Compressibility (1/GPa) = 0.03062361
#
# Stress axis : x y z
#
# Youngs Moduli (GPa) = 74.64601 46.42472 129.03825
#
# Poissons Ratio (x) = -0.00398 0.38720
# Poissons Ratio (y) = -0.00640 0.40215
# Poissons Ratio (z) = 0.22399 0.14468
#
# Static dielectric constant tensor:
#      x y z
#    x 1.974600 0.026970 0.054760 
#    y 0.026970 2.105620 0.008230 
#    z 0.054760 0.008230 1.935160 
# 
# From -- ./inp_files/48036.got.cif
#   From: 2010.05.17/outbox.cif.g08.bks.cpg/sg2_25_cif.got.tgz:48036.got - 2010.06.03 11:33:40.
