data_PCOD9049943
_publ_section_title
;
Structure prediction by ZEFSAII (Michael W. Deem and Ramdas Pophale) SiO2 
 PCOD9049943
Probable space group: P -1
;
_chemical_formula_sum "Si O2"
_cell_formula_units_Z 15
_cell_length_a 12.311864
_cell_length_b 11.517114
_cell_length_c 5.580026
_cell_angle_alpha 75.479029
_cell_angle_beta 64.354857
_cell_angle_gamma 65.340713
_cell_volume 645.858957
_symmetry_space_group_name_H-M "P -1"
_symmetry_group_IT_number 2
_symmetry_cell_setting 'triclinic'
loop_
_space_group_symop_operation_xyz
x,y,z
-x,-y,-z
loop_
_atom_site_type_symbol
_atom_site_label
_atom_site_fract_x
_atom_site_fract_y
_atom_site_fract_z
Si Si1 0.109591 0.932114 0.738674
Si Si2 0.630880 0.590860 0.340002
Si Si3 0.302244 0.570416 0.139756
Si Si4 0.500000 0.000000 0.500000
Si Si5 0.613574 0.231414 0.270270
Si Si6 0.240839 0.205455 0.751989
Si Si7 0.997762 0.360208 0.594949
Si Si8 0.904672 0.858156 0.703036
O O1 0.239587 0.828926 0.755655
O O2 0.035748 0.871741 0.659393
O O3 0.140599 0.045068 0.521330
O O4 0.000000 0.000000 0.000000
O O5 0.671353 0.503117 0.590222
O O6 0.482198 0.678464 0.485842
O O7 0.707457 0.690317 0.230557
O O8 0.656526 0.517911 0.097066
O O9 0.146620 0.636358 0.232464
O O10 0.376396 0.671816 0.999222
O O11 0.565232 0.113170 0.333612
O O12 0.357316 0.112364 0.533250
O O13 0.103269 0.281757 0.726967
O O14 0.209724 0.112106 0.018335
O O15 0.000000 0.500000 0.500000
O O16 0.055717 0.287576 0.334176
#
# Coordination Sequence:
#
# PCOD9049943 Si02
#       8
#     2   2   2   1   2   2   2   2
#     4  11  24  47  70 108 142 189 256 313 381 444
#     4  11  27  49  72 112 150 202 247 309 374 455
#     4  12  26  48  76 108 152 197 253 307 380 443
#     4  10  24  48  70 102 142 198 246 316 374 450
#     4  11  24  46  75 102 149 195 252 313 374 460
#     4  11  24  46  71 106 153 191 251 304 377 448
#     4  12  25  42  72 108 150 191 244 309 375 446
#     4  11  24  42  73 105 143 194 244 314 377 450
#
# _framework density 23.224885
#
# number of rings (size 3 to 8) (size 9 to 14) (size 15 to 20)
#    0.000    0.800    1.333    5.600    3.733    2.133 
#    9.600    2.000    0.000    0.000    0.000    0.000 
#    0.000    0.000    0.000    0.000    0.000    0.000 
#
# Total GULP energy -83562.067804 kJ/mol
# GULP energy per Si atom -5570.804520 kJ/mol
# Density = 2.317202 g / cm^3
# Si number density = 23.224885 Si / 1000 Ang^3
#
#
#
# Elastic Constant Matrix: (Units=GPa)
#
#
# Indices 1 2 3 4 5 6 
#
# 1 85.7724 27.8594 42.3524 -4.4162 -6.2542 -9.7579
# 2 27.8594 83.1666 26.2110 -6.1830 15.8653 -12.0537
# 3 42.3524 26.2110 93.9283 -8.6059 -4.0718 -23.9239
# 4 -4.4162 -6.1830 -8.6059 43.2476 6.1548 -18.4411
# 5 -6.2542 15.8653 -4.0718 6.1548 28.1135 0.7673
# 6 -9.7579 -12.0537 -23.9239 -18.4411 0.7673 50.6469
#
#
#
# Elastic Compliance Matrix: (Units=1/GPa)
#
#
# Indices 1 2 3 4 5 6 
#
# 1 0.016655 -0.005137 -0.006477 -0.002008 0.006157 -0.001897
# 2 -0.005137 0.017732 -0.001463 0.005555 -0.012707 0.004755
# 3 -0.006477 -0.001463 0.016700 0.006036 0.000251 0.008487
# 4 -0.002008 0.005555 0.006036 0.033239 -0.010422 0.016047
# 5 0.006157 -0.012707 0.000251 -0.010422 0.046599 -0.006220
# 6 -0.001897 0.004755 0.008487 0.016047 -0.006220 0.030457
#
#
# Mechanical properties :
#
#
# Convention : Reuss Voigt Hill
#
# Bulk Modulus (GPa) = 40.10429 50.63475 45.36952
# Shear Modulus (GPa) = 25.53032 35.49790 30.51411
#
# Velocity S-wave (km/s) = 3.31911 3.91377 3.62864
# Velocity P-wave (km/s) = 5.65632 6.50175 6.09372
#
# Compressibility (1/GPa) = 0.02493499
#
# Stress axis : x y z
#
# Youngs Moduli (GPa) = 60.04215 56.39493 59.87869
#
# Poissons Ratio (x) = 0.28969 0.38781
# Poissons Ratio (y) = 0.30842 0.08759
# Poissons Ratio (z) = 0.38887 0.08250
#
# Static dielectric constant tensor:
#      x y z
#    x 1.931750 -0.017290 0.049780 
#    y -0.017290 2.179510 0.025940 
#    z 0.049780 0.025940 1.922590 
# 
# From -- ./inp_files/68888.got.cif
#   From: 2010.05.17/outbox.cif.g08.bks.cpg/sg2_35_cif.got.tgz:68888.got - 2010.06.03 11:33:40.
