data_PCOD9049036
_publ_section_title
;
Structure prediction by ZEFSAII (Michael W. Deem and Ramdas Pophale) SiO2 
 PCOD9049036
Probable space group: P -1
;
_chemical_formula_sum "Si O2"
_cell_formula_units_Z 16
_cell_length_a 16.687092
_cell_length_b 19.175647
_cell_length_c 9.248178
_cell_angle_alpha 134.581173
_cell_angle_beta 138.165641
_cell_angle_gamma 22.202206
_cell_volume 744.987863
_symmetry_space_group_name_H-M "P -1"
_symmetry_group_IT_number 2
_symmetry_cell_setting 'triclinic'
loop_
_space_group_symop_operation_xyz
x,y,z
-x,-y,-z
loop_
_atom_site_type_symbol
_atom_site_label
_atom_site_fract_x
_atom_site_fract_y
_atom_site_fract_z
Si Si1 0.865463 0.069310 0.061171
Si Si2 0.288035 0.583396 0.274603
Si Si3 0.909723 0.977766 0.448639
Si Si4 0.251952 0.256758 0.692168
Si Si5 0.403525 0.490768 0.975209
Si Si6 0.254073 0.412863 0.480464
Si Si7 0.379878 0.322010 0.186189
Si Si8 0.389483 0.941084 0.363727
O O1 0.023879 0.017095 0.307351
O O2 0.620935 0.289019 0.047222
O O3 0.802304 0.998260 0.871675
O O4 0.000000 0.000000 0.000000
O O5 0.500000 0.500000 0.500000
O O6 0.322719 0.448149 0.178409
O O7 0.060236 0.779465 0.328725
O O8 0.273488 0.612178 0.123502
O O9 0.647239 0.141814 0.312499
O O10 0.000000 0.000000 0.500000
O O11 0.419467 0.178401 0.677478
O O12 0.987132 0.465352 0.620423
O O13 0.287337 0.115180 0.528909
O O14 0.321180 0.260719 0.940577
O O15 0.270895 0.503893 0.720003
O O16 0.500000 0.500000 0.000000
O O17 0.264127 0.415944 0.324455
O O18 0.473457 0.202193 0.526938
#
# Coordination Sequence:
#
# PCOD9049036 Si02
#       8
#     2   2   2   2   2   2   2   2
#     4  11  24  41  67 103 142 176 223 291 345 415
#     4  12  24  44  67 101 144 181 228 283 348 425
#     4  12  24  40  68  98 140 184 222 281 351 408
#     4  11  25  46  72  94 140 187 237 289 339 413
#     4  11  24  42  66 101 138 178 230 282 347 426
#     4  11  25  43  69  98 136 180 234 289 348 411
#     4  12  26  45  67 105 138 182 236 285 349 421
#     4  10  24  46  67 102 134 180 243 283 345 418
#
# _framework density 21.476859999999999
#
# number of rings (size 3 to 8) (size 9 to 14) (size 15 to 20)
#    0.000    0.750    2.500    5.250    3.500    4.500 
#    0.000    0.000    0.000    0.000    0.000    0.000 
#    0.000    0.000    0.000    0.000    0.000    0.000 
#
# Total GULP energy -89390.515560 kJ/mol
# GULP energy per Si atom -5586.907223 kJ/mol
# Density = 2.142798 g / cm^3
# Si number density = 21.476860 Si / 1000 Ang^3
#
#
#
# Elastic Constant Matrix: (Units=GPa)
#
#
# Indices 1 2 3 4 5 6 
#
# 1 60.9120 13.5617 20.9387 6.9451 -11.5801 4.8480
# 2 13.5617 85.0126 36.8861 -4.2756 10.7056 -5.5020
# 3 20.9387 36.8861 133.4357 -2.9566 -7.2697 8.9758
# 4 6.9451 -4.2756 -2.9566 30.9861 -3.3960 7.2435
# 5 -11.5801 10.7056 -7.2697 -3.3960 45.8097 -4.4466
# 6 4.8480 -5.5020 8.9758 7.2435 -4.4466 27.3965
#
#
#
# Elastic Compliance Matrix: (Units=1/GPa)
#
#
# Indices 1 2 3 4 5 6 
#
# 1 0.019278 -0.003186 -0.001862 -0.004034 0.004870 -0.001584
# 2 -0.003186 0.014924 -0.004113 0.000972 -0.004493 0.003922
# 3 -0.001862 -0.004113 0.009310 0.001803 0.001738 -0.003741
# 4 -0.004034 0.000972 0.001803 0.035671 0.000812 -0.008981
# 5 0.004870 -0.004493 0.001738 0.000812 0.024586 0.001442
# 6 -0.001584 0.003922 -0.003741 -0.008981 0.001442 0.041403
#
#
# Mechanical properties :
#
#
# Convention : Reuss Voigt Hill
#
# Bulk Modulus (GPa) = 39.69721 46.90369 43.30045
# Shear Modulus (GPa) = 29.08803 34.70338 31.89570
#
# Velocity S-wave (km/s) = 3.68420 4.02412 3.85791
# Velocity P-wave (km/s) = 6.05158 6.59379 6.32849
#
# Compressibility (1/GPa) = 0.02519069
#
# Stress axis : x y z
#
# Youngs Moduli (GPa) = 51.87151 67.00514 107.41580
#
# Poissons Ratio (x) = 0.21349 0.20000
# Poissons Ratio (y) = 0.16527 0.44177
# Poissons Ratio (z) = 0.09658 0.27557
#
# Static dielectric constant tensor:
#      x y z
#    x 1.765000 0.040820 0.009280 
#    y 0.040820 1.752490 -0.017870 
#    z 0.009280 -0.017870 1.712990 
# 
# From -- ./inp_files/338217.got.cif
#   From: 2010.05.17/outbox.cif.g08.bks.cpg/sg2_170_cif.got.tgz:338217.got - 2010.06.03 11:33:40.
