data_PCOD9049787
_publ_section_title
;
Structure prediction by ZEFSAII (Michael W. Deem and Ramdas Pophale) SiO2 
 PCOD9049787
Probable space group: P -1
;
_chemical_formula_sum "Si O2"
_cell_formula_units_Z 10
_cell_length_a 9.751152
_cell_length_b 4.925032
_cell_length_c 11.514531
_cell_angle_alpha 66.895989
_cell_angle_beta 47.221302
_cell_angle_gamma 87.411560
_cell_volume 352.689736
_symmetry_space_group_name_H-M "P -1"
_symmetry_group_IT_number 2
_symmetry_cell_setting 'triclinic'
loop_
_space_group_symop_operation_xyz
x,y,z
-x,-y,-z
loop_
_atom_site_type_symbol
_atom_site_label
_atom_site_fract_x
_atom_site_fract_y
_atom_site_fract_z
Si Si1 0.175529 0.292514 0.794541
Si Si2 0.508452 0.477115 0.857967
Si Si3 0.156387 0.771510 0.294836
Si Si4 0.096877 0.384526 0.168747
Si Si5 0.416799 0.257835 0.452474
O O1 0.226526 0.251138 0.636709
O O2 0.403312 0.411714 0.688710
O O3 0.088537 0.579413 0.797762
O O4 0.000000 0.000000 0.000000
O O5 0.622420 0.232491 0.801692
O O6 0.618101 0.766289 0.661892
O O7 0.500000 0.500000 0.000000
O O8 0.278366 0.416659 0.973908
O O9 0.145897 0.669389 0.183336
O O10 0.000000 0.500000 0.500000
O O11 0.098495 0.080932 0.289618
O O12 0.500000 0.000000 0.500000
#
# Coordination Sequence:
#
# PCOD9049787 Si02
#       5
#     2   2   2   2   2
#     4  11  27  48  77 116 155 208 264 329 405 474
#     4  10  24  47  74 108 154 202 261 321 397 467
#     4  11  24  44  70 107 148 202 258 324 392 473
#     4  11  25  44  72 106 149 203 259 322 396 469
#     4  11  26  49  80 114 155 205 266 331 397 480
#
# _framework density 28.353532999999999
#
# number of rings (size 3 to 8) (size 9 to 14) (size 15 to 20)
#    0.000    1.200    0.000    3.600    8.400    1.600 
#   14.400    0.000    0.000    0.000    0.000    0.000 
#    0.000    0.000    0.000    0.000    0.000    0.000 
#
# Total GULP energy -55898.496271 kJ/mol
# GULP energy per Si atom -5589.849627 kJ/mol
# Density = 2.828900 g / cm^3
# Si number density = 28.353533 Si / 1000 Ang^3
#
#
#
# Elastic Constant Matrix: (Units=GPa)
#
#
# Indices 1 2 3 4 5 6 
#
# 1 83.6241 44.0144 56.0483 13.0176 -2.7565 -20.7927
# 2 44.0144 169.1920 76.7461 18.2609 -9.1876 -43.3562
# 3 56.0483 76.7461 272.5122 18.6084 8.6275 -21.4096
# 4 13.0176 18.2609 18.6084 43.7016 -16.3516 -10.1901
# 5 -2.7565 -9.1876 8.6275 -16.3516 76.0930 11.4601
# 6 -20.7927 -43.3562 -21.4096 -10.1901 11.4601 54.2431
#
#
#
# Elastic Compliance Matrix: (Units=1/GPa)
#
#
# Indices 1 2 3 4 5 6 
#
# 1 0.015645 -0.002025 -0.002232 -0.002274 -0.000388 0.003152
# 2 -0.002025 0.008600 -0.001522 -0.001071 0.000114 0.005272
# 3 -0.002232 -0.001522 0.004646 -0.001104 -0.000993 -0.000236
# 4 -0.002274 -0.001071 -0.001104 0.026918 0.005435 0.001746
# 5 -0.000388 0.000114 -0.000993 0.005435 0.014807 -0.002557
# 6 0.003152 0.005272 -0.000236 0.001746 -0.002557 0.024633
#
#
# Mechanical properties :
#
#
# Convention : Reuss Voigt Hill
#
# Bulk Modulus (GPa) = 57.69565 97.66068 77.67817
# Shear Modulus (GPa) = 44.41081 58.04216 51.22648
#
# Velocity S-wave (km/s) = 3.96197 4.52938 4.25515
# Velocity P-wave (km/s) = 6.42826 7.86590 7.18314
#
# Compressibility (1/GPa) = 0.01733233
#
# Stress axis : x y z
#
# Youngs Moduli (GPa) = 63.91660 116.27448 215.26164
#
# Poissons Ratio (x) = 0.23551 0.48051
# Poissons Ratio (y) = 0.12946 0.32758
# Poissons Ratio (z) = 0.14268 0.17694
#
# Static dielectric constant tensor:
#      x y z
#    x 2.507720 0.104360 -0.007720 
#    y 0.104360 2.147940 -0.089620 
#    z -0.007720 -0.089620 2.236110 
# 
# From -- ./inp_files/91424.got.cif
#   From: 2010.05.17/outbox.cif.g08.bks.cpg/sg2_46_cif.got.tgz:91424.got - 2010.06.03 11:33:40.
