data_PCOD9049372
_publ_section_title
;
Structure prediction by ZEFSAII (Michael W. Deem and Ramdas Pophale) SiO2 
 PCOD9049372
Probable space group: P -1
;
_chemical_formula_sum "Si O2"
_cell_formula_units_Z 16
_cell_length_a 9.122680
_cell_length_b 12.339165
_cell_length_c 9.082685
_cell_angle_alpha 114.990030
_cell_angle_beta 117.086115
_cell_angle_gamma 54.708465
_cell_volume 724.889169
_symmetry_space_group_name_H-M "P -1"
_symmetry_group_IT_number 2
_symmetry_cell_setting 'triclinic'
loop_
_space_group_symop_operation_xyz
x,y,z
-x,-y,-z
loop_
_atom_site_type_symbol
_atom_site_label
_atom_site_fract_x
_atom_site_fract_y
_atom_site_fract_z
Si Si1 0.907358 0.252970 0.759763
Si Si2 0.448370 0.763937 0.881403
Si Si3 0.302090 0.636218 0.965505
Si Si4 0.957444 0.625007 0.658727
Si Si5 0.831507 0.531861 0.829801
Si Si6 0.620237 0.835094 0.460926
Si Si7 0.669091 0.150313 0.445442
Si Si8 0.326865 0.125300 0.812431
O O1 0.839281 0.389690 0.710234
O O2 0.851524 0.148441 0.597370
O O3 0.128692 0.196624 0.845869
O O4 0.797321 0.301409 0.889753
O O5 0.329561 0.746399 0.945700
O O6 0.643687 0.625802 0.884289
O O7 0.367628 0.778484 0.689234
O O8 0.506411 0.879312 0.015559
O O9 0.154407 0.608561 0.791494
O O10 0.500000 0.500000 0.000000
O O11 0.851629 0.609413 0.743752
O O12 0.818202 0.767369 0.597737
O O13 0.000000 0.500000 0.500000
O O14 0.000000 0.500000 0.000000
O O15 0.492379 0.785319 0.465078
O O16 0.666408 0.795684 0.288075
O O17 0.500000 0.000000 0.500000
O O18 0.667491 0.011431 0.322747
#
# Coordination Sequence:
#
# PCOD9049372 Si02
#       8
#     2   2   2   2   2   2   2   2
#     4  12  25  44  71 101 145 178 232 293 359 420
#     4  12  24  43  70  99 139 179 235 284 355 422
#     4  12  27  45  67 106 148 184 230 296 366 427
#     4  12  26  42  74 107 142 187 244 293 362 433
#     4  12  22  43  69 100 136 184 224 289 360 420
#     4  10  24  46  72  99 143 186 240 288 358 423
#     4  11  26  45  71 104 135 182 241 291 350 425
#     4  11  24  47  73  95 141 190 230 288 358 419
#
# _framework density 22.072338999999999
#
# number of rings (size 3 to 8) (size 9 to 14) (size 15 to 20)
#    0.000    0.500    5.000    2.250    7.000    0.500 
#    0.000    0.625    0.000    0.000    0.000    0.000 
#    0.000    0.000    0.000    0.000    0.000    0.000 
#
# Total GULP energy -89401.040212 kJ/mol
# GULP energy per Si atom -5587.565013 kJ/mol
# Density = 2.202210 g / cm^3
# Si number density = 22.072339 Si / 1000 Ang^3
#
#
#
# Elastic Constant Matrix: (Units=GPa)
#
#
# Indices 1 2 3 4 5 6 
#
# 1 134.5960 19.0279 49.3089 -3.9785 -10.3513 4.6139
# 2 19.0279 63.8223 25.5762 -1.1530 1.0255 2.4910
# 3 49.3089 25.5762 127.7315 -0.2890 10.4670 3.3918
# 4 -3.9785 -1.1530 -0.2890 39.9686 11.2694 -0.1085
# 5 -10.3513 1.0255 10.4670 11.2694 42.8479 4.6973
# 6 4.6139 2.4910 3.3918 -0.1085 4.6973 31.6572
#
#
#
# Elastic Compliance Matrix: (Units=1/GPa)
#
#
# Indices 1 2 3 4 5 6 
#
# 1 0.009204 -0.001335 -0.003519 -0.000077 0.003283 -0.001347
# 2 -0.001335 0.017276 -0.002919 0.000348 -0.000022 -0.000848
# 3 -0.003519 -0.002919 0.010048 0.000601 -0.003412 0.000174
# 4 -0.000077 0.000348 0.000601 0.027124 -0.007430 0.001115
# 5 0.003283 -0.000022 -0.003412 -0.007430 0.027380 -0.004199
# 6 -0.001347 -0.000848 0.000174 0.001115 -0.004199 0.032460
#
#
# Mechanical properties :
#
#
# Convention : Reuss Voigt Hill
#
# Bulk Modulus (GPa) = 47.66032 57.10842 52.38437
# Shear Modulus (GPa) = 34.23901 38.37721 36.30811
#
# Velocity S-wave (km/s) = 3.94282 4.17430 4.06021
# Velocity P-wave (km/s) = 6.50903 7.01160 6.76498
#
# Compressibility (1/GPa) = 0.02098182
#
# Stress axis : x y z
#
# Youngs Moduli (GPa) = 108.64806 57.88382 99.52055
#
# Poissons Ratio (x) = 0.07730 0.35023
# Poissons Ratio (y) = 0.14509 0.29047
# Poissons Ratio (z) = 0.38235 0.16894
#
# Static dielectric constant tensor:
#      x y z
#    x 1.819720 0.032280 -0.021220 
#    y 0.032280 1.913470 0.003610 
#    z -0.021220 0.003610 1.807640 
# 
# From -- ./inp_files/189552.got.cif
#   From: 2010.05.17/outbox.cif.g08.bks.cpg/sg2_95_cif.got.tgz:189552.got - 2010.06.03 11:33:40.
