data_PCOD9049458
_publ_section_title
;
Structure prediction by ZEFSAII (Michael W. Deem and Ramdas Pophale) SiO2 
 PCOD9049458
Probable space group: P -1
;
_chemical_formula_sum "Si O2"
_cell_formula_units_Z 15
_cell_length_a 9.279457
_cell_length_b 16.506922
_cell_length_c 15.083413
_cell_angle_alpha 162.005171
_cell_angle_beta 50.356856
_cell_angle_gamma 130.790778
_cell_volume 539.012212
_symmetry_space_group_name_H-M "P -1"
_symmetry_group_IT_number 2
_symmetry_cell_setting 'triclinic'
loop_
_space_group_symop_operation_xyz
x,y,z
-x,-y,-z
loop_
_atom_site_type_symbol
_atom_site_label
_atom_site_fract_x
_atom_site_fract_y
_atom_site_fract_z
Si Si1 0.518932 0.834588 0.411336
Si Si2 0.841371 0.207763 0.220844
Si Si3 0.503009 0.531112 0.425880
Si Si4 0.000000 0.500000 0.000000
Si Si5 0.850150 0.865001 0.700829
Si Si6 0.308859 0.761195 0.086177
Si Si7 0.068184 0.088022 0.693078
Si Si8 0.132020 0.598373 0.405784
O O1 0.328669 0.636293 0.314267
O O2 0.500000 0.000000 0.500000
O O3 0.572307 0.026542 0.675734
O O4 0.718749 0.746930 0.222721
O O5 0.684281 0.391317 0.458387
O O6 0.850905 0.168517 0.281266
O O7 0.042378 0.354296 0.251338
O O8 0.778298 0.965573 0.925517
O O9 0.500000 0.500000 0.500000
O O10 0.682273 0.778845 0.606814
O O11 0.570583 0.293336 0.100885
O O12 0.229486 0.490024 0.887476
O O13 0.058792 0.784830 0.346218
O O14 0.000874 0.078048 0.809979
O O15 0.963813 0.636773 0.445287
O O16 0.082985 0.776445 0.164023
#
# Coordination Sequence:
#
# PCOD9049458 Si02
#       8
#     2   2   2   1   2   2   2   2
#     4  12  26  47  75 112 147 200 247 301 379 455
#     4  11  27  48  74 107 148 205 245 309 373 440
#     4  12  26  46  77 110 142 191 254 308 370 436
#     4   8  24  44  74  98 148 192 242 302 380 418
#     4  12  25  47  77 107 150 191 253 311 371 447
#     4  10  26  44  74 108 147 188 242 310 366 437
#     4  10  24  46  74 109 145 195 247 312 372 440
#     4  11  27  47  72 103 159 188 256 298 377 443
#
# _framework density 27.828682000000001
#
# number of rings (size 3 to 8) (size 9 to 14) (size 15 to 20)
#    0.800    0.267    2.667    2.000    7.467    3.200 
#    0.000    1.333    0.000    0.000    0.000    0.000 
#    0.000    0.000    0.000    0.000    0.000    0.000 
#
# Total GULP energy -83725.479348 kJ/mol
# GULP energy per Si atom -5581.698623 kJ/mol
# Density = 2.776534 g / cm^3
# Si number density = 27.828682 Si / 1000 Ang^3
#
#
#
# Elastic Constant Matrix: (Units=GPa)
#
#
# Indices 1 2 3 4 5 6 
#
# 1 145.7019 46.9684 50.4395 -3.2670 -14.5387 3.4115
# 2 46.9684 181.6487 39.7493 -29.3631 -13.5899 25.5654
# 3 50.4395 39.7493 139.2384 -29.7640 22.0662 -1.3444
# 4 -3.2670 -29.3631 -29.7640 43.7406 -9.5002 8.9151
# 5 -14.5387 -13.5899 22.0662 -9.5002 37.7628 6.8168
# 6 3.4115 25.5654 -1.3444 8.9151 6.8168 56.1468
#
#
#
# Elastic Compliance Matrix: (Units=1/GPa)
#
#
# Indices 1 2 3 4 5 6 
#
# 1 0.009212 -0.001337 -0.004164 -0.001860 0.005099 -0.000374
# 2 -0.001337 0.008641 -0.001494 0.007245 0.006339 -0.005809
# 3 -0.004164 -0.001494 0.011321 0.004368 -0.007923 0.001473
# 4 -0.001860 0.007245 0.004368 0.034688 0.009831 -0.009783
# 5 0.005099 0.006339 -0.007923 0.009831 0.039589 -0.009754
# 6 -0.000374 -0.005809 0.001473 -0.009783 -0.009754 0.023251
#
#
# Mechanical properties :
#
#
# Convention : Reuss Voigt Hill
#
# Bulk Modulus (GPa) = 65.87034 82.32259 74.09647
# Shear Modulus (GPa) = 34.30444 49.49215 41.89830
#
# Velocity S-wave (km/s) = 3.51479 4.22175 3.88439
# Velocity P-wave (km/s) = 6.33980 7.30824 6.84118
#
# Compressibility (1/GPa) = 0.01518134
#
# Stress axis : x y z
#
# Youngs Moduli (GPa) = 108.55616 115.73049 88.33334
#
# Poissons Ratio (x) = 0.15474 0.36786
# Poissons Ratio (y) = 0.14515 0.13201
# Poissons Ratio (z) = 0.45208 0.17296
#
# Static dielectric constant tensor:
#      x y z
#    x 2.270200 -0.075390 0.025500 
#    y -0.075390 2.619110 0.202120 
#    z 0.025500 0.202120 2.387880 
# 
# From -- ./inp_files/507374.got.cif
#   From: 2010.05.17/outbox.cif.g08.bks.cpg/sg2_254_cif.got.tgz:507374.got - 2010.06.03 11:33:40.
