data_PCOD9049923
_publ_section_title
;
Structure prediction by ZEFSAII (Michael W. Deem and Ramdas Pophale) SiO2 
 PCOD9049923
Probable space group: P -1
;
_chemical_formula_sum "Si O2"
_cell_formula_units_Z 16
_cell_length_a 8.158668
_cell_length_b 6.756440
_cell_length_c 15.186276
_cell_angle_alpha 121.424128
_cell_angle_beta 113.849981
_cell_angle_gamma 67.760418
_cell_volume 638.087518
_symmetry_space_group_name_H-M "P -1"
_symmetry_group_IT_number 2
_symmetry_cell_setting 'triclinic'
loop_
_space_group_symop_operation_xyz
x,y,z
-x,-y,-z
loop_
_atom_site_type_symbol
_atom_site_label
_atom_site_fract_x
_atom_site_fract_y
_atom_site_fract_z
Si Si1 0.674025 0.515604 0.785336
Si Si2 0.718479 0.761901 0.303957
Si Si3 0.148166 0.095791 0.998862
Si Si4 0.398363 0.592705 0.908342
Si Si5 0.290752 0.340529 0.522548
Si Si6 0.924811 0.140776 0.400495
Si Si7 0.058491 0.948134 0.219648
Si Si8 0.390719 0.184273 0.322170
O O1 0.537136 0.532139 0.842418
O O2 0.802390 0.256754 0.745821
O O3 0.598594 0.605559 0.693847
O O4 0.790321 0.701788 0.887037
O O5 0.754715 0.551484 0.191336
O O6 0.660248 0.682587 0.369114
O O7 0.881930 0.906211 0.381540
O O8 0.547287 0.959884 0.277889
O O9 0.041477 0.174764 0.904003
O O10 0.313407 0.870808 0.963611
O O11 0.000000 0.000000 0.000000
O O12 0.500000 0.500000 0.000000
O O13 0.206348 0.614194 0.542751
O O14 0.417005 0.235608 0.443340
O O15 0.126016 0.196528 0.454426
O O16 0.899850 0.094736 0.280608
O O17 0.191463 0.117056 0.254448
#
# Coordination Sequence:
#
# PCOD9049923 Si02
#       8
#     2   2   2   2   2   2   2   2
#     4  12  26  47  71  99 147 188 232 294 355 411
#     4  12  25  44  73 103 141 191 237 285 358 420
#     4  12  25  44  73 103 140 183 240 289 351 419
#     4  12  28  48  73 106 147 185 234 291 353 424
#     4  10  24  48  68 105 143 182 239 296 349 417
#     4  10  25  42  74 102 141 181 242 286 357 410
#     4  11  24  45  69 106 140 186 235 293 349 421
#     4  11  25  45  70 102 146 181 237 291 350 420
#
# _framework density 25.074930999999999
#
# number of rings (size 3 to 8) (size 9 to 14) (size 15 to 20)
#    0.000    0.750    2.500    3.750    7.000    5.500 
#    0.000    0.000    0.000    0.000    0.000    0.000 
#    0.000    0.000    0.000    0.000    0.000    0.000 
#
# Total GULP energy -89533.807773 kJ/mol
# GULP energy per Si atom -5595.862986 kJ/mol
# Density = 2.501786 g / cm^3
# Si number density = 25.074931 Si / 1000 Ang^3
#
#
#
# Elastic Constant Matrix: (Units=GPa)
#
#
# Indices 1 2 3 4 5 6 
#
# 1 68.1053 18.1022 11.4995 5.1692 -10.2805 15.6232
# 2 18.1022 113.3049 23.6761 -6.2487 -7.3133 13.5533
# 3 11.4995 23.6761 114.3183 -6.2616 -0.4073 16.8978
# 4 5.1692 -6.2487 -6.2616 54.9799 -0.4852 0.9830
# 5 -10.2805 -7.3133 -0.4073 -0.4852 28.0592 8.5773
# 6 15.6232 13.5533 16.8978 0.9830 8.5773 42.3672
#
#
#
# Elastic Compliance Matrix: (Units=1/GPa)
#
#
# Indices 1 2 3 4 5 6 
#
# 1 0.018397 -0.001434 -0.000453 -0.001726 0.008737 -0.007873
# 2 -0.001434 0.009927 -0.001441 0.001172 0.002882 -0.002683
# 3 -0.000453 -0.001441 0.009650 0.001044 0.000649 -0.003376
# 4 -0.001726 0.001172 0.001044 0.018616 0.000202 -0.000628
# 5 0.008737 0.002882 0.000649 0.000202 0.043653 -0.013245
# 6 -0.007873 -0.002683 -0.003376 -0.000628 -0.013245 0.031407
#
#
# Mechanical properties :
#
#
# Convention : Reuss Voigt Hill
#
# Bulk Modulus (GPa) = 31.93010 44.69822 38.31416
# Shear Modulus (GPa) = 33.61441 41.24463 37.42952
#
# Velocity S-wave (km/s) = 3.66534 4.06008 3.86775
# Velocity P-wave (km/s) = 5.53845 6.31218 5.93793
#
# Compressibility (1/GPa) = 0.03131842
#
# Stress axis : x y z
#
# Youngs Moduli (GPa) = 54.35738 100.73038 103.62638
#
# Poissons Ratio (x) = 0.14444 0.04697
# Poissons Ratio (y) = 0.07795 0.14930
# Poissons Ratio (z) = 0.02464 0.14513
#
# Static dielectric constant tensor:
#      x y z
#    x 1.982830 0.120030 0.088580 
#    y 0.120030 1.804240 -0.041310 
#    z 0.088580 -0.041310 2.036350 
# 
# From -- ./inp_files/297265.got.cif
#   From: 2010.05.17/outbox.cif.g08.bks.cpg/sg2_149_cif.got.tgz:297265.got - 2010.06.03 11:33:40.
