data_PCOD9049352
_publ_section_title
;
Structure prediction by ZEFSAII (Michael W. Deem and Ramdas Pophale) SiO2 
 PCOD9049352
Probable space group: P -1
;
_chemical_formula_sum "Si O2"
_cell_formula_units_Z 14
_cell_length_a 16.081048
_cell_length_b 14.973890
_cell_length_c 5.337617
_cell_angle_alpha 73.709723
_cell_angle_beta 68.098479
_cell_angle_gamma 28.330361
_cell_volume 562.563537
_symmetry_space_group_name_H-M "P -1"
_symmetry_group_IT_number 2
_symmetry_cell_setting 'triclinic'
loop_
_space_group_symop_operation_xyz
x,y,z
-x,-y,-z
loop_
_atom_site_type_symbol
_atom_site_label
_atom_site_fract_x
_atom_site_fract_y
_atom_site_fract_z
Si Si1 0.446349 0.921605 0.991920
Si Si2 0.404625 0.791664 0.447762
Si Si3 0.681230 0.609993 0.609123
Si Si4 0.910309 0.976961 0.639569
Si Si5 0.922842 0.246054 0.887919
Si Si6 0.781284 0.693793 0.112729
Si Si7 0.611541 0.378721 0.214643
O O1 0.498604 0.802255 0.811361
O O2 0.308198 0.123902 0.887239
O O3 0.369697 0.931200 0.305593
O O4 0.643173 0.785163 0.970858
O O5 0.616948 0.605684 0.445893
O O6 0.336077 0.776966 0.733173
O O7 0.308729 0.826706 0.292850
O O8 0.753348 0.641575 0.397553
O O9 0.811459 0.439092 0.788671
O O10 0.962472 0.863118 0.901224
O O11 0.000000 0.000000 0.500000
O O12 0.975667 0.868478 0.395019
O O13 0.784162 0.288052 0.070196
O O14 0.000000 0.500000 0.000000
O O15 0.500000 0.500000 0.500000
O O16 0.500000 0.500000 0.000000
#
# Coordination Sequence:
#
# PCOD9049352 Si02
#       7
#     2   2   2   2   2   2   2
#     4  10  24  46  72 109 147 189 252 313 377 467
#     4  11  26  41  71  99 148 193 245 301 377 433
#     4  11  25  45  74 105 145 194 253 309 380 455
#     4  12  28  46  68 107 157 200 253 317 373 437
#     4  12  27  44  72 107 148 196 260 307 373 452
#     4  10  24  47  75 107 146 191 246 313 390 458
#     4  12  24  41  70 101 140 196 251 302 363 435
#
# _framework density 24.886078999999999
#
# number of rings (size 3 to 8) (size 9 to 14) (size 15 to 20)
#    0.000    0.857    2.857    2.571    8.000    0.571 
#    0.000    0.000    0.000    0.000    0.000    0.000 
#    0.000    0.000    0.000    0.000    0.000    0.000 
#
# Total GULP energy -78040.724491 kJ/mol
# GULP energy per Si atom -5574.337464 kJ/mol
# Density = 2.482944 g / cm^3
# Si number density = 24.886079 Si / 1000 Ang^3
#
#
#
# Elastic Constant Matrix: (Units=GPa)
#
#
# Indices 1 2 3 4 5 6 
#
# 1 72.5289 63.1822 53.9191 -15.4759 -12.7456 4.9551
# 2 63.1822 170.1660 94.9537 -42.6075 -7.5304 5.1628
# 3 53.9191 94.9537 191.3858 -36.5552 -3.0675 8.1730
# 4 -15.4759 -42.6075 -36.5552 67.4504 7.0796 0.9394
# 5 -12.7456 -7.5304 -3.0675 7.0796 54.0882 -10.4990
# 6 4.9551 5.1628 8.1730 0.9394 -10.4990 37.7541
#
#
#
# Elastic Compliance Matrix: (Units=1/GPa)
#
#
# Indices 1 2 3 4 5 6 
#
# 1 0.022481 -0.006690 -0.003177 -0.001243 0.004326 -0.000114
# 2 -0.006690 0.010850 -0.002749 0.003918 -0.000799 -0.000330
# 3 -0.003177 -0.002749 0.007894 0.001956 -0.001191 -0.001296
# 4 -0.001243 0.003918 0.001956 0.018355 -0.002412 -0.001924
# 5 0.004326 -0.000799 -0.001191 -0.002412 0.020737 0.005626
# 6 -0.000114 -0.000330 -0.001296 -0.001924 0.005626 0.028440
#
#
# Mechanical properties :
#
#
# Convention : Reuss Voigt Hill
#
# Bulk Modulus (GPa) = 62.53176 95.35451 78.94314
# Shear Modulus (GPa) = 35.88856 46.66027 41.27442
#
# Velocity S-wave (km/s) = 3.80164 4.33477 4.07693
# Velocity P-wave (km/s) = 6.66721 7.96576 7.34523
#
# Compressibility (1/GPa) = 0.01599187
#
# Stress axis : x y z
#
# Youngs Moduli (GPa) = 44.48253 92.16500 126.68251
#
# Poissons Ratio (x) = 0.61661 0.40251
# Poissons Ratio (y) = 0.29760 0.34821
# Poissons Ratio (z) = 0.14134 0.25334
#
# Static dielectric constant tensor:
#      x y z
#    x 1.999970 0.076990 0.098290 
#    y 0.076990 2.038460 0.080850 
#    z 0.098290 0.080850 2.091360 
# 
# From -- ./inp_files/97672.got.cif
#   From: 2010.05.17/outbox.cif.g08.bks.cpg/sg2_49_cif.got.tgz:97672.got - 2010.06.03 11:33:40.
