data_PCOD9049596
_publ_section_title
;
Structure prediction by ZEFSAII (Michael W. Deem and Ramdas Pophale) SiO2 
 PCOD9049596
Probable space group: P -1
;
_chemical_formula_sum "Si O2"
_cell_formula_units_Z 14
_cell_length_a 7.132960
_cell_length_b 11.281890
_cell_length_c 7.533346
_cell_angle_alpha 84.095402
_cell_angle_beta 107.423540
_cell_angle_gamma 114.487147
_cell_volume 526.233757
_symmetry_space_group_name_H-M "P -1"
_symmetry_group_IT_number 2
_symmetry_cell_setting 'triclinic'
loop_
_space_group_symop_operation_xyz
x,y,z
-x,-y,-z
loop_
_atom_site_type_symbol
_atom_site_label
_atom_site_fract_x
_atom_site_fract_y
_atom_site_fract_z
Si Si1 0.659421 0.659570 0.223708
Si Si2 0.967242 0.256927 0.237339
Si Si3 0.544858 0.098636 0.287619
Si Si4 0.787200 0.376210 0.900653
Si Si5 0.260699 0.086463 0.561068
Si Si6 0.787688 0.488469 0.536046
Si Si7 0.830645 0.853541 0.949001
O O1 0.423002 0.613163 0.082188
O O2 0.704337 0.774938 0.364939
O O3 0.823059 0.740934 0.102741
O O4 0.662812 0.532322 0.343495
O O5 0.788495 0.209550 0.349062
O O6 0.145662 0.393650 0.324733
O O7 0.828935 0.261909 0.025677
O O8 0.105013 0.180900 0.219945
O O9 0.394335 0.081391 0.421542
O O10 0.613519 0.981632 0.269884
O O11 0.399620 0.139399 0.107646
O O12 0.735803 0.368886 0.676432
O O13 0.000000 0.500000 0.000000
O O14 0.000000 0.000000 0.500000
O O15 0.000000 0.500000 0.500000
O O16 0.000000 0.000000 0.000000
#
# Coordination Sequence:
#
# PCOD9049596 Si02
#       7
#     2   2   2   2   2   2   2
#     4  12  24  45  74 105 142 193 235 298 366 416
#     4  11  24  47  70 104 150 184 234 299 363 419
#     4  11  23  43  69 104 143 193 226 291 361 433
#     4  10  24  47  68 103 140 185 244 299 350 423
#     4  11  25  44  70 107 148 184 241 291 355 437
#     4  11  25  46  72 102 137 184 247 307 352 421
#     4  12  26  42  72 109 149 187 235 285 354 452
#
# _framework density 26.604146
#
# number of rings (size 3 to 8) (size 9 to 14) (size 15 to 20)
#    0.000    0.857    1.429    5.571    4.000    2.286 
#    5.143    4.286    0.000    0.000    0.000    0.000 
#    0.000    0.000    0.000    0.000    0.000    0.000 
#
# Total GULP energy -78048.077549 kJ/mol
# GULP energy per Si atom -5574.862682 kJ/mol
# Density = 2.654359 g / cm^3
# Si number density = 26.604146 Si / 1000 Ang^3
#
#
#
# Elastic Constant Matrix: (Units=GPa)
#
#
# Indices 1 2 3 4 5 6 
#
# 1 195.1040 31.5808 47.4877 -5.0581 3.5920 1.4155
# 2 31.5808 20.6588 11.1564 3.8840 0.1464 0.9369
# 3 47.4877 11.1564 92.1123 -27.7632 -9.1262 -2.3111
# 4 -5.0581 3.8840 -27.7632 50.1568 -8.3949 2.3344
# 5 3.5920 0.1464 -9.1262 -8.3949 60.2346 -13.8478
# 6 1.4155 0.9369 -2.3111 2.3344 -13.8478 52.3314
#
#
#
# Elastic Compliance Matrix: (Units=1/GPa)
#
#
# Indices 1 2 3 4 5 6 
#
# 1 0.007398 -0.009739 -0.002797 -0.000190 -0.000958 -0.000394
# 2 -0.009739 0.068963 -0.006733 -0.010382 -0.002384 -0.001436
# 3 -0.002797 -0.006733 0.016657 0.010135 0.004504 0.001671
# 4 -0.000190 -0.010382 0.010135 0.027223 0.005573 0.000899
# 5 -0.000958 -0.002384 0.004504 0.005573 0.019302 0.005127
# 6 -0.000394 -0.001436 0.001671 0.000899 0.005127 0.020536
#
#
# Mechanical properties :
#
#
# Convention : Reuss Voigt Hill
#
# Bulk Modulus (GPa) = 18.35510 54.25830 36.30670
# Shear Modulus (GPa) = 23.06519 47.05455 35.05987
#
# Velocity S-wave (km/s) = 2.94764 4.21015 3.63414
# Velocity P-wave (km/s) = 4.30106 6.63873 5.59338
#
# Compressibility (1/GPa) = 0.05448076
#
# Stress axis : x y z
#
# Youngs Moduli (GPa) = 135.16945 14.50046 60.03657
#
# Poissons Ratio (x) = 0.14122 0.16789
# Poissons Ratio (y) = 1.31640 0.40424
# Poissons Ratio (z) = 0.37801 0.09763
#
# Static dielectric constant tensor:
#      x y z
#    x 2.118460 0.033030 -0.074550 
#    y 0.033030 2.216210 -0.200680 
#    z -0.074550 -0.200680 2.425330 
# 
# From -- ./inp_files/131544.got.cif
#   From: 2010.05.17/outbox.cif.g08.bks.cpg/sg2_66_cif.got.tgz:131544.got - 2010.06.03 11:33:40.
