data_PCOD9049986
_publ_section_title
;
Structure prediction by ZEFSAII (Michael W. Deem and Ramdas Pophale) SiO2 
 PCOD9049986
Probable space group: P -1
;
_chemical_formula_sum "Si O2"
_cell_formula_units_Z 16
_cell_length_a 11.427806
_cell_length_b 17.887943
_cell_length_c 15.093212
_cell_angle_alpha 155.076797
_cell_angle_beta 41.556797
_cell_angle_gamma 149.900275
_cell_volume 642.364199
_symmetry_space_group_name_H-M "P -1"
_symmetry_group_IT_number 2
_symmetry_cell_setting 'triclinic'
loop_
_space_group_symop_operation_xyz
x,y,z
-x,-y,-z
loop_
_atom_site_type_symbol
_atom_site_label
_atom_site_fract_x
_atom_site_fract_y
_atom_site_fract_z
Si Si1 0.316471 0.122965 0.986113
Si Si2 0.168469 0.283102 0.697391
Si Si3 0.372962 0.160181 0.318258
Si Si4 0.216929 0.723360 0.043969
Si Si5 0.407805 0.451697 0.143521
Si Si6 0.892423 0.542141 0.354409
Si Si7 0.010215 0.976236 0.177883
Si Si8 0.822946 0.340384 0.509143
O O1 0.591052 0.275259 0.018493
O O2 0.281038 0.275335 0.111765
O O3 0.163583 0.027762 0.059268
O O4 0.258478 0.914783 0.734314
O O5 0.977753 0.309694 0.821468
O O6 0.322154 0.410917 0.837532
O O7 0.333387 0.316085 0.561496
O O8 0.000000 0.000000 0.500000
O O9 0.152355 0.988990 0.192964
O O10 0.624863 0.359386 0.637191
O O11 0.373501 0.991140 0.200772
O O12 0.090692 0.544885 0.841316
O O13 0.258434 0.268603 0.950379
O O14 0.616739 0.343456 0.324692
O O15 0.042795 0.555835 0.362473
O O16 0.971071 0.799565 0.580208
O O17 0.000000 0.500000 0.500000
#
# Coordination Sequence:
#
# PCOD9049986 Si02
#       8
#     2   2   2   2   2   2   2   2
#     4  12  24  43  66 108 140 176 226 282 346 405
#     4  10  24  48  71  98 132 185 234 275 341 410
#     4  11  23  43  70 100 136 181 225 285 342 397
#     4  11  25  44  68 100 134 179 236 277 336 408
#     4  12  25  44  68  99 141 185 219 286 345 403
#     4  12  24  42  67 108 138 175 228 286 334 406
#     4  12  24  41  65 106 142 171 225 285 348 399
#     4  12  22  39  68  99 142 178 222 275 344 407
#
# _framework density 24.907989000000001
#
# number of rings (size 3 to 8) (size 9 to 14) (size 15 to 20)
#    0.000    0.500    3.750    6.375    1.750    0.500 
#    0.000    7.500    0.000    0.000    0.000    0.000 
#    0.000    0.000    0.000    0.000    0.000    0.000 
#
# Total GULP energy -89679.212391 kJ/mol
# GULP energy per Si atom -5604.950774 kJ/mol
# Density = 2.485130 g / cm^3
# Si number density = 24.907989 Si / 1000 Ang^3
#
#
#
# Elastic Constant Matrix: (Units=GPa)
#
#
# Indices 1 2 3 4 5 6 
#
# 1 142.3584 15.5125 30.2331 -15.9057 5.6288 -8.5801
# 2 15.5125 62.3044 15.5218 -14.8618 1.8661 2.0292
# 3 30.2331 15.5218 132.8009 -20.5076 5.0226 1.6124
# 4 -15.9057 -14.8618 -20.5076 35.5020 4.3889 4.0086
# 5 5.6288 1.8661 5.0226 4.3889 59.0879 -2.6268
# 6 -8.5801 2.0292 1.6124 4.0086 -2.6268 32.3389
#
#
#
# Elastic Compliance Matrix: (Units=1/GPa)
#
#
# Indices 1 2 3 4 5 6 
#
# 1 0.007807 -0.001151 -0.001312 0.002127 -0.000670 0.001891
# 2 -0.001151 0.018327 -0.000708 0.007147 -0.001046 -0.002391
# 3 -0.001312 -0.000708 0.008641 0.004381 -0.000973 -0.001357
# 4 0.002127 0.007147 0.004381 0.035640 -0.003662 -0.004818
# 5 -0.000670 -0.001046 -0.000973 -0.003662 0.017456 0.001808
# 6 0.001891 -0.002391 -0.001357 -0.004818 0.001808 0.032386
#
#
# Mechanical properties :
#
#
# Convention : Reuss Voigt Hill
#
# Bulk Modulus (GPa) = 35.16939 51.11092 43.14015
# Shear Modulus (GPa) = 36.74424 43.79884 40.27154
#
# Velocity S-wave (km/s) = 3.84500 4.19791 4.02532
# Velocity P-wave (km/s) = 5.81914 6.63785 6.24193
#
# Compressibility (1/GPa) = 0.02843382
#
# Stress axis : x y z
#
# Youngs Moduli (GPa) = 128.09569 54.56391 115.72402
#
# Poissons Ratio (x) = 0.06280 0.15181
# Poissons Ratio (y) = 0.14743 0.08191
# Poissons Ratio (z) = 0.16804 0.03862
#
# Static dielectric constant tensor:
#      x y z
#    x 1.968310 0.002050 -0.024520 
#    y 0.002050 2.017700 0.070940 
#    z -0.024520 0.070940 2.072210 
# 
# From -- ./inp_files/522640.got.cif
#   From: 2010.05.17/outbox.cif.g08.bks.cpg/sg2_262_cif.got.tgz:522640.got - 2010.06.03 11:33:40.
