data_PCOD9049905
_publ_section_title
;
Structure prediction by ZEFSAII (Michael W. Deem and Ramdas Pophale) SiO2 
 PCOD9049905
Probable space group: P -1
;
_chemical_formula_sum "Si O2"
_cell_formula_units_Z 13
_cell_length_a 8.429934
_cell_length_b 6.101662
_cell_length_c 12.700138
_cell_angle_alpha 57.065790
_cell_angle_beta 68.652457
_cell_angle_gamma 60.621565
_cell_volume 473.515041
_symmetry_space_group_name_H-M "P -1"
_symmetry_group_IT_number 2
_symmetry_cell_setting 'triclinic'
loop_
_space_group_symop_operation_xyz
x,y,z
-x,-y,-z
loop_
_atom_site_type_symbol
_atom_site_label
_atom_site_fract_x
_atom_site_fract_y
_atom_site_fract_z
Si Si1 0.820464 0.774097 0.943907
Si Si2 0.529928 0.448901 0.657382
Si Si3 0.147241 0.066548 0.338863
Si Si4 0.235210 0.168574 0.744254
Si Si5 0.000000 0.000000 0.000000
Si Si6 0.545623 0.494614 0.112351
Si Si7 0.777973 0.962990 0.449103
O O1 0.802663 0.824945 0.810547
O O2 0.651570 0.704889 0.041424
O O3 0.000000 0.500000 0.000000
O O4 0.852850 0.011823 0.941666
O O5 0.715829 0.261987 0.603345
O O6 0.576498 0.441988 0.771358
O O7 0.418807 0.775961 0.571733
O O8 0.385505 0.295394 0.709166
O O9 0.187627 0.189543 0.406383
O O10 0.937771 0.093360 0.374271
O O11 0.316032 0.826654 0.820324
O O12 0.194460 0.216606 0.617159
O O13 0.071229 0.221304 0.852790
O O14 0.500000 0.500000 0.000000
#
# Coordination Sequence:
#
# PCOD9049905 Si02
#       7
#     2   2   2   2   1   2   2
#     4  12  23  42  66  98 136 177 221 281 337 402
#     4  11  24  44  70  98 137 181 223 283 341 395
#     4  11  24  43  71  96 132 183 229 277 336 408
#     4  11  23  41  67  98 136 180 223 279 339 405
#     4  12  22  38  70  98 134 182 224 268 352 398
#     4  11  24  38  61 100 139 171 221 282 337 402
#     4  10  24  48  65  96 138 176 231 285 329 399
#
# _framework density 27.454248
#
# number of rings (size 3 to 8) (size 9 to 14) (size 15 to 20)
#    0.000    0.923    4.615    2.308    2.154    1.846 
#    0.000    9.231    0.000    0.000    0.000    0.000 
#    0.000    0.000    0.000    0.000    0.000    0.000 
#
# Total GULP energy -72579.706711 kJ/mol
# GULP energy per Si atom -5583.054362 kJ/mol
# Density = 2.739176 g / cm^3
# Si number density = 27.454248 Si / 1000 Ang^3
#
#
#
# Elastic Constant Matrix: (Units=GPa)
#
#
# Indices 1 2 3 4 5 6 
#
# 1 99.5455 47.5541 33.5709 -10.7041 9.9677 19.5830
# 2 47.5541 97.5509 37.7974 11.0707 5.3762 -5.2885
# 3 33.5709 37.7974 190.2306 29.3890 42.6674 22.9669
# 4 -10.7041 11.0707 29.3890 49.0664 23.0260 -0.4044
# 5 9.9677 5.3762 42.6674 23.0260 62.0169 4.8664
# 6 19.5830 -5.2885 22.9669 -0.4044 4.8664 47.1550
#
#
#
# Elastic Compliance Matrix: (Units=1/GPa)
#
#
# Indices 1 2 3 4 5 6 
#
# 1 0.017510 -0.009382 -0.000689 0.008147 -0.003963 -0.007510
# 2 -0.009382 0.016530 -0.002232 -0.005940 0.003310 0.006445
# 3 -0.000689 -0.002232 0.007397 -0.002394 -0.003644 -0.003211
# 4 0.008147 -0.005940 -0.002394 0.029621 -0.010020 -0.001596
# 5 -0.003963 0.003310 -0.003644 -0.010020 0.022594 0.001374
# 6 -0.007510 0.006445 -0.003211 -0.001596 0.001374 0.026457
#
#
# Mechanical properties :
#
#
# Convention : Reuss Voigt Hill
#
# Bulk Modulus (GPa) = 59.41298 69.46350 64.43824
# Shear Modulus (GPa) = 33.26117 49.54131 41.40124
#
# Velocity S-wave (km/s) = 3.48445 4.25255 3.88752
# Velocity P-wave (km/s) = 6.15437 7.03340 6.60852
#
# Compressibility (1/GPa) = 0.01683134
#
# Stress axis : x y z
#
# Youngs Moduli (GPa) = 57.10936 60.49458 135.19799
#
# Poissons Ratio (x) = 0.56757 0.09318
# Poissons Ratio (y) = 0.53581 0.30170
# Poissons Ratio (z) = 0.03936 0.13500
#
# Static dielectric constant tensor:
#      x y z
#    x 2.121240 0.008940 0.016600 
#    y 0.008940 2.603310 0.131140 
#    z 0.016600 0.131140 2.178650 
# 
# From -- ./inp_files/372355.got.cif
#   From: 2010.05.17/outbox.cif.g08.bks.cpg/sg2_187_cif.got.tgz:372355.got - 2010.06.03 11:33:40.
