data_PCOD9049535
_publ_section_title
;
Structure prediction by ZEFSAII (Michael W. Deem and Ramdas Pophale) SiO2 
 PCOD9049535
Probable space group: P -1
;
_chemical_formula_sum "Si O2"
_cell_formula_units_Z 16
_cell_length_a 8.776507
_cell_length_b 5.663349
_cell_length_c 18.758201
_cell_angle_alpha 125.680520
_cell_angle_beta 102.430815
_cell_angle_gamma 61.115602
_cell_volume 660.223727
_symmetry_space_group_name_H-M "P -1"
_symmetry_group_IT_number 2
_symmetry_cell_setting 'triclinic'
loop_
_space_group_symop_operation_xyz
x,y,z
-x,-y,-z
loop_
_atom_site_type_symbol
_atom_site_label
_atom_site_fract_x
_atom_site_fract_y
_atom_site_fract_z
Si Si1 0.969714 0.223945 0.409146
Si Si2 0.949346 0.851364 0.764650
Si Si3 0.688356 0.636264 0.224195
Si Si4 0.264889 0.558604 0.320594
Si Si5 0.355310 0.518265 0.160532
Si Si6 0.592753 0.269964 0.402077
Si Si7 0.181540 0.444608 0.921159
Si Si8 0.778056 0.910816 0.986712
O O1 0.001203 0.188767 0.321075
O O2 0.775782 0.274831 0.411275
O O3 0.000000 0.500000 0.500000
O O4 0.118203 0.889035 0.396710
O O5 0.131253 0.675297 0.793138
O O6 0.825726 0.676688 0.730165
O O7 0.822296 0.208281 0.845232
O O8 0.527404 0.563311 0.175692
O O9 0.740293 0.767143 0.180203
O O10 0.638885 0.888243 0.329736
O O11 0.307650 0.600706 0.252058
O O12 0.446494 0.426566 0.355098
O O13 0.362858 0.174056 0.082167
O O14 0.500000 0.500000 0.500000
O O15 0.972294 0.665188 0.934752
O O16 0.222681 0.213565 0.953735
O O17 0.248129 0.726740 0.971588
#
# Coordination Sequence:
#
# PCOD9049535 Si02
#       8
#     2   2   2   2   2   2   2   2
#     4  11  26  43  70 101 136 191 243 305 372 437
#     4  11  24  45  70 101 140 192 240 296 372 437
#     4  12  26  46  73 107 144 193 243 304 370 448
#     4  11  24  46  72  99 146 187 241 302 368 440
#     4  11  26  44  74 108 142 191 241 302 367 439
#     4  12  27  45  72 105 145 190 245 303 365 440
#     4  10  25  45  76 111 149 199 247 307 380 444
#     4  10  24  46  77 110 151 194 249 311 371 453
#
# _framework density 24.234207999999999
#
# number of rings (size 3 to 8) (size 9 to 14) (size 15 to 20)
#    0.000    1.000    2.500    2.250   12.250    3.500 
#    0.000    0.000    0.000    0.000    0.000    0.000 
#    0.000    0.000    0.000    0.000    0.000    0.000 
#
# Total GULP energy -89503.620348 kJ/mol
# GULP energy per Si atom -5593.976272 kJ/mol
# Density = 2.417905 g / cm^3
# Si number density = 24.234208 Si / 1000 Ang^3
#
#
#
# Elastic Constant Matrix: (Units=GPa)
#
#
# Indices 1 2 3 4 5 6 
#
# 1 198.4679 62.3671 57.3699 12.7545 -6.5332 -16.5181
# 2 62.3671 86.7007 22.3981 7.9399 3.5379 -14.3945
# 3 57.3699 22.3981 82.6578 20.6681 -0.2187 2.6583
# 4 12.7545 7.9399 20.6681 33.2154 11.4742 7.8829
# 5 -6.5332 3.5379 -0.2187 11.4742 58.6358 2.1129
# 6 -16.5181 -14.3945 2.6583 7.8829 2.1129 46.0448
#
#
#
# Elastic Compliance Matrix: (Units=1/GPa)
#
#
# Indices 1 2 3 4 5 6 
#
# 1 0.007796 -0.004258 -0.004290 -0.000071 0.001063 0.001677
# 2 -0.004258 0.015706 -0.000911 -0.002063 -0.001160 0.003842
# 3 -0.004290 -0.000911 0.017712 -0.009371 0.001524 -0.001312
# 4 -0.000071 -0.002063 -0.009371 0.040698 -0.007639 -0.006747
# 5 0.001063 -0.001160 0.001524 -0.007639 0.018730 0.000379
# 6 0.001677 0.003842 -0.001312 -0.006747 0.000379 0.024734
#
#
# Mechanical properties :
#
#
# Convention : Reuss Voigt Hill
#
# Bulk Modulus (GPa) = 44.85298 72.45517 58.65407
# Shear Modulus (GPa) = 32.95368 42.62527 37.78948
#
# Velocity S-wave (km/s) = 3.69155 4.19846 3.95314
# Velocity P-wave (km/s) = 6.05957 7.31201 6.71505
#
# Compressibility (1/GPa) = 0.02229507
#
# Stress axis : x y z
#
# Youngs Moduli (GPa) = 128.27126 63.66802 56.45802
#
# Poissons Ratio (x) = 0.27110 0.24223
# Poissons Ratio (y) = 0.54619 0.05145
# Poissons Ratio (z) = 0.55033 0.05803
#
# Static dielectric constant tensor:
#      x y z
#    x 1.824250 0.070730 0.024420 
#    y 0.070730 2.007820 -0.018410 
#    z 0.024420 -0.018410 1.929080 
# 
# From -- ./inp_files/553858.got.cif
#   From: 2010.05.17/outbox.cif.g08.bks.cpg/sg2_277_cif.got.tgz:553858.got - 2010.06.03 11:33:40.
