data_PCOD9049198
_publ_section_title
;
Structure prediction by ZEFSAII (Michael W. Deem and Ramdas Pophale) SiO2 
 PCOD9049198
Probable space group: P -1
;
_chemical_formula_sum "Si O2"
_cell_formula_units_Z 15
_cell_length_a 6.964873
_cell_length_b 18.531460
_cell_length_c 12.751798
_cell_angle_alpha 22.945125
_cell_angle_beta 77.909015
_cell_angle_gamma 81.859720
_cell_volume 621.699493
_symmetry_space_group_name_H-M "P -1"
_symmetry_group_IT_number 2
_symmetry_cell_setting 'triclinic'
loop_
_space_group_symop_operation_xyz
x,y,z
-x,-y,-z
loop_
_atom_site_type_symbol
_atom_site_label
_atom_site_fract_x
_atom_site_fract_y
_atom_site_fract_z
Si Si1 0.344161 0.391413 0.242694
Si Si2 0.446320 0.706851 0.967469
Si Si3 0.000000 0.000000 0.000000
Si Si4 0.314796 0.472767 0.664644
Si Si5 0.774888 0.021769 0.474937
Si Si6 0.328589 0.225432 0.810936
Si Si7 0.082493 0.653730 0.607134
Si Si8 0.387265 0.878267 0.414302
O O1 0.394397 0.181195 0.527529
O O2 0.117127 0.397106 0.236386
O O3 0.500000 0.500000 0.000000
O O4 0.379496 0.509110 0.187588
O O5 0.636322 0.826829 0.729103
O O6 0.273200 0.834898 0.801441
O O7 0.532738 0.662988 0.127896
O O8 0.048700 0.828654 0.302804
O O9 0.821703 0.853830 0.156320
O O10 0.244976 0.383903 0.680676
O O11 0.451575 0.673430 0.379177
O O12 0.142645 0.492168 0.740858
O O13 0.690629 0.094858 0.495942
O O14 0.000000 0.000000 0.500000
O O15 0.363026 0.053593 0.111095
O O16 0.256808 0.710014 0.594056
#
# Coordination Sequence:
#
# PCOD9049198 Si02
#       8
#     2   2   1   2   2   2   2   2
#     4  12  26  43  69 104 143 188 238 292 358 427
#     4  11  24  44  68 102 138 186 230 290 359 422
#     4  10  24  46  70 110 138 190 244 296 364 428
#     4  11  23  46  74 106 144 189 241 301 363 429
#     4  11  26  44  71 100 143 185 237 290 355 434
#     4  10  24  46  74 104 145 190 236 304 366 428
#     4  11  27  42  73 103 140 189 240 296 356 433
#     4  11  24  45  68 104 142 185 232 296 361 424
#
# _framework density 24.127412
#
# number of rings (size 3 to 8) (size 9 to 14) (size 15 to 20)
#    0.000    1.067    4.000    0.800    5.600    2.133 
#    0.000    2.667    0.000    0.000    0.000    0.000 
#    0.000    0.000    0.000    0.000    0.000    0.000 
#
# Total GULP energy -83631.980439 kJ/mol
# GULP energy per Si atom -5575.465363 kJ/mol
# Density = 2.407250 g / cm^3
# Si number density = 24.127412 Si / 1000 Ang^3
#
#
#
# Elastic Constant Matrix: (Units=GPa)
#
#
# Indices 1 2 3 4 5 6 
#
# 1 130.5583 35.3672 26.3266 -12.7503 8.0068 -5.4626
# 2 35.3672 61.2700 20.1554 -7.7425 2.7008 1.2010
# 3 26.3266 20.1554 75.7724 -2.4443 7.2002 9.8470
# 4 -12.7503 -7.7425 -2.4443 29.2039 11.2087 2.7924
# 5 8.0068 2.7008 7.2002 11.2087 31.8723 -1.8443
# 6 -5.4626 1.2010 9.8470 2.7924 -1.8443 35.8922
#
#
#
# Elastic Compliance Matrix: (Units=1/GPa)
#
#
# Indices 1 2 3 4 5 6 
#
# 1 0.009924 -0.004450 -0.002091 0.003930 -0.002923 0.001777
# 2 -0.004450 0.020616 -0.003611 0.003739 -0.001170 -0.000727
# 3 -0.002091 -0.003611 0.015883 0.001256 -0.003478 -0.004831
# 4 0.003930 0.003739 0.001256 0.044112 -0.017344 -0.004195
# 5 -0.002923 -0.001170 -0.003478 -0.017344 0.039320 0.003918
# 6 0.001777 -0.000727 -0.004831 -0.004195 0.003918 0.030009
#
#
# Mechanical properties :
#
#
# Convention : Reuss Voigt Hill
#
# Bulk Modulus (GPa) = 38.28596 47.92211 43.10404
# Shear Modulus (GPa) = 26.47243 31.77712 29.12478
#
# Velocity S-wave (km/s) = 3.31598 3.63306 3.47814
# Velocity P-wave (km/s) = 5.52844 6.12406 5.83386
#
# Compressibility (1/GPa) = 0.02611924
#
# Stress axis : x y z
#
# Youngs Moduli (GPa) = 100.76737 48.50526 62.95901
#
# Poissons Ratio (x) = 0.21585 0.13163
# Poissons Ratio (y) = 0.44842 0.22737
# Poissons Ratio (z) = 0.21067 0.17517
#
# Static dielectric constant tensor:
#      x y z
#    x 1.905720 -0.021990 -0.021450 
#    y -0.021990 1.934170 0.002930 
#    z -0.021450 0.002930 1.980660 
# 
# From -- ./inp_files/485630.got.cif
#   From: 2010.05.17/outbox.cif.g08.bks.cpg/sg2_243_cif.got.tgz:485630.got - 2010.06.03 11:33:40.
