data_PCOD9049860
_publ_section_title
;
Structure prediction by ZEFSAII (Michael W. Deem and Ramdas Pophale) SiO2 
 PCOD9049860
Probable space group: P -1
;
_chemical_formula_sum "Si O2"
_cell_formula_units_Z 16
_cell_length_a 4.859122
_cell_length_b 19.433919
_cell_length_c 7.501874
_cell_angle_alpha 114.290411
_cell_angle_beta 67.105363
_cell_angle_gamma 106.448079
_cell_volume 588.405385
_symmetry_space_group_name_H-M "P -1"
_symmetry_group_IT_number 2
_symmetry_cell_setting 'triclinic'
loop_
_space_group_symop_operation_xyz
x,y,z
-x,-y,-z
loop_
_atom_site_type_symbol
_atom_site_label
_atom_site_fract_x
_atom_site_fract_y
_atom_site_fract_z
Si Si1 0.531528 0.909622 0.734191
Si Si2 0.871587 0.258373 0.811461
Si Si3 0.615985 0.863750 0.042950
Si Si4 0.192100 0.611693 0.569940
Si Si5 0.705105 0.754888 0.609973
Si Si6 0.173346 0.994117 0.668050
Si Si7 0.090704 0.490091 0.169359
Si Si8 0.332170 0.346443 0.051598
O O1 0.525002 0.914898 0.956361
O O2 0.567185 0.821216 0.603455
O O3 0.240923 0.936347 0.748706
O O4 0.849719 0.956998 0.637669
O O5 0.656323 0.322196 0.964452
O O6 0.998289 0.259045 0.582500
O O7 0.148803 0.282769 0.900995
O O8 0.675559 0.178070 0.824912
O O9 0.749171 0.795980 0.834890
O O10 0.829326 0.919888 0.173918
O O11 0.459728 0.680466 0.588949
O O12 0.192927 0.566080 0.338134
O O13 0.878659 0.645216 0.715022
O O14 0.179939 0.552427 0.677224
O O15 0.500000 0.000000 0.500000
O O16 0.326519 0.429364 0.054040
O O17 0.000000 0.500000 0.000000
#
# Coordination Sequence:
#
# PCOD9049860 Si02
#       8
#     2   2   2   2   2   2   2   2
#     4  10  25  45  72 109 153 201 264 320 404 453
#     4  12  25  49  74 115 154 212 269 327 404 483
#     4  10  24  47  77 107 160 204 272 323 408 474
#     4   9  20  50  82 120 157 215 263 339 407 485
#     4  10  24  47  77 111 161 207 264 332 404 473
#     4  12  24  45  75 114 151 207 267 333 393 481
#     4   9  20  47  89 119 161 210 275 328 415 487
#     4  10  24  48  77 111 159 206 268 326 399 478
#
# _framework density 27.192138
#
# number of rings (size 3 to 8) (size 9 to 14) (size 15 to 20)
#    1.500    0.250    1.250    1.875    0.000    6.000 
#    4.500    6.875    0.000    0.750    0.000    0.000 
#    0.000    0.000    0.000    0.000    0.000    0.000 
#
# Total GULP energy -89692.373075 kJ/mol
# GULP energy per Si atom -5605.773317 kJ/mol
# Density = 2.713025 g / cm^3
# Si number density = 27.192138 Si / 1000 Ang^3
#
#
#
# Elastic Constant Matrix: (Units=GPa)
#
#
# Indices 1 2 3 4 5 6 
#
# 1 120.3071 41.6249 48.3565 -0.6508 5.2922 8.0728
# 2 41.6249 149.8017 56.5864 12.2024 5.2280 30.4972
# 3 48.3565 56.5864 180.3349 -9.0363 -10.2904 24.7130
# 4 -0.6508 12.2024 -9.0363 40.3699 10.7542 2.6421
# 5 5.2922 5.2280 -10.2904 10.7542 42.6427 -3.5329
# 6 8.0728 30.4972 24.7130 2.6421 -3.5329 46.6762
#
#
#
# Elastic Compliance Matrix: (Units=1/GPa)
#
#
# Indices 1 2 3 4 5 6 
#
# 1 0.009928 -0.002070 -0.002155 0.000696 -0.001623 0.000614
# 2 -0.002070 0.009137 -0.001881 -0.002645 -0.001027 -0.004545
# 3 -0.002155 -0.001881 0.007198 0.001867 0.001582 -0.002195
# 4 0.000696 -0.002645 0.001867 0.027811 -0.006445 -0.001442
# 5 -0.001623 -0.001027 0.001582 -0.006445 0.025988 0.002446
# 6 0.000614 -0.004545 -0.002195 -0.001442 0.002446 0.025716
#
#
# Mechanical properties :
#
#
# Convention : Reuss Voigt Hill
#
# Bulk Modulus (GPa) = 71.15657 82.61993 76.88825
# Shear Modulus (GPa) = 40.75880 46.19616 43.47748
#
# Velocity S-wave (km/s) = 3.87579 4.12622 4.00296
# Velocity P-wave (km/s) = 6.80102 7.29045 7.04998
#
# Compressibility (1/GPa) = 0.01405352
#
# Stress axis : x y z
#
# Youngs Moduli (GPa) = 100.72335 109.43931 138.93154
#
# Poissons Ratio (x) = 0.22652 0.29935
# Poissons Ratio (y) = 0.20848 0.26127
# Poissons Ratio (z) = 0.21702 0.20581
#
# Static dielectric constant tensor:
#      x y z
#    x 2.061490 -0.043220 0.023080 
#    y -0.043220 2.220910 -0.086360 
#    z 0.023080 -0.086360 2.155140 
# 
# From -- ./inp_files/137914.got.cif
#   From: 2010.05.17/outbox.cif.g08.bks.cpg/sg2_69_cif.got.tgz:137914.got - 2010.06.03 11:33:40.
