data_PCOD9049620
_publ_section_title
;
Structure prediction by ZEFSAII (Michael W. Deem and Ramdas Pophale) SiO2 
 PCOD9049620
Probable space group: P -1
;
_chemical_formula_sum "Si O2"
_cell_formula_units_Z 14
_cell_length_a 19.080035
_cell_length_b 8.980168
_cell_length_c 4.971397
_cell_angle_alpha 116.829643
_cell_angle_beta 72.396272
_cell_angle_gamma 129.139599
_cell_volume 589.362571
_symmetry_space_group_name_H-M "P -1"
_symmetry_group_IT_number 2
_symmetry_cell_setting 'triclinic'
loop_
_space_group_symop_operation_xyz
x,y,z
-x,-y,-z
loop_
_atom_site_type_symbol
_atom_site_label
_atom_site_fract_x
_atom_site_fract_y
_atom_site_fract_z
Si Si1 0.220841 0.220245 0.047566
Si Si2 0.390164 0.030198 0.278472
Si Si3 0.020792 0.873357 0.165353
Si Si4 0.952331 0.598608 0.513362
Si Si5 0.423031 0.766284 0.637878
Si Si6 0.250664 0.626578 0.359950
Si Si7 0.337870 0.317788 0.513150
O O1 0.224385 0.414277 0.084785
O O2 0.267178 0.266886 0.321034
O O3 0.283432 0.206525 0.756330
O O4 0.120876 0.024375 0.054791
O O5 0.290946 0.836237 0.324486
O O6 0.472504 0.126218 0.478155
O O7 0.388735 0.212979 0.308666
O O8 0.416097 0.922180 0.949947
O O9 0.002954 0.704429 0.263143
O O10 0.965153 0.756273 0.863087
O O11 0.000000 0.000000 0.500000
O O12 0.844395 0.445691 0.455136
O O13 0.000000 0.500000 0.500000
O O14 0.340757 0.686781 0.463840
O O15 0.398708 0.563780 0.663145
#
# Coordination Sequence:
#
# PCOD9049620 Si02
#       7
#     2   2   2   2   2   2   2
#     4  11  25  45  71 102 142 188 238 288 358 426
#     4  11  24  43  74 101 143 187 241 295 362 421
#     4  12  26  47  73 101 141 192 245 291 360 430
#     4  12  29  46  72 108 147 187 242 302 359 430
#     4  10  24  47  69 105 140 191 236 298 357 433
#     4  11  25  44  72  97 147 184 235 294 363 421
#     4  11  25  45  71 107 141 187 235 294 352 431
#
# _framework density 23.754480999999998
#
# number of rings (size 3 to 8) (size 9 to 14) (size 15 to 20)
#    0.000    0.857    2.857    2.571   10.000    0.000 
#    0.000    2.143    0.000    0.000    0.000    0.000 
#    0.000    0.000    0.000    0.000    0.000    0.000 
#
# Total GULP energy -78070.748806 kJ/mol
# GULP energy per Si atom -5576.482058 kJ/mol
# Density = 2.370041 g / cm^3
# Si number density = 23.754481 Si / 1000 Ang^3
#
#
#
# Elastic Constant Matrix: (Units=GPa)
#
#
# Indices 1 2 3 4 5 6 
#
# 1 76.5193 133.2118 11.1739 71.4232 21.0910 -8.7239
# 2 133.2118 203.0171 122.8813 -0.4054 -10.4103 -24.9914
# 3 11.1739 122.8813 90.6893 51.2637 28.4046 -18.8106
# 4 71.4232 -0.4054 51.2637 21.5518 -19.6110 -20.6827
# 5 21.0910 -10.4103 28.4046 -19.6110 33.2842 1.8545
# 6 -8.7239 -24.9914 -18.8106 -20.6827 1.8545 65.5013
#
#
#
# Elastic Compliance Matrix: (Units=1/GPa)
#
#
# Indices 1 2 3 4 5 6 
#
# 1 0.005378 0.001190 -0.007122 0.005389 0.006181 0.000652
# 2 0.001190 0.003952 -0.000165 -0.007578 -0.003805 -0.000666
# 3 -0.007122 -0.000165 0.008818 0.006786 0.000732 0.003643
# 4 0.005389 -0.007578 0.006786 0.009476 -0.006157 0.002942
# 5 0.006181 -0.003805 0.000732 -0.006157 0.020850 -0.002953
# 6 0.000652 -0.000666 0.003643 0.002942 -0.002953 0.017158
#
#
# Mechanical properties :
#
#
# Convention : Reuss Voigt Hill
#
# Bulk Modulus (GPa) = 167.92950 100.52884 134.22917
# Shear Modulus (GPa) = 62.64816 30.93139 46.78977
#
# Velocity S-wave (km/s) = 5.14106 3.61242 4.44297
# Velocity P-wave (km/s) = 10.29990 7.73377 9.10766
#
# Compressibility (1/GPa) = 0.00595488
#
# Stress axis : x y z
#
# Youngs Moduli (GPa) = 185.94616 253.00546 113.40941
#
# Poissons Ratio (x) = -0.30100 0.80766
# Poissons Ratio (y) = -0.22122 0.01867
# Poissons Ratio (z) = 1.32423 0.04165
#
# Static dielectric constant tensor:
#      x y z
#    x 2.001670 -0.004660 0.025570 
#    y -0.004660 1.962780 0.021450 
#    z 0.025570 0.021450 1.914430 
# 
# From -- ./inp_files/43206.got.cif
#   From: 2010.05.17/outbox.cif.g08.bks.cpg/sg2_22_cif.got.tgz:43206.got - 2010.06.03 11:33:40.
