data_PCOD9049044
_publ_section_title
;
Structure prediction by ZEFSAII (Michael W. Deem and Ramdas Pophale) SiO2 
 PCOD9049044
Probable space group: P -1
;
_chemical_formula_sum "Si O2"
_cell_formula_units_Z 14
_cell_length_a 12.219629
_cell_length_b 6.898083
_cell_length_c 9.649020
_cell_angle_alpha 79.125421
_cell_angle_beta 129.350182
_cell_angle_gamma 116.053508
_cell_volume 560.286851
_symmetry_space_group_name_H-M "P -1"
_symmetry_group_IT_number 2
_symmetry_cell_setting 'triclinic'
loop_
_space_group_symop_operation_xyz
x,y,z
-x,-y,-z
loop_
_atom_site_type_symbol
_atom_site_label
_atom_site_fract_x
_atom_site_fract_y
_atom_site_fract_z
Si Si1 0.939223 0.295984 0.612050
Si Si2 0.179828 0.144707 0.275872
Si Si3 0.276684 0.020274 0.729728
Si Si4 0.385329 0.903732 0.118398
Si Si5 0.775513 0.596743 0.463721
Si Si6 0.474198 0.200639 0.388828
Si Si7 0.880292 0.546452 0.000577
O O1 0.868231 0.467417 0.495803
O O2 0.087030 0.431608 0.810405
O O3 0.856844 0.104693 0.688781
O O4 0.882837 0.139821 0.452988
O O5 0.132529 0.245516 0.357800
O O6 0.366040 0.257744 0.396510
O O7 0.120565 0.230641 0.085737
O O8 0.432709 0.048538 0.764498
O O9 0.269645 0.254209 0.696437
O O10 0.307043 0.933369 0.910367
O O11 0.377725 0.085277 0.189869
O O12 0.285265 0.660540 0.125132
O O13 0.625683 0.403302 0.435475
O O14 0.500000 0.000000 0.500000
O O15 0.000000 0.500000 0.000000
#
# Coordination Sequence:
#
# PCOD9049044 Si02
#       7
#     2   2   2   2   2   2   2
#     4  11  22  42  66  92 133 173 217 267 322 395
#     4  11  22  38  65  97 133 171 211 273 334 391
#     4  10  24  46  67  92 129 179 228 267 319 379
#     4  11  24  44  67  97 133 170 225 276 314 396
#     4  11  20  39  65  94 128 171 216 272 323 385
#     4  12  20  37  67 102 130 166 214 274 341 379
#     4  12  24  42  67  99 136 172 213 272 338 391
#
# _framework density 24.987200000000001
#
# number of rings (size 3 to 8) (size 9 to 14) (size 15 to 20)
#    0.000    0.857    4.286    4.286    0.000    1.143 
#    2.571    0.714    0.000    0.000    0.000    0.000 
#    0.000    0.000    0.000    0.000    0.000    0.000 
#
# Total GULP energy -78193.305084 kJ/mol
# GULP energy per Si atom -5585.236077 kJ/mol
# Density = 2.493033 g / cm^3
# Si number density = 24.987200 Si / 1000 Ang^3
#
#
#
# Elastic Constant Matrix: (Units=GPa)
#
#
# Indices 1 2 3 4 5 6 
#
# 1 54.3405 22.1027 7.3748 -0.2506 -2.8829 -4.5193
# 2 22.1027 164.2536 29.0184 -17.2135 8.2761 7.3051
# 3 7.3748 29.0184 103.1685 -10.7645 -22.1308 0.4162
# 4 -0.2506 -17.2135 -10.7645 52.5410 0.2102 2.6959
# 5 -2.8829 8.2761 -22.1308 0.2102 26.9410 1.8780
# 6 -4.5193 7.3051 0.4162 2.6959 1.8780 42.2370
#
#
#
# Elastic Compliance Matrix: (Units=1/GPa)
#
#
# Indices 1 2 3 4 5 6 
#
# 1 0.020017 -0.003049 -0.000087 -0.001067 0.002833 0.002612
# 2 -0.003049 0.007489 -0.002694 0.001983 -0.004750 -0.001510
# 3 -0.000087 -0.002694 0.013135 0.001777 0.011616 -0.000303
# 4 -0.001067 0.001983 0.001777 0.020131 0.000704 -0.001791
# 5 0.002833 -0.004750 0.011616 0.000704 0.048500 -0.001191
# 6 0.002612 -0.001510 -0.000303 -0.001791 -0.001191 0.024387
#
#
# Mechanical properties :
#
#
# Convention : Reuss Voigt Hill
#
# Bulk Modulus (GPa) = 34.50681 48.75048 41.62865
# Shear Modulus (GPa) = 32.26227 41.89492 37.07860
#
# Velocity S-wave (km/s) = 3.59716 4.09914 3.85633
# Velocity P-wave (km/s) = 5.57607 6.47738 6.04355
#
# Compressibility (1/GPa) = 0.02897978
#
# Stress axis : x y z
#
# Youngs Moduli (GPa) = 49.95745 133.53279 76.13072
#
# Poissons Ratio (x) = 0.40712 0.00666
# Poissons Ratio (y) = 0.15231 0.20513
# Poissons Ratio (z) = 0.00437 0.35979
#
# Static dielectric constant tensor:
#      x y z
#    x 2.084440 0.000210 -0.076660 
#    y 0.000210 1.918610 0.025010 
#    z -0.076660 0.025010 2.051620 
# 
# From -- ./inp_files/119380.got.cif
#   From: 2010.05.17/outbox.cif.g08.bks.cpg/sg2_60_cif.got.tgz:119380.got - 2010.06.03 11:33:40.
