data_PCOD9049561
_publ_section_title
;
Structure prediction by ZEFSAII (Michael W. Deem and Ramdas Pophale) SiO2 
 PCOD9049561
Probable space group: P -1
;
_chemical_formula_sum "Si O2"
_cell_formula_units_Z 14
_cell_length_a 17.254877
_cell_length_b 5.512494
_cell_length_c 8.871271
_cell_angle_alpha 106.579803
_cell_angle_beta 42.190606
_cell_angle_gamma 102.481080
_cell_volume 543.127419
_symmetry_space_group_name_H-M "P -1"
_symmetry_group_IT_number 2
_symmetry_cell_setting 'triclinic'
loop_
_space_group_symop_operation_xyz
x,y,z
-x,-y,-z
loop_
_atom_site_type_symbol
_atom_site_label
_atom_site_fract_x
_atom_site_fract_y
_atom_site_fract_z
Si Si1 0.898085 0.712173 0.590891
Si Si2 0.489621 0.263518 0.652067
Si Si3 0.408984 0.850020 0.204594
Si Si4 0.031402 0.905275 0.180594
Si Si5 0.181207 0.052864 0.733798
Si Si6 0.229893 0.785102 0.206062
Si Si7 0.300288 0.503168 0.785687
O O1 0.855653 0.439399 0.656661
O O2 0.991521 0.688797 0.317055
O O3 0.942046 0.866117 0.701250
O O4 0.808989 0.920040 0.683441
O O5 0.513311 0.264769 0.795427
O O6 0.363128 0.348280 0.801393
O O7 0.593949 0.435545 0.466824
O O8 0.500000 0.000000 0.500000
O O9 0.334843 0.727099 0.156629
O O10 0.304596 0.976125 0.474100
O O11 0.500000 0.000000 0.000000
O O12 0.920424 0.955540 0.243201
O O13 0.136032 0.880791 0.907062
O O14 0.204090 0.332097 0.816177
O O15 0.258003 0.741708 0.982575
#
# Coordination Sequence:
#
# PCOD9049561 Si02
#       7
#     2   2   2   2   2   2   2
#     4  11  26  52  76 118 152 205 253 323 387 460
#     4  11  25  46  72 105 149 202 262 316 381 460
#     4  12  28  46  79 112 159 202 260 322 390 464
#     4  10  24  46  80 106 158 197 261 315 388 457
#     4  11  23  50  72 116 148 202 257 320 383 461
#     4  12  28  49  80 115 158 203 256 318 392 462
#     4  11  26  45  76 107 151 204 257 318 388 460
#
# _framework density 25.77664
#
# number of rings (size 3 to 8) (size 9 to 14) (size 15 to 20)
#    0.000    0.857    4.286    0.857   10.000    2.857 
#    0.000    1.429    0.000    0.000    0.000    0.000 
#    0.000    0.000    0.000    0.000    0.000    0.000 
#
# Total GULP energy -78277.912118 kJ/mol
# GULP energy per Si atom -5591.279437 kJ/mol
# Density = 2.571797 g / cm^3
# Si number density = 25.776640 Si / 1000 Ang^3
#
#
#
# Elastic Constant Matrix: (Units=GPa)
#
#
# Indices 1 2 3 4 5 6 
#
# 1 185.4881 42.4681 26.8579 -21.8723 28.2761 -1.1704
# 2 42.4681 66.4370 18.6391 -12.9086 -4.6992 -17.8901
# 3 26.8579 18.6391 158.3024 -23.6277 13.1827 -13.9750
# 4 -21.8723 -12.9086 -23.6277 47.4674 -8.8317 0.7048
# 5 28.2761 -4.6992 13.1827 -8.8317 45.6258 -3.8674
# 6 -1.1704 -17.8901 -13.9750 0.7048 -3.8674 36.5167
#
#
#
# Elastic Compliance Matrix: (Units=1/GPa)
#
#
# Indices 1 2 3 4 5 6 
#
# 1 0.007709 -0.005978 -0.000332 0.000801 -0.005430 -0.003400
# 2 -0.005978 0.023807 -0.000716 0.004729 0.008295 0.011985
# 3 -0.000332 -0.000716 0.007196 0.002981 -0.001183 0.002210
# 4 0.000801 0.004729 0.002981 0.024946 0.004251 0.003452
# 5 -0.005430 0.008295 -0.001183 0.004251 0.027836 0.006303
# 6 -0.003400 0.011985 0.002210 0.003452 0.006303 0.034594
#
#
# Mechanical properties :
#
#
# Convention : Reuss Voigt Hill
#
# Bulk Modulus (GPa) = 40.55278 65.12863 52.84070
# Shear Modulus (GPa) = 33.70171 47.40614 40.55392
#
# Velocity S-wave (km/s) = 3.61979 4.29314 3.97076
# Velocity P-wave (km/s) = 5.76516 7.06372 6.44722
#
# Compressibility (1/GPa) = 0.02465922
#
# Stress axis : x y z
#
# Youngs Moduli (GPa) = 129.72067 42.00453 138.96123
#
# Poissons Ratio (x) = 0.25112 0.04618
# Poissons Ratio (y) = 0.77551 0.09946
# Poissons Ratio (z) = 0.04311 0.03007
#
# Static dielectric constant tensor:
#      x y z
#    x 2.554810 -0.102390 -0.613540 
#    y -0.102390 2.059970 0.108340 
#    z -0.613540 0.108340 2.700720 
# 
# From -- ./inp_files/323800.got.cif
#   From: 2010.05.17/outbox.cif.g08.bks.cpg/sg2_162_cif.got.tgz:323800.got - 2010.06.03 11:33:40.
