data_PCOD9049697
_publ_section_title
;
Structure prediction by ZEFSAII (Michael W. Deem and Ramdas Pophale) SiO2 
 PCOD9049697
Probable space group: P -1
;
_chemical_formula_sum "Si O2"
_cell_formula_units_Z 16
_cell_length_a 15.503532
_cell_length_b 8.419547
_cell_length_c 6.577156
_cell_angle_alpha 94.127487
_cell_angle_beta 97.020070
_cell_angle_gamma 127.082186
_cell_volume 668.176491
_symmetry_space_group_name_H-M "P -1"
_symmetry_group_IT_number 2
_symmetry_cell_setting 'triclinic'
loop_
_space_group_symop_operation_xyz
x,y,z
-x,-y,-z
loop_
_atom_site_type_symbol
_atom_site_label
_atom_site_fract_x
_atom_site_fract_y
_atom_site_fract_z
Si Si1 0.829678 0.749646 0.950685
Si Si2 0.917075 0.601696 0.279999
Si Si3 0.466982 0.589152 0.668275
Si Si4 0.696251 0.808763 0.239049
Si Si5 0.845043 0.049130 0.693867
Si Si6 0.254535 0.842514 0.967846
Si Si7 0.603673 0.049480 0.662340
Si Si8 0.740172 0.448197 0.544283
O O1 0.751376 0.555254 0.767497
O O2 0.880020 0.930750 0.819723
O O3 0.898409 0.702073 0.097093
O O4 0.769875 0.790068 0.104145
O O5 0.852531 0.584544 0.461435
O O6 0.048493 0.745949 0.357255
O O7 0.849225 0.368266 0.173746
O O8 0.500000 0.500000 0.500000
O O9 0.420014 0.413385 0.805209
O O10 0.357949 0.574117 0.603033
O O11 0.564967 0.828895 0.698873
O O12 0.757940 0.895746 0.482243
O O13 0.690396 0.977718 0.160669
O O14 0.793044 0.107510 0.852635
O O15 0.349538 0.838433 0.094182
O O16 0.702582 0.225291 0.560975
O O17 0.500000 0.000000 0.500000
#
# Coordination Sequence:
#
# PCOD9049697 Si02
#       8
#     2   2   2   2   2   2   2   2
#     4  11  22  45  71  97 144 181 238 282 345 409
#     4  12  25  43  74 104 142 191 233 282 357 416
#     4  11  23  44  73  99 136 184 229 291 357 405
#     4  11  25  45  69 106 144 182 237 286 353 418
#     4  11  25  45  71 104 146 187 229 293 349 413
#     4  11  26  45  72 104 146 180 239 289 343 433
#     4  10  24  47  71  99 138 184 229 297 353 398
#     4  11  24  46  68 102 146 178 233 298 339 415
#
# _framework density 23.945767
#
# number of rings (size 3 to 8) (size 9 to 14) (size 15 to 20)
#    0.000    1.000    3.750    1.500    5.250    5.000 
#    0.000    3.125    0.000    0.000    0.000    0.000 
#    0.000    0.000    0.000    0.000    0.000    0.000 
#
# Total GULP energy -89227.988322 kJ/mol
# GULP energy per Si atom -5576.749270 kJ/mol
# Density = 2.389127 g / cm^3
# Si number density = 23.945767 Si / 1000 Ang^3
#
#
#
# Elastic Constant Matrix: (Units=GPa)
#
#
# Indices 1 2 3 4 5 6 
#
# 1 28.0458 28.4151 11.8153 -4.1577 4.2941 6.0934
# 2 28.4151 177.3605 43.3227 -23.0312 9.6421 0.8822
# 3 11.8153 43.3227 93.3267 -2.9992 2.7553 -8.9307
# 4 -4.1577 -23.0312 -2.9992 42.0561 -12.1553 -4.9420
# 5 4.2941 9.6421 2.7553 -12.1553 30.5549 2.2619
# 6 6.0934 0.8822 -8.9307 -4.9420 2.2619 32.7862
#
#
#
# Elastic Compliance Matrix: (Units=1/GPa)
#
#
# Indices 1 2 3 4 5 6 
#
# 1 0.046140 -0.006419 -0.003685 -0.001478 -0.004022 -0.009352
# 2 -0.006419 0.007754 -0.002597 0.003531 0.000034 0.000807
# 3 -0.003685 -0.002597 0.012782 -0.000474 -0.000314 0.004187
# 4 -0.001478 0.003531 -0.000474 0.028968 0.010386 0.003701
# 5 -0.004022 0.000034 -0.000314 0.010386 0.037469 -0.000358
# 6 -0.009352 0.000807 0.004187 0.003701 -0.000358 0.033940
#
#
# Mechanical properties :
#
#
# Convention : Reuss Voigt Hill
#
# Bulk Modulus (GPa) = 24.22865 51.75990 37.99427
# Shear Modulus (GPa) = 24.24676 35.42476 29.83576
#
# Velocity S-wave (km/s) = 3.18554 3.85044 3.53366
# Velocity P-wave (km/s) = 4.86522 6.43663 5.70528
#
# Compressibility (1/GPa) = 0.04127345
#
# Stress axis : x y z
#
# Youngs Moduli (GPa) = 21.67304 128.97282 78.23601
#
# Poissons Ratio (x) = 0.82784 0.28834
# Poissons Ratio (y) = 0.13911 0.20318
# Poissons Ratio (z) = 0.07988 0.33494
#
# Static dielectric constant tensor:
#      x y z
#    x 1.974260 -0.020830 0.047620 
#    y -0.020830 1.946160 -0.012360 
#    z 0.047620 -0.012360 1.923910 
# 
# From -- ./inp_files/107002.got.cif
#   From: 2010.05.17/outbox.cif.g08.bks.cpg/sg2_54_cif.got.tgz:107002.got - 2010.06.03 11:33:40.
