data_PCOD9049756
_publ_section_title
;
Structure prediction by ZEFSAII (Michael W. Deem and Ramdas Pophale) SiO2 
 PCOD9049756
Probable space group: P -1
;
_chemical_formula_sum "Si O2"
_cell_formula_units_Z 16
_cell_length_a 12.655406
_cell_length_b 21.044095
_cell_length_c 9.036811
_cell_angle_alpha 44.373217
_cell_angle_beta 120.347344
_cell_angle_gamma 153.135917
_cell_volume 690.548643
_symmetry_space_group_name_H-M "P -1"
_symmetry_group_IT_number 2
_symmetry_cell_setting 'triclinic'
loop_
_space_group_symop_operation_xyz
x,y,z
-x,-y,-z
loop_
_atom_site_type_symbol
_atom_site_label
_atom_site_fract_x
_atom_site_fract_y
_atom_site_fract_z
Si Si1 0.312220 0.295527 0.923479
Si Si2 0.285666 0.007795 0.496941
Si Si3 0.882325 0.873075 0.455530
Si Si4 0.105287 0.473600 0.553137
Si Si5 0.529047 0.342190 0.243714
Si Si6 0.842408 0.063218 0.817639
Si Si7 0.532528 0.685457 0.281057
Si Si8 0.579193 0.047829 0.806872
O O1 0.507190 0.391119 0.773010
O O2 0.120952 0.245493 0.795891
O O3 0.491700 0.407967 0.008755
O O4 0.098352 0.080906 0.190059
O O5 0.496323 0.226830 0.315919
O O6 0.391012 0.985072 0.679480
O O7 0.197786 0.936982 0.382395
O O8 0.031012 0.882233 0.601957
O O9 0.711217 0.812858 0.553902
O O10 0.678784 0.714182 0.449075
O O11 0.221990 0.499997 0.737413
O O12 0.323156 0.603121 0.365349
O O13 0.000000 0.500000 0.500000
O O14 0.861776 0.274080 0.630451
O O15 0.631222 0.982034 0.894025
O O16 0.746617 0.898039 0.030497
O O17 0.500000 0.000000 0.000000
#
# Coordination Sequence:
#
# PCOD9049756 Si02
#       8
#     2   2   2   2   2   2   2   2
#     4  10  17  34  61 102 119 152 201 256 303 357
#     4  11  19  38  61  93 124 157 204 246 304 355
#     4   9  17  30  61  98 123 146 202 256 293 344
#     4  11  23  44  60  87 124 164 208 249 301 367
#     4  10  20  33  67  94 124 151 211 253 300 344
#     4  11  21  38  63  96 128 153 199 253 308 367
#     4  10  18  36  68  94 118 151 203 257 301 356
#     4  12  28  42  61  85 123 171 206 246 308 373
#
# _framework density 23.169982999999998
#
# number of rings (size 3 to 8) (size 9 to 14) (size 15 to 20)
#    0.000    1.500    5.000    3.375    5.250    0.000 
#    0.000    6.250    0.000    0.000    0.000    0.000 
#    0.000    0.000    0.000    0.000    0.000    0.000 
#
# Total GULP energy -89112.045166 kJ/mol
# GULP energy per Si atom -5569.502823 kJ/mol
# Density = 2.311725 g / cm^3
# Si number density = 23.169983 Si / 1000 Ang^3
#
#
#
# Elastic Constant Matrix: (Units=GPa)
#
#
# Indices 1 2 3 4 5 6 
#
# 1 120.6314 24.7010 37.8447 28.7599 -10.0945 18.3336
# 2 24.7010 91.1325 40.7011 39.7924 2.5343 26.3554
# 3 37.8447 40.7011 77.5659 39.0885 -6.6866 14.6792
# 4 28.7599 39.7924 39.0885 46.3057 -1.3783 8.7831
# 5 -10.0945 2.5343 -6.6866 -1.3783 33.7376 9.5301
# 6 18.3336 26.3554 14.6792 8.7831 9.5301 37.7671
#
#
#
# Elastic Compliance Matrix: (Units=1/GPa)
#
#
# Indices 1 2 3 4 5 6 
#
# 1 0.011096 0.001862 -0.002258 -0.005405 0.004089 -0.005583
# 2 0.001862 0.021652 -0.001925 -0.015843 0.001263 -0.011900
# 3 -0.002258 -0.001925 0.024785 -0.016859 0.004972 -0.004528
# 4 -0.005405 -0.015843 -0.016859 0.050865 -0.004376 0.009508
# 5 0.004089 0.001263 0.004972 -0.004376 0.035149 -0.012650
# 6 -0.005583 -0.011900 -0.004528 0.009508 -0.012650 0.040233
#
#
# Mechanical properties :
#
#
# Convention : Reuss Voigt Hill
#
# Bulk Modulus (GPa) = 18.90675 55.09149 36.99912
# Shear Modulus (GPa) = 24.26552 35.96763 30.11657
#
# Velocity S-wave (km/s) = 3.23969 3.94425 3.60920
# Velocity P-wave (km/s) = 4.70870 6.67619 5.77682
#
# Compressibility (1/GPa) = 0.05289116
#
# Stress axis : x y z
#
# Youngs Moduli (GPa) = 90.12190 46.18458 40.34643
#
# Poissons Ratio (x) = -0.08598 0.09110
# Poissons Ratio (y) = -0.16778 0.07767
# Poissons Ratio (z) = 0.20350 0.08890
#
# Static dielectric constant tensor:
#      x y z
#    x 4.182350 1.552480 -1.002940 
#    y 1.552480 3.204470 -0.796390 
#    z -1.002940 -0.796390 2.419750 
# 
# From -- ./inp_files/281713.got.cif
#   From: 2010.05.17/outbox.cif.g08.bks.cpg/sg2_141_cif.got.tgz:281713.got - 2010.06.03 11:33:40.
