data_PCOD9049301
_publ_section_title
;
Structure prediction by ZEFSAII (Michael W. Deem and Ramdas Pophale) SiO2 
 PCOD9049301
Probable space group: P -1
;
_chemical_formula_sum "Si O2"
_cell_formula_units_Z 14
_cell_length_a 11.397490
_cell_length_b 12.709099
_cell_length_c 16.856618
_cell_angle_alpha 27.418979
_cell_angle_beta 30.086141
_cell_angle_gamma 36.760358
_cell_volume 557.844445
_symmetry_space_group_name_H-M "P -1"
_symmetry_group_IT_number 2
_symmetry_cell_setting 'triclinic'
loop_
_space_group_symop_operation_xyz
x,y,z
-x,-y,-z
loop_
_atom_site_type_symbol
_atom_site_label
_atom_site_fract_x
_atom_site_fract_y
_atom_site_fract_z
Si Si1 0.065090 0.419395 0.243654
Si Si2 0.458618 0.887943 0.884653
Si Si3 0.416203 0.713243 0.346735
Si Si4 0.114679 0.542366 0.299029
Si Si5 0.140099 0.341963 0.957451
Si Si6 0.182988 0.999514 0.647269
Si Si7 0.339011 0.133916 0.625407
O O1 0.293587 0.249223 0.197492
O O2 0.132227 0.576047 0.171422
O O3 0.863670 0.283795 0.490156
O O4 0.958344 0.553305 0.139345
O O5 0.509901 0.058421 0.810040
O O6 0.352987 0.037985 0.770443
O O7 0.285170 0.704738 0.129959
O O8 0.500000 0.500000 0.500000
O O9 0.577840 0.666065 0.205663
O O10 0.186391 0.270874 0.450979
O O11 0.847423 0.633502 0.419947
O O12 0.000000 0.500000 0.000000
O O13 0.055880 0.092227 0.176085
O O14 0.239199 0.970424 0.727461
O O15 0.396743 0.858644 0.566079
#
# Coordination Sequence:
#
# PCOD9049301 Si02
#       7
#     2   2   2   2   2   2   2
#     4  11  25  45  75 104 141 191 244 291 355 433
#     4  12  24  45  75 104 140 189 246 293 351 429
#     4  10  24  46  72 101 138 190 242 286 355 429
#     4  12  25  45  76 106 143 190 244 290 359 427
#     4  11  26  47  72 102 146 189 239 299 361 421
#     4  11  26  44  69 108 147 183 238 297 367 415
#     4  11  24  42  71 101 150 184 230 298 358 418
#
# _framework density 25.096599999999999
#
# number of rings (size 3 to 8) (size 9 to 14) (size 15 to 20)
#    0.000    0.857    1.429    5.143   10.000    1.143 
#    0.000    1.429    0.000    0.000    0.000    0.000 
#    0.000    0.000    0.000    0.000    0.000    0.000 
#
# Total GULP energy -78449.958191 kJ/mol
# GULP energy per Si atom -5603.568442 kJ/mol
# Density = 2.503948 g / cm^3
# Si number density = 25.096600 Si / 1000 Ang^3
#
#
#
# Elastic Constant Matrix: (Units=GPa)
#
#
# Indices 1 2 3 4 5 6 
#
# 1 37.8198 -7.0904 14.0553 -7.9162 7.3369 -2.2132
# 2 -7.0904 157.7973 48.4421 25.0342 -7.9716 -9.6738
# 3 14.0553 48.4421 131.4719 2.9020 -18.1849 -11.5411
# 4 -7.9162 25.0342 2.9020 34.8611 5.4962 -9.5177
# 5 7.3369 -7.9716 -18.1849 5.4962 33.8400 5.8159
# 6 -2.2132 -9.6738 -11.5411 -9.5177 5.8159 45.4064
#
#
#
# Elastic Compliance Matrix: (Units=1/GPa)
#
#
# Indices 1 2 3 4 5 6 
#
# 1 0.033572 0.001227 -0.005615 0.010319 -0.012409 0.004223
# 2 0.001227 0.008214 -0.002909 -0.005611 0.001059 -0.000241
# 3 -0.005615 -0.002909 0.010193 -0.000772 0.006003 0.000767
# 4 0.010319 -0.005611 -0.000772 0.039429 -0.011908 0.008901
# 5 -0.012409 0.001059 0.006003 -0.011908 0.038735 -0.006311
# 6 0.004223 -0.000241 0.000767 0.008901 -0.006311 0.025047
#
#
# Mechanical properties :
#
#
# Convention : Reuss Voigt Hill
#
# Bulk Modulus (GPa) = 26.74751 48.65590 37.70170
# Shear Modulus (GPa) = 27.43560 40.93366 34.18463
#
# Velocity S-wave (km/s) = 3.30994 4.04300 3.69470
# Velocity P-wave (km/s) = 5.02878 6.42059 5.76683
#
# Compressibility (1/GPa) = 0.03738666
#
# Stress axis : x y z
#
# Youngs Moduli (GPa) = 29.78662 121.74173 98.10812
#
# Poissons Ratio (x) = -0.14939 0.55084
# Poissons Ratio (y) = -0.03655 0.28536
# Poissons Ratio (z) = 0.16724 0.35410
#
# Static dielectric constant tensor:
#      x y z
#    x 2.055970 -0.022770 0.036430 
#    y -0.022770 1.936740 0.014500 
#    z 0.036430 0.014500 1.970390 
# 
# From -- ./inp_files/569086.got.cif
#   From: 2010.05.17/outbox.cif.g08.bks.cpg/sg2_285_cif.got.tgz:569086.got - 2010.06.03 11:33:40.
