data_PCOD9049466
_publ_section_title
;
Structure prediction by ZEFSAII (Michael W. Deem and Ramdas Pophale) SiO2 
 PCOD9049466
Probable space group: P -1
;
_chemical_formula_sum "Si O2"
_cell_formula_units_Z 16
_cell_length_a 16.258844
_cell_length_b 9.028936
_cell_length_c 7.473261
_cell_angle_alpha 112.471765
_cell_angle_beta 56.161732
_cell_angle_gamma 133.020968
_cell_volume 666.209831
_symmetry_space_group_name_H-M "P -1"
_symmetry_group_IT_number 2
_symmetry_cell_setting 'triclinic'
loop_
_space_group_symop_operation_xyz
x,y,z
-x,-y,-z
loop_
_atom_site_type_symbol
_atom_site_label
_atom_site_fract_x
_atom_site_fract_y
_atom_site_fract_z
Si Si1 0.640846 0.636751 0.467138
Si Si2 0.886144 0.011559 0.173857
Si Si3 0.495643 0.081986 0.736688
Si Si4 0.878886 0.273994 0.003268
Si Si5 0.630028 0.720824 0.917014
Si Si6 0.985592 0.312214 0.520369
Si Si7 0.257862 0.492510 0.223254
Si Si8 0.683988 0.338686 0.164473
O O1 0.500000 0.500000 0.500000
O O2 0.748879 0.805376 0.283657
O O3 0.649088 0.741412 0.690116
O O4 0.666103 0.472172 0.376905
O O5 0.927386 0.141894 0.363793
O O6 0.724232 0.681805 0.863680
O O7 0.000000 0.000000 0.000000
O O8 0.626960 0.291135 0.733365
O O9 0.500000 0.000000 0.500000
O O10 0.444784 0.882633 0.824575
O O11 0.396447 0.131933 0.898338
O O12 0.898398 0.225224 0.758498
O O13 0.874924 0.129090 0.083772
O O14 0.768173 0.292009 0.139423
O O15 0.000000 0.500000 0.000000
O O16 0.500000 0.500000 0.000000
O O17 0.000000 0.500000 0.500000
O O18 0.127183 0.401672 0.433375
O O19 0.255431 0.542133 0.039984
#
# Coordination Sequence:
#
# PCOD9049466 Si02
#       8
#     2   2   2   2   2   2   2   2
#     4  12  28  52  79 113 160 210 265 331 396 472
#     4  12  30  53  80 122 160 212 273 324 404 483
#     4  11  26  45  73 113 149 204 260 320 403 476
#     4  12  27  49  82 113 160 206 265 329 399 476
#     4  10  24  46  74 110 154 202 258 325 396 474
#     4  12  26  49  79 115 155 206 261 332 395 467
#     4  11  24  47  75 109 155 199 260 324 399 473
#     4  12  26  46  74 110 155 203 256 328 396 466
#
# _framework density 24.016459999999999
#
# number of rings (size 3 to 8) (size 9 to 14) (size 15 to 20)
#    0.000    0.500    2.500    4.875    7.000    6.500 
#    0.000    0.000    0.000    0.000    0.000    0.000 
#    0.000    0.000    0.000    0.000    0.000    0.000 
#
# Total GULP energy -89628.808858 kJ/mol
# GULP energy per Si atom -5601.800554 kJ/mol
# Density = 2.396180 g / cm^3
# Si number density = 24.016460 Si / 1000 Ang^3
#
#
#
# Elastic Constant Matrix: (Units=GPa)
#
#
# Indices 1 2 3 4 5 6 
#
# 1 154.6281 51.0112 74.1023 -6.9703 -21.7285 -7.8990
# 2 51.0112 146.2851 51.0549 4.0463 -11.4746 -4.9758
# 3 74.1023 51.0549 180.4503 14.4708 -13.5629 -8.5799
# 4 -6.9703 4.0463 14.4708 52.8105 -1.7276 0.0857
# 5 -21.7285 -11.4746 -13.5629 -1.7276 46.8868 -3.1388
# 6 -7.8990 -4.9758 -8.5799 0.0857 -3.1388 38.5417
#
#
#
# Elastic Compliance Matrix: (Units=1/GPa)
#
#
# Indices 1 2 3 4 5 6 
#
# 1 0.009189 -0.001894 -0.003138 0.002316 0.003052 0.001184
# 2 -0.001894 0.008065 -0.001395 -0.000463 0.000702 0.000401
# 3 -0.003138 -0.001395 0.007480 -0.002347 0.000340 0.000875
# 4 0.002316 -0.000463 -0.002347 0.019953 0.001011 -0.000070
# 5 0.003052 0.000702 0.000340 0.001011 0.023229 0.002681
# 6 0.001184 0.000401 0.000875 -0.000070 0.002681 0.026654
#
#
# Mechanical properties :
#
#
# Convention : Reuss Voigt Hill
#
# Bulk Modulus (GPa) = 84.16693 92.63337 88.40015
# Shear Modulus (GPa) = 44.88960 47.99414 46.44187
#
# Velocity S-wave (km/s) = 4.32802 4.47518 4.40221
# Velocity P-wave (km/s) = 7.75224 8.08440 7.92006
#
# Compressibility (1/GPa) = 0.01188115
#
# Stress axis : x y z
#
# Youngs Moduli (GPa) = 108.82184 123.99630 133.68245
#
# Poissons Ratio (x) = 0.23481 0.41948
# Poissons Ratio (y) = 0.20607 0.18651
# Poissons Ratio (z) = 0.34147 0.17299
#
# Static dielectric constant tensor:
#      x y z
#    x 1.916660 -0.013790 0.016510 
#    y -0.013790 2.492520 -0.106500 
#    z 0.016510 -0.106500 1.946980 
# 
# From -- ./inp_files/345581.got.cif
#   From: 2010.05.17/outbox.cif.g08.bks.cpg/sg2_173_cif.got.tgz:345581.got - 2010.06.03 11:33:40.
