data_PCOD9049970
_publ_section_title
;
Structure prediction by ZEFSAII (Michael W. Deem and Ramdas Pophale) SiO2 
 PCOD9049970
Probable space group: P -1
;
_chemical_formula_sum "Si O2"
_cell_formula_units_Z 14
_cell_length_a 6.615072
_cell_length_b 8.622937
_cell_length_c 13.953800
_cell_angle_alpha 90.693583
_cell_angle_beta 137.334621
_cell_angle_gamma 82.452183
_cell_volume 530.504817
_symmetry_space_group_name_H-M "P -1"
_symmetry_group_IT_number 2
_symmetry_cell_setting 'triclinic'
loop_
_space_group_symop_operation_xyz
x,y,z
-x,-y,-z
loop_
_atom_site_type_symbol
_atom_site_label
_atom_site_fract_x
_atom_site_fract_y
_atom_site_fract_z
Si Si1 0.678713 0.110735 0.874183
Si Si2 0.243069 0.092926 0.277569
Si Si3 0.923131 0.875318 0.263857
Si Si4 0.842737 0.429249 0.740852
Si Si5 0.766467 0.376760 0.035581
Si Si6 0.146245 0.409553 0.457147
Si Si7 0.137248 0.818910 0.536438
O O1 0.424525 0.047530 0.847643
O O2 0.627590 0.055592 0.748442
O O3 0.665488 0.293232 0.902667
O O4 0.000000 0.000000 0.000000
O O5 0.506398 0.196561 0.362241
O O6 0.931473 0.212166 0.142741
O O7 0.153625 0.994916 0.335157
O O8 0.960105 0.746171 0.192720
O O9 0.997844 0.775627 0.386805
O O10 0.501984 0.400167 0.604830
O O11 0.907773 0.525493 0.668361
O O12 0.958923 0.523901 0.869471
O O13 0.500000 0.500000 0.000000
O O14 0.000000 0.500000 0.500000
O O15 0.978490 0.261530 0.412322
O O16 0.000000 0.000000 0.500000
#
# Coordination Sequence:
#
# PCOD9049970 Si02
#       7
#     2   2   2   2   2   2   2
#     4  10  24  48  70  98 146 190 246 296 353 423
#     4  11  26  45  76 106 147 191 241 302 362 435
#     4  12  24  45  72 107 149 187 240 298 365 434
#     4  11  25  43  73 105 143 188 236 293 368 428
#     4  11  24  47  72 102 140 191 251 294 356 422
#     4  11  24  45  67 103 151 183 226 298 365 432
#     4  12  24  43  74 108 144 187 237 292 371 440
#
# _framework density 26.389958
#
# number of rings (size 3 to 8) (size 9 to 14) (size 15 to 20)
#    0.000    0.857    4.286    2.143    4.000    2.286 
#    0.000    3.571    0.000    0.000    0.000    0.000 
#    0.000    0.000    0.000    0.000    0.000    0.000 
#
# Total GULP energy -78082.662795 kJ/mol
# GULP energy per Si atom -5577.333057 kJ/mol
# Density = 2.632989 g / cm^3
# Si number density = 26.389958 Si / 1000 Ang^3
#
#
#
# Elastic Constant Matrix: (Units=GPa)
#
#
# Indices 1 2 3 4 5 6 
#
# 1 140.2165 74.0228 41.6798 -2.3559 36.1580 6.4497
# 2 74.0228 121.6936 21.1640 20.8256 -1.0871 -8.8762
# 3 41.6798 21.1640 88.0831 18.3795 25.5164 -0.4023
# 4 -2.3559 20.8256 18.3795 46.9116 -10.5567 -9.3475
# 5 36.1580 -1.0871 25.5164 -10.5567 46.3973 13.4652
# 6 6.4497 -8.8762 -0.4023 -9.3475 13.4652 76.3633
#
#
#
# Elastic Compliance Matrix: (Units=1/GPa)
#
#
# Indices 1 2 3 4 5 6 
#
# 1 0.016000 -0.010009 -0.003168 0.004200 -0.009928 -0.000267
# 2 -0.010009 0.015353 0.000447 -0.005909 0.006339 0.000791
# 3 -0.003168 0.000447 0.017377 -0.009096 -0.009425 0.000960
# 4 0.004200 -0.005909 -0.009096 0.029748 0.008029 0.001136
# 5 -0.009928 0.006339 -0.009425 0.008029 0.037648 -0.004130
# 6 -0.000267 0.000791 0.000960 0.001136 -0.004130 0.014082
#
#
# Mechanical properties :
#
#
# Convention : Reuss Voigt Hill
#
# Bulk Modulus (GPa) = 42.96994 69.30294 56.13644
# Shear Modulus (GPa) = 30.59522 48.14288 39.36905
#
# Velocity S-wave (km/s) = 3.40862 4.27580 3.86660
# Velocity P-wave (km/s) = 5.64000 7.12002 6.42279
#
# Compressibility (1/GPa) = 0.02327208
#
# Stress axis : x y z
#
# Youngs Moduli (GPa) = 62.49883 65.13336 57.54663
#
# Poissons Ratio (x) = 0.65189 0.18230
# Poissons Ratio (y) = 0.62552 -0.02574
# Poissons Ratio (z) = 0.19799 -0.02913
#
# Static dielectric constant tensor:
#      x y z
#    x 2.729970 0.868600 0.597820 
#    y 0.868600 3.531730 0.984340 
#    z 0.597820 0.984340 2.781900 
# 
# From -- ./inp_files/480608.got.cif
#   From: 2010.05.17/outbox.cif.g08.bks.cpg/sg2_241_cif.got.tgz:480608.got - 2010.06.03 11:33:40.
