data_PCOD9049540
_publ_section_title
;
Structure prediction by ZEFSAII (Michael W. Deem and Ramdas Pophale) SiO2 
 PCOD9049540
Probable space group: P -1
;
_chemical_formula_sum "Si O2"
_cell_formula_units_Z 16
_cell_length_a 13.726581
_cell_length_b 11.421504
_cell_length_c 11.298489
_cell_angle_alpha 86.569759
_cell_angle_beta 32.805728
_cell_angle_gamma 64.864741
_cell_volume 691.199546
_symmetry_space_group_name_H-M "P -1"
_symmetry_group_IT_number 2
_symmetry_cell_setting 'triclinic'
loop_
_space_group_symop_operation_xyz
x,y,z
-x,-y,-z
loop_
_atom_site_type_symbol
_atom_site_label
_atom_site_fract_x
_atom_site_fract_y
_atom_site_fract_z
Si Si1 0.856518 0.540478 0.768195
Si Si2 0.306956 0.246056 0.694290
Si Si3 0.480614 0.526473 0.848304
Si Si4 0.044849 0.808265 0.536326
Si Si5 0.735276 0.952356 0.418330
Si Si6 0.422624 0.114409 0.961556
Si Si7 0.100412 0.884484 0.225312
Si Si8 0.143104 0.530245 0.690765
O O1 0.601149 0.734772 0.011202
O O2 0.000000 0.500000 0.500000
O O3 0.040740 0.496744 0.688349
O O4 0.756485 0.454379 0.905544
O O5 0.250359 0.176055 0.655967
O O6 0.272564 0.387766 0.663399
O O7 0.578912 0.105709 0.480888
O O8 0.105385 0.313992 0.998901
O O9 0.682212 0.371668 0.735608
O O10 0.657656 0.462995 0.555889
O O11 0.378508 0.705551 0.959233
O O12 0.979437 0.881013 0.466740
O O13 0.866942 0.785921 0.760621
O O14 0.971455 0.948420 0.689268
O O15 0.987350 0.892386 0.216721
O O16 0.572406 0.011895 0.699749
O O17 0.500000 0.000000 0.000000
#
# Coordination Sequence:
#
# PCOD9049540 Si02
#       8
#     2   2   2   2   2   2   2   2
#     4  12  27  44  74 114 150 190 236 304 382 455
#     4  10  24  46  77  98 143 198 256 308 356 424
#     4  12  26  46  74 110 150 192 241 298 376 449
#     4  11  24  42  69 106 157 184 232 298 374 453
#     4  11  22  46  73 102 143 191 248 306 366 439
#     4  12  24  43  73 108 145 194 240 303 384 446
#     4  11  25  42  67 108 144 191 233 299 371 448
#     4  11  25  49  72 106 144 195 251 308 366 431
#
# _framework density 23.148161999999999
#
# number of rings (size 3 to 8) (size 9 to 14) (size 15 to 20)
#    0.000    0.750    3.750    2.625    7.000    0.000 
#    0.000    6.250    2.750    0.000    0.000    0.000 
#    0.000    0.000    0.000    0.000    0.000    0.000 
#
# Total GULP energy -89326.187806 kJ/mol
# GULP energy per Si atom -5582.886738 kJ/mol
# Density = 2.309548 g / cm^3
# Si number density = 23.148162 Si / 1000 Ang^3
#
#
#
# Elastic Constant Matrix: (Units=GPa)
#
#
# Indices 1 2 3 4 5 6 
#
# 1 103.1050 24.5106 20.3211 10.5125 9.8766 -3.6816
# 2 24.5106 99.8385 16.5819 15.9382 -6.8731 -3.8307
# 3 20.3211 16.5819 82.4922 -1.6498 8.1366 12.6967
# 4 10.5125 15.9382 -1.6498 46.0298 -3.0143 4.1903
# 5 9.8766 -6.8731 8.1366 -3.0143 36.6033 3.4062
# 6 -3.6816 -3.8307 12.6967 4.1903 3.4062 25.8488
#
#
#
# Elastic Compliance Matrix: (Units=1/GPa)
#
#
# Indices 1 2 3 4 5 6 
#
# 1 0.011420 -0.002061 -0.002649 -0.002530 -0.003412 0.003482
# 2 -0.002061 0.011894 -0.002705 -0.003840 0.002790 0.003052
# 3 -0.002649 -0.002705 0.014846 0.002685 -0.002107 -0.008228
# 4 -0.002530 -0.003840 0.002685 0.024447 0.001980 -0.006472
# 5 -0.003412 0.002790 -0.002107 0.001980 0.029700 -0.003272
# 6 0.003482 0.003052 -0.008228 -0.006472 -0.003272 0.045157
#
#
# Mechanical properties :
#
#
# Convention : Reuss Voigt Hill
#
# Bulk Modulus (GPa) = 42.86246 45.36256 44.11251
# Shear Modulus (GPa) = 31.23611 36.63121 33.93366
#
# Velocity S-wave (km/s) = 3.67740 3.98234 3.83290
# Velocity P-wave (km/s) = 6.04879 6.38628 6.21982
#
# Compressibility (1/GPa) = 0.02333044
#
# Stress axis : x y z
#
# Youngs Moduli (GPa) = 87.56568 84.07888 67.35595
#
# Poissons Ratio (x) = 0.17330 0.17842
# Poissons Ratio (y) = 0.18048 0.18219
# Poissons Ratio (z) = 0.23195 0.22742
#
# Static dielectric constant tensor:
#      x y z
#    x 1.898120 -0.002810 -0.036850 
#    y -0.002810 1.929740 0.048580 
#    z -0.036850 0.048580 1.903240 
# 
# From -- ./inp_files/452253.got.cif
#   From: 2010.05.17/outbox.cif.g08.bks.cpg/sg2_227_cif.got.tgz:452253.got - 2010.06.03 11:33:40.
