data_PCOD9049495
_publ_section_title
;
Structure prediction by ZEFSAII (Michael W. Deem and Ramdas Pophale) SiO2 
 PCOD9049495
Probable space group: P -1
;
_chemical_formula_sum "Si O2"
_cell_formula_units_Z 11
_cell_length_a 11.274137
_cell_length_b 8.495372
_cell_length_c 14.630521
_cell_angle_alpha 52.216988
_cell_angle_beta 151.039017
_cell_angle_gamma 108.493049
_cell_volume 439.899626
_symmetry_space_group_name_H-M "P -1"
_symmetry_group_IT_number 2
_symmetry_cell_setting 'triclinic'
loop_
_space_group_symop_operation_xyz
x,y,z
-x,-y,-z
loop_
_atom_site_type_symbol
_atom_site_label
_atom_site_fract_x
_atom_site_fract_y
_atom_site_fract_z
Si Si1 0.623077 0.774378 0.421753
Si Si2 0.752998 0.953766 0.757507
Si Si3 0.769575 0.346274 0.544801
Si Si4 0.227265 0.480795 0.003094
Si Si5 0.607322 0.851691 0.032207
Si Si6 0.500000 0.500000 0.000000
O O1 0.383260 0.884962 0.300678
O O2 0.700278 0.525317 0.518102
O O3 0.917594 0.733722 0.682130
O O4 0.529133 0.950138 0.210363
O O5 0.898166 0.071488 0.761102
O O6 0.500000 0.000000 0.500000
O O7 0.885220 0.681740 0.975396
O O8 0.463709 0.454351 0.244477
O O9 0.033452 0.318029 0.672926
O O10 0.387338 0.393072 0.043454
O O11 0.487161 0.685080 0.999499
O O12 0.500000 0.000000 0.000000
#
# Coordination Sequence:
#
# PCOD9049495 Si02
#       6
#     2   2   2   2   2   1
#     4  12  24  48  75 112 145 205 244 315 388 435
#     4  10  24  46  75 111 152 195 250 309 382 456
#     4  11  26  49  74 112 155 193 258 309 376 464
#     4  11  26  45  76 108 148 200 252 309 376 454
#     4  12  29  50  78 112 154 208 255 314 381 455
#     4  12  24  50  72 104 154 194 256 306 370 450
#
# _framework density 25.005703
#
# number of rings (size 3 to 8) (size 9 to 14) (size 15 to 20)
#    0.000    0.727    3.636    1.636    2.545   15.273 
#    0.000    0.000    0.000    0.000    0.000    0.000 
#    0.000    0.000    0.000    0.000    0.000    0.000 
#
# Total GULP energy -61331.013564 kJ/mol
# GULP energy per Si atom -5575.546688 kJ/mol
# Density = 2.494879 g / cm^3
# Si number density = 25.005703 Si / 1000 Ang^3
#
#
#
# Elastic Constant Matrix: (Units=GPa)
#
#
# Indices 1 2 3 4 5 6 
#
# 1 79.3938 22.4204 13.4135 1.1222 -24.6326 -5.1474
# 2 22.4204 144.4648 26.5045 0.4927 -5.0154 -4.7803
# 3 13.4135 26.5045 117.6438 31.6601 -15.4189 5.4589
# 4 1.1222 0.4927 31.6601 22.9313 0.8558 -8.5503
# 5 -24.6326 -5.0154 -15.4189 0.8558 32.3747 -8.3679
# 6 -5.1474 -4.7803 5.4589 -8.5503 -8.3679 48.7299
#
#
#
# Elastic Compliance Matrix: (Units=1/GPa)
#
#
# Indices 1 2 3 4 5 6 
#
# 1 0.017937 -0.002174 0.000161 -0.000051 0.014458 0.004137
# 2 -0.002174 0.007799 -0.003086 0.004797 -0.001672 0.001436
# 3 0.000161 -0.003086 0.017522 -0.026514 0.007228 -0.005660
# 4 -0.000051 0.004797 -0.026514 0.086813 -0.009829 0.016980
# 5 0.014458 -0.001672 0.007228 -0.009829 0.047121 0.006921
# 6 0.004137 0.001436 -0.005660 0.016980 0.006921 0.025901
#
#
# Mechanical properties :
#
#
# Convention : Reuss Voigt Hill
#
# Bulk Modulus (GPa) = 30.24731 51.79768 41.02250
# Shear Modulus (GPa) = 22.29056 39.41810 30.85433
#
# Velocity S-wave (km/s) = 2.98890 3.97465 3.51649
# Velocity P-wave (km/s) = 4.90243 6.46708 5.73833
#
# Compressibility (1/GPa) = 0.03306079
#
# Stress axis : x y z
#
# Youngs Moduli (GPa) = 55.75093 128.22494 57.06990
#
# Poissons Ratio (x) = 0.27880 -0.00921
# Poissons Ratio (y) = 0.12122 0.17610
# Poissons Ratio (z) = -0.00900 0.39567
#
# Static dielectric constant tensor:
#      x y z
#    x 1.956060 0.040230 -0.022780 
#    y 0.040230 1.934640 -0.033880 
#    z -0.022780 -0.033880 1.974250 
# 
# From -- ./inp_files/24433.got.cif
#   From: 2010.05.17/outbox.cif.g08.bks.cpg/sg2_13_cif.got.tgz:24433.got - 2010.06.03 11:33:40.
