data_PCOD9049425
_publ_section_title
;
Structure prediction by ZEFSAII (Michael W. Deem and Ramdas Pophale) SiO2 
 PCOD9049425
Probable space group: P -1
;
_chemical_formula_sum "Si O2"
_cell_formula_units_Z 16
_cell_length_a 12.287863
_cell_length_b 11.462448
_cell_length_c 5.530212
_cell_angle_alpha 87.956509
_cell_angle_beta 102.730525
_cell_angle_gamma 116.532532
_cell_volume 677.996417
_symmetry_space_group_name_H-M "P -1"
_symmetry_group_IT_number 2
_symmetry_cell_setting 'triclinic'
loop_
_space_group_symop_operation_xyz
x,y,z
-x,-y,-z
loop_
_atom_site_type_symbol
_atom_site_label
_atom_site_fract_x
_atom_site_fract_y
_atom_site_fract_z
Si Si1 0.893644 0.566652 0.752277
Si Si2 0.458104 0.618834 0.666452
Si Si3 0.687503 0.059024 0.013352
Si Si4 0.653344 0.538242 0.876679
Si Si5 0.899858 0.981042 0.156800
Si Si6 0.557356 0.116046 0.326029
Si Si7 0.869828 0.294053 0.820747
Si Si8 0.956869 0.784438 0.411714
O O1 0.798175 0.573904 0.902813
O O2 0.863116 0.418356 0.690162
O O3 0.883812 0.647967 0.517852
O O4 0.036563 0.641667 0.909926
O O5 0.600748 0.644859 0.797378
O O6 0.414611 0.553812 0.384417
O O7 0.432580 0.744021 0.624644
O O8 0.387679 0.530228 0.874997
O O9 0.680025 0.116632 0.267216
O O10 0.783423 0.001008 0.019892
O O11 0.736343 0.184164 0.850670
O O12 0.553632 0.938185 0.922355
O O13 0.865932 0.837224 0.247517
O O14 0.966585 0.098181 0.372632
O O15 0.000000 0.000000 0.000000
O O16 0.500000 0.000000 0.500000
O O17 0.943112 0.231433 0.709254
#
# Coordination Sequence:
#
# PCOD9049425 Si02
#       8
#     2   2   2   2   2   2   2   2
#     4  11  24  40  68 102 135 180 228 283 350 419
#     4  10  24  48  71 101 140 182 241 289 359 408
#     4  11  25  46  65 101 136 181 230 288 354 417
#     4  10  24  46  74 101 139 187 230 301 346 423
#     4  11  23  43  67  93 139 180 222 283 341 417
#     4  11  28  43  73 100 132 186 236 292 354 422
#     4  11  24  43  65  97 143 174 229 282 350 419
#     4  11  23  40  66 101 132 183 227 271 353 416
#
# _framework density 23.598945000000001
#
# number of rings (size 3 to 8) (size 9 to 14) (size 15 to 20)
#    0.000    1.250    2.500    1.125    8.750    3.000 
#    2.250    0.000    0.000    0.000    0.000    0.000 
#    0.000    0.000    0.000    0.000    0.000    0.000 
#
# Total GULP energy -89357.415414 kJ/mol
# GULP energy per Si atom -5584.838463 kJ/mol
# Density = 2.354523 g / cm^3
# Si number density = 23.598945 Si / 1000 Ang^3
#
#
#
# Elastic Constant Matrix: (Units=GPa)
#
#
# Indices 1 2 3 4 5 6 
#
# 1 94.6193 31.0275 1.0198 -2.1705 -8.0813 -23.0747
# 2 31.0275 102.8070 29.2529 -18.4979 4.5027 -39.3454
# 3 1.0198 29.2529 66.9315 -5.4955 -12.6374 -20.7627
# 4 -2.1705 -18.4979 -5.4955 42.7783 -2.8552 13.6774
# 5 -8.0813 4.5027 -12.6374 -2.8552 41.7361 2.5497
# 6 -23.0747 -39.3454 -20.7627 13.6774 2.5497 45.5560
#
#
#
# Elastic Compliance Matrix: (Units=1/GPa)
#
#
# Indices 1 2 3 4 5 6 
#
# 1 0.013302 -0.003262 0.003567 -0.001940 0.003513 0.005932
# 2 -0.003262 0.016523 -0.004677 0.002951 -0.004229 0.009838
# 3 0.003567 -0.004677 0.020292 -0.000993 0.006848 0.006931
# 4 -0.001940 0.002951 -0.000993 0.026744 0.001262 -0.006987
# 5 0.003513 -0.004229 0.006848 0.001262 0.027297 -0.000659
# 6 0.005932 0.009838 0.006931 -0.006987 -0.000659 0.038745
#
#
# Mechanical properties :
#
#
# Convention : Reuss Voigt Hill
#
# Bulk Modulus (GPa) = 24.16992 42.99537 33.58264
# Shear Modulus (GPa) = 30.22275 39.55126 34.88700
#
# Velocity S-wave (km/s) = 3.58254 4.09831 3.84908
# Velocity P-wave (km/s) = 5.23230 6.37602 5.83226
#
# Compressibility (1/GPa) = 0.04137374
#
# Stress axis : x y z
#
# Youngs Moduli (GPa) = 75.17628 60.52008 49.28134
#
# Poissons Ratio (x) = 0.19744 -0.17579
# Poissons Ratio (y) = 0.24525 0.23046
# Poissons Ratio (z) = -0.26817 0.28302
#
# Static dielectric constant tensor:
#      x y z
#    x 1.944890 0.014900 0.033600 
#    y 0.014900 1.904630 0.032800 
#    z 0.033600 0.032800 2.028330 
# 
# From -- ./inp_files/70592.got.cif
#   From: 2010.05.17/outbox.cif.g08.bks.cpg/sg2_36_cif.got.tgz:70592.got - 2010.06.03 11:33:40.
