data_PCOD9049067
_publ_section_title
;
Structure prediction by ZEFSAII (Michael W. Deem and Ramdas Pophale) SiO2 
 PCOD9049067
Probable space group: P -1
;
_chemical_formula_sum "Si O2"
_cell_formula_units_Z 15
_cell_length_a 17.558040
_cell_length_b 9.427006
_cell_length_c 5.077628
_cell_angle_alpha 77.536020
_cell_angle_beta 61.107283
_cell_angle_gamma 59.236218
_cell_volume 631.741728
_symmetry_space_group_name_H-M "P -1"
_symmetry_group_IT_number 2
_symmetry_cell_setting 'triclinic'
loop_
_space_group_symop_operation_xyz
x,y,z
-x,-y,-z
loop_
_atom_site_type_symbol
_atom_site_label
_atom_site_fract_x
_atom_site_fract_y
_atom_site_fract_z
Si Si1 0.181288 0.473553 0.818654
Si Si2 0.564029 0.323729 0.726979
Si Si3 0.890024 0.629619 0.532396
Si Si4 0.942933 0.155019 0.223903
Si Si5 0.500000 0.000000 0.500000
Si Si6 0.400335 0.380183 0.333264
Si Si7 0.127073 0.060844 0.307567
Si Si8 0.340736 0.903403 0.841745
O O1 0.130359 0.411875 0.708513
O O2 0.114733 0.670254 0.887768
O O3 0.285069 0.443131 0.535576
O O4 0.183036 0.390378 0.127609
O O5 0.571273 0.490897 0.624978
O O6 0.614777 0.200526 0.454324
O O7 0.451778 0.362181 0.967069
O O8 0.626205 0.224247 0.919686
O O9 0.874480 0.814123 0.517411
O O10 0.000000 0.500000 0.500000
O O11 0.024606 0.155015 0.283649
O O12 0.870349 0.105394 0.522478
O O13 0.000000 0.000000 0.000000
O O14 0.545594 0.804405 0.573134
O O15 0.389018 0.023102 0.743812
O O16 0.223163 0.006936 0.992185
#
# Coordination Sequence:
#
# PCOD9049067 Si02
#       8
#     2   2   2   2   1   2   2   2
#     4  12  27  45  77 104 145 193 244 285 366 428
#     4  10  25  46  71 101 146 178 239 289 360 419
#     4  12  26  48  68 103 147 191 235 299 352 427
#     4  11  26  45  70 106 145 188 241 303 343 432
#     4  10  24  46  68 104 142 172 240 288 354 410
#     4  10  24  46  73 106 139 191 231 302 352 430
#     4  11  26  43  71 103 144 190 239 293 361 417
#     4  11  25  45  72 104 141 191 230 296 353 432
#
# _framework density 23.743881999999999
#
# number of rings (size 3 to 8) (size 9 to 14) (size 15 to 20)
#    0.000    1.067    1.333    2.800    7.467   12.267 
#    0.000    0.000    0.000    0.000    0.000    0.000 
#    0.000    0.000    0.000    0.000    0.000    0.000 
#
# Total GULP energy -83767.689408 kJ/mol
# GULP energy per Si atom -5584.512627 kJ/mol
# Density = 2.368984 g / cm^3
# Si number density = 23.743882 Si / 1000 Ang^3
#
#
#
# Elastic Constant Matrix: (Units=GPa)
#
#
# Indices 1 2 3 4 5 6 
#
# 1 42.6962 24.0537 34.8311 -2.6498 -19.2647 9.6832
# 2 24.0537 132.5148 28.8867 -18.8375 -8.0359 4.8121
# 3 34.8311 28.8867 109.4550 8.1881 -23.7299 3.2998
# 4 -2.6498 -18.8375 8.1881 46.8226 6.6888 -2.8263
# 5 -19.2647 -8.0359 -23.7299 6.6888 53.4836 -5.0028
# 6 9.6832 4.8121 3.2998 -2.8263 -5.0028 11.3518
#
#
#
# Elastic Compliance Matrix: (Units=1/GPa)
#
#
# Indices 1 2 3 4 5 6 
#
# 1 0.044760 -0.004327 -0.010420 -0.000344 0.008101 -0.029832
# 2 -0.004327 0.009146 -0.001645 0.003956 -0.001345 0.000684
# 3 -0.010420 -0.001645 0.013651 -0.003714 0.003087 0.006053
# 4 -0.000344 0.003956 -0.003714 0.024374 -0.003845 0.004070
# 5 0.008101 -0.001345 0.003087 -0.003845 0.023465 0.002146
# 6 -0.029832 0.000684 0.006053 0.004070 0.002146 0.113449
#
#
# Mechanical properties :
#
#
# Convention : Reuss Voigt Hill
#
# Bulk Modulus (GPa) = 28.75877 51.13435 39.94656
# Shear Modulus (GPa) = 18.30033 35.45790 26.87912
#
# Velocity S-wave (km/s) = 2.77923 3.86858 3.36824
# Velocity P-wave (km/s) = 4.73679 6.44493 5.65572
#
# Compressibility (1/GPa) = 0.03477201
#
# Stress axis : x y z
#
# Youngs Moduli (GPa) = 22.34156 109.33337 73.25577
#
# Poissons Ratio (x) = 0.47314 0.76332
# Poissons Ratio (y) = 0.09668 0.12050
# Poissons Ratio (z) = 0.23280 0.17984
#
# Static dielectric constant tensor:
#      x y z
#    x 1.898030 -0.013580 -0.006430 
#    y -0.013580 1.856680 -0.008000 
#    z -0.006430 -0.008000 1.950240 
# 
# From -- ./inp_files/104858.got.cif
#   From: 2010.05.17/outbox.cif.g08.bks.cpg/sg2_53_cif.got.tgz:104858.got - 2010.06.03 11:33:40.
