data_PCOD9049534
_publ_section_title
;
Structure prediction by ZEFSAII (Michael W. Deem and Ramdas Pophale) SiO2 
 PCOD9049534
Probable space group: P -1
;
_chemical_formula_sum "Si O2"
_cell_formula_units_Z 16
_cell_length_a 5.820657
_cell_length_b 18.085510
_cell_length_c 9.000701
_cell_angle_alpha 52.766220
_cell_angle_beta 58.345581
_cell_angle_gamma 62.487537
_cell_volume 627.398971
_symmetry_space_group_name_H-M "P -1"
_symmetry_group_IT_number 2
_symmetry_cell_setting 'triclinic'
loop_
_space_group_symop_operation_xyz
x,y,z
-x,-y,-z
loop_
_atom_site_type_symbol
_atom_site_label
_atom_site_fract_x
_atom_site_fract_y
_atom_site_fract_z
Si Si1 0.346169 0.687340 0.582366
Si Si2 0.061751 0.973270 0.750890
Si Si3 0.893180 0.752527 0.484513
Si Si4 0.514166 0.343894 0.106294
Si Si5 0.747453 0.508147 0.187427
Si Si6 0.135500 0.399362 0.661463
Si Si7 0.852058 0.235408 0.924362
Si Si8 0.536874 0.057519 0.636821
O O1 0.307622 0.668887 0.790012
O O2 0.298380 0.593095 0.628557
O O3 0.656237 0.672635 0.432729
O O4 0.102662 0.774686 0.513643
O O5 0.259432 0.960969 0.552685
O O6 0.267359 0.009530 0.757559
O O7 0.018889 0.871264 0.946672
O O8 0.751677 0.026968 0.738004
O O9 0.769978 0.667842 0.700826
O O10 0.620978 0.832280 0.442783
O O11 0.104406 0.745539 0.284066
O O12 0.490124 0.440810 0.906738
O O13 0.552121 0.259822 0.072140
O O14 0.755463 0.567994 0.260198
O O15 0.000000 0.500000 0.000000
O O16 0.000000 0.500000 0.500000
O O17 0.956391 0.322045 0.862376
#
# Coordination Sequence:
#
# PCOD9049534 Si02
#       8
#     2   2   2   2   2   2   2   2
#     4  12  25  45  72  99 148 197 246 314 375 444
#     4  10  24  46  77 110 148 199 250 309 387 461
#     4  12  26  46  72 107 146 187 247 310 376 445
#     4  12  25  46  68 104 143 190 247 306 368 445
#     4  12  23  42  67 101 141 196 245 302 372 442
#     4  12  25  45  72 108 152 193 250 311 370 447
#     4  12  26  46  74 109 142 198 246 301 378 459
#     4  10  24  47  76 110 152 193 248 322 383 449
#
# _framework density 25.502115
#
# number of rings (size 3 to 8) (size 9 to 14) (size 15 to 20)
#    0.000    0.500    3.750    4.500    1.750    4.000 
#    0.000    0.000    0.000    0.000    0.000    0.000 
#    0.000    0.000    0.000    0.000    0.000    0.000 
#
# Total GULP energy -89093.958625 kJ/mol
# GULP energy per Si atom -5568.372414 kJ/mol
# Density = 2.544407 g / cm^3
# Si number density = 25.502115 Si / 1000 Ang^3
#
#
#
# Elastic Constant Matrix: (Units=GPa)
#
#
# Indices 1 2 3 4 5 6 
#
# 1 111.5484 32.3269 45.7542 -10.2299 27.8318 -12.8903
# 2 32.3269 58.3117 22.7117 1.3046 11.0273 -11.3376
# 3 45.7542 22.7117 96.0696 -10.6562 23.8650 -5.1871
# 4 -10.2299 1.3046 -10.6562 51.5616 5.4655 -4.7447
# 5 27.8318 11.0273 23.8650 5.4655 33.9463 -9.4284
# 6 -12.8903 -11.3376 -5.1871 -4.7447 -9.4284 39.2497
#
#
#
# Elastic Compliance Matrix: (Units=1/GPa)
#
#
# Indices 1 2 3 4 5 6 
#
# 1 0.014103 -0.004913 -0.003165 0.003224 -0.007904 0.001285
# 2 -0.004913 0.021768 -0.002886 -0.001783 0.000435 0.004182
# 3 -0.003165 -0.002886 0.014812 0.003203 -0.007785 -0.001398
# 4 0.003224 -0.001783 0.003203 0.021684 -0.007298 0.001835
# 5 -0.007904 0.000435 -0.007785 -0.007298 0.044176 0.006231
# 6 0.001285 0.004182 -0.001398 0.001835 0.006231 0.028642
#
#
# Mechanical properties :
#
#
# Convention : Reuss Voigt Hill
#
# Bulk Modulus (GPa) = 34.77640 51.94612 43.36126
# Shear Modulus (GPa) = 28.29688 35.96063 32.12876
#
# Velocity S-wave (km/s) = 3.33466 3.75921 3.55328
# Velocity P-wave (km/s) = 5.33788 6.26544 5.82017
#
# Compressibility (1/GPa) = 0.02875513
#
# Stress axis : x y z
#
# Youngs Moduli (GPa) = 70.90695 45.93913 67.51118
#
# Poissons Ratio (x) = 0.22572 0.21365
# Poissons Ratio (y) = 0.34839 0.19484
# Poissons Ratio (z) = 0.22439 0.13259
#
# Static dielectric constant tensor:
#      x y z
#    x 2.541640 -0.167160 -0.132460 
#    y -0.167160 2.264300 0.111660 
#    z -0.132460 0.111660 1.993160 
# 
# From -- ./inp_files/141089.got.cif
#   From: 2010.05.17/outbox.cif.g08.bks.cpg/sg2_71_cif.got.tgz:141089.got - 2010.06.03 11:33:40.
