data_PCOD9049020
_publ_section_title
;
Structure prediction by ZEFSAII (Michael W. Deem and Ramdas Pophale) SiO2 
 PCOD9049020
Probable space group: P -1
;
_chemical_formula_sum "Si O2"
_cell_formula_units_Z 15
_cell_length_a 8.459803
_cell_length_b 16.568059
_cell_length_c 9.873747
_cell_angle_alpha 44.242847
_cell_angle_beta 124.432198
_cell_angle_gamma 132.736471
_cell_volume 700.657453
_symmetry_space_group_name_H-M "P -1"
_symmetry_group_IT_number 2
_symmetry_cell_setting 'triclinic'
loop_
_space_group_symop_operation_xyz
x,y,z
-x,-y,-z
loop_
_atom_site_type_symbol
_atom_site_label
_atom_site_fract_x
_atom_site_fract_y
_atom_site_fract_z
Si Si1 0.558690 0.330591 0.108720
Si Si2 0.000000 0.000000 0.500000
Si Si3 0.951830 0.793364 0.932797
Si Si4 0.757050 0.527150 0.464713
Si Si5 0.508322 0.917268 0.476304
Si Si6 0.546917 0.701851 0.205744
Si Si7 0.333850 0.000276 0.033326
Si Si8 0.140548 0.480342 0.773277
O O1 0.303096 0.279802 0.069126
O O2 0.601550 0.229942 0.341374
O O3 0.712952 0.470357 0.081991
O O4 0.585231 0.324179 0.968486
O O5 0.996582 0.869773 0.722375
O O6 0.753701 0.955880 0.501228
O O7 0.014266 0.676658 0.104910
O O8 0.093016 0.904576 0.976409
O O9 0.728239 0.654943 0.323098
O O10 0.593440 0.401205 0.622935
O O11 0.721659 0.492855 0.329967
O O12 0.992505 0.549365 0.594423
O O13 0.385832 0.944180 0.261140
O O14 0.500000 0.000000 0.500000
O O15 0.631311 0.852517 0.106132
O O16 0.500000 0.000000 0.000000
#
# Coordination Sequence:
#
# PCOD9049020 Si02
#       8
#     2   1   2   2   2   2   2   2
#     4  11  25  44  69 102 143 183 234 293 354 422
#     4  10  24  46  66 110 142 182 238 290 368 420
#     4  11  24  44  71 106 138 188 235 287 353 431
#     4  10  25  44  71 104 137 183 239 286 349 423
#     4  11  24  46  71 104 145 188 239 297 361 431
#     4  11  24  47  67 106 140 177 235 298 351 418
#     4  12  25  45  75 102 141 190 236 294 363 433
#     4  11  24  46  73  99 137 190 234 282 353 429
#
# _framework density 21.408466000000001
#
# number of rings (size 3 to 8) (size 9 to 14) (size 15 to 20)
#    0.000    1.067    4.000    1.200    5.600    1.067 
#    7.200    0.000    0.000    0.000    0.000    0.000 
#    0.000    0.000    0.000    0.000    0.000    0.000 
#
# Total GULP energy -83540.696380 kJ/mol
# GULP energy per Si atom -5569.379759 kJ/mol
# Density = 2.135974 g / cm^3
# Si number density = 21.408466 Si / 1000 Ang^3
#
#
#
# Elastic Constant Matrix: (Units=GPa)
#
#
# Indices 1 2 3 4 5 6 
#
# 1 51.3732 36.2488 23.5952 -9.5225 9.6050 -17.7790
# 2 36.2488 144.0232 49.3483 0.1192 9.2112 -15.4420
# 3 23.5952 49.3483 145.5559 -29.4294 -4.0744 -12.8141
# 4 -9.5225 0.1192 -29.4294 28.0279 -0.2748 7.0810
# 5 9.6050 9.2112 -4.0744 -0.2748 36.1337 -8.3038
# 6 -17.7790 -15.4420 -12.8141 7.0810 -8.3038 19.6080
#
#
#
# Elastic Compliance Matrix: (Units=1/GPa)
#
#
# Indices 1 2 3 4 5 6 
#
# 1 0.032584 -0.005507 -0.000531 0.004916 -0.002188 0.022159
# 2 -0.005507 0.009850 -0.003527 -0.006204 -0.000966 0.002291
# 3 -0.000531 -0.003527 0.010437 0.010622 0.002476 0.000774
# 4 0.004916 -0.006204 0.010622 0.051700 -0.001028 -0.012592
# 5 -0.002188 -0.000966 0.002476 -0.001028 0.031684 0.012663
# 6 0.022159 0.002291 0.000774 -0.012592 0.012663 0.083311
#
#
# Mechanical properties :
#
#
# Convention : Reuss Voigt Hill
#
# Bulk Modulus (GPa) = 29.63740 62.14857 45.89298
# Shear Modulus (GPa) = 20.00442 32.20457 26.10450
#
# Velocity S-wave (km/s) = 3.06014 3.88273 3.49571
# Velocity P-wave (km/s) = 5.13418 7.01382 6.14628
#
# Compressibility (1/GPa) = 0.03374115
#
# Stress axis : x y z
#
# Youngs Moduli (GPa) = 30.68965 101.51975 95.81218
#
# Poissons Ratio (x) = 0.55910 0.05091
# Poissons Ratio (y) = 0.16902 0.33789
# Poissons Ratio (z) = 0.01631 0.35802
#
# Static dielectric constant tensor:
#      x y z
#    x 1.816780 -0.080640 0.058480 
#    y -0.080640 0.880710 0.431500 
#    z 0.058480 0.431500 1.578790 
# 
# From -- ./inp_files/177602.got.cif
#   From: 2010.05.17/outbox.cif.g08.bks.cpg/sg2_89_cif.got.tgz:177602.got - 2010.06.03 11:33:40.
