data_PCOD9049863
_publ_section_title
;
Structure prediction by ZEFSAII (Michael W. Deem and Ramdas Pophale) SiO2 
 PCOD9049863
Probable space group: P -1
;
_chemical_formula_sum "Si O2"
_cell_formula_units_Z 14
_cell_length_a 9.496612
_cell_length_b 14.027471
_cell_length_c 5.132536
_cell_angle_alpha 55.810051
_cell_angle_beta 86.497659
_cell_angle_gamma 78.620354
_cell_volume 553.397165
_symmetry_space_group_name_H-M "P -1"
_symmetry_group_IT_number 2
_symmetry_cell_setting 'triclinic'
loop_
_space_group_symop_operation_xyz
x,y,z
-x,-y,-z
loop_
_atom_site_type_symbol
_atom_site_label
_atom_site_fract_x
_atom_site_fract_y
_atom_site_fract_z
Si Si1 0.905477 0.868919 0.929911
Si Si2 0.555053 0.359537 0.691570
Si Si3 0.296606 0.275029 0.601553
Si Si4 0.745899 0.292421 0.264689
Si Si5 0.168041 0.911323 0.057608
Si Si6 0.904647 0.488971 0.783572
Si Si7 0.348243 0.045184 0.584943
O O1 0.791583 0.927287 0.634998
O O2 0.886694 0.954258 0.052831
O O3 0.842348 0.756203 0.186806
O O4 0.077035 0.861468 0.919295
O O5 0.500000 0.500000 0.500000
O O6 0.427369 0.292187 0.740361
O O7 0.667752 0.345716 0.460099
O O8 0.625570 0.305528 0.035471
O O9 0.234965 0.407461 0.314371
O O10 0.344246 0.165427 0.566297
O O11 0.822404 0.168358 0.566802
O O12 0.855555 0.366098 0.016396
O O13 0.323983 0.930414 0.923158
O O14 0.000000 0.500000 0.500000
O O15 0.000000 0.500000 0.000000
O O16 0.500000 0.000000 0.500000
#
# Coordination Sequence:
#
# PCOD9049863 Si02
#       7
#     2   2   2   2   2   2   2
#     4  10  24  47  77 108 162 213 270 338 413 485
#     4  12  28  50  78 118 165 217 268 340 425 492
#     4  11  28  48  78 115 164 213 276 343 418 492
#     4  12  28  49  82 117 161 215 271 345 416 502
#     4  10  25  49  72 119 157 217 271 341 412 493
#     4  12  28  51  81 117 161 212 280 340 417 501
#     4  11  27  48  82 120 164 221 279 344 418 502
#
# _framework density 25.298286000000001
#
# number of rings (size 3 to 8) (size 9 to 14) (size 15 to 20)
#    0.000    0.857    1.429    2.571   10.000    1.143 
#    0.000    2.143    3.143    0.000    0.000    0.000 
#    0.000    0.000    0.000    0.000    0.000    0.000 
#
# Total GULP energy -78233.767079 kJ/mol
# GULP energy per Si atom -5588.126220 kJ/mol
# Density = 2.524071 g / cm^3
# Si number density = 25.298286 Si / 1000 Ang^3
#
#
#
# Elastic Constant Matrix: (Units=GPa)
#
#
# Indices 1 2 3 4 5 6 
#
# 1 120.8594 55.9723 63.2416 6.0000 1.9710 29.2825
# 2 55.9723 136.2266 46.5684 -0.1781 -0.3370 9.6600
# 3 63.2416 46.5684 144.8468 8.6386 -5.5576 7.4829
# 4 6.0000 -0.1781 8.6386 51.8991 8.6101 -1.5906
# 5 1.9710 -0.3370 -5.5576 8.6101 66.6269 1.0372
# 6 29.2825 9.6600 7.4829 -1.5906 1.0372 52.3836
#
#
#
# Elastic Compliance Matrix: (Units=1/GPa)
#
#
# Indices 1 2 3 4 5 6 
#
# 1 0.014027 -0.003750 -0.004546 -0.000981 -0.000585 -0.006518
# 2 -0.003750 0.009332 -0.001441 0.000735 -0.000066 0.000605
# 3 -0.004546 -0.001441 0.009389 -0.001171 0.001040 0.001410
# 4 -0.000981 0.000735 -0.001171 0.020061 -0.002677 0.001242
# 5 -0.000585 -0.000066 0.001040 -0.002677 0.015462 -0.000197
# 6 -0.006518 0.000605 0.001410 0.001242 -0.000197 0.022462
#
#
# Mechanical properties :
#
#
# Convention : Reuss Voigt Hill
#
# Bulk Modulus (GPa) = 75.33088 81.49970 78.41529
# Shear Modulus (GPa) = 43.61840 49.92529 46.77185
#
# Velocity S-wave (km/s) = 4.15681 4.44719 4.30445
# Velocity P-wave (km/s) = 7.27190 7.65868 7.46779
#
# Compressibility (1/GPa) = 0.01327477
#
# Stress axis : x y z
#
# Youngs Moduli (GPa) = 71.29118 107.16050 106.51046
#
# Poissons Ratio (x) = 0.40183 0.48419
# Poissons Ratio (y) = 0.26733 0.15344
# Poissons Ratio (z) = 0.32409 0.15437
#
# Static dielectric constant tensor:
#      x y z
#    x 2.281370 -0.194240 -0.030230 
#    y -0.194240 2.060970 0.012120 
#    z -0.030230 0.012120 1.998920 
# 
# From -- ./inp_files/36746.got.cif
#   From: 2010.05.17/outbox.cif.g08.bks.cpg/sg2_19_cif.got.tgz:36746.got - 2010.06.03 11:33:40.
