data_PCOD9049840
_publ_section_title
;
Structure prediction by ZEFSAII (Michael W. Deem and Ramdas Pophale) SiO2 
 PCOD9049840
Probable space group: P -1
;
_chemical_formula_sum "Si O2"
_cell_formula_units_Z 12
_cell_length_a 4.801856
_cell_length_b 10.428715
_cell_length_c 10.409066
_cell_angle_alpha 107.467724
_cell_angle_beta 101.026899
_cell_angle_gamma 67.623327
_cell_volume 458.024411
_symmetry_space_group_name_H-M "P -1"
_symmetry_group_IT_number 2
_symmetry_cell_setting 'triclinic'
loop_
_space_group_symop_operation_xyz
x,y,z
-x,-y,-z
loop_
_atom_site_type_symbol
_atom_site_label
_atom_site_fract_x
_atom_site_fract_y
_atom_site_fract_z
Si Si1 0.725919 0.481247 0.136037
Si Si2 0.911819 0.217244 0.486992
Si Si3 0.307490 0.944190 0.364580
Si Si4 0.243212 0.233737 0.863377
Si Si5 0.854126 0.169130 0.007006
Si Si6 0.690773 0.598033 0.439241
O O1 0.874856 0.601258 0.145277
O O2 0.598691 0.535906 0.282714
O O3 0.500000 0.500000 0.000000
O O4 0.903644 0.310577 0.116642
O O5 0.833830 0.152857 0.592976
O O6 0.590215 0.340492 0.470554
O O7 0.179608 0.277383 0.550505
O O8 0.027319 0.091533 0.354703
O O9 0.534736 0.873726 0.250064
O O10 0.500000 0.000000 0.500000
O O11 0.491915 0.213948 0.992613
O O12 0.978742 0.185491 0.880202
O O13 0.000000 0.000000 0.000000
O O14 0.000000 0.500000 0.500000
#
# Coordination Sequence:
#
# PCOD9049840 Si02
#       6
#     2   2   2   2   2   2
#     4  10  24  47  76 107 144 200 259 313 370 460
#     4  11  24  43  68 108 149 193 249 306 377 448
#     4  11  23  41  74 106 145 186 253 313 367 441
#     4  11  24  43  74 100 139 192 248 306 365 449
#     4  11  26  46  67 104 143 185 244 312 381 440
#     4  12  26  46  72 107 157 200 248 310 390 455
#
# _framework density 26.199477999999999
#
# number of rings (size 3 to 8) (size 9 to 14) (size 15 to 20)
#    0.000    1.000    3.333    1.500    7.000    4.000 
#    0.000    1.667    0.000    0.000    0.000    0.000 
#    0.000    0.000    0.000    0.000    0.000    0.000 
#
# Total GULP energy -66972.986183 kJ/mol
# GULP energy per Si atom -5581.082182 kJ/mol
# Density = 2.613985 g / cm^3
# Si number density = 26.199478 Si / 1000 Ang^3
#
#
#
# Elastic Constant Matrix: (Units=GPa)
#
#
# Indices 1 2 3 4 5 6 
#
# 1 139.5165 15.0956 23.1183 16.5461 -15.8389 0.9515
# 2 15.0956 178.9444 37.5365 32.3825 -9.8208 -14.4768
# 3 23.1183 37.5365 87.7120 35.6288 -19.9552 1.9505
# 4 16.5461 32.3825 35.6288 41.2397 -14.3284 -10.0922
# 5 -15.8389 -9.8208 -19.9552 -14.3284 37.2330 2.4425
# 6 0.9515 -14.4768 1.9505 -10.0922 2.4425 52.5261
#
#
#
# Elastic Compliance Matrix: (Units=1/GPa)
#
#
# Indices 1 2 3 4 5 6 
#
# 1 0.007770 -0.000103 -0.000782 -0.001726 0.002233 -0.000576
# 2 -0.000103 0.006658 -0.001403 -0.003904 -0.000619 0.001168
# 3 -0.000782 -0.001403 0.019254 -0.014766 0.004204 -0.004120
# 4 -0.001726 -0.003904 -0.014766 0.045185 0.007196 0.007851
# 5 0.002233 -0.000619 0.004204 0.007196 0.032700 -0.000505
# 6 -0.000576 0.001168 -0.004120 0.007851 -0.000505 0.021055
#
#
# Mechanical properties :
#
#
# Convention : Reuss Voigt Hill
#
# Bulk Modulus (GPa) = 34.35748 61.96374 48.16061
# Shear Modulus (GPa) = 34.03650 48.22794 41.13222
#
# Velocity S-wave (km/s) = 3.60825 4.29511 3.96657
# Velocity P-wave (km/s) = 5.52282 6.94977 6.27698
#
# Compressibility (1/GPa) = 0.02910574
#
# Stress axis : x y z
#
# Youngs Moduli (GPa) = 128.69248 150.18736 51.93813
#
# Poissons Ratio (x) = 0.01549 0.04061
# Poissons Ratio (y) = 0.01327 0.07288
# Poissons Ratio (z) = 0.10063 0.21075
#
# Static dielectric constant tensor:
#      x y z
#    x 2.051620 -0.120020 0.033970 
#    y -0.120020 2.350670 0.007270 
#    z 0.033970 0.007270 2.164390 
# 
# From -- ./inp_files/360411.got.cif
#   From: 2010.05.17/outbox.cif.g08.bks.cpg/sg2_181_cif.got.tgz:360411.got - 2010.06.03 11:33:40.
