data_PCOD9049419
_publ_section_title
;
Structure prediction by ZEFSAII (Michael W. Deem and Ramdas Pophale) SiO2 
 PCOD9049419
Probable space group: P -1
;
_chemical_formula_sum "Si O2"
_cell_formula_units_Z 12
_cell_length_a 8.024978
_cell_length_b 15.959801
_cell_length_c 15.205046
_cell_angle_alpha 154.599002
_cell_angle_beta 34.601423
_cell_angle_gamma 141.339815
_cell_volume 468.764121
_symmetry_space_group_name_H-M "P -1"
_symmetry_group_IT_number 2
_symmetry_cell_setting 'triclinic'
loop_
_space_group_symop_operation_xyz
x,y,z
-x,-y,-z
loop_
_atom_site_type_symbol
_atom_site_label
_atom_site_fract_x
_atom_site_fract_y
_atom_site_fract_z
Si Si1 0.872154 0.621624 0.399192
Si Si2 0.312456 0.982102 0.473776
Si Si3 0.126818 0.406008 0.943092
Si Si4 0.622087 0.137365 0.155807
Si Si5 0.211819 0.422199 0.189382
Si Si6 0.672866 0.888165 0.055565
O O1 0.546440 0.674496 0.594084
O O2 0.038999 0.596435 0.395797
O O3 0.054640 0.802938 0.437399
O O4 0.910676 0.435396 0.145195
O O5 0.183083 0.181983 0.696435
O O6 0.500000 0.000000 0.500000
O O7 0.512053 0.933956 0.258981
O O8 0.455482 0.518468 0.934923
O O9 0.000000 0.500000 0.000000
O O10 0.971511 0.228834 0.085213
O O11 0.518489 0.994978 0.147858
O O12 0.500000 0.000000 0.000000
O O13 0.294019 0.345759 0.178537
O O14 0.000000 0.000000 0.000000
#
# Coordination Sequence:
#
# PCOD9049419 Si02
#       6
#     2   2   2   2   2   2
#     4  12  26  47  76 113 153 194 270 312 368 483
#     4  12  25  46  83 113 153 208 250 319 398 439
#     4  12  27  44  77 112 151 198 253 320 385 447
#     4  11  28  48  78 109 157 210 252 318 394 447
#     4  11  24  49  70 109 155 194 255 318 370 470
#     4  10  24  46  73 112 155 196 262 313 371 472
#
# _framework density 25.599229999999999
#
# number of rings (size 3 to 8) (size 9 to 14) (size 15 to 20)
#    0.000    0.667    3.333    3.000    9.333    1.333 
#    0.000   11.667    0.000    0.000    0.000    0.000 
#    0.000    0.000    0.000    0.000    0.000    0.000 
#
# Total GULP energy -66978.668071 kJ/mol
# GULP energy per Si atom -5581.555673 kJ/mol
# Density = 2.554096 g / cm^3
# Si number density = 25.599230 Si / 1000 Ang^3
#
#
#
# Elastic Constant Matrix: (Units=GPa)
#
#
# Indices 1 2 3 4 5 6 
#
# 1 128.2841 60.8402 51.8545 -7.5004 -30.0128 -27.0039
# 2 60.8402 138.8961 50.2579 17.7846 -9.5160 -26.2645
# 3 51.8545 50.2579 130.2914 8.2570 -39.9377 -12.7795
# 4 -7.5004 17.7846 8.2570 38.7846 -12.2665 -22.6272
# 5 -30.0128 -9.5160 -39.9377 -12.2665 46.8128 7.6981
# 6 -27.0039 -26.2645 -12.7795 -22.6272 7.6981 80.8188
#
#
#
# Elastic Compliance Matrix: (Units=1/GPa)
#
#
# Indices 1 2 3 4 5 6 
#
# 1 0.015407 -0.006319 -0.000794 0.012503 0.010289 0.005489
# 2 -0.006319 0.011788 -0.003665 -0.008337 -0.006878 -0.000539
# 3 -0.000794 -0.003665 0.012271 0.002074 0.009735 0.000137
# 4 0.012503 -0.008337 0.002074 0.044512 0.017686 0.012574
# 5 0.010289 -0.006878 0.009735 0.017686 0.038843 0.003994
# 6 0.005489 -0.000539 0.000137 0.012574 0.003994 0.017194
#
#
# Mechanical properties :
#
#
# Convention : Reuss Voigt Hill
#
# Bulk Modulus (GPa) = 55.83694 80.37520 68.10607
# Shear Modulus (GPa) = 29.84347 48.91785 39.38066
#
# Velocity S-wave (km/s) = 3.41808 4.37614 3.92644
# Velocity P-wave (km/s) = 6.11858 7.54982 6.87156
#
# Compressibility (1/GPa) = 0.01790929
#
# Stress axis : x y z
#
# Youngs Moduli (GPa) = 64.90644 84.83204 81.49237
#
# Poissons Ratio (x) = 0.53607 0.06473
# Poissons Ratio (y) = 0.41016 0.29865
# Poissons Ratio (z) = 0.05156 0.31089
#
# Static dielectric constant tensor:
#      x y z
#    x 2.162230 -0.108940 -0.081100 
#    y -0.108940 1.979340 -0.019290 
#    z -0.081100 -0.019290 2.009650 
# 
# From -- ./inp_files/505654.got.cif
#   From: 2010.05.17/outbox.cif.g08.bks.cpg/sg2_253_cif.got.tgz:505654.got - 2010.06.03 11:33:40.
