data_PCOD9049254
_publ_section_title
;
Structure prediction by ZEFSAII (Michael W. Deem and Ramdas Pophale) SiO2 
 PCOD9049254
Probable space group: P -1
;
_chemical_formula_sum "Si O2"
_cell_formula_units_Z 14
_cell_length_a 18.478938
_cell_length_b 7.466633
_cell_length_c 7.534770
_cell_angle_alpha 124.022804
_cell_angle_beta 119.917752
_cell_angle_gamma 93.355326
_cell_volume 659.220179
_symmetry_space_group_name_H-M "P -1"
_symmetry_group_IT_number 2
_symmetry_cell_setting 'triclinic'
loop_
_space_group_symop_operation_xyz
x,y,z
-x,-y,-z
loop_
_atom_site_type_symbol
_atom_site_label
_atom_site_fract_x
_atom_site_fract_y
_atom_site_fract_z
Si Si1 0.769816 0.163249 0.316381
Si Si2 0.746191 0.403916 0.754910
Si Si3 0.889857 0.906498 0.331594
Si Si4 0.607693 0.697819 0.274802
Si Si5 0.448443 0.906398 0.698656
Si Si6 0.241253 0.464554 0.768130
Si Si7 0.587284 0.756172 0.680407
O O1 0.772721 0.243544 0.567806
O O2 0.772117 0.382615 0.321866
O O3 0.642765 0.359266 0.543877
O O4 0.673638 0.914482 0.007861
O O5 0.857042 0.109225 0.365407
O O6 0.735364 0.364930 0.932772
O O7 0.828585 0.681781 0.999379
O O8 0.848962 0.780862 0.404986
O O9 0.000000 0.000000 0.500000
O O10 0.601899 0.934675 0.329455
O O11 0.677921 0.612337 0.222062
O O12 0.625645 0.731826 0.524666
O O13 0.500000 0.500000 0.000000
O O14 0.529160 0.912144 0.673963
O O15 0.500000 0.000000 0.000000
O O16 0.500000 0.500000 0.500000
#
# Coordination Sequence:
#
# PCOD9049254 Si02
#       7
#     2   2   2   2   2   2   2
#     4  12  24  47  76 101 146 191 231 298 366 418
#     4  10  24  46  71 103 148 178 242 295 349 428
#     4  10  26  50  77 108 140 180 242 306 363 427
#     4  12  25  40  65 101 146 190 243 286 339 426
#     4  12  22  39  64 100 140 194 231 282 347 417
#     4  10  26  47  71 105 142 187 243 291 361 428
#     4  12  26  40  66 103 144 195 245 282 345 426
#
# _framework density 21.237213000000001
#
# number of rings (size 3 to 8) (size 9 to 14) (size 15 to 20)
#    0.857    0.000    1.429    5.571    6.000    1.143 
#    0.000    0.714    0.000    0.000    0.000    0.000 
#    0.000    0.000    0.000    0.000    0.000    0.000 
#
# Total GULP energy -78124.895501 kJ/mol
# GULP energy per Si atom -5580.349679 kJ/mol
# Density = 2.118888 g / cm^3
# Si number density = 21.237213 Si / 1000 Ang^3
#
#
#
# Elastic Constant Matrix: (Units=GPa)
#
#
# Indices 1 2 3 4 5 6 
#
# 1 175.2355 55.7121 62.3510 2.6723 8.6352 -27.2997
# 2 55.7121 130.1328 20.4424 6.5241 -3.9904 -12.9709
# 3 62.3510 20.4424 96.0020 -6.4812 -16.7102 -5.9369
# 4 2.6723 6.5241 -6.4812 16.8833 3.5893 -0.8364
# 5 8.6352 -3.9904 -16.7102 3.5893 41.3005 -4.7041
# 6 -27.2997 -12.9709 -5.9369 -0.8364 -4.7041 35.7458
#
#
#
# Elastic Compliance Matrix: (Units=1/GPa)
#
#
# Indices 1 2 3 4 5 6 
#
# 1 0.009836 -0.002768 -0.006347 -0.001794 -0.004182 0.004861
# 2 -0.002768 0.009241 0.000022 -0.003467 0.001943 0.001418
# 3 -0.006347 0.000022 0.016104 0.005586 0.007236 -0.001082
# 4 -0.001794 -0.003467 0.005586 0.063669 -0.003306 -0.000646
# 5 -0.004182 0.001943 0.007236 -0.003306 0.028766 0.002421
# 6 0.004861 0.001418 -0.001082 -0.000646 0.002421 0.032326
#
#
# Mechanical properties :
#
#
# Convention : Reuss Voigt Hill
#
# Bulk Modulus (GPa) = 58.84478 75.37569 67.11024
# Shear Modulus (GPa) = 27.20468 36.31024 31.75746
#
# Velocity S-wave (km/s) = 3.58298 4.13939 3.87119
# Velocity P-wave (km/s) = 6.69966 7.64300 7.18682
#
# Compressibility (1/GPa) = 0.01699386
#
# Stress axis : x y z
#
# Youngs Moduli (GPa) = 101.67156 108.21804 62.09666
#
# Poissons Ratio (x) = 0.29950 0.39414
# Poissons Ratio (y) = 0.28138 -0.00134
# Poissons Ratio (z) = 0.64533 -0.00233
#
# Static dielectric constant tensor:
#      x y z
#    x 1.786030 0.176440 0.069060 
#    y 0.176440 1.223120 -0.138430 
#    z 0.069060 -0.138430 1.777840 
# 
# From -- ./inp_files/299894.got.cif
#   From: 2010.05.17/outbox.cif.g08.bks.cpg/sg2_150_cif.got.tgz:299894.got - 2010.06.03 11:33:40.
