data_PCOD9049562
_publ_section_title
;
Structure prediction by ZEFSAII (Michael W. Deem and Ramdas Pophale) SiO2 
 PCOD9049562
Probable space group: P -1
;
_chemical_formula_sum "Si O2"
_cell_formula_units_Z 13
_cell_length_a 8.765604
_cell_length_b 11.203841
_cell_length_c 9.576065
_cell_angle_alpha 47.156810
_cell_angle_beta 49.833291
_cell_angle_gamma 52.164997
_cell_volume 500.643464
_symmetry_space_group_name_H-M "P -1"
_symmetry_group_IT_number 2
_symmetry_cell_setting 'triclinic'
loop_
_space_group_symop_operation_xyz
x,y,z
-x,-y,-z
loop_
_atom_site_type_symbol
_atom_site_label
_atom_site_fract_x
_atom_site_fract_y
_atom_site_fract_z
Si Si1 0.430685 0.790185 0.610932
Si Si2 0.830892 0.169777 0.518068
Si Si3 0.710238 0.540348 0.286601
Si Si4 0.013015 0.623019 0.265671
Si Si5 0.234757 0.031429 0.757901
Si Si6 0.500000 0.500000 0.000000
Si Si7 0.566044 0.140347 0.940032
O O1 0.372504 0.822350 0.460209
O O2 0.630363 0.850609 0.475008
O O3 0.481001 0.598263 0.782080
O O4 0.239434 0.906844 0.725510
O O5 0.867106 0.349308 0.315666
O O6 0.767274 0.163511 0.720906
O O7 0.000000 0.000000 0.500000
O O8 0.500000 0.500000 0.500000
O O9 0.622531 0.682154 0.106204
O O10 0.831540 0.616900 0.268710
O O11 0.000000 0.500000 0.500000
O O12 0.965279 0.822903 0.180155
O O13 0.242242 0.554975 0.119151
O O14 0.370662 0.915745 0.894819
O O15 0.500000 0.000000 0.000000
#
# Coordination Sequence:
#
# PCOD9049562 Si02
#       7
#     2   2   2   2   2   1   2
#     4  11  26  47  71 112 158 200 260 320 389 479
#     4  11  26  44  71 108 156 195 259 318 385 465
#     4  10  24  46  80 109 148 205 258 317 395 459
#     4  12  26  49  80 110 160 209 256 330 387 467
#     4  11  24  47  78 107 153 207 254 326 398 460
#     4  12  30  46  76 116 156 204 272 304 396 468
#     4  11  21  45  75 109 145 199 262 318 389 467
#
# _framework density 25.966581999999999
#
# number of rings (size 3 to 8) (size 9 to 14) (size 15 to 20)
#    0.000    0.923    4.615    0.923    6.462    1.846 
#    0.000    1.538    0.000    0.000    0.000    0.000 
#    0.000    0.000    0.000    0.000    0.000    0.000 
#
# Total GULP energy -72533.770967 kJ/mol
# GULP energy per Si atom -5579.520844 kJ/mol
# Density = 2.590748 g / cm^3
# Si number density = 25.966582 Si / 1000 Ang^3
#
#
#
# Elastic Constant Matrix: (Units=GPa)
#
#
# Indices 1 2 3 4 5 6 
#
# 1 111.7107 51.3342 23.3389 2.6336 4.9063 -10.0833
# 2 51.3342 152.3257 24.6304 -17.4527 9.6587 -7.0978
# 3 23.3389 24.6304 118.3583 -4.3236 20.4406 -26.8209
# 4 2.6336 -17.4527 -4.3236 48.2013 -15.9903 -2.7045
# 5 4.9063 9.6587 20.4406 -15.9903 43.6027 3.1042
# 6 -10.0833 -7.0978 -26.8209 -2.7045 3.1042 45.6873
#
#
#
# Elastic Compliance Matrix: (Units=1/GPa)
#
#
# Indices 1 2 3 4 5 6 
#
# 1 0.011077 -0.003709 -0.001092 -0.002254 -0.000821 0.001150
# 2 -0.003709 0.008320 -0.000877 0.003193 0.000147 0.000138
# 3 -0.001092 -0.000877 0.011306 -0.000777 -0.005738 0.006604
# 4 -0.002254 0.003193 -0.000777 0.024978 0.009042 0.000407
# 5 -0.000821 0.000147 -0.005738 0.009042 0.029355 -0.004986
# 6 0.001150 0.000138 0.006604 0.000407 -0.004986 0.026403
#
#
# Mechanical properties :
#
#
# Convention : Reuss Voigt Hill
#
# Bulk Modulus (GPa) = 51.69309 64.55575 58.12442
# Shear Modulus (GPa) = 38.68624 46.37101 42.52863
#
# Velocity S-wave (km/s) = 3.86404 4.23045 4.05139
# Velocity P-wave (km/s) = 6.31336 6.98408 6.65717
#
# Compressibility (1/GPa) = 0.01934495
#
# Stress axis : x y z
#
# Youngs Moduli (GPa) = 90.27442 120.19735 88.44911
#
# Poissons Ratio (x) = 0.44582 0.09663
# Poissons Ratio (y) = 0.33483 0.07761
# Poissons Ratio (z) = 0.09862 0.10546
#
# Static dielectric constant tensor:
#      x y z
#    x 2.217620 -0.059390 -0.419230 
#    y -0.059390 2.250270 0.134900 
#    z -0.419230 0.134900 2.699100 
# 
# From -- ./inp_files/159193.got.cif
#   From: 2010.05.17/outbox.cif.g08.bks.cpg/sg2_80_cif.got.tgz:159193.got - 2010.06.03 11:33:40.
