data_PCOD9049855
_publ_section_title
;
Structure prediction by ZEFSAII (Michael W. Deem and Ramdas Pophale) SiO2 
 PCOD9049855
Probable space group: P -1
;
_chemical_formula_sum "Si O2"
_cell_formula_units_Z 12
_cell_length_a 7.360527
_cell_length_b 8.332986
_cell_length_c 10.050830
_cell_angle_alpha 113.338766
_cell_angle_beta 124.982023
_cell_angle_gamma 77.054327
_cell_volume 463.761655
_symmetry_space_group_name_H-M "P -1"
_symmetry_group_IT_number 2
_symmetry_cell_setting 'triclinic'
loop_
_space_group_symop_operation_xyz
x,y,z
-x,-y,-z
loop_
_atom_site_type_symbol
_atom_site_label
_atom_site_fract_x
_atom_site_fract_y
_atom_site_fract_z
Si Si1 0.794506 0.400832 0.194040
Si Si2 0.131527 0.103579 0.319515
Si Si3 0.432636 0.160172 0.929896
Si Si4 0.577531 0.313871 0.526162
Si Si5 0.947767 0.781089 0.398420
Si Si6 0.239305 0.756959 0.133902
O O1 0.849049 0.589441 0.332739
O O2 0.945593 0.246811 0.261840
O O3 0.541653 0.338972 0.092307
O O4 0.849000 0.387698 0.053883
O O5 0.367957 0.183613 0.401052
O O6 0.124785 0.088853 0.471983
O O7 0.092903 0.924688 0.165169
O O8 0.184252 0.177915 0.779720
O O9 0.568421 0.155632 0.847118
O O10 0.500000 0.000000 0.000000
O O11 0.500000 0.500000 0.500000
O O12 0.669455 0.320387 0.717398
O O13 0.789542 0.249389 0.510337
#
# Coordination Sequence:
#
# PCOD9049855 Si02
#       6
#     2   2   2   2   2   2
#     4  10  24  47  77 103 150 194 245 306 362 429
#     4  12  24  50  74 108 155 191 245 306 362 436
#     4  10  25  48  76 111 142 199 249 300 369 435
#     4  12  27  47  76 114 146 198 245 297 375 440
#     4  12  26  48  76 108 152 194 242 308 364 435
#     4  10  26  49  69 107 155 188 245 309 352 438
#
# _framework density 25.875359
#
# number of rings (size 3 to 8) (size 9 to 14) (size 15 to 20)
#    1.000    0.000    3.333    2.000    2.333    2.667 
#    3.000    0.000    0.000    0.000    0.000    0.000 
#    0.000    0.000    0.000    0.000    0.000    0.000 
#
# Total GULP energy -67165.195369 kJ/mol
# GULP energy per Si atom -5597.099614 kJ/mol
# Density = 2.581647 g / cm^3
# Si number density = 25.875359 Si / 1000 Ang^3
#
#
#
# Elastic Constant Matrix: (Units=GPa)
#
#
# Indices 1 2 3 4 5 6 
#
# 1 118.3370 22.3595 -2.7741 13.5762 18.9236 6.9027
# 2 22.3595 143.9087 30.2328 -19.2628 -1.7189 -17.4072
# 3 -2.7741 30.2328 67.2823 -2.7376 8.8597 -5.2451
# 4 13.5762 -19.2628 -2.7376 57.0539 3.7051 -7.4306
# 5 18.9236 -1.7189 8.8597 3.7051 45.3069 -6.4703
# 6 6.9027 -17.4072 -5.2451 -7.4306 -6.4703 36.2266
#
#
#
# Elastic Compliance Matrix: (Units=1/GPa)
#
#
# Indices 1 2 3 4 5 6 
#
# 1 0.010735 -0.003308 0.002088 -0.003883 -0.005428 -0.005099
# 2 -0.003308 0.009739 -0.004258 0.004472 0.003098 0.006164
# 3 0.002088 -0.004258 0.017342 -0.000932 -0.004481 -0.000924
# 4 -0.003883 0.004472 -0.000932 0.020776 0.001310 0.007249
# 5 -0.005428 0.003098 -0.004481 0.001310 0.026200 0.006822
# 6 -0.005099 0.006164 -0.000924 0.007249 0.006822 0.034109
#
#
# Mechanical properties :
#
#
# Convention : Reuss Voigt Hill
#
# Bulk Modulus (GPa) = 37.22833 47.68492 42.45662
# Shear Modulus (GPa) = 36.02067 46.36481 41.19274
#
# Velocity S-wave (km/s) = 3.73511 4.23762 3.99428
# Velocity P-wave (km/s) = 5.74632 6.51244 6.14134
#
# Compressibility (1/GPa) = 0.02686127
#
# Stress axis : x y z
#
# Youngs Moduli (GPa) = 93.15008 102.68424 57.66296
#
# Poissons Ratio (x) = 0.33968 -0.12042
# Poissons Ratio (y) = 0.30814 0.24552
# Poissons Ratio (z) = -0.19454 0.43721
#
# Static dielectric constant tensor:
#      x y z
#    x 2.053700 0.068100 0.008470 
#    y 0.068100 2.042060 -0.001540 
#    z 0.008470 -0.001540 2.072540 
# 
# From -- ./inp_files/376989.got.cif
#   From: 2010.05.17/outbox.cif.g08.bks.cpg/sg2_189_cif.got.tgz:376989.got - 2010.06.03 11:33:40.
