data_PCOD9049660
_publ_section_title
;
Structure prediction by ZEFSAII (Michael W. Deem and Ramdas Pophale) SiO2 
 PCOD9049660
Probable space group: P -1
;
_chemical_formula_sum "Si O2"
_cell_formula_units_Z 16
_cell_length_a 11.114471
_cell_length_b 16.504231
_cell_length_c 4.990662
_cell_angle_alpha 81.234413
_cell_angle_beta 109.647304
_cell_angle_gamma 59.014597
_cell_volume 676.410972
_symmetry_space_group_name_H-M "P -1"
_symmetry_group_IT_number 2
_symmetry_cell_setting 'triclinic'
loop_
_space_group_symop_operation_xyz
x,y,z
-x,-y,-z
loop_
_atom_site_type_symbol
_atom_site_label
_atom_site_fract_x
_atom_site_fract_y
_atom_site_fract_z
Si Si1 0.876961 0.623045 0.314705
Si Si2 0.681946 0.448980 0.757925
Si Si3 0.926988 0.899849 0.490294
Si Si4 0.120707 0.676480 0.522609
Si Si5 0.812474 0.108100 0.011311
Si Si6 0.607965 0.189258 0.307284
Si Si7 0.305721 0.360836 0.332329
Si Si8 0.582538 0.008273 0.309608
O O1 0.728910 0.665306 0.389584
O O2 0.000000 0.500000 0.500000
O O3 0.978785 0.664211 0.431250
O O4 0.817079 0.637759 0.958684
O O5 0.500000 0.500000 0.500000
O O6 0.800445 0.355461 0.693302
O O7 0.717432 0.532405 0.712830
O O8 0.737098 0.401960 0.120957
O O9 0.040019 0.793343 0.474832
O O10 0.032431 0.899989 0.799737
O O11 0.853184 0.000407 0.197497
O O12 0.771951 0.916948 0.489072
O O13 0.671192 0.195476 0.064108
O O14 0.757858 0.129859 0.655058
O O15 0.471878 0.286565 0.330015
O O16 0.556698 0.115645 0.256117
O O17 0.500000 0.000000 0.500000
O O18 0.500000 0.000000 0.000000
#
# Coordination Sequence:
#
# PCOD9049660 Si02
#       8
#     2   2   2   2   2   2   2   2
#     4  12  23  45  66  96 135 180 228 280 328 400
#     4  12  27  46  67 105 139 178 223 285 335 406
#     4  10  26  45  72 100 135 180 228 285 335 403
#     4  12  27  43  73 100 136 182 229 278 343 396
#     4  10  24  47  70  99 133 173 232 279 334 400
#     4  11  25  43  71  98 130 181 221 275 339 403
#     4  12  25  43  71  95 136 179 223 276 339 400
#     4  11  25  43  64  97 138 170 217 276 332 395
#
# _framework density 23.654260000000001
#
# number of rings (size 3 to 8) (size 9 to 14) (size 15 to 20)
#    0.000    0.750    2.500    3.750    7.000    8.500 
#    0.000    0.000    0.000    0.000    0.000    0.000 
#    0.000    0.000    0.000    0.000    0.000    0.000 
#
# Total GULP energy -89657.133005 kJ/mol
# GULP energy per Si atom -5603.570813 kJ/mol
# Density = 2.360042 g / cm^3
# Si number density = 23.654260 Si / 1000 Ang^3
#
#
#
# Elastic Constant Matrix: (Units=GPa)
#
#
# Indices 1 2 3 4 5 6 
#
# 1 105.0516 21.5152 22.9882 15.0343 12.4731 -14.8866
# 2 21.5152 105.8988 6.8779 12.6842 11.1120 -12.1143
# 3 22.9882 6.8779 90.6864 31.1835 2.6582 10.6042
# 4 15.0343 12.6842 31.1835 33.1854 -9.4330 1.9170
# 5 12.4731 11.1120 2.6582 -9.4330 36.5882 7.6821
# 6 -14.8866 -12.1143 10.6042 1.9170 7.6821 37.7846
#
#
#
# Elastic Compliance Matrix: (Units=1/GPa)
#
#
# Indices 1 2 3 4 5 6 
#
# 1 0.012786 -0.000032 -0.001478 -0.006970 -0.007579 0.007336
# 2 -0.000032 0.011605 0.001500 -0.008045 -0.006761 0.005070
# 3 -0.001478 0.001500 0.018076 -0.018211 -0.005294 -0.003174
# 4 -0.006970 -0.008045 -0.018211 0.060613 0.023462 -0.008060
# 5 -0.007579 -0.006761 -0.005294 0.023462 0.041180 -0.013231
# 6 0.007336 0.005070 -0.003174 -0.008060 -0.013231 0.034972
#
#
# Mechanical properties :
#
#
# Convention : Reuss Voigt Hill
#
# Bulk Modulus (GPa) = 23.55899 44.93327 34.24613
# Shear Modulus (GPa) = 25.85293 38.19534 32.02413
#
# Velocity S-wave (km/s) = 3.30957 4.02273 3.68345
# Velocity P-wave (km/s) = 4.95839 6.37288 5.70961
#
# Compressibility (1/GPa) = 0.04244664
#
# Stress axis : x y z
#
# Youngs Moduli (GPa) = 78.20995 86.16828 55.32120
#
# Poissons Ratio (x) = 0.00279 0.08176
# Poissons Ratio (y) = 0.00254 -0.08297
# Poissons Ratio (z) = 0.11558 -0.12924
#
# Static dielectric constant tensor:
#      x y z
#    x 1.846170 -0.024390 -0.065310 
#    y -0.024390 1.874650 -0.014900 
#    z -0.065310 -0.014900 1.727850 
# 
# From -- ./inp_files/77976.got.cif
#   From: 2010.05.17/outbox.cif.g08.bks.cpg/sg2_39_cif.got.tgz:77976.got - 2010.06.03 11:33:40.
