data_PCOD9049748
_publ_section_title
;
Structure prediction by ZEFSAII (Michael W. Deem and Ramdas Pophale) SiO2 
 PCOD9049748
Probable space group: P -1
;
_chemical_formula_sum "Si O2"
_cell_formula_units_Z 14
_cell_length_a 11.496080
_cell_length_b 12.088796
_cell_length_c 7.149324
_cell_angle_alpha 42.721788
_cell_angle_beta 83.906599
_cell_angle_gamma 71.638584
_cell_volume 627.532479
_symmetry_space_group_name_H-M "P -1"
_symmetry_group_IT_number 2
_symmetry_cell_setting 'triclinic'
loop_
_space_group_symop_operation_xyz
x,y,z
-x,-y,-z
loop_
_atom_site_type_symbol
_atom_site_label
_atom_site_fract_x
_atom_site_fract_y
_atom_site_fract_z
Si Si1 0.017765 0.165697 0.382701
Si Si2 0.735374 0.037361 0.214931
Si Si3 0.695077 0.621605 0.247127
Si Si4 0.511066 0.317507 0.120984
Si Si5 0.877654 0.226356 0.718688
Si Si6 0.568281 0.842958 0.320116
Si Si7 0.053872 0.321320 0.828980
O O1 0.930800 0.211556 0.520320
O O2 0.161592 0.086332 0.512264
O O3 0.996426 0.320285 0.045684
O O4 0.000000 0.000000 0.500000
O O5 0.636359 0.207399 0.121441
O O6 0.673367 0.906626 0.307234
O O7 0.805510 0.104972 0.958019
O O8 0.777032 0.420159 0.502056
O O9 0.615363 0.678662 0.379024
O O10 0.798545 0.717639 0.118537
O O11 0.604182 0.655756 0.039354
O O12 0.505536 0.193171 0.448120
O O13 0.500000 0.500000 0.000000
O O14 0.995957 0.201914 0.866143
O O15 0.500000 0.000000 0.000000
O O16 0.000000 0.500000 0.500000
#
# Coordination Sequence:
#
# PCOD9049748 Si02
#       7
#     2   2   2   2   2   2   2
#     4  12  26  42  74 108 146 191 240 298 369 421
#     4  12  26  47  78 109 154 187 249 305 367 435
#     4  11  26  47  76 103 149 193 241 298 373 426
#     4  12  29  49  74 110 146 195 249 295 368 443
#     4  11  26  47  73 111 145 194 245 300 364 443
#     4  12  27  46  74 107 147 188 243 303 365 427
#     4  10  24  47  73 105 149 186 245 294 366 433
#
# _framework density 22.309601000000001
#
# number of rings (size 3 to 8) (size 9 to 14) (size 15 to 20)
#    0.000    0.571    2.857    3.429    8.000    5.714 
#    0.000    0.000    0.000    0.000    0.000    0.000 
#    0.000    0.000    0.000    0.000    0.000    0.000 
#
# Total GULP energy -78214.741960 kJ/mol
# GULP energy per Si atom -5586.767283 kJ/mol
# Density = 2.225882 g / cm^3
# Si number density = 22.309601 Si / 1000 Ang^3
#
#
#
# Elastic Constant Matrix: (Units=GPa)
#
#
# Indices 1 2 3 4 5 6 
#
# 1 82.9008 38.1221 47.4303 17.4768 3.8515 -7.1919
# 2 38.1221 130.8302 42.8381 16.8518 13.8500 -20.7323
# 3 47.4303 42.8381 161.9282 21.5845 -9.6900 -16.1626
# 4 17.4768 16.8518 21.5845 39.3841 -4.0953 3.1519
# 5 3.8515 13.8500 -9.6900 -4.0953 38.2648 -0.5605
# 6 -7.1919 -20.7323 -16.1626 3.1519 -0.5605 32.0332
#
#
#
# Elastic Compliance Matrix: (Units=1/GPa)
#
#
# Indices 1 2 3 4 5 6 
#
# 1 0.016441 -0.002760 -0.003569 -0.004410 -0.002024 0.000503
# 2 -0.002760 0.010696 -0.001193 -0.003613 -0.004195 0.005983
# 3 -0.003569 -0.001193 0.008308 -0.002413 0.002679 0.002903
# 4 -0.004410 -0.003613 -0.002413 0.031275 0.004377 -0.007546
# 5 -0.002024 -0.004195 0.002679 0.004377 0.028977 -0.001741
# 6 0.000503 0.005983 0.002903 -0.007546 -0.001741 0.037379
#
#
# Mechanical properties :
#
#
# Convention : Reuss Voigt Hill
#
# Bulk Modulus (GPa) = 49.01829 70.27113 59.64471
# Shear Modulus (GPa) = 32.27440 38.42099 35.34769
#
# Velocity S-wave (km/s) = 3.80762 4.15441 3.98479
# Velocity P-wave (km/s) = 6.43041 7.38774 6.92564
#
# Compressibility (1/GPa) = 0.02040055
#
# Stress axis : x y z
#
# Youngs Moduli (GPa) = 60.82386 93.49221 120.36192
#
# Poissons Ratio (x) = 0.25806 0.42953
# Poissons Ratio (y) = 0.16789 0.14364
# Poissons Ratio (z) = 0.21706 0.11158
#
# Static dielectric constant tensor:
#      x y z
#    x 1.813220 0.010800 -0.015670 
#    y 0.010800 1.821780 -0.032710 
#    z -0.015670 -0.032710 1.811060 
# 
# From -- ./inp_files/68118.got.cif
#   From: 2010.05.17/outbox.cif.g08.bks.cpg/sg2_35_cif.got.tgz:68118.got - 2010.06.03 11:33:40.
