data_PCOD9049975
_publ_section_title
;
Structure prediction by ZEFSAII (Michael W. Deem and Ramdas Pophale) SiO2 
 PCOD9049975
Probable space group: P -1
;
_chemical_formula_sum "Si O2"
_cell_formula_units_Z 11
_cell_length_a 10.210053
_cell_length_b 9.594957
_cell_length_c 14.168267
_cell_angle_alpha 152.947500
_cell_angle_beta 136.328789
_cell_angle_gamma 56.997954
_cell_volume 413.443864
_symmetry_space_group_name_H-M "P -1"
_symmetry_group_IT_number 2
_symmetry_cell_setting 'triclinic'
loop_
_space_group_symop_operation_xyz
x,y,z
-x,-y,-z
loop_
_atom_site_type_symbol
_atom_site_label
_atom_site_fract_x
_atom_site_fract_y
_atom_site_fract_z
Si Si1 0.027977 0.866482 0.718569
Si Si2 0.501101 0.140547 0.810689
Si Si3 0.214922 0.780984 0.283320
Si Si4 0.594288 0.707185 0.943492
Si Si5 0.646482 0.589904 0.542390
Si Si6 0.000000 0.000000 0.000000
O O1 0.061036 0.030394 0.936374
O O2 0.000000 0.500000 0.500000
O O3 0.827729 0.913401 0.598971
O O4 0.208364 0.050552 0.854769
O O5 0.471082 0.138818 0.906681
O O6 0.322753 0.889679 0.505844
O O7 0.685588 0.991144 0.797057
O O8 0.500000 0.500000 0.000000
O O9 0.352829 0.618571 0.198287
O O10 0.000000 0.500000 0.000000
O O11 0.444908 0.594038 0.709925
O O12 0.500000 0.500000 0.500000
O O13 0.871407 0.608553 0.685059
#
# Coordination Sequence:
#
# PCOD9049975 Si02
#       6
#     2   2   2   2   2   1
#     4  11  26  41  72 109 140 189 241 296 354 430
#     4  11  27  44  74 106 138 191 245 293 356 429
#     4   9  23  45  68 101 142 187 234 294 358 416
#     4  10  24  48  71 102 147 189 238 300 360 424
#     4  11  26  49  73 105 145 192 236 300 364 422
#     4  12  28  44  72 104 150 182 242 292 368 422
#
# _framework density 26.605789999999999
#
# number of rings (size 3 to 8) (size 9 to 14) (size 15 to 20)
#    0.000    1.455    1.818    0.000   10.182    5.091 
#    0.000    0.000    0.000    0.000    0.000    0.000 
#    0.000    0.000    0.000    0.000    0.000    0.000 
#
# Total GULP energy -61383.778188 kJ/mol
# GULP energy per Si atom -5580.343472 kJ/mol
# Density = 2.654523 g / cm^3
# Si number density = 26.605790 Si / 1000 Ang^3
#
#
#
# Elastic Constant Matrix: (Units=GPa)
#
#
# Indices 1 2 3 4 5 6 
#
# 1 113.9554 12.8849 48.5648 5.9388 -31.5109 26.3513
# 2 12.8849 119.6340 22.4259 13.4755 -27.2511 -7.0664
# 3 48.5648 22.4259 173.8518 -18.7053 -27.6331 6.8617
# 4 5.9388 13.4755 -18.7053 58.5399 4.1341 -12.6351
# 5 -31.5109 -27.2511 -27.6331 4.1341 65.2130 2.4536
# 6 26.3513 -7.0664 6.8617 -12.6351 2.4536 48.4217
#
#
#
# Elastic Compliance Matrix: (Units=1/GPa)
#
#
# Indices 1 2 3 4 5 6 
#
# 1 0.014101 0.000559 -0.003187 -0.004912 0.006337 -0.008743
# 2 0.000559 0.009771 -0.001093 -0.002873 0.004060 0.000321
# 3 -0.003187 -0.001093 0.007193 0.003102 0.000805 0.001325
# 4 -0.004912 -0.002873 0.003102 0.021132 -0.003882 0.007525
# 5 0.006337 0.004060 0.000805 -0.003882 0.020870 -0.005041
# 6 -0.008743 0.000321 0.001325 0.007525 -0.005041 0.027488
#
#
# Mechanical properties :
#
#
# Convention : Reuss Voigt Hill
#
# Bulk Modulus (GPa) = 42.33363 63.91025 53.12194
# Shear Modulus (GPa) = 43.15188 56.00597 49.57892
#
# Velocity S-wave (km/s) = 4.03165 4.59304 4.32147
# Velocity P-wave (km/s) = 6.13337 7.22505 6.70148
#
# Compressibility (1/GPa) = 0.02362188
#
# Stress axis : x y z
#
# Youngs Moduli (GPa) = 70.91931 102.34506 139.02879
#
# Poissons Ratio (x) = -0.05722 0.44312
# Poissons Ratio (y) = -0.03965 0.15196
# Poissons Ratio (z) = 0.22604 0.11186
#
# Static dielectric constant tensor:
#      x y z
#    x 1.873640 0.081610 -0.108470 
#    y 0.081610 2.185770 0.145550 
#    z -0.108470 0.145550 1.926580 
# 
# From -- ./inp_files/420227.got.cif
#   From: 2010.05.17/outbox.cif.g08.bks.cpg/sg2_211_cif.got.tgz:420227.got - 2010.06.03 11:33:40.
