data_PCOD9049031
_publ_section_title
;
Structure prediction by ZEFSAII (Michael W. Deem and Ramdas Pophale) SiO2 
 PCOD9049031
Probable space group: P -1
;
_chemical_formula_sum "Si O2"
_cell_formula_units_Z 12
_cell_length_a 12.651035
_cell_length_b 8.897223
_cell_length_c 11.743533
_cell_angle_alpha 140.069666
_cell_angle_beta 59.309686
_cell_angle_gamma 139.249729
_cell_volume 545.923696
_symmetry_space_group_name_H-M "P -1"
_symmetry_group_IT_number 2
_symmetry_cell_setting 'triclinic'
loop_
_space_group_symop_operation_xyz
x,y,z
-x,-y,-z
loop_
_atom_site_type_symbol
_atom_site_label
_atom_site_fract_x
_atom_site_fract_y
_atom_site_fract_z
Si Si1 0.355555 0.359975 0.857557
Si Si2 0.857520 0.159158 0.930899
Si Si3 0.713091 0.620817 0.841681
Si Si4 0.650951 0.330738 0.166824
Si Si5 0.821880 0.751885 0.516910
Si Si6 0.820929 0.352307 0.473110
O O1 0.550356 0.555267 0.850915
O O2 0.289203 0.427387 0.828400
O O3 0.277802 0.006718 0.704620
O O4 0.311922 0.430656 0.040403
O O5 0.866527 0.969475 0.912654
O O6 0.793562 0.934723 0.724565
O O7 0.755507 0.237741 0.089222
O O8 0.000000 0.500000 0.000000
O O9 0.731141 0.391850 0.642152
O O10 0.672837 0.523426 0.377100
O O11 0.500000 0.000000 0.000000
O O12 0.832009 0.538333 0.468011
O O13 0.000000 0.000000 0.500000
O O14 0.000000 0.500000 0.500000
#
# Coordination Sequence:
#
# PCOD9049031 Si02
#       6
#     2   2   2   2   2   2
#     4  11  24  43  70  94 140 177 224 281 339 414
#     4  11  23  44  72  97 136 179 229 286 342 406
#     4  10  24  46  66  99 133 182 222 282 347 397
#     4  12  25  44  68 104 136 179 233 274 344 413
#     4  11  24  43  70  98 139 180 222 283 340 405
#     4  11  25  43  69 101 135 174 231 283 344 411
#
# _framework density 21.981095
#
# number of rings (size 3 to 8) (size 9 to 14) (size 15 to 20)
#    0.000    1.000    3.333    2.500    4.667    4.000 
#    0.000    0.000    0.000    0.000    0.000    0.000 
#    0.000    0.000    0.000    0.000    0.000    0.000 
#
# Total GULP energy -66900.503964 kJ/mol
# GULP energy per Si atom -5575.041997 kJ/mol
# Density = 2.193106 g / cm^3
# Si number density = 21.981095 Si / 1000 Ang^3
#
#
#
# Elastic Constant Matrix: (Units=GPa)
#
#
# Indices 1 2 3 4 5 6 
#
# 1 37.9240 3.2126 25.3078 -7.2520 16.4170 -20.1777
# 2 3.2126 76.6331 43.4591 4.6199 7.8834 -9.8870
# 3 25.3078 43.4591 142.0566 -16.9783 11.7257 -13.8397
# 4 -7.2520 4.6199 -16.9783 50.1864 -2.3174 -3.4062
# 5 16.4170 7.8834 11.7257 -2.3174 24.2448 -0.4830
# 6 -20.1777 -9.8870 -13.8397 -3.4062 -0.4830 27.9061
#
#
#
# Elastic Compliance Matrix: (Units=1/GPa)
#
#
# Indices 1 2 3 4 5 6 
#
# 1 0.104669 0.017169 -0.009126 0.012521 -0.069302 0.077568
# 2 0.017169 0.019591 -0.006436 -0.001107 -0.014675 0.015774
# 3 -0.009126 -0.006436 0.010345 0.002705 0.003461 -0.003358
# 4 0.012521 -0.001107 0.002705 0.023295 -0.006947 0.012726
# 5 -0.069302 -0.014675 0.003461 -0.006947 0.089553 -0.052890
# 6 0.077568 0.015774 -0.003358 0.012726 -0.052890 0.096482
#
#
# Mechanical properties :
#
#
# Convention : Reuss Voigt Hill
#
# Bulk Modulus (GPa) = 7.25589 44.50807 25.88198
# Shear Modulus (GPa) = 12.93127 32.77643 22.85385
#
# Velocity S-wave (km/s) = 2.42810 3.86569 3.22794
# Velocity P-wave (km/s) = 3.34201 6.34169 5.06883
#
# Compressibility (1/GPa) = 0.13781903
#
# Stress axis : x y z
#
# Youngs Moduli (GPa) = 9.55394 51.04358 96.66673
#
# Poissons Ratio (x) = -0.87639 0.88217
# Poissons Ratio (y) = -0.16404 0.62219
# Poissons Ratio (z) = 0.08719 0.32854
#
# Static dielectric constant tensor:
#      x y z
#    x 1.737640 0.009100 -0.042450 
#    y 0.009100 1.847700 -0.023330 
#    z -0.042450 -0.023330 1.683250 
# 
# From -- ./inp_files/173701.got.cif
#   From: 2010.05.17/outbox.cif.g08.bks.cpg/sg2_87_cif.got.tgz:173701.got - 2010.06.03 11:33:40.
