data_PCOD9049980
_publ_section_title
;
Structure prediction by ZEFSAII (Michael W. Deem and Ramdas Pophale) SiO2 
 PCOD9049980
Probable space group: P -1
;
_chemical_formula_sum "Si O2"
_cell_formula_units_Z 16
_cell_length_a 14.421383
_cell_length_b 7.700281
_cell_length_c 6.808632
_cell_angle_alpha 105.768280
_cell_angle_beta 115.354230
_cell_angle_gamma 76.923583
_cell_volume 652.279381
_symmetry_space_group_name_H-M "P -1"
_symmetry_group_IT_number 2
_symmetry_cell_setting 'triclinic'
loop_
_space_group_symop_operation_xyz
x,y,z
-x,-y,-z
loop_
_atom_site_type_symbol
_atom_site_label
_atom_site_fract_x
_atom_site_fract_y
_atom_site_fract_z
Si Si1 0.492159 0.292867 0.384982
Si Si2 0.078578 0.574863 0.745898
Si Si3 0.271268 0.426806 0.087751
Si Si4 0.771392 0.935704 0.502078
Si Si5 0.647682 0.184959 0.783906
Si Si6 0.896357 0.039767 0.291419
Si Si7 0.614356 0.046623 0.138026
Si Si8 0.894705 0.719068 0.864233
O O1 0.500000 0.500000 0.500000
O O2 0.375955 0.289453 0.193857
O O3 0.531164 0.193238 0.592545
O O4 0.586622 0.225630 0.303536
O O5 0.109853 0.765943 0.758324
O O6 0.000000 0.500000 0.500000
O O7 0.009884 0.623189 0.894399
O O8 0.180855 0.433187 0.839537
O O9 0.315124 0.616803 0.143717
O O10 0.195051 0.402605 0.195488
O O11 0.723574 0.054498 0.675848
O O12 0.813309 0.044368 0.392346
O O13 0.674148 0.884029 0.274616
O O14 0.859361 0.804211 0.646624
O O15 0.653822 0.106061 0.983212
O O16 0.000000 0.000000 0.500000
O O17 0.893812 0.877665 0.078667
O O18 0.500000 0.000000 0.000000
#
# Coordination Sequence:
#
# PCOD9049980 Si02
#       8
#     2   2   2   2   2   2   2   2
#     4   9  23  45  68 102 139 185 227 288 353 422
#     4  12  27  47  71 108 145 191 239 292 353 426
#     4  11  25  44  72  98 148 185 234 288 356 417
#     4  11  25  44  74 102 140 188 233 289 363 413
#     4  10  24  48  71 106 140 186 236 294 359 420
#     4  12  26  48  75 103 141 186 242 293 356 418
#     4  11  25  42  75 105 140 179 240 293 351 424
#     4  12  27  45  72 106 145 187 240 294 352 423
#
# _framework density 24.529368000000002
#
# number of rings (size 3 to 8) (size 9 to 14) (size 15 to 20)
#    0.000    1.000    1.250    3.750    8.750    3.000 
#    2.250    0.000    0.000    0.000    0.000    0.000 
#    0.000    0.000    0.000    0.000    0.000    0.000 
#
# Total GULP energy -89262.325907 kJ/mol
# GULP energy per Si atom -5578.895369 kJ/mol
# Density = 2.447354 g / cm^3
# Si number density = 24.529368 Si / 1000 Ang^3
#
#
#
# Elastic Constant Matrix: (Units=GPa)
#
#
# Indices 1 2 3 4 5 6 
#
# 1 117.9856 33.1301 59.2153 -15.3277 -6.7429 -14.9064
# 2 33.1301 86.3883 44.1179 -12.3732 -4.0876 -1.8708
# 3 59.2153 44.1179 172.0454 -28.5501 7.0246 -12.0039
# 4 -15.3277 -12.3732 -28.5501 44.1740 -5.9415 4.8653
# 5 -6.7429 -4.0876 7.0246 -5.9415 60.2290 -15.6326
# 6 -14.9064 -1.8708 -12.0039 4.8653 -15.6326 61.1945
#
#
#
# Elastic Compliance Matrix: (Units=1/GPa)
#
#
# Indices 1 2 3 4 5 6 
#
# 1 0.011267 -0.002469 -0.002935 0.001339 0.002232 0.002557
# 2 -0.002469 0.014107 -0.002577 0.001624 0.000999 -0.000550
# 3 -0.002935 -0.002577 0.008096 0.003322 -0.001052 0.000261
# 4 0.001339 0.001624 0.003322 0.026067 0.002327 -0.000450
# 5 0.002232 0.000999 -0.001052 0.002327 0.018551 0.004922
# 6 0.002557 -0.000550 0.000261 -0.000450 0.004922 0.018292
#
#
# Mechanical properties :
#
#
# Convention : Reuss Voigt Hill
#
# Bulk Modulus (GPa) = 57.12200 72.14954 64.63577
# Shear Modulus (GPa) = 42.30949 49.11657 45.71303
#
# Velocity S-wave (km/s) = 4.15764 4.47963 4.32163
# Velocity P-wave (km/s) = 6.81070 7.49890 7.16307
#
# Compressibility (1/GPa) = 0.01750639
#
# Stress axis : x y z
#
# Youngs Moduli (GPa) = 88.75801 70.88860 123.51804
#
# Poissons Ratio (x) = 0.17503 0.36254
# Poissons Ratio (y) = 0.21914 0.31834
# Poissons Ratio (z) = 0.26052 0.18270
#
# Static dielectric constant tensor:
#      x y z
#    x 2.343940 -0.122900 0.062860 
#    y -0.122900 1.986150 0.045200 
#    z 0.062860 0.045200 2.153720 
# 
# From -- ./inp_files/90797.got.cif
#   From: 2010.05.17/outbox.cif.g08.bks.cpg/sg2_46_cif.got.tgz:90797.got - 2010.06.03 11:33:40.
