data_PCOD9049485
_publ_section_title
;
Structure prediction by ZEFSAII (Michael W. Deem and Ramdas Pophale) SiO2 
 PCOD9049485
Probable space group: P -1
;
_chemical_formula_sum "Si O2"
_cell_formula_units_Z 14
_cell_length_a 13.436821
_cell_length_b 16.541411
_cell_length_c 5.640160
_cell_angle_alpha 123.972947
_cell_angle_beta 49.030429
_cell_angle_gamma 146.022520
_cell_volume 528.653721
_symmetry_space_group_name_H-M "P -1"
_symmetry_group_IT_number 2
_symmetry_cell_setting 'triclinic'
loop_
_space_group_symop_operation_xyz
x,y,z
-x,-y,-z
loop_
_atom_site_type_symbol
_atom_site_label
_atom_site_fract_x
_atom_site_fract_y
_atom_site_fract_z
Si Si1 0.819553 0.326629 0.517798
Si Si2 0.932932 0.307530 0.813875
Si Si3 0.407329 0.057494 0.705859
Si Si4 0.700982 0.855495 0.354213
Si Si5 0.034544 0.884332 0.343292
Si Si6 0.362785 0.562459 0.650513
Si Si7 0.362918 0.344021 0.249824
O O1 0.868823 0.291250 0.618985
O O2 0.592818 0.228731 0.759412
O O3 0.000000 0.500000 0.500000
O O4 0.810741 0.274348 0.181605
O O5 0.958770 0.206934 0.647783
O O6 0.142613 0.473746 0.803245
O O7 0.348124 0.066960 0.559133
O O8 0.500000 0.000000 0.500000
O O9 0.208200 0.961846 0.010331
O O10 0.513197 0.720660 0.572835
O O11 0.895124 0.980948 0.407703
O O12 0.713352 0.775758 0.014194
O O13 0.801751 0.754123 0.442407
O O14 0.377072 0.463400 0.342757
O O15 0.428292 0.571533 0.829455
#
# Coordination Sequence:
#
# PCOD9049485 Si02
#       7
#     2   2   2   2   2   2   2
#     4  12  27  46  75 108 149 194 261 309 382 441
#     4  11  26  48  74 108 148 201 247 317 378 452
#     4  12  27  47  71 103 150 198 244 312 369 451
#     4  12  25  42  75 107 145 194 252 306 378 450
#     4  11  26  46  72 105 151 194 251 301 380 451
#     4  10  24  46  75 106 148 187 250 312 379 448
#     4  10  24  48  72 107 146 194 242 318 380 450
#
# _framework density 26.482365000000001
#
# number of rings (size 3 to 8) (size 9 to 14) (size 15 to 20)
#    0.000    0.857    1.429    3.857    8.000    4.571 
#    5.143    0.000    0.000    0.000    0.000    0.000 
#    0.000    0.000    0.000    0.000    0.000    0.000 
#
# Total GULP energy -78259.588341 kJ/mol
# GULP energy per Si atom -5589.970596 kJ/mol
# Density = 2.642209 g / cm^3
# Si number density = 26.482365 Si / 1000 Ang^3
#
#
#
# Elastic Constant Matrix: (Units=GPa)
#
#
# Indices 1 2 3 4 5 6 
#
# 1 82.1997 -1.6349 9.3470 -3.2187 19.6132 -2.5924
# 2 -1.6349 133.1843 17.2476 -7.6358 11.2040 12.6839
# 3 9.3470 17.2476 103.0836 6.6715 5.4215 1.3359
# 4 -3.2187 -7.6358 6.6715 49.5701 -10.3787 -10.3565
# 5 19.6132 11.2040 5.4215 -10.3787 28.7886 -6.3584
# 6 -2.5924 12.6839 1.3359 -10.3565 -6.3584 59.4824
#
#
#
# Elastic Compliance Matrix: (Units=1/GPa)
#
#
# Indices 1 2 3 4 5 6 
#
# 1 0.014864 0.001256 -0.000878 -0.001264 -0.011129 -0.001010
# 2 0.001256 0.008253 -0.001259 0.000201 -0.004220 -0.002093
# 3 -0.000878 -0.001259 0.010224 -0.002101 -0.001716 -0.000549
# 4 -0.001264 0.000201 -0.002101 0.023789 0.010916 0.005258
# 5 -0.011129 -0.004220 -0.001716 0.010916 0.049918 0.007690
# 6 -0.001010 -0.002093 -0.000549 0.005258 0.007690 0.018964
#
#
# Mechanical properties :
#
#
# Convention : Reuss Voigt Hill
#
# Bulk Modulus (GPa) = 31.66469 40.93190 36.29830
# Shear Modulus (GPa) = 36.15331 47.13540 41.64436
#
# Velocity S-wave (km/s) = 3.69885 4.22344 3.96982
# Velocity P-wave (km/s) = 5.49771 6.26682 5.89482
#
# Compressibility (1/GPa) = 0.03158092
#
# Stress axis : x y z
#
# Youngs Moduli (GPa) = 67.27458 121.17274 97.80537
#
# Poissons Ratio (x) = -0.15220 0.08585
# Poissons Ratio (y) = -0.08450 0.12310
# Poissons Ratio (z) = 0.05905 0.15252
#
# Static dielectric constant tensor:
#      x y z
#    x 2.070080 -0.014580 -0.008050 
#    y -0.014580 2.047400 0.044380 
#    z -0.008050 0.044380 2.178770 
# 
# From -- ./inp_files/27107.got.cif
#   From: 2010.05.17/outbox.cif.g08.bks.cpg/sg2_14_cif.got.tgz:27107.got - 2010.06.03 11:33:40.
