data_PCOD9049740
_publ_section_title
;
Structure prediction by ZEFSAII (Michael W. Deem and Ramdas Pophale) SiO2 
 PCOD9049740
Probable space group: P -1
;
_chemical_formula_sum "Si O2"
_cell_formula_units_Z 16
_cell_length_a 12.363364
_cell_length_b 7.017610
_cell_length_c 19.112169
_cell_angle_alpha 121.195923
_cell_angle_beta 152.200003
_cell_angle_gamma 73.448654
_cell_volume 595.851808
_symmetry_space_group_name_H-M "P -1"
_symmetry_group_IT_number 2
_symmetry_cell_setting 'triclinic'
loop_
_space_group_symop_operation_xyz
x,y,z
-x,-y,-z
loop_
_atom_site_type_symbol
_atom_site_label
_atom_site_fract_x
_atom_site_fract_y
_atom_site_fract_z
Si Si1 0.018809 0.547842 0.407384
Si Si2 0.822005 0.936172 0.717582
Si Si3 0.490983 0.453375 0.351113
Si Si4 0.285549 0.709948 0.182970
Si Si5 0.518878 0.213263 0.997419
Si Si6 0.962900 0.258426 0.087826
Si Si7 0.043927 0.885892 0.599650
Si Si8 0.962885 0.738686 0.234664
O O1 0.949732 0.740702 0.446734
O O2 0.310797 0.660243 0.570873
O O3 0.991070 0.326064 0.402992
O O4 0.811320 0.412222 0.202664
O O5 0.630400 0.667944 0.529090
O O6 0.049052 0.931557 0.895234
O O7 0.671361 0.058494 0.699150
O O8 0.945086 0.095221 0.750401
O O9 0.461144 0.583842 0.287313
O O10 0.209988 0.284287 0.187976
O O11 0.934158 0.068481 0.604616
O O12 0.000000 0.500000 0.000000
O O13 0.260730 0.770750 0.099989
O O14 0.343979 0.342346 0.951086
O O15 0.353616 0.061341 0.808070
O O16 0.500000 0.000000 0.000000
O O17 0.033995 0.517441 0.216686
#
# Coordination Sequence:
#
# PCOD9049740 Si02
#       8
#     2   2   2   2   2   2   2   2
#     4  10  17  34  61 100 126 172 230 270 333 396
#     4  12  21  42  67  95 139 174 216 273 344 391
#     4  11  22  39  63 102 133 172 223 271 331 414
#     4  10  22  40  62  94 133 173 220 265 329 406
#     4   8  16  33  57  94 122 165 228 266 322 392
#     4  11  25  41  64 103 131 175 220 273 334 412
#     4   8  18  32  55  95 125 165 227 270 318 402
#     4  10  20  40  63  96 132 169 225 273 334 401
#
# _framework density 26.852315000000001
#
# number of rings (size 3 to 8) (size 9 to 14) (size 15 to 20)
#    0.750    1.250    3.750    1.125    0.000    3.000 
#    4.500    0.000    0.000    3.750    3.250    0.875 
#    0.000    0.000    0.000    0.000    0.000    0.000 
#
# Total GULP energy -89573.727138 kJ/mol
# GULP energy per Si atom -5598.357946 kJ/mol
# Density = 2.679120 g / cm^3
# Si number density = 26.852315 Si / 1000 Ang^3
#
#
#
# Elastic Constant Matrix: (Units=GPa)
#
#
# Indices 1 2 3 4 5 6 
#
# 1 116.8337 41.7776 41.4814 -3.4817 -15.9275 -5.3415
# 2 41.7776 123.5608 24.9417 -18.0801 -7.6528 -5.0074
# 3 41.4814 24.9417 107.7007 -12.1286 -9.7178 3.3135
# 4 -3.4817 -18.0801 -12.1286 46.2229 -1.9399 -8.2957
# 5 -15.9275 -7.6528 -9.7178 -1.9399 37.9939 -5.7815
# 6 -5.3415 -5.0074 3.3135 -8.2957 -5.7815 37.7810
#
#
#
# Elastic Compliance Matrix: (Units=1/GPa)
#
#
# Indices 1 2 3 4 5 6 
#
# 1 0.011421 -0.002958 -0.003535 -0.000732 0.003541 0.001914
# 2 -0.002958 0.009949 -0.000690 0.003889 0.001088 0.001981
# 3 -0.003535 -0.000690 0.011203 0.002297 0.001228 -0.000882
# 4 -0.000732 0.003889 0.002297 0.024952 0.003280 0.006191
# 5 0.003541 0.001088 0.001228 0.003280 0.029381 0.005753
# 6 0.001914 0.001981 -0.000882 0.006191 0.005753 0.029319
#
#
# Mechanical properties :
#
#
# Convention : Reuss Voigt Hill
#
# Bulk Modulus (GPa) = 54.92545 62.72184 58.82364
# Shear Modulus (GPa) = 36.58735 40.39251 38.48993
#
# Velocity S-wave (km/s) = 3.69526 3.88267 3.79013
# Velocity P-wave (km/s) = 6.22139 6.59613 6.41150
#
# Compressibility (1/GPa) = 0.01820650
#
# Stress axis : x y z
#
# Youngs Moduli (GPa) = 87.56070 100.50962 89.26232
#
# Poissons Ratio (x) = 0.29732 0.31559
# Poissons Ratio (y) = 0.25901 0.06156
# Poissons Ratio (z) = 0.30957 0.06931
#
# Static dielectric constant tensor:
#      x y z
#    x 2.070150 0.079070 0.008370 
#    y 0.079070 2.129780 0.020560 
#    z 0.008370 0.020560 2.080460 
# 
# From -- ./inp_files/611676.got.cif
#   From: 2010.05.17/outbox.cif.g08.bks.cpg/sg2_306_cif.got.tgz:611676.got - 2010.06.03 11:33:40.
