data_PCOD9049778
_publ_section_title
;
Structure prediction by ZEFSAII (Michael W. Deem and Ramdas Pophale) SiO2 
 PCOD9049778
Probable space group: P -1
;
_chemical_formula_sum "Si O2"
_cell_formula_units_Z 16
_cell_length_a 9.697719
_cell_length_b 5.402343
_cell_length_c 14.423821
_cell_angle_alpha 73.172918
_cell_angle_beta 73.783553
_cell_angle_gamma 74.922853
_cell_volume 681.195443
_symmetry_space_group_name_H-M "P -1"
_symmetry_group_IT_number 2
_symmetry_cell_setting 'triclinic'
loop_
_space_group_symop_operation_xyz
x,y,z
-x,-y,-z
loop_
_atom_site_type_symbol
_atom_site_label
_atom_site_fract_x
_atom_site_fract_y
_atom_site_fract_z
Si Si1 0.515400 0.694800 0.058883
Si Si2 0.797868 0.322076 0.267415
Si Si3 0.793991 0.123864 0.814903
Si Si4 0.899961 0.866025 0.156135
Si Si5 0.790647 0.431917 0.609353
Si Si6 0.505071 0.297056 0.434190
Si Si7 0.158904 0.303813 0.000423
Si Si8 0.036708 0.736524 0.578988
O O1 0.368385 0.713269 0.146138
O O2 0.687173 0.612152 0.064782
O O3 0.500000 0.500000 0.000000
O O4 0.500000 0.000000 0.000000
O O5 0.823927 0.618370 0.219439
O O6 0.645892 0.307693 0.344945
O O7 0.915183 0.203819 0.335794
O O8 0.831674 0.128499 0.195616
O O9 0.799590 0.169704 0.698205
O O10 0.931360 0.213614 0.832001
O O11 0.814333 0.830703 0.888472
O O12 0.863252 0.910989 0.049610
O O13 0.630440 0.602459 0.618741
O O14 0.833497 0.418144 0.493763
O O15 0.906847 0.579828 0.618574
O O16 0.500000 0.500000 0.500000
O O17 0.500000 0.000000 0.500000
O O18 0.000000 0.500000 0.000000
O O19 0.000000 0.000000 0.500000
#
# Coordination Sequence:
#
# PCOD9049778 Si02
#       8
#     2   2   2   2   2   2   2   2
#     4  10  24  47  74 105 147 196 243 316 380 444
#     4  12  26  46  72 106 154 190 259 309 379 461
#     4  11  24  49  73 111 153 195 261 313 382 462
#     4  12  26  46  74 110 145 204 251 313 379 451
#     4  11  25  45  75 109 145 204 249 316 389 455
#     4  12  26  49  73 108 152 201 251 319 388 457
#     4  11  25  49  81 112 155 204 258 321 383 460
#     4  11  23  44  74 105 149 194 252 314 384 460
#
# _framework density 23.488122000000001
#
# number of rings (size 3 to 8) (size 9 to 14) (size 15 to 20)
#    0.000    0.750    2.500    4.125    3.500    4.000 
#    4.500    0.000    0.000    0.000    0.000    0.000 
#    0.000    0.000    0.000    0.000    0.000    0.000 
#
# Total GULP energy -89361.076426 kJ/mol
# GULP energy per Si atom -5585.067277 kJ/mol
# Density = 2.343466 g / cm^3
# Si number density = 23.488122 Si / 1000 Ang^3
#
#
#
# Elastic Constant Matrix: (Units=GPa)
#
#
# Indices 1 2 3 4 5 6 
#
# 1 169.1779 52.8614 49.4824 5.0328 -28.0994 -22.3133
# 2 52.8614 124.0687 41.0193 4.8348 -7.8538 -3.2106
# 3 49.4824 41.0193 96.7070 -12.3573 5.9146 -4.3715
# 4 5.0328 4.8348 -12.3573 48.6084 0.6691 7.3067
# 5 -28.0994 -7.8538 5.9146 0.6691 46.8372 -4.6937
# 6 -22.3133 -3.2106 -4.3715 7.3067 -4.6937 38.5211
#
#
#
# Elastic Compliance Matrix: (Units=1/GPa)
#
#
# Indices 1 2 3 4 5 6 
#
# 1 0.010073 -0.001943 -0.004868 -0.003173 0.007037 0.006580
# 2 -0.001943 0.010212 -0.003629 -0.001715 0.001006 -0.000238
# 3 -0.004868 -0.003629 0.015264 0.005293 -0.005844 -0.003106
# 4 -0.003173 -0.001715 0.005293 0.023415 -0.003824 -0.006288
# 5 0.007037 0.001006 -0.005844 -0.003824 0.027290 0.007547
# 6 0.006580 -0.000238 -0.003106 -0.006288 0.007547 0.031511
#
#
# Mechanical properties :
#
#
# Convention : Reuss Voigt Hill
#
# Bulk Modulus (GPa) = 68.17194 75.18663 71.67929
# Shear Modulus (GPa) = 34.83491 43.23273 39.03382
#
# Velocity S-wave (km/s) = 3.85526 4.29490 4.08101
# Velocity P-wave (km/s) = 6.99317 7.52827 7.26565
#
# Compressibility (1/GPa) = 0.01466879
#
# Stress axis : x y z
#
# Youngs Moduli (GPa) = 99.27637 97.92499 65.51333
#
# Poissons Ratio (x) = 0.19025 0.31895
# Poissons Ratio (y) = 0.19287 0.23774
# Poissons Ratio (z) = 0.48332 0.35536
#
# Static dielectric constant tensor:
#      x y z
#    x 0.897200 -0.076020 0.524990 
#    y -0.076020 2.022350 0.179550 
#    z 0.524990 0.179550 1.778910 
# 
# From -- ./inp_files/488141.got.cif
#   From: 2010.05.17/outbox.cif.g08.bks.cpg/sg2_245_cif.got.tgz:488141.got - 2010.06.03 11:33:40.
