data_PCOD9049893
_publ_section_title
;
Structure prediction by ZEFSAII (Michael W. Deem and Ramdas Pophale) SiO2 
 PCOD9049893
Probable space group: P -1
;
_chemical_formula_sum "Si O2"
_cell_formula_units_Z 10
_cell_length_a 4.851898
_cell_length_b 8.997284
_cell_length_c 9.439629
_cell_angle_alpha 79.156094
_cell_angle_beta 110.888948
_cell_angle_gamma 101.464554
_cell_volume 374.203742
_symmetry_space_group_name_H-M "P -1"
_symmetry_group_IT_number 2
_symmetry_cell_setting 'triclinic'
loop_
_space_group_symop_operation_xyz
x,y,z
-x,-y,-z
loop_
_atom_site_type_symbol
_atom_site_label
_atom_site_fract_x
_atom_site_fract_y
_atom_site_fract_z
Si Si1 0.648776 0.050864 0.369292
Si Si2 0.778382 0.808826 0.929372
Si Si3 0.165306 0.667921 0.809835
Si Si4 0.125373 0.199070 0.730260
Si Si5 0.337896 0.591060 0.337194
O O1 0.372879 0.067373 0.209061
O O2 0.832811 0.220437 0.347283
O O3 0.500000 0.000000 0.500000
O O4 0.835845 0.930111 0.354255
O O5 0.513151 0.663170 0.898378
O O6 0.055221 0.760680 0.905068
O O7 0.840297 0.854491 0.092967
O O8 0.928604 0.520086 0.766892
O O9 0.402792 0.331769 0.730253
O O10 0.826253 0.275241 0.652163
O O11 0.500000 0.500000 0.500000
#
# Coordination Sequence:
#
# PCOD9049893 Si02
#       5
#     2   2   2   2   2
#     4  10  27  49  77 115 154 197 252 310 377 453
#     4  10  24  47  80 112 153 188 260 305 378 450
#     4  10  25  48  76 107 158 192 253 307 376 443
#     4  12  27  47  83 110 152 203 247 314 380 442
#     4  12  29  50  73 113 156 197 255 310 379 450
#
# _framework density 26.723410999999999
#
# number of rings (size 3 to 8) (size 9 to 14) (size 15 to 20)
#    1.200    0.000    0.000    3.600    5.600    8.000 
#    0.000    1.000    0.000    0.000    0.000    0.000 
#    0.000    0.000    0.000    0.000    0.000    0.000 
#
# Total GULP energy -56095.371449 kJ/mol
# GULP energy per Si atom -5609.537145 kJ/mol
# Density = 2.666259 g / cm^3
# Si number density = 26.723411 Si / 1000 Ang^3
#
#
#
# Elastic Constant Matrix: (Units=GPa)
#
#
# Indices 1 2 3 4 5 6 
#
# 1 174.1521 20.1923 57.7757 -10.9773 -19.6461 -7.8773
# 2 20.1923 85.3934 22.3478 2.5967 -2.6451 5.2483
# 3 57.7757 22.3478 142.9488 -18.6246 -29.5237 -17.9804
# 4 -10.9773 2.5967 -18.6246 41.4314 3.1938 5.8589
# 5 -19.6461 -2.6451 -29.5237 3.1938 53.8988 7.4544
# 6 -7.8773 5.2483 -17.9804 5.8589 7.4544 62.9032
#
#
#
# Elastic Compliance Matrix: (Units=1/GPa)
#
#
# Indices 1 2 3 4 5 6 
#
# 1 0.006782 -0.001011 -0.002238 0.000754 0.001139 0.000089
# 2 -0.001011 0.012632 -0.002110 -0.001743 -0.000586 -0.001552
# 3 -0.002238 -0.002110 0.009717 0.003335 0.003944 0.001895
# 4 0.000754 -0.001743 0.003335 0.026080 0.000652 -0.001313
# 5 0.001139 -0.000586 0.003944 0.000652 0.021235 -0.001258
# 6 0.000089 -0.001552 0.001895 -0.001313 -0.001258 0.016851
#
#
# Mechanical properties :
#
#
# Convention : Reuss Voigt Hill
#
# Bulk Modulus (GPa) = 54.30795 67.01397 60.66096
# Shear Modulus (GPa) = 45.39122 51.79192 48.59157
#
# Velocity S-wave (km/s) = 4.12583 4.40713 4.26880
# Velocity P-wave (km/s) = 6.56224 7.14342 6.85898
#
# Compressibility (1/GPa) = 0.01841351
#
# Stress axis : x y z
#
# Youngs Moduli (GPa) = 147.45006 79.16491 102.90769
#
# Poissons Ratio (x) = 0.08003 0.23034
# Poissons Ratio (y) = 0.14907 0.21709
# Poissons Ratio (z) = 0.33005 0.16700
#
# Static dielectric constant tensor:
#      x y z
#    x 1.999680 0.059970 0.038430 
#    y 0.059970 2.166910 0.017060 
#    z 0.038430 0.017060 2.122620 
# 
# From -- ./inp_files/359806.got.cif
#   From: 2010.05.17/outbox.cif.g08.bks.cpg/sg2_180_cif.got.tgz:359806.got - 2010.06.03 11:33:40.
