data_PCOD9049488
_publ_section_title
;
Structure prediction by ZEFSAII (Michael W. Deem and Ramdas Pophale) SiO2 
 PCOD9049488
Probable space group: P -1
;
_chemical_formula_sum "Si O2"
_cell_formula_units_Z 12
_cell_length_a 20.821299
_cell_length_b 5.057784
_cell_length_c 8.167161
_cell_angle_alpha 95.626974
_cell_angle_beta 137.774136
_cell_angle_gamma 66.980160
_cell_volume 505.848739
_symmetry_space_group_name_H-M "P -1"
_symmetry_group_IT_number 2
_symmetry_cell_setting 'triclinic'
loop_
_space_group_symop_operation_xyz
x,y,z
-x,-y,-z
loop_
_atom_site_type_symbol
_atom_site_label
_atom_site_fract_x
_atom_site_fract_y
_atom_site_fract_z
Si Si1 0.266728 0.624484 0.950073
Si Si2 0.880900 0.701728 0.364428
Si Si3 0.696361 0.041840 0.486876
Si Si4 0.929489 0.835934 0.826051
Si Si5 0.393734 0.328605 0.502374
Si Si6 0.412004 0.117916 0.988996
O O1 0.178838 0.503944 0.756367
O O2 0.202149 0.984773 0.861579
O O3 0.339447 0.477840 0.238749
O O4 0.350823 0.465977 0.948469
O O5 0.902586 0.815088 0.585753
O O6 0.000000 0.500000 0.500000
O O7 0.617460 0.390951 0.393350
O O8 0.817427 0.991109 0.723384
O O9 0.672049 0.830794 0.551230
O O10 0.677893 0.951343 0.264847
O O11 0.000000 0.500000 0.000000
O O12 0.000000 0.000000 0.000000
O O13 0.519949 0.078468 0.739371
O O14 0.500000 0.000000 0.000000
#
# Coordination Sequence:
#
# PCOD9049488 Si02
#       6
#     2   2   2   2   2   2
#     4  12  26  48  73 105 149 186 233 293 358 427
#     4  12  29  49  72 104 145 189 236 295 361 420
#     4  11  24  45  70 106 144 188 235 298 349 419
#     4  12  27  45  75 102 140 183 248 295 352 417
#     4  11  25  43  74 105 146 187 235 283 358 431
#     4  10  24  46  75 107 144 188 238 293 355 420
#
# _framework density 23.722505000000002
#
# number of rings (size 3 to 8) (size 9 to 14) (size 15 to 20)
#    0.000    0.667    1.667    4.500   11.667    2.667 
#    0.000    5.833    0.000    0.000    0.000    0.000 
#    0.000    0.000    0.000    0.000    0.000    0.000 
#
# Total GULP energy -67171.382735 kJ/mol
# GULP energy per Si atom -5597.615228 kJ/mol
# Density = 2.366851 g / cm^3
# Si number density = 23.722505 Si / 1000 Ang^3
#
#
#
# Elastic Constant Matrix: (Units=GPa)
#
#
# Indices 1 2 3 4 5 6 
#
# 1 71.6317 38.8748 25.1262 -11.0076 7.4845 -5.1702
# 2 38.8748 120.6452 11.9896 -23.4412 5.1614 6.2996
# 3 25.1262 11.9896 111.4277 -9.1191 -4.8791 2.6726
# 4 -11.0076 -23.4412 -9.1191 56.9328 -0.9444 7.7490
# 5 7.4845 5.1614 -4.8791 -0.9444 40.2189 -4.1140
# 6 -5.1702 6.2996 2.6726 7.7490 -4.1140 43.2537
#
#
#
# Elastic Compliance Matrix: (Units=1/GPa)
#
#
# Indices 1 2 3 4 5 6 
#
# 1 0.018974 -0.005716 -0.003845 0.000240 -0.002950 0.003015
# 2 -0.005716 0.011028 0.000474 0.003921 -0.000516 -0.003070
# 3 -0.003845 0.000474 0.009999 0.001246 0.001774 -0.001201
# 4 0.000240 0.003921 0.001246 0.019995 -0.000360 -0.004236
# 5 -0.002950 -0.000516 0.001774 -0.000360 0.025905 0.002141
# 6 0.003015 -0.003070 -0.001201 -0.004236 0.002141 0.024964
#
#
# Mechanical properties :
#
#
# Convention : Reuss Voigt Hill
#
# Bulk Modulus (GPa) = 45.81683 50.63175 48.22429
# Shear Modulus (GPa) = 36.67985 43.26202 39.97093
#
# Velocity S-wave (km/s) = 3.93645 4.27508 4.10925
# Velocity P-wave (km/s) = 6.32585 6.76447 6.54883
#
# Compressibility (1/GPa) = 0.02182604
#
# Stress axis : x y z
#
# Youngs Moduli (GPa) = 52.70360 90.68049 100.01030
#
# Poissons Ratio (x) = 0.51836 0.38457
# Poissons Ratio (y) = 0.30127 -0.04744
# Poissons Ratio (z) = 0.20266 -0.04301
#
# Static dielectric constant tensor:
#      x y z
#    x 1.973190 -0.013060 -0.036080 
#    y -0.013060 1.866140 -0.007810 
#    z -0.036080 -0.007810 2.037520 
# 
# From -- ./inp_files/272024.got.cif
#   From: 2010.05.17/outbox.cif.g08.bks.cpg/sg2_137_cif.got.tgz:272024.got - 2010.06.03 11:33:40.
