data_PCOD9049549
_publ_section_title
;
Structure prediction by ZEFSAII (Michael W. Deem and Ramdas Pophale) SiO2 
 PCOD9049549
Probable space group: P -1
;
_chemical_formula_sum "Si O2"
_cell_formula_units_Z 14
_cell_length_a 14.155218
_cell_length_b 11.458727
_cell_length_c 12.792325
_cell_angle_alpha 53.250164
_cell_angle_beta 147.002489
_cell_angle_gamma 148.195738
_cell_volume 546.144972
_symmetry_space_group_name_H-M "P -1"
_symmetry_group_IT_number 2
_symmetry_cell_setting 'triclinic'
loop_
_space_group_symop_operation_xyz
x,y,z
-x,-y,-z
loop_
_atom_site_type_symbol
_atom_site_label
_atom_site_fract_x
_atom_site_fract_y
_atom_site_fract_z
Si Si1 0.167936 0.707835 0.960479
Si Si2 0.813592 0.454625 0.147872
Si Si3 0.129835 0.935457 0.261245
Si Si4 0.258549 0.260196 0.730645
Si Si5 0.432470 0.255561 0.185189
Si Si6 0.240167 0.290156 0.451543
Si Si7 0.329734 0.851138 0.666151
O O1 0.199882 0.634825 0.925643
O O2 0.468554 0.951807 0.160574
O O3 0.000000 0.500000 0.000000
O O4 0.983281 0.726747 0.754150
O O5 0.500121 0.307110 0.964746
O O6 0.012987 0.729218 0.187051
O O7 0.900831 0.400222 0.348716
O O8 0.235813 0.918760 0.468433
O O9 0.379354 0.182541 0.297070
O O10 0.867018 0.872397 0.064337
O O11 0.332987 0.458713 0.753475
O O12 0.320143 0.325360 0.628861
O O13 0.502097 0.154201 0.245036
O O14 0.500000 0.500000 0.500000
O O15 0.054173 0.020720 0.397479
#
# Coordination Sequence:
#
# PCOD9049549 Si02
#       7
#     2   2   2   2   2   2   2
#     4  12  27  47  75 105 154 200 257 321 386 462
#     4  11  24  50  70 114 153 199 252 322 388 458
#     4  10  24  46  78 110 155 202 257 312 386 470
#     4  10  24  48  74 108 154 197 257 321 376 464
#     4  10  24  48  74 111 154 201 256 318 385 459
#     4  11  25  48  73 110 147 205 258 309 387 463
#     4  12  25  46  75 114 154 200 254 318 390 458
#
# _framework density 25.634219000000002
#
# number of rings (size 3 to 8) (size 9 to 14) (size 15 to 20)
#    0.000    1.143    1.429    3.000    4.000    4.571 
#    7.714    0.000    0.000    0.000    0.000    0.000 
#    0.000    0.000    0.000    0.000    0.000    0.000 
#
# Total GULP energy -78575.813629 kJ/mol
# GULP energy per Si atom -5612.558116 kJ/mol
# Density = 2.557587 g / cm^3
# Si number density = 25.634219 Si / 1000 Ang^3
#
#
#
# Elastic Constant Matrix: (Units=GPa)
#
#
# Indices 1 2 3 4 5 6 
#
# 1 129.9347 50.7507 38.7659 -12.5146 -4.7496 6.3988
# 2 50.7507 115.7483 32.3436 -3.9814 6.5485 -10.6813
# 3 38.7659 32.3436 122.7634 -32.0453 -23.9744 -13.7093
# 4 -12.5146 -3.9814 -32.0453 51.9059 6.6697 1.7907
# 5 -4.7496 6.5485 -23.9744 6.6697 37.8690 -5.6731
# 6 6.3988 -10.6813 -13.7093 1.7907 -5.6731 63.6960
#
#
#
# Elastic Compliance Matrix: (Units=1/GPa)
#
#
# Indices 1 2 3 4 5 6 
#
# 1 0.010088 -0.004010 -0.002113 0.000876 0.000144 -0.002152
# 2 -0.004010 0.011437 -0.002648 -0.001298 -0.003710 0.001457
# 3 -0.002113 -0.002648 0.012995 0.006203 0.007790 0.003085
# 4 0.000876 -0.001298 0.006203 0.023162 0.000242 0.000400
# 5 0.000144 -0.003710 0.007790 0.000242 0.032544 0.003932
# 6 -0.002152 0.001457 0.003085 0.000400 0.003932 0.017163
#
#
# Mechanical properties :
#
#
# Convention : Reuss Voigt Hill
#
# Bulk Modulus (GPa) = 58.89017 68.01854 63.45435
# Shear Modulus (GPa) = 38.28770 47.13326 42.71048
#
# Velocity S-wave (km/s) = 3.86893 4.29264 4.08628
# Velocity P-wave (km/s) = 6.55601 7.15268 6.86084
#
# Compressibility (1/GPa) = 0.01698076
#
# Stress axis : x y z
#
# Youngs Moduli (GPa) = 99.12544 87.43566 76.95026
#
# Poissons Ratio (x) = 0.35058 0.16258
# Poissons Ratio (y) = 0.39745 0.20374
# Poissons Ratio (z) = 0.20943 0.23150
#
# Static dielectric constant tensor:
#      x y z
#    x 2.029200 0.025050 0.020940 
#    y 0.025050 2.017120 0.026100 
#    z 0.020940 0.026100 2.052750 
# 
# From -- ./inp_files/601155.got.cif
#   From: 2010.05.17/outbox.cif.g08.bks.cpg/sg2_301_cif.got.tgz:601155.got - 2010.06.03 11:33:40.
