data_PCOD9049361
_publ_section_title
;
Structure prediction by ZEFSAII (Michael W. Deem and Ramdas Pophale) SiO2 
 PCOD9049361
Probable space group: P -1
;
_chemical_formula_sum "Si O2"
_cell_formula_units_Z 16
_cell_length_a 17.180232
_cell_length_b 11.330762
_cell_length_c 22.392736
_cell_angle_alpha 157.495608
_cell_angle_beta 150.081243
_cell_angle_gamma 40.376915
_cell_volume 814.690732
_symmetry_space_group_name_H-M "P -1"
_symmetry_group_IT_number 2
_symmetry_cell_setting 'triclinic'
loop_
_space_group_symop_operation_xyz
x,y,z
-x,-y,-z
loop_
_atom_site_type_symbol
_atom_site_label
_atom_site_fract_x
_atom_site_fract_y
_atom_site_fract_z
Si Si1 0.156364 0.508040 0.426611
Si Si2 0.381871 0.185336 0.044067
Si Si3 0.327717 0.179507 0.808141
Si Si4 0.521314 0.616153 0.245297
Si Si5 0.401523 0.149558 0.182471
Si Si6 0.804709 0.246852 0.054350
Si Si7 0.847184 0.407385 0.396276
Si Si8 0.579295 0.802848 0.603125
O O1 0.131786 0.494663 0.475063
O O2 0.301608 0.346173 0.429037
O O3 0.992042 0.326414 0.203453
O O4 0.205628 0.872686 0.608460
O O5 0.427657 0.522801 0.201619
O O6 0.406142 0.179268 0.127743
O O7 0.500000 0.000000 0.000000
O O8 0.209916 0.972347 0.818456
O O9 0.249314 0.417886 0.828737
O O10 0.461482 0.039210 0.796452
O O11 0.420377 0.383831 0.019944
O O12 0.698658 0.547534 0.336862
O O13 0.513352 0.965231 0.384071
O O14 0.452260 0.506356 0.405409
O O15 0.238786 0.937518 0.998612
O O16 0.694859 0.012436 0.825744
O O17 0.000000 0.500000 0.500000
#
# Coordination Sequence:
#
# PCOD9049361 Si02
#       8
#     2   2   2   2   2   2   2   2
#     4  11  22  38  60  88 115 161 191 230 301 339
#     4  10  17  34  60  82 116 145 191 238 274 350
#     4  10  19  37  61  86 111 154 201 239 277 346
#     4  10  19  38  62  88 112 153 198 232 283 345
#     4  11  20  36  59  88 114 155 191 237 301 330
#     4  11  23  37  57  86 122 147 198 245 285 334
#     4  11  21  35  60  92 124 141 184 253 295 336
#     4  10  23  39  61  82 118 160 195 232 277 359
#
# _framework density 19.639353
#
# number of rings (size 3 to 8) (size 9 to 14) (size 15 to 20)
#    0.000    1.500    3.750    4.500    0.000    2.000 
#    0.000    1.250    2.750    3.000    0.000    0.000 
#    0.000    0.000    0.000    0.000    0.000    0.000 
#
# Total GULP energy -89274.058311 kJ/mol
# GULP energy per Si atom -5579.628644 kJ/mol
# Density = 1.959465 g / cm^3
# Si number density = 19.639353 Si / 1000 Ang^3
#
#
#
# Elastic Constant Matrix: (Units=GPa)
#
#
# Indices 1 2 3 4 5 6 
#
# 1 73.4626 17.7811 36.9285 11.5001 21.5676 9.0148
# 2 17.7811 78.5927 38.2147 20.0043 14.1085 4.8451
# 3 36.9285 38.2147 103.1977 11.4765 21.8911 -1.6287
# 4 11.5001 20.0043 11.4765 32.7436 0.6680 1.3779
# 5 21.5676 14.1085 21.8911 0.6680 38.8104 -6.5050
# 6 9.0148 4.8451 -1.6287 1.3779 -6.5050 17.8365
#
#
#
# Elastic Compliance Matrix: (Units=1/GPa)
#
#
# Indices 1 2 3 4 5 6 
#
# 1 0.022981 0.002865 -0.006010 -0.006721 -0.013196 -0.017235
# 2 0.002865 0.019198 -0.005728 -0.010221 -0.006643 -0.008819
# 3 -0.006010 -0.005728 0.014389 0.000385 -0.001827 0.005211
# 4 -0.006721 -0.010221 0.000385 0.038604 0.007572 0.005988
# 5 -0.013196 -0.006643 -0.001827 0.007572 0.040164 0.022370
# 6 -0.017235 -0.008819 0.005211 0.005988 0.022370 0.075343
#
#
# Mechanical properties :
#
#
# Convention : Reuss Voigt Hill
#
# Bulk Modulus (GPa) = 25.75820 49.01130 37.38475
# Shear Modulus (GPa) = 20.71540 28.70000 24.70770
#
# Velocity S-wave (km/s) = 3.25128 3.82691 3.55078
# Velocity P-wave (km/s) = 5.21905 6.67359 5.99063
#
# Compressibility (1/GPa) = 0.03882259
#
# Stress axis : x y z
#
# Youngs Moduli (GPa) = 43.51370 52.08745 69.49814
#
# Poissons Ratio (x) = -0.14923 0.41768
# Poissons Ratio (y) = -0.12466 0.39808
# Poissons Ratio (z) = 0.26152 0.29835
#
# Static dielectric constant tensor:
#      x y z
#    x 1.728900 0.037160 -0.017170 
#    y 0.037160 1.691970 0.005290 
#    z -0.017170 0.005290 1.734200 
# 
# From -- ./inp_files/204089.got.cif
#   From: 2010.05.17/outbox.cif.g08.bks.cpg/sg2_103_cif.got.tgz:204089.got - 2010.06.03 11:33:40.
