data_PCOD9049498
_publ_section_title
;
Structure prediction by ZEFSAII (Michael W. Deem and Ramdas Pophale) SiO2 
 PCOD9049498
Probable space group: P -1
;
_chemical_formula_sum "Si O2"
_cell_formula_units_Z 11
_cell_length_a 16.517850
_cell_length_b 6.800358
_cell_length_c 6.114217
_cell_angle_alpha 71.666999
_cell_angle_beta 88.808791
_cell_angle_gamma 133.153620
_cell_volume 447.150135
_symmetry_space_group_name_H-M "P -1"
_symmetry_group_IT_number 2
_symmetry_cell_setting 'triclinic'
loop_
_space_group_symop_operation_xyz
x,y,z
-x,-y,-z
loop_
_atom_site_type_symbol
_atom_site_label
_atom_site_fract_x
_atom_site_fract_y
_atom_site_fract_z
Si Si1 0.163465 0.288643 0.298653
Si Si2 0.264590 0.290474 0.910085
Si Si3 0.614090 0.837757 0.303003
Si Si4 0.969160 0.205075 0.154987
Si Si5 0.324545 0.792373 0.447441
Si Si6 0.500000 0.000000 0.000000
O O1 0.215561 0.551866 0.373113
O O2 0.085123 0.278143 0.140295
O O3 0.093826 0.983132 0.546184
O O4 0.269663 0.372320 0.133223
O O5 0.316579 0.169365 0.875223
O O6 0.321815 0.573076 0.659518
O O7 0.126867 0.027183 0.942354
O O8 0.500000 0.500000 0.500000
O O9 0.565962 0.957138 0.164602
O O10 0.687419 0.039881 0.443772
O O11 0.000000 0.500000 0.000000
O O12 0.441079 0.010443 0.219264
#
# Coordination Sequence:
#
# PCOD9049498 Si02
#       6
#     2   2   2   2   2   1
#     4  10  24  50  73 107 154 190 240 311 366 430
#     4  11  25  49  75 108 152 194 247 301 366 442
#     4  12  28  50  72 110 149 194 250 305 367 442
#     4  10  24  46  75 113 144 193 245 303 367 442
#     4  11  26  47  74 107 150 194 244 311 359 436
#     4  12  26  46  76 100 146 198 244 304 364 424
#
# _framework density 24.600238000000001
#
# number of rings (size 3 to 8) (size 9 to 14) (size 15 to 20)
#    0.000    1.091    1.818    2.182    7.636    4.364 
#    0.000    0.000    0.000    0.000    0.000    0.000 
#    0.000    0.000    0.000    0.000    0.000    0.000 
#
# Total GULP energy -61308.201777 kJ/mol
# GULP energy per Si atom -5573.472889 kJ/mol
# Density = 2.454425 g / cm^3
# Si number density = 24.600238 Si / 1000 Ang^3
#
#
#
# Elastic Constant Matrix: (Units=GPa)
#
#
# Indices 1 2 3 4 5 6 
#
# 1 119.5790 42.6320 23.2631 4.2002 10.9430 -21.6621
# 2 42.6320 120.0178 44.2272 4.4633 6.5281 -12.9966
# 3 23.2631 44.2272 69.8359 -10.5607 -4.3872 -19.7754
# 4 4.2002 4.4633 -10.5607 29.1305 -5.4481 -2.9857
# 5 10.9430 6.5281 -4.3872 -5.4481 38.3410 9.0636
# 6 -21.6621 -12.9966 -19.7754 -2.9857 9.0636 31.8808
#
#
#
# Elastic Compliance Matrix: (Units=1/GPa)
#
#
# Indices 1 2 3 4 5 6 
#
# 1 0.011263 -0.002711 -0.000439 -0.001495 -0.004788 0.007497
# 2 -0.002711 0.012599 -0.008541 -0.005317 -0.002694 -0.001736
# 3 -0.000439 -0.008541 0.025427 0.012472 0.003377 0.012200
# 4 -0.001495 -0.005317 0.012472 0.041884 0.007190 0.006431
# 5 -0.004788 -0.002694 0.003377 0.007190 0.031828 -0.010632
# 6 0.007497 -0.001736 0.012200 0.006431 -0.010632 0.046946
#
#
# Mechanical properties :
#
#
# Convention : Reuss Voigt Hill
#
# Bulk Modulus (GPa) = 38.59828 58.85303 48.72566
# Shear Modulus (GPa) = 24.75682 33.15781 28.95732
#
# Velocity S-wave (km/s) = 3.17577 3.67531 3.43463
# Velocity P-wave (km/s) = 5.40107 6.47968 5.96481
#
# Compressibility (1/GPa) = 0.02590789
#
# Stress axis : x y z
#
# Youngs Moduli (GPa) = 88.78293 79.37321 39.32810
#
# Poissons Ratio (x) = 0.21521 0.01726
# Poissons Ratio (y) = 0.24073 0.33588
# Poissons Ratio (z) = 0.03896 0.67789
#
# Static dielectric constant tensor:
#      x y z
#    x 1.981530 0.071730 -0.111960 
#    y 0.071730 2.032130 0.009940 
#    z -0.111960 0.009940 2.025120 
# 
# From -- ./inp_files/2196.got.cif
#   From: 2010.05.17/outbox.cif.g08.bks.cpg/sg2_2_cif.got.tgz:2196.got - 2010.06.03 11:33:40.
