data_PCOD9049097
_publ_section_title
;
Structure prediction by ZEFSAII (Michael W. Deem and Ramdas Pophale) SiO2 
 PCOD9049097
Probable space group: P -1
;
_chemical_formula_sum "Si O2"
_cell_formula_units_Z 15
_cell_length_a 10.581774
_cell_length_b 18.094557
_cell_length_c 21.165938
_cell_angle_alpha 160.453133
_cell_angle_beta 37.774339
_cell_angle_gamma 150.785028
_cell_volume 648.935815
_symmetry_space_group_name_H-M "P -1"
_symmetry_group_IT_number 2
_symmetry_cell_setting 'triclinic'
loop_
_space_group_symop_operation_xyz
x,y,z
-x,-y,-z
loop_
_atom_site_type_symbol
_atom_site_label
_atom_site_fract_x
_atom_site_fract_y
_atom_site_fract_z
Si Si1 0.000000 0.500000 0.000000
Si Si2 0.645032 0.368554 0.847315
Si Si3 0.530322 0.277178 0.046830
Si Si4 0.868864 0.272265 0.565133
Si Si5 0.806724 0.536123 0.678335
Si Si6 0.981203 0.130124 0.815195
Si Si7 0.388341 0.938657 0.717327
Si Si8 0.413813 0.855822 0.850279
O O1 0.169398 0.498331 0.870604
O O2 0.055374 0.305737 0.863552
O O3 0.677068 0.238093 0.668038
O O4 0.483807 0.142634 0.784728
O O5 0.500000 0.500000 0.000000
O O6 0.924683 0.643310 0.983736
O O7 0.365463 0.367671 0.158012
O O8 0.596707 0.142592 0.854729
O O9 0.368811 0.041827 0.973877
O O10 0.829552 0.377079 0.598604
O O11 0.157671 0.537393 0.689255
O O12 0.881341 0.016178 0.349292
O O13 0.654267 0.330633 0.512341
O O14 0.101320 0.794334 0.745646
O O15 0.666385 0.897324 0.755712
O O16 0.500000 0.000000 0.000000
#
# Coordination Sequence:
#
# PCOD9049097 Si02
#       8
#     1   2   2   2   2   2   2   2
#     4  10  24  46  68  98 136 186 224 286 350 416
#     4  12  26  42  70 105 145 181 233 294 358 409
#     4  11  23  46  73  94 144 181 231 292 351 415
#     4  12  26  45  74 105 140 185 234 299 350 414
#     4  11  26  44  73 106 134 182 239 289 356 415
#     4  11  25  47  70  99 143 184 235 287 351 425
#     4  11  24  43  67 104 138 180 230 287 350 414
#     4  11  24  46  71 103 140 191 236 281 351 422
#
# _framework density 23.114768000000002
#
# number of rings (size 3 to 8) (size 9 to 14) (size 15 to 20)
#    0.000    0.800    4.000    2.400    3.733    3.200 
#    4.800    1.333    0.000    0.000    0.000    0.000 
#    0.000    0.000    0.000    0.000    0.000    0.000 
#
# Total GULP energy -83588.656884 kJ/mol
# GULP energy per Si atom -5572.577126 kJ/mol
# Density = 2.306216 g / cm^3
# Si number density = 23.114768 Si / 1000 Ang^3
#
#
#
# Elastic Constant Matrix: (Units=GPa)
#
#
# Indices 1 2 3 4 5 6 
#
# 1 101.6576 31.9520 55.9818 -10.7655 -14.3899 -3.7309
# 2 31.9520 119.8842 33.0680 3.5990 -16.4211 -4.9080
# 3 55.9818 33.0680 116.0325 -9.6422 -7.9109 -8.5448
# 4 -10.7655 3.5990 -9.6422 33.2831 -2.2285 3.8150
# 5 -14.3899 -16.4211 -7.9109 -2.2285 39.9035 -6.1638
# 6 -3.7309 -4.9080 -8.5448 3.8150 -6.1638 30.8984
#
#
#
# Elastic Compliance Matrix: (Units=1/GPa)
#
#
# Indices 1 2 3 4 5 6 
#
# 1 0.014569 -0.001853 -0.005972 0.003407 0.003512 0.000093
# 2 -0.001853 0.009897 -0.001757 -0.002167 0.003208 0.001770
# 3 -0.005972 -0.001757 0.012292 0.001566 -0.000012 0.002203
# 4 0.003407 -0.002167 0.001566 0.032323 0.001974 -0.003097
# 5 0.003512 0.003208 -0.000012 0.001974 0.028747 0.006421
# 6 0.000093 0.001770 0.002203 -0.003097 0.006421 0.034929
#
#
# Mechanical properties :
#
#
# Convention : Reuss Voigt Hill
#
# Bulk Modulus (GPa) = 56.83868 64.39756 60.61812
# Shear Modulus (GPa) = 31.68846 35.25516 33.47181
#
# Velocity S-wave (km/s) = 3.70661 3.90965 3.80948
# Velocity P-wave (km/s) = 6.55452 6.94988 6.75509
#
# Compressibility (1/GPa) = 0.01759365
#
# Stress axis : x y z
#
# Youngs Moduli (GPa) = 68.63717 101.04002 81.35520
#
# Poissons Ratio (x) = 0.18726 0.48582
# Poissons Ratio (y) = 0.12721 0.14297
# Poissons Ratio (z) = 0.40987 0.17756
#
# Static dielectric constant tensor:
#      x y z
#    x 1.665450 -0.241030 -0.054980 
#    y -0.241030 1.607650 -0.050670 
#    z -0.054980 -0.050670 1.975690 
# 
# From -- ./inp_files/596041.got.cif
#   From: 2010.05.17/outbox.cif.g08.bks.cpg/sg2_299_cif.got.tgz:596041.got - 2010.06.03 11:33:40.
