data_PCOD9049609
_publ_section_title
;
Structure prediction by ZEFSAII (Michael W. Deem and Ramdas Pophale) SiO2 
 PCOD9049609
Probable space group: P -1
;
_chemical_formula_sum "Si O2"
_cell_formula_units_Z 12
_cell_length_a 16.284942
_cell_length_b 19.424356
_cell_length_c 12.561687
_cell_angle_alpha 26.476058
_cell_angle_beta 25.722982
_cell_angle_gamma 19.321066
_cell_volume 541.922490
_symmetry_space_group_name_H-M "P -1"
_symmetry_group_IT_number 2
_symmetry_cell_setting 'triclinic'
loop_
_space_group_symop_operation_xyz
x,y,z
-x,-y,-z
loop_
_atom_site_type_symbol
_atom_site_label
_atom_site_fract_x
_atom_site_fract_y
_atom_site_fract_z
Si Si1 0.841771 0.803032 0.740219
Si Si2 0.038626 0.552933 0.496268
Si Si3 0.886521 0.482408 0.989313
Si Si4 0.889568 0.968835 0.071778
Si Si5 0.420769 0.592946 0.279524
Si Si6 0.403831 0.733345 0.660515
O O1 0.785600 0.691393 0.882848
O O2 0.139075 0.693099 0.513669
O O3 0.645327 0.059311 0.597756
O O4 0.875661 0.723984 0.930308
O O5 0.978813 0.478512 0.769587
O O6 0.000000 0.500000 0.500000
O O7 0.349074 0.421955 0.331531
O O8 0.854389 0.812222 0.361360
O O9 0.647811 0.499096 0.229563
O O10 0.127446 0.833364 0.894780
O O11 0.644305 0.207339 0.980592
O O12 0.000000 0.000000 0.000000
O O13 0.522622 0.409757 0.329427
#
# Coordination Sequence:
#
# PCOD9049609 Si02
#       6
#     2   2   2   2   2   2
#     4  10  24  47  68  97 131 170 223 271 325 381
#     4  12  25  40  64 103 133 171 220 263 328 392
#     4  11  24  45  68  97 134 172 217 273 325 387
#     4  11  23  41  65  92 132 178 213 263 328 386
#     4  11  23  44  68  97 130 172 218 269 329 383
#     4  11  23  44  67  95 134 173 216 275 321 387
#
# _framework density 22.143388999999999
#
# number of rings (size 3 to 8) (size 9 to 14) (size 15 to 20)
#    0.000    1.000    3.333    3.000    4.667    2.000 
#    0.000    0.000    0.000    0.000    0.000    0.000 
#    0.000    0.000    0.000    0.000    0.000    0.000 
#
# Total GULP energy -67177.468997 kJ/mol
# GULP energy per Si atom -5598.122416 kJ/mol
# Density = 2.209299 g / cm^3
# Si number density = 22.143389 Si / 1000 Ang^3
#
#
#
# Elastic Constant Matrix: (Units=GPa)
#
#
# Indices 1 2 3 4 5 6 
#
# 1 160.5390 31.7143 30.4214 -12.4705 -7.4505 4.5043
# 2 31.7143 80.8531 11.6280 -20.9176 0.7578 6.6942
# 3 30.4214 11.6280 62.5687 -14.9560 9.6296 15.9987
# 4 -12.4705 -20.9176 -14.9560 48.1928 -2.8338 -0.4210
# 5 -7.4505 0.7578 9.6296 -2.8338 44.7909 2.6968
# 6 4.5043 6.6942 15.9987 -0.4210 2.6968 20.4409
#
#
#
# Elastic Compliance Matrix: (Units=1/GPa)
#
#
# Indices 1 2 3 4 5 6 
#
# 1 0.007541 -0.002651 -0.004119 -0.000339 0.002033 0.002155
# 2 -0.002651 0.015288 0.001358 0.006308 -0.000272 -0.005319
# 3 -0.004119 0.001358 0.024671 0.006757 -0.004494 -0.018115
# 4 -0.000339 0.006308 0.006757 0.025462 0.000405 -0.006809
# 5 0.002033 -0.000272 -0.004494 0.000405 0.023658 0.000045
# 6 0.002155 -0.005319 -0.018115 -0.006809 0.000045 0.064220
#
#
# Mechanical properties :
#
#
# Convention : Reuss Voigt Hill
#
# Bulk Modulus (GPa) = 27.26570 50.16533 38.71551
# Shear Modulus (GPa) = 27.19036 38.03140 32.61088
#
# Velocity S-wave (km/s) = 3.50797 4.14878 3.84176
# Velocity P-wave (km/s) = 5.36170 6.75675 6.09924
#
# Compressibility (1/GPa) = 0.03667612
#
# Stress axis : x y z
#
# Youngs Moduli (GPa) = 132.61361 65.41262 40.53264
#
# Poissons Ratio (x) = 0.17339 0.16694
# Poissons Ratio (y) = 0.35151 -0.05502
# Poissons Ratio (z) = 0.54620 -0.08880
#
# Static dielectric constant tensor:
#      x y z
#    x 1.767000 -0.011130 0.029040 
#    y -0.011130 1.803930 0.021950 
#    z 0.029040 0.021950 1.881930 
# 
# From -- ./inp_files/21577.got.cif
#   From: 2010.05.17/outbox.cif.g08.bks.cpg/sg2_11_cif.got.tgz:21577.got - 2010.06.03 11:33:40.
