data_PCOD9049898
_publ_section_title
;
Structure prediction by ZEFSAII (Michael W. Deem and Ramdas Pophale) SiO2 
 PCOD9049898
Probable space group: P -1
;
_chemical_formula_sum "Si O2"
_cell_formula_units_Z 12
_cell_length_a 7.431774
_cell_length_b 11.008219
_cell_length_c 16.056315
_cell_angle_alpha 24.535130
_cell_angle_beta 121.960632
_cell_angle_gamma 111.621386
_cell_volume 438.296720
_symmetry_space_group_name_H-M "P -1"
_symmetry_group_IT_number 2
_symmetry_cell_setting 'triclinic'
loop_
_space_group_symop_operation_xyz
x,y,z
-x,-y,-z
loop_
_atom_site_type_symbol
_atom_site_label
_atom_site_fract_x
_atom_site_fract_y
_atom_site_fract_z
Si Si1 0.575057 0.207780 0.062711
Si Si2 0.931645 0.699076 0.076376
Si Si3 0.619003 0.455577 0.645726
Si Si4 0.804066 0.882467 0.166571
Si Si5 0.336272 0.676470 0.583173
Si Si6 0.020536 0.743979 0.784503
O O1 0.327563 0.209827 0.022723
O O2 0.723748 0.937883 0.207469
O O3 0.524024 0.501855 0.805562
O O4 0.733052 0.224279 0.166666
O O5 0.115721 0.590432 0.263100
O O6 0.982452 0.995251 0.863886
O O7 0.996587 0.408113 0.212503
O O8 0.500000 0.500000 0.500000
O O9 0.642765 0.143378 0.901415
O O10 0.477199 0.719886 0.510134
O O11 0.204996 0.444926 0.662047
O O12 0.167391 0.948821 0.423384
O O13 0.000000 0.500000 0.000000
#
# Coordination Sequence:
#
# PCOD9049898 Si02
#       6
#     2   2   2   2   2   2
#     4  11  23  49  79 113 157 200 259 323 385 462
#     4  10  24  47  81 113 161 199 259 323 380 468
#     4   9  20  47  79 121 155 205 259 316 396 456
#     4   9  22  50  76 115 157 199 254 330 378 450
#     4  11  25  50  79 110 160 202 259 329 378 464
#     4  12  25  51  79 112 155 215 256 313 397 462
#
# _framework density 27.378712
#
# number of rings (size 3 to 8) (size 9 to 14) (size 15 to 20)
#    1.000    0.667    1.667    2.500    0.000    4.667 
#   18.000    1.667    0.000    0.000    0.000    0.000 
#    0.000    0.000    0.000    0.000    0.000    0.000 
#
# Total GULP energy -67191.403830 kJ/mol
# GULP energy per Si atom -5599.283652 kJ/mol
# Density = 2.731640 g / cm^3
# Si number density = 27.378712 Si / 1000 Ang^3
#
#
#
# Elastic Constant Matrix: (Units=GPa)
#
#
# Indices 1 2 3 4 5 6 
#
# 1 148.8111 34.2893 35.4408 8.0224 35.2216 -3.3411
# 2 34.2893 161.1198 55.9013 -21.4886 13.9429 -2.8069
# 3 35.4408 55.9013 134.2245 -4.9743 10.2678 -2.8094
# 4 8.0224 -21.4886 -4.9743 52.9633 -2.2210 12.2427
# 5 35.2216 13.9429 10.2678 -2.2210 47.6254 3.0479
# 6 -3.3411 -2.8069 -2.8094 12.2427 3.0479 35.5902
#
#
#
# Elastic Compliance Matrix: (Units=1/GPa)
#
#
# Indices 1 2 3 4 5 6 
#
# 1 0.009024 -0.001200 -0.001461 -0.002744 -0.006271 0.002118
# 2 -0.001200 0.007922 -0.002830 0.003287 -0.000618 -0.000789
# 3 -0.001461 -0.002830 0.009022 -0.000180 -0.000072 0.000420
# 4 -0.002744 0.003287 -0.000180 0.022576 0.002671 -0.008007
# 5 -0.006271 -0.000618 -0.000072 0.002671 0.026199 -0.003805
# 6 0.002118 -0.000789 0.000420 -0.008007 -0.003805 0.031348
#
#
# Mechanical properties :
#
#
# Convention : Reuss Voigt Hill
#
# Bulk Modulus (GPa) = 66.72457 77.26870 71.99664
# Shear Modulus (GPa) = 40.96094 48.47071 44.71583
#
# Velocity S-wave (km/s) = 3.87213 4.21215 4.04571
# Velocity P-wave (km/s) = 6.66446 7.20692 6.94099
#
# Compressibility (1/GPa) = 0.01498698
#
# Stress axis : x y z
#
# Youngs Moduli (GPa) = 110.81539 126.23342 110.83983
#
# Poissons Ratio (x) = 0.15149 0.16189
# Poissons Ratio (y) = 0.13299 0.31366
# Poissons Ratio (z) = 0.16185 0.35722
#
# Static dielectric constant tensor:
#      x y z
#    x 2.225050 0.057290 -0.003200 
#    y 0.057290 2.204920 -0.027320 
#    z -0.003200 -0.027320 2.196990 
# 
# From -- ./inp_files/558981.got.cif
#   From: 2010.05.17/outbox.cif.g08.bks.cpg/sg2_280_cif.got.tgz:558981.got - 2010.06.03 11:33:40.
