data_PCOD9049521
_publ_section_title
;
Structure prediction by ZEFSAII (Michael W. Deem and Ramdas Pophale) SiO2 
 PCOD9049521
Probable space group: P -1
;
_chemical_formula_sum "Si O2"
_cell_formula_units_Z 16
_cell_length_a 5.430098
_cell_length_b 15.439437
_cell_length_c 18.040330
_cell_angle_alpha 141.503391
_cell_angle_beta 134.985516
_cell_angle_gamma 64.379756
_cell_volume 640.293686
_symmetry_space_group_name_H-M "P -1"
_symmetry_group_IT_number 2
_symmetry_cell_setting 'triclinic'
loop_
_space_group_symop_operation_xyz
x,y,z
-x,-y,-z
loop_
_atom_site_type_symbol
_atom_site_label
_atom_site_fract_x
_atom_site_fract_y
_atom_site_fract_z
Si Si1 0.700203 0.387798 0.277539
Si Si2 0.940743 0.700826 0.045804
Si Si3 0.646201 0.390804 0.043831
Si Si4 0.217017 0.017532 0.390504
Si Si5 0.445436 0.877286 0.615504
Si Si6 0.749861 0.094817 0.934660
Si Si7 0.527475 0.114684 0.146376
Si Si8 0.248404 0.552851 0.382958
O O1 0.764125 0.262279 0.260141
O O2 0.041767 0.468379 0.354088
O O3 0.556857 0.490811 0.371248
O O4 0.360460 0.322969 0.103039
O O5 0.742538 0.607319 0.010034
O O6 0.259860 0.641134 0.040297
O O7 0.083127 0.862690 0.215990
O O8 0.676329 0.241444 0.990717
O O9 0.942098 0.521092 0.231790
O O10 0.433885 0.128164 0.447579
O O11 0.903898 0.064814 0.401591
O O12 0.500000 0.000000 0.500000
O O13 0.380847 0.722877 0.536865
O O14 0.772461 0.997391 0.803731
O O15 0.443725 0.979062 0.838500
O O16 0.128263 0.140685 0.088925
O O17 0.500000 0.000000 0.000000
#
# Coordination Sequence:
#
# PCOD9049521 Si02
#       8
#     2   2   2   2   2   2   2   2
#     4  10  20  38  61  83 123 170 207 251 300 358
#     4  10  17  34  60  88 109 153 207 237 296 360
#     4  10  18  35  62  82 115 159 210 240 295 354
#     4  12  24  41  67  96 127 155 197 264 318 366
#     4  12  25  42  65  94 127 160 208 246 314 384
#     4  11  22  36  60  94 117 166 207 267 299 350
#     4  11  22  34  61  93 126 154 221 270 297 338
#     4  10  21  38  61  87 120 169 207 240 302 377
#
# _framework density 24.988534000000001
#
# number of rings (size 3 to 8) (size 9 to 14) (size 15 to 20)
#    0.000    1.250    5.000    2.625    3.500    0.000 
#    0.000    1.250    0.000   18.000    0.000    0.000 
#    0.000    0.000    0.000    0.000    0.000    0.000 
#
# Total GULP energy -89408.724110 kJ/mol
# GULP energy per Si atom -5588.045257 kJ/mol
# Density = 2.493166 g / cm^3
# Si number density = 24.988534 Si / 1000 Ang^3
#
#
#
# Elastic Constant Matrix: (Units=GPa)
#
#
# Indices 1 2 3 4 5 6 
#
# 1 201.6213 24.2524 17.4447 -4.1083 3.4062 7.5198
# 2 24.2524 66.7533 19.0685 -2.1288 14.1587 12.8052
# 3 17.4447 19.0685 91.6216 4.3758 1.0078 -10.1089
# 4 -4.1083 -2.1288 4.3758 15.8108 0.7036 -4.0765
# 5 3.4062 14.1587 1.0078 0.7036 32.1674 5.7469
# 6 7.5198 12.8052 -10.1089 -4.0765 5.7469 32.5868
#
#
#
# Elastic Compliance Matrix: (Units=1/GPa)
#
#
# Indices 1 2 3 4 5 6 
#
# 1 0.005265 -0.001550 -0.000823 0.001180 0.000260 -0.000760
# 2 -0.001550 0.019879 -0.004674 0.001980 -0.007162 -0.007393
# 3 -0.000823 -0.004674 0.012782 -0.003008 0.000833 0.005468
# 4 0.001180 0.001980 -0.003008 0.066615 -0.003607 0.006986
# 5 0.000260 -0.007162 0.000833 -0.003607 0.034907 -0.003595
# 6 -0.000760 -0.007393 0.005468 0.006986 -0.003595 0.036972
#
#
# Mechanical properties :
#
#
# Convention : Reuss Voigt Hill
#
# Bulk Modulus (GPa) = 41.95818 53.50303 47.73060
# Shear Modulus (GPa) = 25.19420 36.06169 30.62794
#
# Velocity S-wave (km/s) = 3.17871 3.80298 3.50477
# Velocity P-wave (km/s) = 5.50451 6.38287 5.95989
#
# Compressibility (1/GPa) = 0.02383326
#
# Stress axis : x y z
#
# Youngs Moduli (GPa) = 189.91937 50.30406 78.23677
#
# Poissons Ratio (x) = 0.07796 0.06439
# Poissons Ratio (y) = 0.29432 0.36566
# Poissons Ratio (z) = 0.15631 0.23511
#
# Static dielectric constant tensor:
#      x y z
#    x 2.097570 0.009290 0.049840 
#    y 0.009290 2.039620 -0.038820 
#    z 0.049840 -0.038820 1.956660 
# 
# From -- ./inp_files/139555.got.cif
#   From: 2010.05.17/outbox.cif.g08.bks.cpg/sg2_70_cif.got.tgz:139555.got - 2010.06.03 11:33:40.
