data_PCOD9049795
_publ_section_title
;
Structure prediction by ZEFSAII (Michael W. Deem and Ramdas Pophale) SiO2 
 PCOD9049795
Probable space group: P -1
;
_chemical_formula_sum "Si O2"
_cell_formula_units_Z 12
_cell_length_a 7.477895
_cell_length_b 6.142175
_cell_length_c 14.841373
_cell_angle_alpha 107.787436
_cell_angle_beta 91.985347
_cell_angle_gamma 47.116998
_cell_volume 460.720010
_symmetry_space_group_name_H-M "P -1"
_symmetry_group_IT_number 2
_symmetry_cell_setting 'triclinic'
loop_
_space_group_symop_operation_xyz
x,y,z
-x,-y,-z
loop_
_atom_site_type_symbol
_atom_site_label
_atom_site_fract_x
_atom_site_fract_y
_atom_site_fract_z
Si Si1 0.625246 0.515357 0.800919
Si Si2 0.708873 0.117815 0.441435
Si Si3 0.841818 0.945757 0.614008
Si Si4 0.724559 0.636244 0.995969
Si Si5 0.171232 0.734819 0.892040
Si Si6 0.982989 0.505844 0.282072
O O1 0.659268 0.248487 0.715218
O O2 0.328792 0.786391 0.849421
O O3 0.750916 0.426207 0.890069
O O4 0.500000 0.000000 0.000000
O O5 0.500000 0.500000 0.500000
O O6 0.719666 0.990457 0.523404
O O7 0.949082 0.056876 0.411550
O O8 0.261730 0.107682 0.661754
O O9 0.771895 0.573159 0.754458
O O10 0.960287 0.641845 0.636821
O O11 0.648441 0.586235 0.081934
O O12 0.000000 0.500000 0.000000
O O13 0.053365 0.666722 0.810293
O O14 0.000000 0.000000 0.000000
#
# Coordination Sequence:
#
# PCOD9049795 Si02
#       6
#     2   2   2   2   2   2
#     4  11  26  46  77 113 157 206 266 328 392 480
#     4  10  24  48  78 113 152 200 258 320 398 483
#     4  10  24  47  74 114 152 199 257 324 392 480
#     4  12  26  47  76 112 156 214 268 330 404 472
#     4  12  27  49  79 115 161 212 271 329 399 481
#     4  11  25  49  79 111 160 205 263 323 405 467
#
# _framework density 26.046189999999999
#
# number of rings (size 3 to 8) (size 9 to 14) (size 15 to 20)
#    0.000    1.000    1.667    3.000    4.667    2.000 
#    6.000    0.000    0.000    0.000    0.000    0.000 
#    0.000    0.000    0.000    0.000    0.000    0.000 
#
# Total GULP energy -67131.988150 kJ/mol
# GULP energy per Si atom -5594.332346 kJ/mol
# Density = 2.598691 g / cm^3
# Si number density = 26.046190 Si / 1000 Ang^3
#
#
#
# Elastic Constant Matrix: (Units=GPa)
#
#
# Indices 1 2 3 4 5 6 
#
# 1 135.0677 34.5868 68.2939 14.7524 7.6450 -3.2190
# 2 34.5868 120.2614 82.5479 7.0975 1.2481 -0.9464
# 3 68.2939 82.5479 187.4597 28.2676 -0.6340 1.5030
# 4 14.7524 7.0975 28.2676 63.7721 12.5494 -16.4754
# 5 7.6450 1.2481 -0.6340 12.5494 37.9651 2.7781
# 6 -3.2190 -0.9464 1.5030 -16.4754 2.7781 28.7175
#
#
#
# Elastic Compliance Matrix: (Units=1/GPa)
#
#
# Indices 1 2 3 4 5 6 
#
# 1 0.009285 -0.000427 -0.003230 0.000112 -0.002054 0.001459
# 2 -0.000427 0.012116 -0.005482 0.001881 -0.001160 0.001830
# 3 -0.003230 -0.005482 0.009637 -0.004454 0.002747 -0.003868
# 4 0.000112 0.001881 -0.004454 0.022821 -0.008745 0.014246
# 5 -0.002054 -0.001160 0.002747 -0.008745 0.030340 -0.008364
# 6 0.001459 0.001830 -0.003868 0.014246 -0.008364 0.044231
#
#
# Mechanical properties :
#
#
# Convention : Reuss Voigt Hill
#
# Bulk Modulus (GPa) = 78.36938 90.40509 84.38724
# Shear Modulus (GPa) = 33.12061 43.24829 38.18445
#
# Velocity S-wave (km/s) = 3.56983 4.07928 3.83303
# Velocity P-wave (km/s) = 6.86626 7.54799 7.21518
#
# Compressibility (1/GPa) = 0.01276008
#
# Stress axis : x y z
#
# Youngs Moduli (GPa) = 107.70006 82.53271 103.76242
#
# Poissons Ratio (x) = 0.03524 0.33518
# Poissons Ratio (y) = 0.04598 0.56885
# Poissons Ratio (z) = 0.34790 0.45246
#
# Static dielectric constant tensor:
#      x y z
#    x 2.043940 0.003900 0.030830 
#    y 0.003900 2.189680 0.091860 
#    z 0.030830 0.091860 2.088040 
# 
# From -- ./inp_files/236268.got.cif
#   From: 2010.05.17/outbox.cif.g08.bks.cpg/sg2_119_cif.got.tgz:236268.got - 2010.06.03 11:33:40.
