data_PCOD9049854
_publ_section_title
;
Structure prediction by ZEFSAII (Michael W. Deem and Ramdas Pophale) SiO2 
 PCOD9049854
Probable space group: P -1
;
_chemical_formula_sum "Si O2"
_cell_formula_units_Z 16
_cell_length_a 16.030998
_cell_length_b 8.836988
_cell_length_c 9.108401
_cell_angle_alpha 146.637358
_cell_angle_beta 81.355633
_cell_angle_gamma 88.859172
_cell_volume 675.980566
_symmetry_space_group_name_H-M "P -1"
_symmetry_group_IT_number 2
_symmetry_cell_setting 'triclinic'
loop_
_space_group_symop_operation_xyz
x,y,z
-x,-y,-z
loop_
_atom_site_type_symbol
_atom_site_label
_atom_site_fract_x
_atom_site_fract_y
_atom_site_fract_z
Si Si1 0.763375 0.531317 0.350606
Si Si2 0.422766 0.343343 0.420925
Si Si3 0.911781 0.404344 0.981526
Si Si4 0.827242 0.413744 0.698651
Si Si5 0.360072 0.601331 0.342306
Si Si6 0.178489 0.132131 0.147725
Si Si7 0.004090 0.120216 0.257906
Si Si8 0.539855 0.929469 0.270017
O O1 0.661725 0.541819 0.356587
O O2 0.763727 0.769393 0.665171
O O3 0.830761 0.577325 0.245007
O O4 0.802691 0.207589 0.136051
O O5 0.500000 0.500000 0.500000
O O6 0.378488 0.393765 0.312289
O O7 0.472158 0.049657 0.251113
O O8 0.864049 0.373019 0.818415
O O9 0.951332 0.114966 0.824484
O O10 0.000000 0.500000 0.000000
O O11 0.739730 0.322746 0.619902
O O12 0.808566 0.737838 0.906824
O O13 0.907654 0.248064 0.444031
O O14 0.390124 0.881709 0.600791
O O15 0.416934 0.403260 0.040258
O O16 0.079169 0.283638 0.352242
O O17 0.000000 0.000000 0.000000
O O18 0.500000 0.000000 0.500000
#
# Coordination Sequence:
#
# PCOD9049854 Si02
#       8
#     2   2   2   2   2   2   2   2
#     4  11  25  46  70 108 137 191 237 297 344 438
#     4  10  24  47  77 102 146 184 246 289 365 422
#     4  11  25  44  69 103 150 189 242 287 370 413
#     4  12  24  42  71 104 148 182 239 304 354 423
#     4  11  26  45  74 108 141 186 242 290 362 424
#     4  11  24  44  72  99 142 179 248 283 352 417
#     4  11  24  45  70 103 141 195 241 290 355 425
#     4  11  26  49  73 105 146 186 233 298 365 431
#
# _framework density 23.669319999999999
#
# number of rings (size 3 to 8) (size 9 to 14) (size 15 to 20)
#    0.000    1.000    1.250    4.500    5.250    4.000 
#    4.500    0.000    0.000    0.000    0.000    0.000 
#    0.000    0.000    0.000    0.000    0.000    0.000 
#
# Total GULP energy -89349.128092 kJ/mol
# GULP energy per Si atom -5584.320506 kJ/mol
# Density = 2.361545 g / cm^3
# Si number density = 23.669320 Si / 1000 Ang^3
#
#
#
# Elastic Constant Matrix: (Units=GPa)
#
#
# Indices 1 2 3 4 5 6 
#
# 1 169.2972 32.1777 16.0461 -15.2843 -12.4687 -0.9654
# 2 32.1777 93.7050 12.6069 -27.2862 10.8081 -11.1231
# 3 16.0461 12.6069 56.5233 -15.1195 1.1855 -4.7918
# 4 -15.2843 -27.2862 -15.1195 33.6978 -2.8227 1.2335
# 5 -12.4687 10.8081 1.1855 -2.8227 40.3301 -10.2578
# 6 -0.9654 -11.1231 -4.7918 1.2335 -10.2578 37.4567
#
#
#
# Elastic Compliance Matrix: (Units=1/GPa)
#
#
# Indices 1 2 3 4 5 6 
#
# 1 0.006729 -0.002172 -0.001214 0.000979 0.002794 0.000106
# 2 -0.002172 0.015413 0.000569 0.011362 -0.003171 0.003351
# 3 -0.001214 0.000569 0.020538 0.009045 0.000139 0.002505
# 4 0.000979 0.011362 0.009045 0.043329 0.000882 0.003371
# 5 0.002794 -0.003171 0.000139 0.000882 0.028315 0.006873
# 6 0.000106 0.003351 0.002505 0.003371 0.006873 0.029787
#
#
# Mechanical properties :
#
#
# Convention : Reuss Voigt Hill
#
# Bulk Modulus (GPa) = 26.99243 49.02076 38.00659
# Shear Modulus (GPa) = 30.84605 39.54324 35.19464
#
# Velocity S-wave (km/s) = 3.61391 4.09180 3.86026
# Velocity P-wave (km/s) = 5.37053 6.56349 5.99675
#
# Compressibility (1/GPa) = 0.03704743
#
# Stress axis : x y z
#
# Youngs Moduli (GPa) = 148.60170 64.87862 48.68909
#
# Poissons Ratio (x) = 0.14092 0.05909
# Poissons Ratio (y) = 0.32278 -0.02770
# Poissons Ratio (z) = 0.18035 -0.03691
#
# Static dielectric constant tensor:
#      x y z
#    x 1.950480 0.144420 -0.033080 
#    y 0.144420 1.814810 0.059440 
#    z -0.033080 0.059440 1.954260 
# 
# From -- ./inp_files/299823.got.cif
#   From: 2010.05.17/outbox.cif.g08.bks.cpg/sg2_150_cif.got.tgz:299823.got - 2010.06.03 11:33:40.
