data_PCOD9049489
_publ_section_title
;
Structure prediction by ZEFSAII (Michael W. Deem and Ramdas Pophale) SiO2 
 PCOD9049489
Probable space group: P -1
;
_chemical_formula_sum "Si O2"
_cell_formula_units_Z 12
_cell_length_a 18.878124
_cell_length_b 5.321115
_cell_length_c 18.293398
_cell_angle_alpha 91.116947
_cell_angle_beta 164.863020
_cell_angle_gamma 87.412546
_cell_volume 477.316710
_symmetry_space_group_name_H-M "P -1"
_symmetry_group_IT_number 2
_symmetry_cell_setting 'triclinic'
loop_
_space_group_symop_operation_xyz
x,y,z
-x,-y,-z
loop_
_atom_site_type_symbol
_atom_site_label
_atom_site_fract_x
_atom_site_fract_y
_atom_site_fract_z
Si Si1 0.687726 0.173594 0.643260
Si Si2 0.871220 0.278057 0.558504
Si Si3 0.147180 0.756791 0.794366
Si Si4 0.349465 0.044450 0.774339
Si Si5 0.888756 0.255875 0.990452
Si Si6 0.606149 0.502898 0.437112
O O1 0.528221 0.298703 0.416785
O O2 0.500000 0.000000 0.500000
O O3 0.782644 0.345077 0.804478
O O4 0.950040 0.014064 0.868568
O O5 0.671429 0.381269 0.423919
O O6 0.080254 0.487592 0.755662
O O7 0.701661 0.219247 0.316843
O O8 0.024129 0.996366 0.723078
O O9 0.951104 0.805069 0.527197
O O10 0.451891 0.806643 0.078125
O O11 0.500000 0.000000 0.000000
O O12 0.115922 0.410826 0.252985
O O13 0.635177 0.274287 0.793458
#
# Coordination Sequence:
#
# PCOD9049489 Si02
#       6
#     2   2   2   2   2   2
#     4  11  25  45  68 101 131 178 238 295 356 426
#     4  10  28  46  71 105 149 188 240 295 358 434
#     4  10  25  44  71 104 146 184 241 287 359 422
#     4  10  24  46  75 107 144 189 237 294 353 424
#     4  11  26  42  68  94 133 175 231 289 359 416
#     4  12  27  43  68  97 138 184 232 294 364 421
#
# _framework density 25.140542
#
# number of rings (size 3 to 8) (size 9 to 14) (size 15 to 20)
#    1.000    0.333    1.667    1.500   11.667    1.333 
#    3.000    0.000    0.000    0.000    0.000    0.000 
#    0.000    0.000    0.000    0.000    0.000    0.000 
#
# Total GULP energy -67092.980015 kJ/mol
# GULP energy per Si atom -5591.081668 kJ/mol
# Density = 2.508332 g / cm^3
# Si number density = 25.140542 Si / 1000 Ang^3
#
#
#
# Elastic Constant Matrix: (Units=GPa)
#
#
# Indices 1 2 3 4 5 6 
#
# 1 86.0187 48.1678 20.5441 12.8181 0.4202 -20.9483
# 2 48.1678 119.6566 35.0996 30.0191 5.0399 -5.3969
# 3 20.5441 35.0996 103.3531 16.2791 18.2715 -3.2879
# 4 12.8181 30.0191 16.2791 39.0906 5.4999 -0.0892
# 5 0.4202 5.0399 18.2715 5.4999 34.9389 4.4369
# 6 -20.9483 -5.3969 -3.2879 -0.0892 4.4369 31.3182
#
#
#
# Elastic Compliance Matrix: (Units=1/GPa)
#
#
# Indices 1 2 3 4 5 6 
#
# 1 0.018203 -0.006384 -0.000990 -0.000619 -0.000077 0.010981
# 2 -0.006384 0.013289 -0.002319 -0.007267 0.000816 -0.002360
# 3 -0.000990 -0.002319 0.012038 -0.002097 -0.005747 0.001010
# 4 -0.000619 -0.007267 -0.002097 0.032630 -0.002807 -0.001396
# 5 -0.000077 0.000816 -0.005747 -0.002807 0.032605 -0.005142
# 6 0.010981 -0.002360 0.001010 -0.001396 -0.005142 0.039699
#
#
# Mechanical properties :
#
#
# Convention : Reuss Voigt Hill
#
# Bulk Modulus (GPa) = 41.41507 57.40572 49.41039
# Shear Modulus (GPa) = 28.42539 34.75067 31.58803
#
# Velocity S-wave (km/s) = 3.36618 3.72190 3.54850
# Velocity P-wave (km/s) = 5.62293 6.43068 6.04032
#
# Compressibility (1/GPa) = 0.02414580
#
# Stress axis : x y z
#
# Youngs Moduli (GPa) = 54.93535 75.24753 83.06741
#
# Poissons Ratio (x) = 0.48035 0.08224
# Poissons Ratio (y) = 0.35068 0.19264
# Poissons Ratio (z) = 0.05439 0.17451
#
# Static dielectric constant tensor:
#      x y z
#    x 1.979850 0.058370 -0.054080 
#    y 0.058370 2.038430 -0.054170 
#    z -0.054080 -0.054170 2.052000 
# 
# From -- ./inp_files/5430.got.cif
#   From: 2010.05.17/outbox.cif.g08.bks.cpg/sg2_3_cif.got.tgz:5430.got - 2010.06.03 11:33:40.
