data_PCOD9049207
_publ_section_title
;
Structure prediction by ZEFSAII (Michael W. Deem and Ramdas Pophale) SiO2 
 PCOD9049207
Probable space group: P -1
;
_chemical_formula_sum "Si O2"
_cell_formula_units_Z 16
_cell_length_a 16.882587
_cell_length_b 8.558846
_cell_length_c 12.610033
_cell_angle_alpha 148.822666
_cell_angle_beta 129.735203
_cell_angle_gamma 58.708289
_cell_volume 723.651104
_symmetry_space_group_name_H-M "P -1"
_symmetry_group_IT_number 2
_symmetry_cell_setting 'triclinic'
loop_
_space_group_symop_operation_xyz
x,y,z
-x,-y,-z
loop_
_atom_site_type_symbol
_atom_site_label
_atom_site_fract_x
_atom_site_fract_y
_atom_site_fract_z
Si Si1 0.560574 0.389239 0.884484
Si Si2 0.908554 0.063581 0.380665
Si Si3 0.654027 0.415213 0.595414
Si Si4 0.536521 0.683504 0.467369
Si Si5 0.236292 0.161937 0.700656
Si Si6 0.809833 0.946327 0.025957
Si Si7 0.119171 0.402361 0.553871
Si Si8 0.896189 0.785801 0.782335
O O1 0.491575 0.410424 0.731129
O O2 0.580614 0.033909 0.707428
O O3 0.500000 0.500000 0.000000
O O4 0.665909 0.596701 0.079143
O O5 0.908183 0.426548 0.586765
O O6 0.806343 0.918878 0.266940
O O7 0.903812 0.921425 0.176121
O O8 0.000000 0.000000 0.500000
O O9 0.606881 0.465215 0.466685
O O10 0.566681 0.328243 0.555915
O O11 0.730409 0.150432 0.501554
O O12 0.713287 0.735128 0.858034
O O13 0.144645 0.279083 0.618577
O O14 0.802044 0.304234 0.225213
O O15 0.834031 0.857733 0.875277
O O16 0.143448 0.172874 0.347345
O O17 0.000000 0.500000 0.500000
O O18 0.000000 0.000000 0.000000
#
# Coordination Sequence:
#
# PCOD9049207 Si02
#       8
#     2   2   2   2   2   2   2   2
#     4  11  23  45  71 104 133 179 220 274 336 414
#     4  11  26  43  65  94 134 175 222 281 331 387
#     4  11  23  45  68 101 130 181 218 283 336 399
#     4  10  24  46  70  94 144 171 221 272 345 401
#     4  12  24  44  69 102 136 174 231 277 335 398
#     4  11  23  44  64  91 131 172 224 264 337 398
#     4  11  24  44  66  93 134 179 225 277 333 396
#     4  11  23  41  64  89 123 174 220 266 326 393
#
# _framework density 22.110102000000001
#
# number of rings (size 3 to 8) (size 9 to 14) (size 15 to 20)
#    0.000    1.000    3.750    3.000    0.000    3.000 
#    4.500    0.000    0.000    0.000    0.000    0.000 
#    0.000    0.000    0.000    0.000    0.000    0.000 
#
# Total GULP energy -89386.278635 kJ/mol
# GULP energy per Si atom -5586.642415 kJ/mol
# Density = 2.205978 g / cm^3
# Si number density = 22.110102 Si / 1000 Ang^3
#
#
#
# Elastic Constant Matrix: (Units=GPa)
#
#
# Indices 1 2 3 4 5 6 
#
# 1 91.5211 17.4693 44.3620 2.2445 13.1795 26.5447
# 2 17.4693 84.0029 30.4107 -8.8103 0.6297 12.8920
# 3 44.3620 30.4107 112.0325 -7.3651 -2.7042 22.8136
# 4 2.2445 -8.8103 -7.3651 31.5835 19.7301 3.4588
# 5 13.1795 0.6297 -2.7042 19.7301 43.0710 2.8732
# 6 26.5447 12.8920 22.8136 3.4588 2.8732 34.9067
#
#
#
# Elastic Compliance Matrix: (Units=1/GPa)
#
#
# Indices 1 2 3 4 5 6 
#
# 1 0.016715 -0.000044 -0.004677 0.002416 -0.005888 -0.009392
# 2 -0.000044 0.014047 -0.002766 0.005258 -0.002530 -0.003660
# 3 -0.004677 -0.002766 0.012486 0.001861 0.001664 -0.003903
# 4 0.002416 0.005258 0.001861 0.048143 -0.022223 -0.007936
# 5 -0.005888 -0.002530 0.001664 -0.022223 0.035098 0.003638
# 6 -0.009392 -0.003660 -0.003903 -0.007936 0.003638 0.040180
#
#
# Mechanical properties :
#
#
# Convention : Reuss Voigt Hill
#
# Bulk Modulus (GPa) = 35.36826 52.44894 43.90860
# Shear Modulus (GPa) = 26.16873 34.93318 30.55096
#
# Velocity S-wave (km/s) = 3.44403 3.97919 3.72124
# Velocity P-wave (km/s) = 5.64325 6.69964 6.19401
#
# Compressibility (1/GPa) = 0.02827394
#
# Stress axis : x y z
#
# Youngs Moduli (GPa) = 59.82709 71.19058 80.08811
#
# Poissons Ratio (x) = 0.00311 0.37461
# Poissons Ratio (y) = 0.00261 0.22151
# Poissons Ratio (z) = 0.27984 0.19690
#
# Static dielectric constant tensor:
#      x y z
#    x 1.841480 0.016270 0.007910 
#    y 0.016270 1.848810 -0.038820 
#    z 0.007910 -0.038820 1.806970 
# 
# From -- ./inp_files/462635.got.cif
#   From: 2010.05.17/outbox.cif.g08.bks.cpg/sg2_232_cif.got.tgz:462635.got - 2010.06.03 11:33:40.
