data_PCOD9049050
_publ_section_title
;
Structure prediction by ZEFSAII (Michael W. Deem and Ramdas Pophale) SiO2 
 PCOD9049050
Probable space group: P -1
;
_chemical_formula_sum "Si O2"
_cell_formula_units_Z 14
_cell_length_a 8.497138
_cell_length_b 9.107126
_cell_length_c 11.552464
_cell_angle_alpha 67.523587
_cell_angle_beta 62.608512
_cell_angle_gamma 48.546878
_cell_volume 590.842304
_symmetry_space_group_name_H-M "P -1"
_symmetry_group_IT_number 2
_symmetry_cell_setting 'triclinic'
loop_
_space_group_symop_operation_xyz
x,y,z
-x,-y,-z
loop_
_atom_site_type_symbol
_atom_site_label
_atom_site_fract_x
_atom_site_fract_y
_atom_site_fract_z
Si Si1 0.594528 0.317328 0.269320
Si Si2 0.386574 0.425137 0.985164
Si Si3 0.214512 0.012419 0.058214
Si Si4 0.849178 0.928344 0.192440
Si Si5 0.083759 0.630313 0.404733
Si Si6 0.037554 0.390383 0.143838
Si Si7 0.756165 0.352060 0.421262
O O1 0.694377 0.419274 0.139316
O O2 0.339223 0.487810 0.322874
O O3 0.732696 0.228520 0.368532
O O4 0.632022 0.140774 0.236140
O O5 0.500000 0.500000 0.000000
O O6 0.211494 0.426504 0.122067
O O7 0.554038 0.202771 0.948336
O O8 0.188048 0.113610 0.912044
O O9 0.162329 0.160407 0.134536
O O10 0.037832 0.964375 0.121905
O O11 0.925790 0.774068 0.313916
O O12 0.098660 0.729646 0.487206
O O13 0.000000 0.500000 0.500000
O O14 0.855006 0.446935 0.284380
O O15 0.000000 0.500000 0.000000
O O16 0.500000 0.500000 0.500000
#
# Coordination Sequence:
#
# PCOD9049050 Si02
#       7
#     2   2   2   2   2   2   2
#     4  11  22  46  67 101 141 190 237 299 370 417
#     4  12  24  42  72 107 150 183 235 310 371 426
#     4  11  24  42  70 111 147 183 242 309 369 431
#     4  11  23  42  72 104 141 188 241 305 366 433
#     4  11  27  43  70  99 141 196 248 290 362 443
#     4  12  25  43  74 108 143 191 248 298 366 436
#     4  10  24  46  67  99 141 190 238 294 362 427
#
# _framework density 23.694987999999999
#
# number of rings (size 3 to 8) (size 9 to 14) (size 15 to 20)
#    0.000    0.857    5.714    0.429    6.000    1.143 
#    0.000    0.000    0.000    0.000    0.000    0.000 
#    0.000    0.000    0.000    0.000    0.000    0.000 
#
# Total GULP energy -78155.852152 kJ/mol
# GULP energy per Si atom -5582.560868 kJ/mol
# Density = 2.364106 g / cm^3
# Si number density = 23.694988 Si / 1000 Ang^3
#
#
#
# Elastic Constant Matrix: (Units=GPa)
#
#
# Indices 1 2 3 4 5 6 
#
# 1 61.9641 8.1734 36.4427 2.1306 -1.6677 9.9972
# 2 8.1734 86.6913 47.9098 -7.4655 0.3128 -8.1043
# 3 36.4427 47.9098 133.3731 -5.3544 -5.0214 -3.4345
# 4 2.1306 -7.4655 -5.3544 37.9689 -7.0814 7.6440
# 5 -1.6677 0.3128 -5.0214 -7.0814 59.4210 0.9182
# 6 9.9972 -8.1043 -3.4345 7.6440 0.9182 27.6067
#
#
#
# Elastic Compliance Matrix: (Units=1/GPa)
#
#
# Indices 1 2 3 4 5 6 
#
# 1 0.021017 0.000659 -0.006193 -0.000259 0.000158 -0.008122
# 2 0.000659 0.014869 -0.005399 0.001434 -0.000393 0.003071
# 3 -0.006193 -0.005399 0.011236 0.000658 0.000854 0.001845
# 4 -0.000259 0.001434 0.000658 0.028914 0.003603 -0.007530
# 5 0.000158 -0.000393 0.000854 0.003603 0.017362 -0.001641
# 6 -0.008122 0.003071 0.001845 -0.007530 -0.001641 0.042435
#
#
# Mechanical properties :
#
#
# Convention : Reuss Voigt Hill
#
# Bulk Modulus (GPa) = 39.59640 51.89782 45.74711
# Shear Modulus (GPa) = 30.09900 37.63282 33.86591
#
# Velocity S-wave (km/s) = 3.56795 3.98957 3.78464
# Velocity P-wave (km/s) = 5.80696 6.57056 6.20053
#
# Compressibility (1/GPa) = 0.02525482
#
# Stress axis : x y z
#
# Youngs Moduli (GPa) = 47.58008 67.25417 89.00320
#
# Poissons Ratio (x) = -0.04431 0.55120
# Poissons Ratio (y) = -0.03135 0.48056
# Poissons Ratio (z) = 0.29466 0.36313
#
# Static dielectric constant tensor:
#      x y z
#    x 2.195770 -0.084880 0.060710 
#    y -0.084880 1.931260 0.030760 
#    z 0.060710 0.030760 1.970890 
# 
# From -- ./inp_files/381224.got.cif
#   From: 2010.05.17/outbox.cif.g08.bks.cpg/sg2_191_cif.got.tgz:381224.got - 2010.06.03 11:33:40.
