data_PCOD9049018
_publ_section_title
;
Structure prediction by ZEFSAII (Michael W. Deem and Ramdas Pophale) SiO2 
 PCOD9049018
Probable space group: P -1
;
_chemical_formula_sum "Si O2"
_cell_formula_units_Z 14
_cell_length_a 8.858577
_cell_length_b 8.098586
_cell_length_c 22.536881
_cell_angle_alpha 128.764996
_cell_angle_beta 127.555238
_cell_angle_gamma 93.448876
_cell_volume 699.002094
_symmetry_space_group_name_H-M "P -1"
_symmetry_group_IT_number 2
_symmetry_cell_setting 'triclinic'
loop_
_space_group_symop_operation_xyz
x,y,z
-x,-y,-z
loop_
_atom_site_type_symbol
_atom_site_label
_atom_site_fract_x
_atom_site_fract_y
_atom_site_fract_z
Si Si1 0.679840 0.699835 0.645790
Si Si2 0.226432 0.371138 0.937906
Si Si3 0.055734 0.132377 0.608981
Si Si4 0.565245 0.690915 0.918423
Si Si5 0.625716 0.158350 0.992222
Si Si6 0.988690 0.565671 0.680532
Si Si7 0.137622 0.413058 0.481309
O O1 0.500000 0.500000 0.500000
O O2 0.790874 0.567323 0.669159
O O3 0.464695 0.663778 0.623525
O O4 0.952063 0.046949 0.775470
O O5 0.500000 0.500000 0.000000
O O6 0.265260 0.334293 0.006642
O O7 0.231452 0.620309 0.979168
O O8 0.373866 0.424254 0.765541
O O9 0.934546 0.275340 0.613316
O O10 0.000000 0.000000 0.500000
O O11 0.958991 0.886371 0.580131
O O12 0.735990 0.016961 0.004115
O O13 0.371317 0.672365 0.914135
O O14 0.304383 0.868769 0.837039
O O15 0.940828 0.601447 0.609122
O O16 0.000000 0.500000 0.500000
#
# Coordination Sequence:
#
# PCOD9049018 Si02
#       7
#     2   2   2   2   2   2   2
#     4  10  22  36  61 100 122 152 209 258 300 359
#     4  10  17  34  59  88 123 151 188 251 312 354
#     4  11  22  36  60  89 118 172 206 238 308 371
#     4   9  18  30  55  87 115 151 207 235 295 369
#     4   9  17  30  57  89 116 150 191 252 303 346
#     4  10  19  39  60  94 122 148 212 258 292 368
#     4  11  23  40  60  84 128 168 195 247 312 362
#
# _framework density 20.028552000000001
#
# number of rings (size 3 to 8) (size 9 to 14) (size 15 to 20)
#    0.000    2.000    4.286    0.857    6.000    0.571 
#    0.000    2.857    0.000    4.286    0.000    0.000 
#    0.000    0.000    0.000    0.000    0.000    0.000 
#
# Total GULP energy -77934.750742 kJ/mol
# GULP energy per Si atom -5566.767910 kJ/mol
# Density = 1.998297 g / cm^3
# Si number density = 20.028552 Si / 1000 Ang^3
#
#
#
# Elastic Constant Matrix: (Units=GPa)
#
#
# Indices 1 2 3 4 5 6 
#
# 1 62.3131 22.9853 27.8040 3.7326 11.2063 -17.8352
# 2 22.9853 198.9228 42.5880 -0.8730 0.6952 -17.2222
# 3 27.8040 42.5880 113.5338 -0.3893 -2.2622 -3.4573
# 4 3.7326 -0.8730 -0.3893 30.9627 5.4722 -6.8290
# 5 11.2063 0.6952 -2.2622 5.4722 21.3699 -3.9323
# 6 -17.8352 -17.2222 -3.4573 -6.8290 -3.9323 16.8736
#
#
#
# Elastic Compliance Matrix: (Units=1/GPa)
#
#
# Indices 1 2 3 4 5 6 
#
# 1 0.028958 0.000673 -0.006674 0.004969 -0.011816 0.029185
# 2 0.000673 0.006044 -0.002208 0.001609 0.000112 0.007104
# 3 -0.006674 -0.002208 0.011141 -0.001263 0.003853 -0.006638
# 4 0.004969 0.001609 -0.001263 0.037653 -0.008785 0.019827
# 5 -0.011816 0.000112 0.003853 -0.008785 0.055227 -0.002270
# 6 0.029185 0.007104 -0.006638 0.019827 -0.002270 0.103498
#
#
# Mechanical properties :
#
#
# Convention : Reuss Voigt Hill
#
# Bulk Modulus (GPa) = 33.64159 62.39160 48.01659
# Shear Modulus (GPa) = 18.59791 32.60075 25.59933
#
# Velocity S-wave (km/s) = 3.05055 4.03887 3.57899
# Velocity P-wave (km/s) = 5.40750 7.27797 6.41132
#
# Compressibility (1/GPa) = 0.02972511
#
# Stress axis : x y z
#
# Youngs Moduli (GPa) = 34.53230 165.46003 89.76040
#
# Poissons Ratio (x) = -0.11128 0.59904
# Poissons Ratio (y) = -0.02323 0.19816
# Poissons Ratio (z) = 0.23046 0.36529
#
# Static dielectric constant tensor:
#      x y z
#    x 1.808250 0.014630 -0.042660 
#    y 0.014630 1.813960 -0.024320 
#    z -0.042660 -0.024320 1.728120 
# 
# From -- ./inp_files/301617.got.cif
#   From: 2010.05.17/outbox.cif.g08.bks.cpg/sg2_151_cif.got.tgz:301617.got - 2010.06.03 11:33:40.
