data_PCOD9049482
_publ_section_title
;
Structure prediction by ZEFSAII (Michael W. Deem and Ramdas Pophale) SiO2 
 PCOD9049482
Probable space group: P -1
;
_chemical_formula_sum "Si O2"
_cell_formula_units_Z 16
_cell_length_a 27.452056
_cell_length_b 4.743000
_cell_length_c 15.381506
_cell_angle_alpha 67.905529
_cell_angle_beta 17.917257
_cell_angle_gamma 70.850040
_cell_volume 567.747859
_symmetry_space_group_name_H-M "P -1"
_symmetry_group_IT_number 2
_symmetry_cell_setting 'triclinic'
loop_
_space_group_symop_operation_xyz
x,y,z
-x,-y,-z
loop_
_atom_site_type_symbol
_atom_site_label
_atom_site_fract_x
_atom_site_fract_y
_atom_site_fract_z
Si Si1 0.839004 0.914595 0.370006
Si Si2 0.730147 0.538495 0.442252
Si Si3 0.196053 0.880491 0.312378
Si Si4 0.834631 0.329176 0.114338
Si Si5 0.567185 0.564571 0.474949
Si Si6 0.873087 0.070375 0.892923
Si Si7 0.762400 0.457528 0.885799
Si Si8 0.593151 0.821236 0.934126
O O1 0.753238 0.820597 0.435359
O O2 0.739834 0.733235 0.636324
O O3 0.818461 0.272617 0.370974
O O4 0.017098 0.830137 0.079579
O O5 0.811018 0.571748 0.206275
O O6 0.542971 0.426860 0.769754
O O7 0.333909 0.958731 0.139384
O O8 0.028508 0.889400 0.645189
O O9 0.213808 0.179169 0.184200
O O10 0.203634 0.605899 0.264821
O O11 0.642362 0.278221 0.425735
O O12 0.878993 0.282941 0.942489
O O13 0.500000 0.500000 0.500000
O O14 0.419828 0.655120 0.769418
O O15 0.715840 0.826965 0.187012
O O16 0.865943 0.282663 0.796341
O O17 0.500000 0.000000 0.000000
#
# Coordination Sequence:
#
# PCOD9049482 Si02
#       8
#     2   2   2   2   2   2   2   2
#     4  11  25  48  70 107 146 191 245 312 370 447
#     4  11  26  44  73 108 147 191 248 304 376 444
#     4  12  28  50  78 114 150 200 253 316 372 450
#     4  12  27  45  76 105 151 197 250 305 380 446
#     4  12  28  48  75 110 153 199 251 307 380 449
#     4  12  28  48  78 110 153 201 253 313 380 448
#     4  12  28  50  78 109 155 195 257 312 377 444
#     4  10  24  46  75 105 149 191 250 304 372 441
#
# _framework density 28.181525000000001
#
# number of rings (size 3 to 8) (size 9 to 14) (size 15 to 20)
#    0.000    0.500    2.500    3.750    8.750    5.000 
#    0.000    0.000    0.000    0.000    0.000    0.000 
#    0.000    0.000    0.000    0.000    0.000    0.000 
#
# Total GULP energy -89607.974952 kJ/mol
# GULP energy per Si atom -5600.498434 kJ/mol
# Density = 2.811738 g / cm^3
# Si number density = 28.181525 Si / 1000 Ang^3
#
#
#
# Elastic Constant Matrix: (Units=GPa)
#
#
# Indices 1 2 3 4 5 6 
#
# 1 186.0307 13.3935 60.2375 -1.9834 1.1370 8.7890
# 2 13.3935 76.7207 30.3053 -13.5256 1.1142 8.8578
# 3 60.2375 30.3053 167.7904 11.6613 6.7338 16.7873
# 4 -1.9834 -13.5256 11.6613 50.3576 0.0260 -3.5032
# 5 1.1370 1.1142 6.7338 0.0260 65.4981 15.1557
# 6 8.7890 8.8578 16.7873 -3.5032 15.1557 41.9097
#
#
#
# Elastic Compliance Matrix: (Units=1/GPa)
#
#
# Indices 1 2 3 4 5 6 
#
# 1 0.006118 -0.000025 -0.002210 0.000717 0.000216 -0.000411
# 2 -0.000025 0.015201 -0.002894 0.004625 0.000461 -0.001829
# 3 -0.002210 -0.002894 0.007695 -0.002797 -0.000201 -0.002169
# 4 0.000717 0.004625 -0.002797 0.021909 -0.000256 0.001916
# 5 0.000216 0.000461 -0.000201 -0.000256 0.016693 -0.006120
# 6 -0.000411 -0.001829 -0.002169 0.001916 -0.006120 0.027576
#
#
# Mechanical properties :
#
#
# Convention : Reuss Voigt Hill
#
# Bulk Modulus (GPa) = 53.30684 70.93496 62.12090
# Shear Modulus (GPa) = 44.76214 53.32680 49.04447
#
# Velocity S-wave (km/s) = 3.98974 4.35473 4.17622
# Velocity P-wave (km/s) = 6.33881 7.10706 6.73390
#
# Compressibility (1/GPa) = 0.01875932
#
# Stress axis : x y z
#
# Youngs Moduli (GPa) = 163.44085 65.78362 129.95304
#
# Poissons Ratio (x) = 0.00162 0.28713
# Poissons Ratio (y) = 0.00402 0.37604
# Poissons Ratio (z) = 0.36112 0.19036
#
# Static dielectric constant tensor:
#      x y z
#    x 2.151460 -0.184920 0.032060 
#    y -0.184920 2.337030 -0.064540 
#    z 0.032060 -0.064540 2.180520 
# 
# From -- ./inp_files/543568.got.cif
#   From: 2010.05.17/outbox.cif.g08.bks.cpg/sg2_272_cif.got.tgz:543568.got - 2010.06.03 11:33:40.
