data_PCOD9049049
_publ_section_title
;
Structure prediction by ZEFSAII (Michael W. Deem and Ramdas Pophale) SiO2 
 PCOD9049049
Probable space group: P -1
;
_chemical_formula_sum "Si O2"
_cell_formula_units_Z 13
_cell_length_a 11.853353
_cell_length_b 12.100043
_cell_length_c 17.778522
_cell_angle_alpha 30.665708
_cell_angle_beta 27.271972
_cell_angle_gamma 46.213703
_cell_volume 566.457321
_symmetry_space_group_name_H-M "P -1"
_symmetry_group_IT_number 2
_symmetry_cell_setting 'triclinic'
loop_
_space_group_symop_operation_xyz
x,y,z
-x,-y,-z
loop_
_atom_site_type_symbol
_atom_site_label
_atom_site_fract_x
_atom_site_fract_y
_atom_site_fract_z
Si Si1 0.130675 0.631591 0.271990
Si Si2 0.286516 0.656216 0.759233
Si Si3 0.000000 0.000000 0.500000
Si Si4 0.381852 0.125510 0.796552
Si Si5 0.315042 0.470109 0.513681
Si Si6 0.320890 0.059407 0.396728
Si Si7 0.640582 0.493209 0.033110
O O1 0.405070 0.591970 0.129374
O O2 0.000000 0.500000 0.500000
O O3 0.948992 0.532595 0.366869
O O4 0.178011 0.903340 0.082386
O O5 0.498834 0.573235 0.636603
O O6 0.315346 0.636246 0.842494
O O7 0.318175 0.903022 0.561092
O O8 0.000000 0.500000 0.000000
O O9 0.965991 0.965977 0.446505
O O10 0.878989 0.716509 0.746129
O O11 0.267261 0.264648 0.723060
O O12 0.532751 0.301870 0.666190
O O13 0.588509 0.037561 0.677804
O O14 0.528778 0.301584 0.148134
#
# Coordination Sequence:
#
# PCOD9049049 Si02
#       7
#     2   2   1   2   2   2   2
#     4  12  25  43  68 101 142 175 223 280 343 408
#     4  11  23  48  71  99 137 181 231 280 341 407
#     4  12  24  44  66 100 142 174 226 282 342 396
#     4  10  24  46  67  99 133 181 229 274 335 408
#     4  10  24  47  69  95 136 182 225 278 336 400
#     4  11  25  43  72 100 135 182 228 286 336 401
#     4  12  26  45  69 105 136 181 231 281 344 405
#
# _framework density 22.949653999999999
#
# number of rings (size 3 to 8) (size 9 to 14) (size 15 to 20)
#    0.000    0.923    4.615    1.385    2.154    1.846 
#    8.308    0.000    0.000    0.000    0.000    0.000 
#    0.000    0.000    0.000    0.000    0.000    0.000 
#
# Total GULP energy -72505.075899 kJ/mol
# GULP energy per Si atom -5577.313531 kJ/mol
# Density = 2.289742 g / cm^3
# Si number density = 22.949654 Si / 1000 Ang^3
#
#
#
# Elastic Constant Matrix: (Units=GPa)
#
#
# Indices 1 2 3 4 5 6 
#
# 1 322.1216 20.3572 40.7199 -92.7241 20.7679 3.2839
# 2 20.3572 26.5266 30.1870 -22.8435 1.2577 9.0826
# 3 40.7199 30.1870 162.1755 -33.5398 4.4995 13.9848
# 4 -92.7241 -22.8435 -33.5398 58.6161 -8.9057 -11.9890
# 5 20.7679 1.2577 4.4995 -8.9057 47.2556 -6.6344
# 6 3.2839 9.0826 13.9848 -11.9890 -6.6344 22.9828
#
#
#
# Elastic Compliance Matrix: (Units=1/GPa)
#
#
# Indices 1 2 3 4 5 6 
#
# 1 0.006491 0.005058 -0.000243 0.012916 0.000027 0.003967
# 2 0.005058 0.070886 -0.007632 0.029726 0.001057 -0.008280
# 3 -0.000243 -0.007632 0.007960 0.000808 -0.000509 -0.001518
# 4 0.012916 0.029726 0.000808 0.053585 0.005733 0.015523
# 5 0.000027 0.001057 -0.000509 0.005733 0.023612 0.009695
# 6 0.003967 -0.008280 -0.001518 0.015523 0.009695 0.058036
#
#
# Mechanical properties :
#
#
# Convention : Reuss Voigt Hill
#
# Bulk Modulus (GPa) = 12.54658 77.03912 44.79285
# Shear Modulus (GPa) = 19.78074 53.74154 36.76114
#
# Velocity S-wave (km/s) = 2.93903 4.84438 4.00661
# Velocity P-wave (km/s) = 4.12263 8.05806 6.40033
#
# Compressibility (1/GPa) = 0.07970297
#
# Stress axis : x y z
#
# Youngs Moduli (GPa) = 154.05381 14.10724 125.62907
#
# Poissons Ratio (x) = -0.07136 0.03053
# Poissons Ratio (y) = -0.77923 0.95881
# Poissons Ratio (z) = 0.03743 0.10767
#
# Static dielectric constant tensor:
#      x y z
#    x 1.842740 -0.111800 -0.010230 
#    y -0.111800 2.067780 0.060690 
#    z -0.010230 0.060690 1.838290 
# 
# From -- ./inp_files/59390.got.cif
#   From: 2010.05.17/outbox.cif.g08.bks.cpg/sg2_30_cif.got.tgz:59390.got - 2010.06.03 11:33:40.
