data_PCOD9049622
_publ_section_title
;
Structure prediction by ZEFSAII (Michael W. Deem and Ramdas Pophale) SiO2 
 PCOD9049622
Probable space group: P -1
;
_chemical_formula_sum "Si O2"
_cell_formula_units_Z 16
_cell_length_a 14.083509
_cell_length_b 9.540262
_cell_length_c 5.224636
_cell_angle_alpha 93.490574
_cell_angle_beta 111.845648
_cell_angle_gamma 69.605842
_cell_volume 608.820134
_symmetry_space_group_name_H-M "P -1"
_symmetry_group_IT_number 2
_symmetry_cell_setting 'triclinic'
loop_
_space_group_symop_operation_xyz
x,y,z
-x,-y,-z
loop_
_atom_site_type_symbol
_atom_site_label
_atom_site_fract_x
_atom_site_fract_y
_atom_site_fract_z
Si Si1 0.301697 0.320858 0.397825
Si Si2 0.939139 0.831257 0.413756
Si Si3 0.823541 0.011742 0.816596
Si Si4 0.602533 0.992126 0.424779
Si Si5 0.900542 0.567668 0.102052
Si Si6 0.352223 0.555100 0.713571
Si Si7 0.506593 0.702715 0.810266
Si Si8 0.836618 0.280073 0.129428
O O1 0.200696 0.313926 0.136874
O O2 0.269187 0.486278 0.496987
O O3 0.400436 0.310661 0.304120
O O4 0.070943 0.334014 0.638227
O O5 0.874247 0.923725 0.600240
O O6 0.658894 0.818448 0.383222
O O7 0.065240 0.806921 0.589919
O O8 0.888944 0.918460 0.114736
O O9 0.696036 0.029404 0.680919
O O10 0.838198 0.172344 0.882046
O O11 0.556819 0.121726 0.183216
O O12 0.500000 0.000000 0.500000
O O13 0.858592 0.433113 0.114774
O O14 0.000000 0.500000 0.000000
O O15 0.417830 0.632140 0.615763
O O16 0.282801 0.674792 0.860985
O O17 0.437514 0.404898 0.911034
#
# Coordination Sequence:
#
# PCOD9049622 Si02
#       8
#     2   2   2   2   2   2   2   2
#     4  11  23  46  74 109 155 207 265 324 397 481
#     4  12  28  54  80 115 162 212 269 330 401 484
#     4  12  29  53  81 118 161 212 269 330 400 484
#     4  10  25  48  75 111 155 213 265 324 395 477
#     4  12  26  49  79 116 159 206 265 332 405 479
#     4  11  25  43  76 114 155 202 262 333 405 476
#     4  10  24  47  69 112 155 207 263 330 402 475
#     4  12  28  48  80 117 156 209 262 336 406 478
#
# _framework density 26.280336999999999
#
# number of rings (size 3 to 8) (size 9 to 14) (size 15 to 20)
#    0.000    0.750    2.500    3.000    5.250    5.500 
#    0.000    0.000    0.000    0.000    0.000    0.000 
#    0.000    0.000    0.000    0.000    0.000    0.000 
#
# Total GULP energy -89672.984700 kJ/mol
# GULP energy per Si atom -5604.561544 kJ/mol
# Density = 2.622052 g / cm^3
# Si number density = 26.280337 Si / 1000 Ang^3
#
#
#
# Elastic Constant Matrix: (Units=GPa)
#
#
# Indices 1 2 3 4 5 6 
#
# 1 134.6331 63.7242 36.9912 -3.2210 8.9409 -1.0770
# 2 63.7242 167.8779 44.5795 19.2308 -0.6914 11.7829
# 3 36.9912 44.5795 85.5815 0.8161 8.6952 -6.6866
# 4 -3.2210 19.2308 0.8161 58.2954 0.3734 9.0991
# 5 8.9409 -0.6914 8.6952 0.3734 38.8855 5.2310
# 6 -1.0770 11.7829 -6.6866 9.0991 5.2310 38.4133
#
#
#
# Elastic Compliance Matrix: (Units=1/GPa)
#
#
# Indices 1 2 3 4 5 6 
#
# 1 0.009813 -0.003376 -0.002237 0.001573 -0.001941 0.000813
# 2 -0.003376 0.008681 -0.003495 -0.002538 0.002148 -0.003057
# 3 -0.002237 -0.003495 0.015143 0.000204 -0.003483 0.004071
# 4 0.001573 -0.002538 0.000204 0.018628 -0.000156 -0.003533
# 5 -0.001941 0.002148 -0.003483 -0.000156 0.027661 -0.005049
# 6 0.000813 -0.003057 0.004071 -0.003533 -0.005049 0.029226
#
#
# Mechanical properties :
#
#
# Convention : Reuss Voigt Hill
#
# Bulk Modulus (GPa) = 64.85540 75.40915 70.13228
# Shear Modulus (GPa) = 37.73353 43.30536 40.51945
#
# Velocity S-wave (km/s) = 3.79332 4.06374 3.93086
# Velocity P-wave (km/s) = 6.62703 7.12567 6.88087
#
# Compressibility (1/GPa) = 0.01541892
#
# Stress axis : x y z
#
# Youngs Moduli (GPa) = 101.90263 115.20041 66.03891
#
# Poissons Ratio (x) = 0.38893 0.14775
# Poissons Ratio (y) = 0.34403 0.23083
# Poissons Ratio (z) = 0.22799 0.40266
#
# Static dielectric constant tensor:
#      x y z
#    x 2.025480 0.030470 0.063670 
#    y 0.030470 2.100590 -0.004470 
#    z 0.063670 -0.004470 2.105070 
# 
# From -- ./inp_files/93532.got.cif
#   From: 2010.05.17/outbox.cif.g08.bks.cpg/sg2_47_cif.got.tgz:93532.got - 2010.06.03 11:33:40.
