data_PCOD9049024
_publ_section_title
;
Structure prediction by ZEFSAII (Michael W. Deem and Ramdas Pophale) SiO2 
 PCOD9049024
Probable space group: P -1
;
_chemical_formula_sum "Si O2"
_cell_formula_units_Z 15
_cell_length_a 11.281491
_cell_length_b 14.548056
_cell_length_c 11.169935
_cell_angle_alpha 64.081903
_cell_angle_beta 25.620706
_cell_angle_gamma 61.347456
_cell_volume 695.591676
_symmetry_space_group_name_H-M "P -1"
_symmetry_group_IT_number 2
_symmetry_cell_setting 'triclinic'
loop_
_space_group_symop_operation_xyz
x,y,z
-x,-y,-z
loop_
_atom_site_type_symbol
_atom_site_label
_atom_site_fract_x
_atom_site_fract_y
_atom_site_fract_z
Si Si1 0.509680 0.365327 0.545258
Si Si2 0.000000 0.500000 0.000000
Si Si3 0.527364 0.853772 0.405859
Si Si4 0.753672 0.216368 0.874521
Si Si5 0.490211 0.377315 0.841021
Si Si6 0.954818 0.986369 0.906407
Si Si7 0.301604 0.265084 0.445883
Si Si8 0.045739 0.493024 0.606011
O O1 0.780061 0.413162 0.242393
O O2 0.536877 0.248965 0.538851
O O3 0.434559 0.370069 0.754785
O O4 0.211421 0.439227 0.737707
O O5 0.258634 0.948819 0.592692
O O6 0.596129 0.824460 0.498786
O O7 0.789570 0.894012 0.092795
O O8 0.596451 0.264636 0.870544
O O9 0.064693 0.237397 0.591138
O O10 0.565242 0.277588 0.119193
O O11 0.786181 0.094203 0.941472
O O12 0.732139 0.438594 0.605227
O O13 0.227854 0.448979 0.106297
O O14 0.000000 0.000000 0.000000
O O15 0.163973 0.369622 0.582021
O O16 0.000000 0.500000 0.500000
#
# Coordination Sequence:
#
# PCOD9049024 Si02
#       8
#     2   1   2   2   2   2   2   2
#     4  11  26  45  66  96 134 178 221 264 328 391
#     4  10  24  46  66  92 126 180 228 256 308 390
#     4  12  25  43  66  96 131 167 220 279 326 395
#     4  12  23  41  64  96 130 172 217 272 338 384
#     4  12  25  43  63  95 140 174 215 269 323 406
#     4  12  23  42  68  97 128 166 222 284 336 380
#     4  12  23  37  63  97 131 167 218 267 331 395
#     4  12  23  39  63  96 134 174 216 257 331 395
#
# _framework density 21.564374999999998
#
# number of rings (size 3 to 8) (size 9 to 14) (size 15 to 20)
#    0.000    0.267    5.333    4.000    5.600    0.000 
#    0.000    1.333    0.000    0.000    0.000    0.000 
#    0.000    0.000    0.000    0.000    0.000    0.000 
#
# Total GULP energy -83656.645045 kJ/mol
# GULP energy per Si atom -5577.109670 kJ/mol
# Density = 2.151529 g / cm^3
# Si number density = 21.564375 Si / 1000 Ang^3
#
#
#
# Elastic Constant Matrix: (Units=GPa)
#
#
# Indices 1 2 3 4 5 6 
#
# 1 44.9813 16.9815 13.7746 5.1025 16.7068 0.3366
# 2 16.9815 110.1821 15.5428 -2.2808 -3.0127 -3.5026
# 3 13.7746 15.5428 138.0770 4.8956 -23.1743 3.1366
# 4 5.1025 -2.2808 4.8956 36.3385 1.9688 -1.8128
# 5 16.7068 -3.0127 -23.1743 1.9688 28.2306 -10.5180
# 6 0.3366 -3.5026 3.1366 -1.8128 -10.5180 38.4312
#
#
#
# Elastic Compliance Matrix: (Units=1/GPa)
#
#
# Indices 1 2 3 4 5 6 
#
# 1 0.041454 -0.006494 -0.009141 -0.003543 -0.036327 -0.010318
# 2 -0.006494 0.010300 0.000423 0.001301 0.006214 0.002723
# 3 -0.009141 0.000423 0.010668 -0.000797 0.015560 0.003469
# 4 -0.003543 0.001301 -0.000797 0.028274 0.000208 0.001605
# 5 -0.036327 0.006214 0.015560 0.000208 0.078174 0.021019
# 6 -0.010318 0.002723 0.003469 0.001605 0.021019 0.031904
#
#
# Mechanical properties :
#
#
# Convention : Reuss Voigt Hill
#
# Bulk Modulus (GPa) = 31.25217 42.87089 37.06153
# Shear Modulus (GPa) = 20.67273 37.06283 28.86778
#
# Velocity S-wave (km/s) = 3.09957 4.15023 3.66277
# Velocity P-wave (km/s) = 5.22817 6.54900 5.92550
#
# Compressibility (1/GPa) = 0.03199778
#
# Stress axis : x y z
#
# Youngs Moduli (GPa) = 24.12313 97.08319 93.74168
#
# Poissons Ratio (x) = 0.63047 0.85692
# Poissons Ratio (y) = 0.15666 -0.03968
# Poissons Ratio (z) = 0.22052 -0.04110
#
# Static dielectric constant tensor:
#      x y z
#    x 1.645950 0.072370 0.043020 
#    y 0.072370 1.691310 -0.059080 
#    z 0.043020 -0.059080 1.756320 
# 
# From -- ./inp_files/433772.got.cif
#   From: 2010.05.17/outbox.cif.g08.bks.cpg/sg2_217_cif.got.tgz:433772.got - 2010.06.03 11:33:40.
