data_PCOD9049076
_publ_section_title
;
Structure prediction by ZEFSAII (Michael W. Deem and Ramdas Pophale) SiO2 
 PCOD9049076
Probable space group: P -1
;
_chemical_formula_sum "Si O2"
_cell_formula_units_Z 16
_cell_length_a 12.609526
_cell_length_b 10.503767
_cell_length_c 13.909503
_cell_angle_alpha 83.593976
_cell_angle_beta 59.631146
_cell_angle_gamma 35.592103
_cell_volume 742.489788
_symmetry_space_group_name_H-M "P -1"
_symmetry_group_IT_number 2
_symmetry_cell_setting 'triclinic'
loop_
_space_group_symop_operation_xyz
x,y,z
-x,-y,-z
loop_
_atom_site_type_symbol
_atom_site_label
_atom_site_fract_x
_atom_site_fract_y
_atom_site_fract_z
Si Si1 0.292107 0.784158 0.670126
Si Si2 0.000540 0.766973 0.022206
Si Si3 0.626702 0.673014 0.271710
Si Si4 0.769338 0.148262 0.652654
Si Si5 0.350586 0.693802 0.876451
Si Si6 0.228441 0.113837 0.687401
Si Si7 0.252359 0.239514 0.471664
Si Si8 0.150218 0.675653 0.638925
O O1 0.307678 0.764745 0.778157
O O2 0.124691 0.819617 0.709604
O O3 0.589937 0.520081 0.520107
O O4 0.171002 0.029420 0.673588
O O5 0.168154 0.524734 0.893139
O O6 0.184828 0.718149 0.974655
O O7 0.915237 0.761190 0.153997
O O8 0.764452 0.065352 0.051407
O O9 0.445432 0.714605 0.331506
O O10 0.787214 0.503068 0.310284
O O11 0.434639 0.967433 0.355466
O O12 0.642998 0.367893 0.765223
O O13 0.000000 0.000000 0.500000
O O14 0.897402 0.910355 0.669402
O O15 0.176482 0.259195 0.611849
O O16 0.537180 0.841480 0.597009
O O17 0.000000 0.500000 0.500000
#
# Coordination Sequence:
#
# PCOD9049076 Si02
#       8
#     2   2   2   2   2   2   2   2
#     4  10  17  34  59  89 126 158 189 239 304 360
#     4   9  19  38  63  83 128 168 188 241 306 371
#     4  11  23  41  60  90 124 161 205 250 301 362
#     4  11  20  30  56  92 127 160 193 248 298 352
#     4   9  17  34  56  88 129 164 193 230 299 370
#     4  10  23  43  65  87 121 163 197 255 310 345
#     4  11  26  44  66  92 111 154 220 265 294 348
#     4  11  19  32  57  94 123 156 193 245 303 362
#
# _framework density 21.549119000000001
#
# number of rings (size 3 to 8) (size 9 to 14) (size 15 to 20)
#    0.000    1.750    5.000    0.750    1.750    0.500 
#    0.000    3.750    0.000    0.000    0.000    0.000 
#    0.000    0.000    0.000    0.000    0.000    0.000 
#
# Total GULP energy -89073.626161 kJ/mol
# GULP energy per Si atom -5567.101635 kJ/mol
# Density = 2.150007 g / cm^3
# Si number density = 21.549119 Si / 1000 Ang^3
#
#
#
# Elastic Constant Matrix: (Units=GPa)
#
#
# Indices 1 2 3 4 5 6 
#
# 1 50.9661 22.9121 8.0943 2.5269 8.5201 7.2674
# 2 22.9121 125.7544 64.0905 5.7835 3.4164 -10.5156
# 3 8.0943 64.0905 141.3590 -3.9403 2.3001 1.1576
# 4 2.5269 5.7835 -3.9403 38.7766 11.8978 4.1311
# 5 8.5201 3.4164 2.3001 11.8978 22.7769 7.7531
# 6 7.2674 -10.5156 1.1576 4.1311 7.7531 27.5210
#
#
#
# Elastic Compliance Matrix: (Units=1/GPa)
#
#
# Indices 1 2 3 4 5 6 
#
# 1 0.023954 -0.005555 0.001384 0.002333 -0.007158 -0.006840
# 2 -0.005555 0.012454 -0.005459 -0.002737 -0.000162 0.006912
# 3 0.001384 -0.005459 0.009571 0.002271 -0.000845 -0.002957
# 4 0.002333 -0.002737 0.002271 0.031548 -0.016548 -0.001831
# 5 -0.007158 -0.000162 -0.000845 -0.016548 0.059567 -0.012433
# 6 -0.006840 0.006912 -0.002957 -0.001831 -0.012433 0.044685
#
#
# Mechanical properties :
#
#
# Convention : Reuss Voigt Hill
#
# Bulk Modulus (GPa) = 37.42321 56.47482 46.94902
# Shear Modulus (GPa) = 23.81563 32.68040 28.24801
#
# Velocity S-wave (km/s) = 3.32803 3.89852 3.62452
# Velocity P-wave (km/s) = 5.67203 6.82122 6.27299
#
# Compressibility (1/GPa) = 0.02672138
#
# Stress axis : x y z
#
# Youngs Moduli (GPa) = 41.74598 80.29290 104.48036
#
# Poissons Ratio (x) = 0.44601 -0.14464
# Poissons Ratio (y) = 0.23189 0.57034
# Poissons Ratio (z) = -0.05779 0.43831
#
# Static dielectric constant tensor:
#      x y z
#    x 1.838740 0.062680 0.071480 
#    y 0.062680 1.868200 0.066150 
#    z 0.071480 0.066150 1.872890 
# 
# From -- ./inp_files/531122.got.cif
#   From: 2010.05.17/outbox.cif.g08.bks.cpg/sg2_266_cif.got.tgz:531122.got - 2010.06.03 11:33:40.
