data_PCOD9049767
_publ_section_title
;
Structure prediction by ZEFSAII (Michael W. Deem and Ramdas Pophale) SiO2 
 PCOD9049767
Probable space group: P -1
;
_chemical_formula_sum "Si O2"
_cell_formula_units_Z 12
_cell_length_a 18.928655
_cell_length_b 8.284450
_cell_length_c 4.688251
_cell_angle_alpha 83.898372
_cell_angle_beta 75.356122
_cell_angle_gamma 38.457267
_cell_volume 437.214491
_symmetry_space_group_name_H-M "P -1"
_symmetry_group_IT_number 2
_symmetry_cell_setting 'triclinic'
loop_
_space_group_symop_operation_xyz
x,y,z
-x,-y,-z
loop_
_atom_site_type_symbol
_atom_site_label
_atom_site_fract_x
_atom_site_fract_y
_atom_site_fract_z
Si Si1 0.116045 0.156438 0.644449
Si Si2 0.381970 0.005494 0.129622
Si Si3 0.753324 0.203701 0.932109
Si Si4 0.500000 0.500000 0.000000
Si Si5 0.856505 0.573874 0.057230
Si Si6 0.281540 0.453954 0.526907
Si Si7 0.500000 0.000000 0.500000
O O1 0.145705 0.277933 0.734924
O O2 0.152144 0.069689 0.297981
O O3 0.979304 0.363206 0.805918
O O4 0.192769 0.889350 0.790779
O O5 0.376723 0.144066 0.366476
O O6 0.253213 0.222285 0.083354
O O7 0.467047 0.912284 0.806783
O O8 0.428050 0.753888 0.234985
O O9 0.627883 0.337842 0.022144
O O10 0.749662 0.377300 0.730708
O O11 0.829540 0.450560 0.264788
O O12 0.381806 0.324467 0.675368
#
# Coordination Sequence:
#
# PCOD9049767 Si02
#       7
#     2   2   2   1   2   2   1
#     4  11  29  50  78 114 156 208 266 323 387 468
#     4  10  24  47  73 115 145 216 243 332 381 479
#     4  12  29  48  76 118 156 205 262 327 392 468
#     4  12  26  46  82 110 164 194 276 316 404 462
#     4  11  25  48  81 105 158 206 267 316 396 461
#     4  10  26  44  75 111 158 202 255 317 402 460
#     4   8  24  40  70 104 160 190 258 302 404 450
#
# _framework density 27.446480999999999
#
# number of rings (size 3 to 8) (size 9 to 14) (size 15 to 20)
#    1.000    0.333    1.667    1.000    9.333    4.667 
#    0.000    0.000    0.000    0.000    0.000    0.000 
#    0.000    0.000    0.000    0.000    0.000    0.000 
#
# Total GULP energy -66954.036139 kJ/mol
# GULP energy per Si atom -5579.503012 kJ/mol
# Density = 2.738401 g / cm^3
# Si number density = 27.446481 Si / 1000 Ang^3
#
#
#
# Elastic Constant Matrix: (Units=GPa)
#
#
# Indices 1 2 3 4 5 6 
#
# 1 123.0596 11.5895 31.5757 6.1004 -6.2105 -30.4660
# 2 11.5895 95.9844 0.1707 -1.3725 -13.5500 -18.9292
# 3 31.5757 0.1707 133.4250 -2.6517 -0.8786 -18.8026
# 4 6.1004 -1.3725 -2.6517 45.6991 -1.5972 -14.6618
# 5 -6.2105 -13.5500 -0.8786 -1.5972 47.2733 15.2990
# 6 -30.4660 -18.9292 -18.8026 -14.6618 15.2990 41.0972
#
#
#
# Elastic Compliance Matrix: (Units=1/GPa)
#
#
# Indices 1 2 3 4 5 6 
#
# 1 0.010295 0.000174 -0.001307 0.001055 -0.001149 0.007918
# 2 0.000174 0.011892 0.000897 0.002475 0.001477 0.006350
# 3 -0.001307 0.000897 0.008470 0.002094 -0.001140 0.004491
# 4 0.001055 0.002475 0.002094 0.026052 -0.002470 0.013094
# 5 -0.001149 0.001477 -0.001140 -0.002470 0.024821 -0.010814
# 6 0.007918 0.006350 0.004491 0.013094 -0.010814 0.043879
#
#
# Mechanical properties :
#
#
# Convention : Reuss Voigt Hill
#
# Bulk Modulus (GPa) = 33.12940 48.79340 40.96140
# Shear Modulus (GPa) = 36.78005 47.42278 42.10142
#
# Velocity S-wave (km/s) = 3.66466 4.16122 3.92081
# Velocity P-wave (km/s) = 5.47751 6.39562 5.95429
#
# Compressibility (1/GPa) = 0.03018467
#
# Stress axis : x y z
#
# Youngs Moduli (GPa) = 97.13234 84.09062 118.06313
#
# Poissons Ratio (x) = -0.01460 0.15436
# Poissons Ratio (y) = -0.01687 -0.10596
# Poissons Ratio (z) = 0.12699 -0.07547
#
# Static dielectric constant tensor:
#      x y z
#    x 2.228340 0.196650 0.034650 
#    y 0.196650 2.325730 0.002390 
#    z 0.034650 0.002390 2.043740 
# 
# From -- ./inp_files/18459.got.cif
#   From: 2010.05.17/outbox.cif.g08.bks.cpg/sg2_10_cif.got.tgz:18459.got - 2010.06.03 11:33:40.
