data_PCOD9049576
_publ_section_title
;
Structure prediction by ZEFSAII (Michael W. Deem and Ramdas Pophale) SiO2 
 PCOD9049576
Probable space group: P -1
;
_chemical_formula_sum "Si O2"
_cell_formula_units_Z 16
_cell_length_a 23.685116
_cell_length_b 9.625464
_cell_length_c 9.296767
_cell_angle_alpha 41.608211
_cell_angle_beta 33.450457
_cell_angle_gamma 40.103613
_cell_volume 715.890371
_symmetry_space_group_name_H-M "P -1"
_symmetry_group_IT_number 2
_symmetry_cell_setting 'triclinic'
loop_
_space_group_symop_operation_xyz
x,y,z
-x,-y,-z
loop_
_atom_site_type_symbol
_atom_site_label
_atom_site_fract_x
_atom_site_fract_y
_atom_site_fract_z
Si Si1 0.775231 0.779882 0.161953
Si Si2 0.571675 0.804021 0.393688
Si Si3 0.506873 0.423088 0.711474
Si Si4 0.881866 0.114840 0.745216
Si Si5 0.059670 0.804639 0.140289
Si Si6 0.276680 0.372294 0.310201
Si Si7 0.677426 0.943708 0.809868
Si Si8 0.876246 0.651498 0.786685
O O1 0.689798 0.727795 0.278965
O O2 0.734410 0.750653 0.427073
O O3 0.885945 0.624609 0.960032
O O4 0.795500 0.012275 0.946566
O O5 0.523346 0.613613 0.626672
O O6 0.500000 0.000000 0.500000
O O7 0.585185 0.888130 0.139993
O O8 0.500000 0.500000 0.500000
O O9 0.614149 0.192698 0.689033
O O10 0.394606 0.394907 0.019928
O O11 0.895164 0.083967 0.914153
O O12 0.822485 0.384615 0.652079
O O13 0.000000 0.000000 0.500000
O O14 0.137890 0.572400 0.073583
O O15 0.979509 0.702448 0.470215
O O16 0.000000 0.000000 0.000000
O O17 0.270010 0.228576 0.297886
O O18 0.776767 0.881728 0.761732
#
# Coordination Sequence:
#
# PCOD9049576 Si02
#       8
#     2   2   2   2   2   2   2   2
#     4  11  27  43  72 102 148 185 243 299 369 425
#     4  11  25  47  70 107 148 187 242 308 365 435
#     4  12  27  46  79 108 146 197 251 297 372 447
#     4  12  27  49  73 110 145 194 248 303 371 442
#     4  11  25  44  74 100 142 189 249 296 371 431
#     4  12  27  45  75 109 146 196 246 305 368 437
#     4  11  25  45  74 104 149 191 243 300 368 441
#     4  10  24  47  66 106 142 189 237 312 360 434
#
# _framework density 22.349789999999999
#
# number of rings (size 3 to 8) (size 9 to 14) (size 15 to 20)
#    0.000    0.750    3.750    1.875    7.000    6.500 
#    0.000    0.000    0.000    0.000    0.000    0.000 
#    0.000    0.000    0.000    0.000    0.000    0.000 
#
# Total GULP energy -89227.781593 kJ/mol
# GULP energy per Si atom -5576.736350 kJ/mol
# Density = 2.229892 g / cm^3
# Si number density = 22.349790 Si / 1000 Ang^3
#
#
#
# Elastic Constant Matrix: (Units=GPa)
#
#
# Indices 1 2 3 4 5 6 
#
# 1 63.7357 9.2388 11.3018 -3.0478 1.1351 21.6615
# 2 9.2388 122.2985 20.5200 7.2486 6.5474 11.7889
# 3 11.3018 20.5200 93.1358 16.7591 13.4149 13.1298
# 4 -3.0478 7.2486 16.7591 30.6259 7.5244 5.3033
# 5 1.1351 6.5474 13.4149 7.5244 35.2813 7.5077
# 6 21.6615 11.7889 13.1298 5.3033 7.5077 39.9652
#
#
#
# Elastic Compliance Matrix: (Units=1/GPa)
#
#
# Indices 1 2 3 4 5 6 
#
# 1 0.020020 -0.000502 -0.001818 0.004645 0.001491 -0.011002
# 2 -0.000502 0.008686 -0.001380 -0.000942 -0.000527 -0.001613
# 3 -0.001818 -0.001380 0.012983 -0.005952 -0.003030 -0.001513
# 4 0.004645 -0.000942 -0.005952 0.038594 -0.004992 -0.004468
# 5 0.001491 -0.000527 -0.003030 -0.004992 0.031662 -0.004943
# 6 -0.011002 -0.001613 -0.001513 -0.004468 -0.004943 0.033479
#
#
# Mechanical properties :
#
#
# Convention : Reuss Voigt Hill
#
# Bulk Modulus (GPa) = 29.16519 40.14346 34.65433
# Shear Modulus (GPa) = 30.44081 37.04845 33.74463
#
# Velocity S-wave (km/s) = 3.69456 4.07586 3.88988
# Velocity P-wave (km/s) = 5.59262 6.33645 5.97612
#
# Compressibility (1/GPa) = 0.03428744
#
# Stress axis : x y z
#
# Youngs Moduli (GPa) = 49.95085 115.13220 77.02637
#
# Poissons Ratio (x) = 0.05778 0.14006
# Poissons Ratio (y) = 0.02507 0.10630
# Poissons Ratio (z) = 0.09083 0.15889
#
# Static dielectric constant tensor:
#      x y z
#    x 1.856770 0.027090 0.031600 
#    y 0.027090 1.792210 0.036910 
#    z 0.031600 0.036910 1.933380 
# 
# From -- ./inp_files/139511.got.cif
#   From: 2010.05.17/outbox.cif.g08.bks.cpg/sg2_70_cif.got.tgz:139511.got - 2010.06.03 11:33:40.
