data_PCOD9049548
_publ_section_title
;
Structure prediction by ZEFSAII (Michael W. Deem and Ramdas Pophale) SiO2 
 PCOD9049548
Probable space group: P -1
;
_chemical_formula_sum "Si O2"
_cell_formula_units_Z 15
_cell_length_a 15.571482
_cell_length_b 5.254655
_cell_length_c 21.638873
_cell_angle_alpha 80.939576
_cell_angle_beta 159.679520
_cell_angle_gamma 97.069407
_cell_volume 605.624857
_symmetry_space_group_name_H-M "P -1"
_symmetry_group_IT_number 2
_symmetry_cell_setting 'triclinic'
loop_
_space_group_symop_operation_xyz
x,y,z
-x,-y,-z
loop_
_atom_site_type_symbol
_atom_site_label
_atom_site_fract_x
_atom_site_fract_y
_atom_site_fract_z
Si Si1 0.391941 0.451435 0.995955
Si Si2 0.280974 0.760818 0.028729
Si Si3 0.500000 0.500000 0.500000
Si Si4 0.664560 0.619199 0.394972
Si Si5 0.869281 0.600312 0.845705
Si Si6 0.087053 0.721128 0.596615
Si Si7 0.546771 0.063088 0.394120
Si Si8 0.945969 0.191548 0.743338
O O1 0.618849 0.295142 0.191404
O O2 0.500000 0.500000 0.000000
O O3 0.320936 0.685854 0.986950
O O4 0.135110 0.317371 0.820641
O O5 0.083434 0.609072 0.939447
O O6 0.528953 0.694334 0.236069
O O7 0.141519 0.043942 0.926583
O O8 0.654767 0.461759 0.671429
O O9 0.746306 0.386720 0.632673
O O10 0.613157 0.332191 0.394505
O O11 0.947726 0.667019 0.568918
O O12 0.553738 0.836334 0.358646
O O13 0.713816 0.868924 0.749745
O O14 0.000000 0.500000 0.000000
O O15 0.000000 0.500000 0.500000
O O16 0.000000 0.000000 0.500000
O O17 0.764090 0.001629 0.593826
#
# Coordination Sequence:
#
# PCOD9049548 Si02
#       8
#     2   2   1   2   2   2   2   2
#     4  12  28  51  77 109 157 209 264 330 401 476
#     4  12  27  47  78 111 159 206 264 332 398 480
#     4  10  24  46  78 108 164 196 266 324 398 478
#     4  12  26  49  76 112 156 201 265 327 394 476
#     4  11  24  46  76 116 155 210 262 322 408 479
#     4  12  26  47  77 111 148 203 264 327 392 465
#     4  11  28  47  78 113 154 206 262 322 398 488
#     4  11  27  48  77 112 156 207 262 329 402 476
#
# _framework density 24.767807999999999
#
# number of rings (size 3 to 8) (size 9 to 14) (size 15 to 20)
#    0.000    0.533    4.000    2.400    7.467    5.333 
#    0.000    0.000    0.000    0.000    0.000    0.000 
#    0.000    0.000    0.000    0.000    0.000    0.000 
#
# Total GULP energy -83639.538411 kJ/mol
# GULP energy per Si atom -5575.969227 kJ/mol
# Density = 2.471144 g / cm^3
# Si number density = 24.767808 Si / 1000 Ang^3
#
#
#
# Elastic Constant Matrix: (Units=GPa)
#
#
# Indices 1 2 3 4 5 6 
#
# 1 144.8264 39.2039 42.3775 -4.0065 9.8995 -16.9568
# 2 39.2039 107.2801 24.9075 -18.5085 -2.1294 -3.9435
# 3 42.3775 24.9075 154.1535 -27.1633 6.8559 -6.0700
# 4 -4.0065 -18.5085 -27.1633 30.6717 -12.3211 -7.0485
# 5 9.8995 -2.1294 6.8559 -12.3211 53.0241 -6.4316
# 6 -16.9568 -3.9435 -6.0700 -7.0485 -6.4316 31.9369
#
#
#
# Elastic Compliance Matrix: (Units=1/GPa)
#
#
# Indices 1 2 3 4 5 6 
#
# 1 0.008768 -0.003088 -0.002194 -0.002696 -0.001751 0.002910
# 2 -0.003088 0.012125 0.000496 0.009392 0.003513 0.002732
# 3 -0.002194 0.000496 0.008637 0.009033 0.001762 0.002886
# 4 -0.002696 0.009392 0.009033 0.055642 0.014665 0.016679
# 5 -0.001751 0.003513 0.001762 0.014665 0.023453 0.007799
# 6 0.002910 0.002732 0.002886 0.016679 0.007799 0.038994
#
#
# Mechanical properties :
#
#
# Convention : Reuss Voigt Hill
#
# Bulk Modulus (GPa) = 50.10336 68.80419 59.45377
# Shear Modulus (GPa) = 30.51672 43.11127 36.81399
#
# Velocity S-wave (km/s) = 3.51395 4.17660 3.85952
# Velocity P-wave (km/s) = 6.06110 7.14833 6.62705
#
# Compressibility (1/GPa) = 0.01995874
#
# Stress axis : x y z
#
# Youngs Moduli (GPa) = 114.04491 82.47357 115.78054
#
# Poissons Ratio (x) = 0.25466 0.25404
# Poissons Ratio (y) = 0.35214 -0.05742
# Poissons Ratio (z) = 0.25023 -0.04090
#
# Static dielectric constant tensor:
#      x y z
#    x 1.983570 0.065020 -0.005610 
#    y 0.065020 2.089930 0.024570 
#    z -0.005610 0.024570 1.943570 
# 
# From -- ./inp_files/596732.got.cif
#   From: 2010.05.17/outbox.cif.g08.bks.cpg/sg2_299_cif.got.tgz:596732.got - 2010.06.03 11:33:40.
