data_PCOD9049989
_publ_section_title
;
Structure prediction by ZEFSAII (Michael W. Deem and Ramdas Pophale) SiO2 
 PCOD9049989
Probable space group: P -1
;
_chemical_formula_sum "Si O2"
_cell_formula_units_Z 15
_cell_length_a 8.989312
_cell_length_b 13.288313
_cell_length_c 17.188556
_cell_angle_alpha 26.062522
_cell_angle_beta 134.723067
_cell_angle_gamma 132.090192
_cell_volume 636.136707
_symmetry_space_group_name_H-M "P -1"
_symmetry_group_IT_number 2
_symmetry_cell_setting 'triclinic'
loop_
_space_group_symop_operation_xyz
x,y,z
-x,-y,-z
loop_
_atom_site_type_symbol
_atom_site_label
_atom_site_fract_x
_atom_site_fract_y
_atom_site_fract_z
Si Si1 0.302327 0.909371 0.890861
Si Si2 0.595503 0.570238 0.404509
Si Si3 0.709583 0.171937 0.473398
Si Si4 0.027913 0.033016 0.157810
Si Si5 0.254358 0.506141 0.885115
Si Si6 0.973331 0.192279 0.291429
Si Si7 0.571702 0.557189 0.724337
Si Si8 0.000000 0.500000 0.500000
O O1 0.167203 0.911573 0.760251
O O2 0.409518 0.157008 0.782519
O O3 0.440006 0.704178 0.071246
O O4 0.164441 0.848371 0.959979
O O5 0.500000 0.500000 0.500000
O O6 0.443714 0.438738 0.376240
O O7 0.829423 0.525916 0.492888
O O8 0.859183 0.029104 0.676504
O O9 0.773215 0.317962 0.318448
O O10 0.640107 0.352289 0.385822
O O11 0.500000 0.000000 0.500000
O O12 0.988329 0.781070 0.279723
O O13 0.164357 0.240863 0.019178
O O14 0.140741 0.609382 0.845675
O O15 0.500000 0.500000 0.000000
O O16 0.204956 0.300120 0.270894
O O17 0.000000 0.000000 0.500000
#
# Coordination Sequence:
#
# PCOD9049989 Si02
#       8
#     2   2   2   2   2   2   2   1
#     4  11  24  44  70  98 146 187 230 309 361 428
#     4  11  25  46  75 102 141 194 250 295 371 447
#     4  12  24  41  68 100 142 183 228 300 364 428
#     4  11  23  46  68  97 147 184 240 294 367 434
#     4  12  25  41  69 106 140 188 239 294 366 445
#     4  12  25  42  68 105 140 181 240 293 361 437
#     4  12  24  45  68 103 138 184 238 295 366 426
#     4  10  24  48  72 100 146 198 234 316 364 438
#
# _framework density 23.579834999999999
#
# number of rings (size 3 to 8) (size 9 to 14) (size 15 to 20)
#    0.000    0.533    4.000    4.800    0.000    3.200 
#    0.000    0.667    0.000    0.000    0.000    0.000 
#    0.000    0.000    0.000    0.000    0.000    0.000 
#
# Total GULP energy -83579.387251 kJ/mol
# GULP energy per Si atom -5571.959150 kJ/mol
# Density = 2.352617 g / cm^3
# Si number density = 23.579835 Si / 1000 Ang^3
#
#
#
# Elastic Constant Matrix: (Units=GPa)
#
#
# Indices 1 2 3 4 5 6 
#
# 1 104.0414 7.1396 45.3577 -5.1946 0.2808 -10.9367
# 2 7.1396 70.9680 7.3757 -4.6148 -5.6698 -13.4290
# 3 45.3577 7.3757 84.8484 -20.4938 -2.3915 -9.9870
# 4 -5.1946 -4.6148 -20.4938 48.5629 0.1870 -3.0323
# 5 0.2808 -5.6698 -2.3915 0.1870 43.8994 -8.3487
# 6 -10.9367 -13.4290 -9.9870 -3.0323 -8.3487 29.9097
#
#
#
# Elastic Compliance Matrix: (Units=1/GPa)
#
#
# Indices 1 2 3 4 5 6 
#
# 1 0.012795 -0.000278 -0.006925 -0.001451 -0.000096 0.002067
# 2 -0.000278 0.016132 0.000382 0.002183 0.003719 0.008528
# 3 -0.006925 0.000382 0.017795 0.007100 0.001955 0.004847
# 4 -0.001451 0.002183 0.007100 0.023991 0.001663 0.005717
# 5 -0.000096 0.003719 0.001955 0.001663 0.025162 0.009479
# 6 0.002067 0.008528 0.004847 0.005717 0.009479 0.042863
#
#
# Mechanical properties :
#
#
# Convention : Reuss Voigt Hill
#
# Bulk Modulus (GPa) = 30.23057 42.17821 36.20439
# Shear Modulus (GPa) = 30.59830 37.80671 34.20251
#
# Velocity S-wave (km/s) = 3.60619 4.00853 3.81267
# Velocity P-wave (km/s) = 5.49435 6.27301 5.89655
#
# Compressibility (1/GPa) = 0.03307909
#
# Stress axis : x y z
#
# Youngs Moduli (GPa) = 78.15541 61.98904 56.19495
#
# Poissons Ratio (x) = 0.01725 0.38918
# Poissons Ratio (y) = 0.02175 -0.02148
# Poissons Ratio (z) = 0.54126 -0.02369
#
# Static dielectric constant tensor:
#      x y z
#    x 1.931150 0.065470 -0.055090 
#    y 0.065470 1.601730 -0.026550 
#    z -0.055090 -0.026550 1.871280 
# 
# From -- ./inp_files/201313.got.cif
#   From: 2010.05.17/outbox.cif.g08.bks.cpg/sg2_101_cif.got.tgz:201313.got - 2010.06.03 11:33:40.
