data_PCOD9049349
_publ_section_title
;
Structure prediction by ZEFSAII (Michael W. Deem and Ramdas Pophale) SiO2 
 PCOD9049349
Probable space group: P -1
;
_chemical_formula_sum "Si O2"
_cell_formula_units_Z 12
_cell_length_a 18.404396
_cell_length_b 4.869269
_cell_length_c 8.234860
_cell_angle_alpha 86.380366
_cell_angle_beta 129.241319
_cell_angle_gamma 118.465900
_cell_volume 470.649701
_symmetry_space_group_name_H-M "P -1"
_symmetry_group_IT_number 2
_symmetry_cell_setting 'triclinic'
loop_
_space_group_symop_operation_xyz
x,y,z
-x,-y,-z
loop_
_atom_site_type_symbol
_atom_site_label
_atom_site_fract_x
_atom_site_fract_y
_atom_site_fract_z
Si Si1 0.699155 0.320103 0.190298
Si Si2 0.018915 0.079068 0.713869
Si Si3 0.572232 0.744021 0.242737
Si Si4 0.849376 0.226396 0.972708
Si Si5 0.645269 0.748276 0.902340
Si Si6 0.175044 0.863420 0.421396
O O1 0.707424 0.634917 0.117189
O O2 0.810599 0.349998 0.414492
O O3 0.612601 0.114119 0.225992
O O4 0.650086 0.051171 0.985527
O O5 0.911427 0.047981 0.647654
O O6 0.118706 0.465576 0.879461
O O7 0.000000 0.000000 0.500000
O O8 0.061630 0.867271 0.860065
O O9 0.695665 0.810584 0.431674
O O10 0.500000 0.500000 0.000000
O O11 0.484371 0.573118 0.272411
O O12 0.856339 0.310334 0.791011
O O13 0.724141 0.907473 0.852239
#
# Coordination Sequence:
#
# PCOD9049349 Si02
#       6
#     2   2   2   2   2   2
#     4   9  21  38  67  97 137 187 233 270 339 419
#     4  12  27  50  73 101 139 194 242 288 353 437
#     4   8  19  41  71 101 143 184 239 279 344 424
#     4  12  27  45  73 109 146 177 235 307 359 410
#     4  11  20  41  66 104 139 185 231 283 341 424
#     4  10  24  46  72 109 141 188 234 298 358 408
#
# _framework density 25.496670000000002
#
# number of rings (size 3 to 8) (size 9 to 14) (size 15 to 20)
#    1.000    0.667    0.000    4.000    0.000    4.667 
#    0.000    0.000    0.000    5.000    0.000    0.000 
#    0.000    0.000    0.000    0.000    0.000    0.000 
#
# Total GULP energy -67115.078962 kJ/mol
# GULP energy per Si atom -5592.923247 kJ/mol
# Density = 2.543864 g / cm^3
# Si number density = 25.496670 Si / 1000 Ang^3
#
#
#
# Elastic Constant Matrix: (Units=GPa)
#
#
# Indices 1 2 3 4 5 6 
#
# 1 115.9050 26.8548 28.6720 7.8391 -2.7428 28.9178
# 2 26.8548 101.6687 7.6915 13.0396 -11.7133 2.0244
# 3 28.6720 7.6915 76.2511 11.3959 -7.4049 8.3157
# 4 7.8391 13.0396 11.3959 25.9138 4.9787 3.2994
# 5 -2.7428 -11.7133 -7.4049 4.9787 43.7269 7.1143
# 6 28.9178 2.0244 8.3157 3.2994 7.1143 52.0806
#
#
#
# Elastic Compliance Matrix: (Units=1/GPa)
#
#
# Indices 1 2 3 4 5 6 
#
# 1 0.011538 -0.002629 -0.003400 -0.000007 0.000391 -0.005815
# 2 -0.002629 0.011684 0.001044 -0.006356 0.003747 0.000730
# 3 -0.003400 0.001044 0.015775 -0.007044 0.003658 -0.000725
# 4 -0.000007 -0.006356 -0.007044 0.046506 -0.008116 -0.000462
# 5 0.000391 0.003747 0.003658 -0.008116 0.026091 -0.003996
# 6 -0.005815 0.000730 -0.000725 -0.000462 -0.003996 0.023092
#
#
# Mechanical properties :
#
#
# Convention : Reuss Voigt Hill
#
# Bulk Modulus (GPa) = 34.45126 46.69570 40.57348
# Shear Modulus (GPa) = 32.39782 39.71803 36.05792
#
# Velocity S-wave (km/s) = 3.56851 3.95115 3.76469
# Velocity P-wave (km/s) = 5.52453 6.25856 5.90297
#
# Compressibility (1/GPa) = 0.02902651
#
# Stress axis : x y z
#
# Youngs Moduli (GPa) = 86.66678 85.59058 63.39173
#
# Poissons Ratio (x) = 0.22501 0.21556
# Poissons Ratio (y) = 0.22783 -0.06619
# Poissons Ratio (z) = 0.29471 -0.08937
#
# Static dielectric constant tensor:
#      x y z
#    x 2.052320 0.054400 0.065940 
#    y 0.054400 2.022460 0.078310 
#    z 0.065940 0.078310 2.050700 
# 
# From -- ./inp_files/339394.got.cif
#   From: 2010.05.17/outbox.cif.g08.bks.cpg/sg2_170_cif.got.tgz:339394.got - 2010.06.03 11:33:40.
