data_PCOD9049225
_publ_section_title
;
Structure prediction by ZEFSAII (Michael W. Deem and Ramdas Pophale) SiO2 
 PCOD9049225
Probable space group: P -1
;
_chemical_formula_sum "Si O2"
_cell_formula_units_Z 12
_cell_length_a 7.148696
_cell_length_b 8.774904
_cell_length_c 10.099975
_cell_angle_alpha 99.673966
_cell_angle_beta 110.210382
_cell_angle_gamma 56.083981
_cell_volume 493.146041
_symmetry_space_group_name_H-M "P -1"
_symmetry_group_IT_number 2
_symmetry_cell_setting 'triclinic'
loop_
_space_group_symop_operation_xyz
x,y,z
-x,-y,-z
loop_
_atom_site_type_symbol
_atom_site_label
_atom_site_fract_x
_atom_site_fract_y
_atom_site_fract_z
Si Si1 0.044560 0.160821 0.059324
Si Si2 0.149367 0.385273 0.647458
Si Si3 0.763386 0.110586 0.549189
Si Si4 0.452801 0.033959 0.318406
Si Si5 0.816131 0.401631 0.775937
Si Si6 0.617873 0.426843 0.159884
O O1 0.874799 0.262427 0.159014
O O2 0.312742 0.087619 0.154614
O O3 0.957697 0.285131 0.924336
O O4 0.000000 0.000000 0.000000
O O5 0.298374 0.164350 0.649497
O O6 0.345693 0.429474 0.733468
O O7 0.000000 0.500000 0.500000
O O8 0.973880 0.451323 0.738169
O O9 0.718267 0.994612 0.630509
O O10 0.772335 0.272097 0.649016
O O11 0.530687 0.168262 0.412327
O O12 0.000000 0.000000 0.500000
O O13 0.574585 0.576471 0.798260
O O14 0.500000 0.500000 0.000000
#
# Coordination Sequence:
#
# PCOD9049225 Si02
#       6
#     2   2   2   2   2   2
#     4  11  23  45  77 102 137 180 233 300 348 415
#     4  12  27  46  68 100 144 187 235 286 345 421
#     4  11  22  42  71 104 144 181 231 284 345 422
#     4  11  24  44  71 105 141 177 236 291 343 411
#     4  11  24  48  71 102 142 189 229 283 361 410
#     4  10  24  46  70  99 142 180 231 290 348 421
#
# _framework density 24.333559000000001
#
# number of rings (size 3 to 8) (size 9 to 14) (size 15 to 20)
#    0.000    1.000    5.000    1.000    4.667    4.000 
#    3.000    3.333    0.000    0.000    0.000    0.000 
#    0.000    0.000    0.000    0.000    0.000    0.000 
#
# Total GULP energy -67060.083428 kJ/mol
# GULP energy per Si atom -5588.340286 kJ/mol
# Density = 2.427817 g / cm^3
# Si number density = 24.333559 Si / 1000 Ang^3
#
#
#
# Elastic Constant Matrix: (Units=GPa)
#
#
# Indices 1 2 3 4 5 6 
#
# 1 132.4618 13.4123 42.4825 -11.5238 -16.7522 -20.9372
# 2 13.4123 59.3110 34.9328 -1.6904 2.2046 -24.5555
# 3 42.4825 34.9328 147.4063 -20.8625 18.4239 4.5390
# 4 -11.5238 -1.6904 -20.8625 35.0986 0.5567 -5.8788
# 5 -16.7522 2.2046 18.4239 0.5567 62.2404 17.0568
# 6 -20.9372 -24.5555 4.5390 -5.8788 17.0568 32.3894
#
#
#
# Elastic Compliance Matrix: (Units=1/GPa)
#
#
# Indices 1 2 3 4 5 6 
#
# 1 0.010530 0.004715 -0.004166 0.003050 0.000837 0.011078
# 2 0.004715 0.037590 -0.009947 0.003855 -0.007446 0.037561
# 3 -0.004166 -0.009947 0.011258 0.003088 -0.001222 -0.010608
# 4 0.003050 0.003855 0.003088 0.033703 -0.004009 0.012690
# 5 0.000837 -0.007446 -0.001222 -0.004009 0.021625 -0.017048
# 6 0.011078 0.037561 -0.010608 0.012690 -0.017048 0.079280
#
#
# Mechanical properties :
#
#
# Convention : Reuss Voigt Hill
#
# Bulk Modulus (GPa) = 24.64184 57.87047 41.25615
# Shear Modulus (GPa) = 22.09341 42.50246 32.29794
#
# Velocity S-wave (km/s) = 3.01647 4.18384 3.64717
# Velocity P-wave (km/s) = 4.72026 6.86827 5.89296
#
# Compressibility (1/GPa) = 0.04058139
#
# Stress axis : x y z
#
# Youngs Moduli (GPa) = 94.96299 26.60258 88.82218
#
# Poissons Ratio (x) = -0.12543 0.37006
# Poissons Ratio (y) = -0.44773 0.88355
# Poissons Ratio (z) = 0.39564 0.26463
#
# Static dielectric constant tensor:
#      x y z
#    x 1.876090 -0.044960 0.005090 
#    y -0.044960 2.033430 0.029430 
#    z 0.005090 0.029430 1.951260 
# 
# From -- ./inp_files/360674.got.cif
#   From: 2010.05.17/outbox.cif.g08.bks.cpg/sg2_181_cif.got.tgz:360674.got - 2010.06.03 11:33:40.
