data_PCOD9049903
_publ_section_title
;
Structure prediction by ZEFSAII (Michael W. Deem and Ramdas Pophale) SiO2 
 PCOD9049903
Probable space group: P -1
;
_chemical_formula_sum "Si O2"
_cell_formula_units_Z 14
_cell_length_a 14.350130
_cell_length_b 8.887421
_cell_length_c 6.147955
_cell_angle_alpha 50.090506
_cell_angle_beta 73.365317
_cell_angle_gamma 83.107903
_cell_volume 574.101584
_symmetry_space_group_name_H-M "P -1"
_symmetry_group_IT_number 2
_symmetry_cell_setting 'triclinic'
loop_
_space_group_symop_operation_xyz
x,y,z
-x,-y,-z
loop_
_atom_site_type_symbol
_atom_site_label
_atom_site_fract_x
_atom_site_fract_y
_atom_site_fract_z
Si Si1 0.755215 0.859869 0.228472
Si Si2 0.109875 0.972382 0.665836
Si Si3 0.385186 0.652851 0.237587
Si Si4 0.918293 0.718152 0.943697
Si Si5 0.578885 0.761601 0.181119
Si Si6 0.326006 0.449308 0.074339
Si Si7 0.804303 0.339095 0.375856
O O1 0.654854 0.905733 0.135291
O O2 0.728958 0.690193 0.581650
O O3 0.823375 0.015704 0.176841
O O4 0.821271 0.774515 0.079447
O O5 0.167972 0.869324 0.532533
O O6 0.011214 0.831099 0.893740
O O7 0.084081 0.181237 0.387624
O O8 0.466749 0.793058 0.179780
O O9 0.413812 0.439613 0.500859
O O10 0.389113 0.622805 0.003036
O O11 0.274346 0.675310 0.365216
O O12 0.903706 0.482568 0.198959
O O13 0.619093 0.697803 0.978506
O O14 0.252626 0.556895 0.873735
#
# Coordination Sequence:
#
# PCOD9049903 Si02
#       7
#     2   2   2   2   2   2   2
#     4  11  19  39  60  88 122 157 198 245 296 353
#     4  11  25  38  65  87 119 159 198 248 302 346
#     4   9  18  32  58  91 119 154 200 239 291 352
#     4  11  22  44  60  86 120 158 204 245 293 355
#     4   9  17  31  58  90 118 156 200 237 289 359
#     4  10  17  34  61  84 124 153 193 245 294 342
#     4  11  21  40  60  93 121 153 198 249 292 355
#
# _framework density 24.385925
#
# number of rings (size 3 to 8) (size 9 to 14) (size 15 to 20)
#    0.000    1.714    5.714    1.286    0.000    2.286 
#    0.000    1.429    0.000    4.286    0.000    0.000 
#    0.000    0.000    0.000    0.000    0.000    0.000 
#
# Total GULP energy -78166.832274 kJ/mol
# GULP energy per Si atom -5583.345162 kJ/mol
# Density = 2.433042 g / cm^3
# Si number density = 24.385925 Si / 1000 Ang^3
#
#
#
# Elastic Constant Matrix: (Units=GPa)
#
#
# Indices 1 2 3 4 5 6 
#
# 1 137.9594 38.6035 18.5752 -4.8685 -3.6917 42.5632
# 2 38.6035 57.9283 13.1631 -7.7816 7.2342 35.1607
# 3 18.5752 13.1631 65.9967 -2.3227 4.3994 12.3189
# 4 -4.8685 -7.7816 -2.3227 28.2721 2.7876 -0.4108
# 5 -3.6917 7.2342 4.3994 2.7876 21.5291 -4.6972
# 6 42.5632 35.1607 12.3189 -0.4108 -4.6972 61.1065
#
#
#
# Elastic Compliance Matrix: (Units=1/GPa)
#
#
# Indices 1 2 3 4 5 6 
#
# 1 0.009910 -0.004101 -0.001367 0.000165 0.002446 -0.004078
# 2 -0.004101 0.034897 -0.000849 0.010297 -0.017590 -0.018335
# 3 -0.001367 -0.000849 0.016416 0.001236 -0.003936 -0.002163
# 4 0.000165 0.010297 0.001236 0.039247 -0.010253 -0.006813
# 5 0.002446 -0.017590 -0.003936 -0.010253 0.057876 0.013591
# 6 -0.004078 -0.018335 -0.002163 -0.006813 0.013591 0.031190
#
#
# Mechanical properties :
#
#
# Convention : Reuss Voigt Hill
#
# Bulk Modulus (GPa) = 20.58087 44.72978 32.65532
# Shear Modulus (GPa) = 22.89738 34.95105 28.92421
#
# Velocity S-wave (km/s) = 3.06757 3.78993 3.44772
# Velocity P-wave (km/s) = 4.58308 6.12648 5.41010
#
# Compressibility (1/GPa) = 0.04858881
#
# Stress axis : x y z
#
# Youngs Moduli (GPa) = 100.91285 28.65550 60.91627
#
# Poissons Ratio (x) = 0.11752 0.08328
# Poissons Ratio (y) = 0.41386 0.05170
# Poissons Ratio (z) = 0.13797 0.02432
#
# Static dielectric constant tensor:
#      x y z
#    x 1.976300 0.080520 -0.054950 
#    y 0.080520 2.061920 -0.045510 
#    z -0.054950 -0.045510 1.934590 
# 
# From -- ./inp_files/43185.got.cif
#   From: 2010.05.17/outbox.cif.g08.bks.cpg/sg2_22_cif.got.tgz:43185.got - 2010.06.03 11:33:40.
