data_PCOD9049696
_publ_section_title
;
Structure prediction by ZEFSAII (Michael W. Deem and Ramdas Pophale) SiO2 
 PCOD9049696
Probable space group: P -1
;
_chemical_formula_sum "Si O2"
_cell_formula_units_Z 12
_cell_length_a 10.895865
_cell_length_b 13.854079
_cell_length_c 12.219420
_cell_angle_alpha 143.548403
_cell_angle_beta 56.264890
_cell_angle_gamma 150.465910
_cell_volume 469.909234
_symmetry_space_group_name_H-M "P -1"
_symmetry_group_IT_number 2
_symmetry_cell_setting 'triclinic'
loop_
_space_group_symop_operation_xyz
x,y,z
-x,-y,-z
loop_
_atom_site_type_symbol
_atom_site_label
_atom_site_fract_x
_atom_site_fract_y
_atom_site_fract_z
Si Si1 0.395868 0.323929 0.777044
Si Si2 0.140814 0.076044 0.384743
Si Si3 0.130138 0.533733 0.072808
Si Si4 0.682774 0.462346 0.570685
Si Si5 0.760062 0.232163 0.167980
Si Si6 0.300834 0.083498 0.917838
O O1 0.521104 0.293144 0.615646
O O2 0.052202 0.988546 0.653306
O O3 0.500000 0.500000 0.000000
O O4 0.528411 0.587834 0.870529
O O5 0.476037 0.369261 0.505499
O O6 0.000000 0.000000 0.500000
O O7 0.025296 0.788836 0.148663
O O8 0.466505 0.818406 0.160866
O O9 0.035950 0.524280 0.223779
O O10 0.000000 0.500000 0.000000
O O11 0.722921 0.327996 0.368643
O O12 0.000979 0.821645 0.767717
O O13 0.761217 0.054977 0.060284
O O14 0.500000 0.000000 0.000000
#
# Coordination Sequence:
#
# PCOD9049696 Si02
#       6
#     2   2   2   2   2   2
#     4  10  24  47  71  99 136 177 226 286 333 397
#     4   9  20  41  67  92 132 175 219 276 328 394
#     4  11  22  43  68  98 135 177 224 276 337 392
#     4  11  23  44  67 102 137 176 228 273 340 406
#     4  12  24  44  70  98 141 179 221 282 331 406
#     4  11  25  44  69  99 135 180 226 278 339 397
#
# _framework density 25.536846000000001
#
# number of rings (size 3 to 8) (size 9 to 14) (size 15 to 20)
#    0.000    1.333    3.333    1.000    4.667    0.667 
#    9.000    1.667    0.000    0.000    0.000    0.000 
#    0.000    0.000    0.000    0.000    0.000    0.000 
#
# Total GULP energy -66970.528969 kJ/mol
# GULP energy per Si atom -5580.877414 kJ/mol
# Density = 2.547872 g / cm^3
# Si number density = 25.536846 Si / 1000 Ang^3
#
#
#
# Elastic Constant Matrix: (Units=GPa)
#
#
# Indices 1 2 3 4 5 6 
#
# 1 78.8378 60.7490 24.1609 5.4123 23.9432 11.0245
# 2 60.7490 168.7345 46.1406 -3.6113 18.9639 32.1977
# 3 24.1609 46.1406 110.4703 -9.0606 17.5371 13.8467
# 4 5.4123 -3.6113 -9.0606 60.8640 19.4362 15.1374
# 5 23.9432 18.9639 17.5371 19.4362 48.9864 11.8558
# 6 11.0245 32.1977 13.8467 15.1374 11.8558 54.2192
#
#
#
# Elastic Compliance Matrix: (Units=1/GPa)
#
#
# Indices 1 2 3 4 5 6 
#
# 1 0.019877 -0.006471 -0.000742 -0.000379 -0.007198 0.001671
# 2 -0.006471 0.009641 -0.001977 0.001814 0.000513 -0.004523
# 3 -0.000742 -0.001977 0.011090 0.003182 -0.003722 -0.001582
# 4 -0.000379 0.001814 0.003182 0.021273 -0.008680 -0.005854
# 5 -0.007198 0.000513 -0.003722 -0.008680 0.028944 -0.001797
# 6 0.001671 -0.004523 -0.001582 -0.005854 -0.001797 0.023221
#
#
# Mechanical properties :
#
#
# Convention : Reuss Voigt Hill
#
# Bulk Modulus (GPa) = 44.98987 68.90481 56.94734
# Shear Modulus (GPa) = 35.75602 47.94673 41.85138
#
# Velocity S-wave (km/s) = 3.74595 4.33777 4.05268
# Velocity P-wave (km/s) = 6.03037 7.22007 6.65187
#
# Compressibility (1/GPa) = 0.02222723
#
# Stress axis : x y z
#
# Youngs Moduli (GPa) = 50.31054 103.72164 90.16813
#
# Poissons Ratio (x) = 0.67118 0.06692
# Poissons Ratio (y) = 0.32556 0.17829
# Poissons Ratio (z) = 0.03734 0.20509
#
# Static dielectric constant tensor:
#      x y z
#    x 2.215150 0.011950 -0.024070 
#    y 0.011950 2.226600 -0.048520 
#    z -0.024070 -0.048520 2.051230 
# 
# From -- ./inp_files/433323.got.cif
#   From: 2010.05.17/outbox.cif.g08.bks.cpg/sg2_217_cif.got.tgz:433323.got - 2010.06.03 11:33:40.
