data_PCOD9049259
_publ_section_title
;
Structure prediction by ZEFSAII (Michael W. Deem and Ramdas Pophale) SiO2 
 PCOD9049259
Probable space group: P -1
;
_chemical_formula_sum "Si O2"
_cell_formula_units_Z 14
_cell_length_a 10.534514
_cell_length_b 6.373488
_cell_length_c 9.217507
_cell_angle_alpha 86.421478
_cell_angle_beta 106.753860
_cell_angle_gamma 100.840306
_cell_volume 582.010865
_symmetry_space_group_name_H-M "P -1"
_symmetry_group_IT_number 2
_symmetry_cell_setting 'triclinic'
loop_
_space_group_symop_operation_xyz
x,y,z
-x,-y,-z
loop_
_atom_site_type_symbol
_atom_site_label
_atom_site_fract_x
_atom_site_fract_y
_atom_site_fract_z
Si Si1 0.605758 0.894237 0.629646
Si Si2 0.468163 0.867088 0.139951
Si Si3 0.261238 0.024984 0.615460
Si Si4 0.075930 0.249522 0.669130
Si Si5 0.062503 0.269105 0.000359
Si Si6 0.791580 0.387109 0.505514
Si Si7 0.318074 0.481239 0.237408
O O1 0.728600 0.914136 0.554702
O O2 0.568829 0.646209 0.663704
O O3 0.500000 0.000000 0.500000
O O4 0.614771 0.008511 0.781723
O O5 0.610894 0.849146 0.261765
O O6 0.375442 0.635721 0.119043
O O7 0.500000 0.000000 0.000000
O O8 0.121604 0.027668 0.652452
O O9 0.285922 0.782223 0.625180
O O10 0.171320 0.395261 0.579066
O O11 0.929169 0.298391 0.587588
O O12 0.101875 0.293589 0.843977
O O13 0.189964 0.313745 0.146866
O O14 0.000000 0.500000 0.000000
O O15 0.000000 0.000000 0.000000
O O16 0.723939 0.402760 0.637798
#
# Coordination Sequence:
#
# PCOD9049259 Si02
#       7
#     2   2   2   2   2   2   2
#     4  10  24  46  71 105 145 198 261 324 391 466
#     4  11  28  47  72 110 156 206 264 321 405 484
#     4  11  24  44  75 106 152 200 258 327 390 469
#     4  11  26  45  74 112 153 204 265 323 395 479
#     4  12  31  51  81 117 166 214 267 327 412 485
#     4  11  24  45  77 113 150 200 266 328 397 467
#     4  12  26  48  80 110 160 208 265 334 405 478
#
# _framework density 24.054531999999998
#
# number of rings (size 3 to 8) (size 9 to 14) (size 15 to 20)
#    0.000    0.857    4.286    0.429   10.000    5.143 
#    0.000    0.000    0.000    0.000    0.000    0.000 
#    0.000    0.000    0.000    0.000    0.000    0.000 
#
# Total GULP energy -77974.874239 kJ/mol
# GULP energy per Si atom -5569.633874 kJ/mol
# Density = 2.399978 g / cm^3
# Si number density = 24.054532 Si / 1000 Ang^3
#
#
#
# Elastic Constant Matrix: (Units=GPa)
#
#
# Indices 1 2 3 4 5 6 
#
# 1 82.3827 43.8218 38.2300 -4.1138 -11.2291 -24.1742
# 2 43.8218 119.1486 47.3612 -6.8880 -11.7480 1.6770
# 3 38.2300 47.3612 131.0432 -8.0558 -27.4297 -3.7628
# 4 -4.1138 -6.8880 -8.0558 40.1524 7.8987 -5.7219
# 5 -11.2291 -11.7480 -27.4297 7.8987 42.3849 4.4615
# 6 -24.1742 1.6770 -3.7628 -5.7219 4.4615 50.8638
#
#
#
# Elastic Compliance Matrix: (Units=1/GPa)
#
#
# Indices 1 2 3 4 5 6 
#
# 1 0.019696 -0.006006 -0.003158 0.001668 0.000199 0.009495
# 2 -0.006006 0.011688 -0.002478 0.000339 0.000341 -0.003415
# 3 -0.003158 -0.002478 0.010555 0.000152 0.005394 -0.001095
# 4 0.001668 0.000339 0.000152 0.026707 -0.004787 0.004217
# 5 0.000199 0.000341 0.005394 -0.004787 0.028392 -0.002546
# 6 0.009495 -0.003415 -0.001095 0.004217 -0.002546 0.024903
#
#
# Mechanical properties :
#
#
# Convention : Reuss Voigt Hill
#
# Bulk Modulus (GPa) = 53.60761 65.71118 59.65939
# Shear Modulus (GPa) = 33.01577 40.22433 36.62005
#
# Velocity S-wave (km/s) = 3.70880 4.09371 3.90600
# Velocity P-wave (km/s) = 6.37766 7.05135 6.72294
#
# Compressibility (1/GPa) = 0.01865407
#
# Stress axis : x y z
#
# Youngs Moduli (GPa) = 50.77269 85.55715 94.74146
#
# Poissons Ratio (x) = 0.51386 0.29923
# Poissons Ratio (y) = 0.30494 0.23476
# Poissons Ratio (z) = 0.16036 0.21200
#
# Static dielectric constant tensor:
#      x y z
#    x 1.984050 0.023150 0.030430 
#    y 0.023150 2.152710 -0.005240 
#    z 0.030430 -0.005240 1.871370 
# 
# From -- ./inp_files/100404.got.cif
#   From: 2010.05.17/outbox.cif.g08.bks.cpg/sg2_51_cif.got.tgz:100404.got - 2010.06.03 11:33:40.
