data_PCOD9049382
_publ_section_title
;
Structure prediction by ZEFSAII (Michael W. Deem and Ramdas Pophale) SiO2 
 PCOD9049382
Probable space group: P -1
;
_chemical_formula_sum "Si O2"
_cell_formula_units_Z 16
_cell_length_a 5.421442
_cell_length_b 9.816506
_cell_length_c 24.774753
_cell_angle_alpha 122.304237
_cell_angle_beta 69.254540
_cell_angle_gamma 69.831180
_cell_volume 768.266490
_symmetry_space_group_name_H-M "P -1"
_symmetry_group_IT_number 2
_symmetry_cell_setting 'triclinic'
loop_
_space_group_symop_operation_xyz
x,y,z
-x,-y,-z
loop_
_atom_site_type_symbol
_atom_site_label
_atom_site_fract_x
_atom_site_fract_y
_atom_site_fract_z
Si Si1 0.737399 0.324394 0.221712
Si Si2 0.023597 0.708248 0.300853
Si Si3 0.791438 0.511188 0.346238
Si Si4 0.389957 0.493695 0.124935
Si Si5 0.895022 0.588658 0.087809
Si Si6 0.743413 0.056009 0.480625
Si Si7 0.406528 0.956526 0.825433
Si Si8 0.523163 0.879837 0.920758
O O1 0.415354 0.487220 0.241412
O O2 0.846272 0.094538 0.173494
O O3 0.604199 0.444612 0.314842
O O4 0.061896 0.291248 0.165550
O O5 0.790714 0.661554 0.335682
O O6 0.052694 0.686446 0.229714
O O7 0.946129 0.908640 0.379888
O O8 0.198891 0.278012 0.270560
O O9 0.543520 0.680579 0.448715
O O10 0.653365 0.537163 0.113536
O O11 0.586793 0.254738 0.083472
O O12 0.227777 0.494883 0.081270
O O13 0.675817 0.846692 0.156909
O O14 0.000000 0.500000 0.000000
O O15 0.500000 0.000000 0.500000
O O16 0.000000 0.000000 0.500000
O O17 0.360878 0.007451 0.904050
O O18 0.500000 0.000000 0.000000
#
# Coordination Sequence:
#
# PCOD9049382 Si02
#       8
#     2   2   2   2   2   2   2   2
#     4  10  17  34  60  83 127 151 210 248 311 365
#     4  10  19  35  57  95 123 160 199 257 320 365
#     4   9  18  34  59  91 125 158 204 250 314 371
#     4  12  25  43  66  91 127 162 209 270 314 368
#     4  12  29  46  63  88 127 172 217 256 316 380
#     4  10  19  30  57  94 133 156 192 255 313 373
#     4  10  23  39  61  85 122 170 208 259 306 386
#     4  11  23  36  62  92 118 158 208 268 318 364
#
# _framework density 20.826105999999999
#
# number of rings (size 3 to 8) (size 9 to 14) (size 15 to 20)
#    0.000    1.500    5.000    1.875    5.250    0.500 
#    0.000    0.000    0.000    1.500    0.000    0.000 
#    0.000    0.000    0.000    0.000    0.000    0.000 
#
# Total GULP energy -89091.915555 kJ/mol
# GULP energy per Si atom -5568.244722 kJ/mol
# Density = 2.077870 g / cm^3
# Si number density = 20.826106 Si / 1000 Ang^3
#
#
#
# Elastic Constant Matrix: (Units=GPa)
#
#
# Indices 1 2 3 4 5 6 
#
# 1 60.1872 14.2514 -10.7719 1.2868 13.2953 15.6015
# 2 14.2514 74.2069 5.4298 16.3568 -2.1738 18.3029
# 3 -10.7719 5.4298 100.2563 20.2047 23.1079 8.2389
# 4 1.2868 16.3568 20.2047 25.7735 2.3684 4.5458
# 5 13.2953 -2.1738 23.1079 2.3684 34.5112 1.6748
# 6 15.6015 18.3029 8.2389 4.5458 1.6748 28.2590
#
#
#
# Elastic Compliance Matrix: (Units=1/GPa)
#
#
# Indices 1 2 3 4 5 6 
#
# 1 0.025145 -0.001920 0.007648 -0.002328 -0.014107 -0.013658
# 2 -0.001920 0.018717 0.001340 -0.011319 0.002272 -0.009767
# 3 0.007648 0.001340 0.016671 -0.011835 -0.012859 -0.007285
# 4 -0.002328 -0.011319 -0.011835 0.054450 0.004223 0.003058
# 5 -0.014107 0.002272 -0.012859 0.004223 0.042541 0.006865
# 6 -0.013658 -0.009767 -0.007285 0.003058 0.006865 0.050479
#
#
# Mechanical properties :
#
#
# Convention : Reuss Voigt Hill
#
# Bulk Modulus (GPa) = 13.39227 28.05213 20.72220
# Shear Modulus (GPa) = 22.85651 32.75814 27.80733
#
# Velocity S-wave (km/s) = 3.31644 3.97033 3.65802
# Velocity P-wave (km/s) = 4.59451 5.87511 5.27382
#
# Compressibility (1/GPa) = 0.07466994
#
# Stress axis : x y z
#
# Youngs Moduli (GPa) = 39.76989 53.42682 59.98321
#
# Poissons Ratio (x) = 0.10259 -0.45878
# Poissons Ratio (y) = 0.07637 -0.08038
# Poissons Ratio (z) = -0.30418 -0.07160
#
# Static dielectric constant tensor:
#      x y z
#    x 1.840640 -0.005820 0.016130 
#    y -0.005820 1.772880 -0.009700 
#    z 0.016130 -0.009700 1.895000 
# 
# From -- ./inp_files/603839.got.cif
#   From: 2010.05.17/outbox.cif.g08.bks.cpg/sg2_302_cif.got.tgz:603839.got - 2010.06.03 11:33:40.
