data_PCOD9049593
_publ_section_title
;
Structure prediction by ZEFSAII (Michael W. Deem and Ramdas Pophale) SiO2 
 PCOD9049593
Probable space group: P -1
;
_chemical_formula_sum "Si O2"
_cell_formula_units_Z 12
_cell_length_a 15.834600
_cell_length_b 24.296035
_cell_length_c 6.420858
_cell_angle_alpha 133.406606
_cell_angle_beta 55.010064
_cell_angle_gamma 162.274396
_cell_volume 508.315374
_symmetry_space_group_name_H-M "P -1"
_symmetry_group_IT_number 2
_symmetry_cell_setting 'triclinic'
loop_
_space_group_symop_operation_xyz
x,y,z
-x,-y,-z
loop_
_atom_site_type_symbol
_atom_site_label
_atom_site_fract_x
_atom_site_fract_y
_atom_site_fract_z
Si Si1 0.624582 0.902032 0.676927
Si Si2 0.204476 0.297548 0.594357
Si Si3 0.638837 0.477502 0.358719
Si Si4 0.736240 0.302554 0.695971
Si Si5 0.282234 0.089438 0.997013
Si Si6 0.276231 0.871010 0.662993
O O1 0.935937 0.111767 0.654688
O O2 0.329955 0.693392 0.406060
O O3 0.648972 0.861276 0.728180
O O4 0.615001 0.980593 0.983683
O O5 0.484467 0.437499 0.610718
O O6 0.302966 0.446899 0.755677
O O7 0.056271 0.154524 0.227309
O O8 0.423697 0.257370 0.113197
O O9 0.954863 0.670196 0.502696
O O10 0.754931 0.227585 0.417360
O O11 0.443678 0.124414 0.777934
O O12 0.000000 0.500000 0.000000
O O13 0.500000 0.000000 0.500000
#
# Coordination Sequence:
#
# PCOD9049593 Si02
#       6
#     2   2   2   2   2   2
#     4  11  24  44  72 100 142 186 229 295 345 410
#     4  10  24  47  68 101 142 183 238 286 346 413
#     4  11  23  44  73  98 141 192 225 292 348 412
#     4  11  23  42  65 100 142 179 232 280 346 422
#     4  11  22  45  68 105 141 178 235 293 344 409
#     4  12  22  44  70  99 142 184 230 286 349 415
#
# _framework density 23.607389999999999
#
# number of rings (size 3 to 8) (size 9 to 14) (size 15 to 20)
#    0.000    1.000    5.000    2.000    0.000    2.000 
#    6.000    0.000    0.000    0.000    0.000    0.000 
#    0.000    0.000    0.000    0.000    0.000    0.000 
#
# Total GULP energy -67016.064242 kJ/mol
# GULP energy per Si atom -5584.672020 kJ/mol
# Density = 2.355366 g / cm^3
# Si number density = 23.607390 Si / 1000 Ang^3
#
#
#
# Elastic Constant Matrix: (Units=GPa)
#
#
# Indices 1 2 3 4 5 6 
#
# 1 135.9699 43.4337 11.1976 -0.8805 -11.0089 0.6010
# 2 43.4337 102.9278 10.6037 5.2225 5.5525 24.2013
# 3 11.1976 10.6037 45.1179 5.7105 -3.0366 -1.4993
# 4 -0.8805 5.2225 5.7105 29.6066 -0.1382 -10.5152
# 5 -11.0089 5.5525 -3.0366 -0.1382 30.1070 5.9713
# 6 0.6010 24.2013 -1.4993 -10.5152 5.9713 39.0274
#
#
#
# Elastic Compliance Matrix: (Units=1/GPa)
#
#
# Indices 1 2 3 4 5 6 
#
# 1 0.009271 -0.004784 -0.001140 0.002375 0.003599 0.002869
# 2 -0.004784 0.014856 -0.002059 -0.006091 -0.002652 -0.010453
# 3 -0.001140 -0.002059 0.023600 -0.003924 0.002164 0.000813
# 4 0.002375 -0.006091 -0.003924 0.040926 -0.001150 0.014792
# 5 0.003599 -0.002652 0.002164 -0.001150 0.036057 -0.004155
# 6 0.002869 -0.010453 0.000813 0.014792 -0.004155 0.036714
#
#
# Mechanical properties :
#
#
# Convention : Reuss Voigt Hill
#
# Bulk Modulus (GPa) = 31.48434 46.05394 38.76914
# Shear Modulus (GPa) = 26.59899 34.33358 30.46628
#
# Velocity S-wave (km/s) = 3.36031 3.81774 3.59631
# Velocity P-wave (km/s) = 5.33115 6.24373 5.80540
#
# Compressibility (1/GPa) = 0.03176182
#
# Stress axis : x y z
#
# Youngs Moduli (GPa) = 107.86670 67.31092 42.37245
#
# Poissons Ratio (x) = 0.32202 0.04829
# Poissons Ratio (y) = 0.51604 0.08725
# Poissons Ratio (z) = 0.12292 0.13861
#
# Static dielectric constant tensor:
#      x y z
#    x 1.955590 -0.025350 0.046480 
#    y -0.025350 1.893850 -0.014320 
#    z 0.046480 -0.014320 1.965840 
# 
# From -- ./inp_files/35333.got.cif
#   From: 2010.05.17/outbox.cif.g08.bks.cpg/sg2_18_cif.got.tgz:35333.got - 2010.06.03 11:33:40.
