data_PCOD9049673
_publ_section_title
;
Structure prediction by ZEFSAII (Michael W. Deem and Ramdas Pophale) SiO2 
 PCOD9049673
Probable space group: P -1
;
_chemical_formula_sum "Si O2"
_cell_formula_units_Z 15
_cell_length_a 6.954374
_cell_length_b 8.934765
_cell_length_c 22.716851
_cell_angle_alpha 30.350122
_cell_angle_beta 108.674994
_cell_angle_gamma 109.550969
_cell_volume 670.634571
_symmetry_space_group_name_H-M "P -1"
_symmetry_group_IT_number 2
_symmetry_cell_setting 'triclinic'
loop_
_space_group_symop_operation_xyz
x,y,z
-x,-y,-z
loop_
_atom_site_type_symbol
_atom_site_label
_atom_site_fract_x
_atom_site_fract_y
_atom_site_fract_z
Si Si1 0.441496 0.499417 0.399611
Si Si2 0.342475 0.354785 0.749238
Si Si3 0.000000 0.000000 0.000000
Si Si4 0.027692 0.309209 0.363988
Si Si5 0.479269 0.998143 0.334937
Si Si6 0.226295 0.425513 0.221643
Si Si7 0.774268 0.335022 0.043461
Si Si8 0.643598 0.501473 0.103030
O O1 0.604120 0.556430 0.343450
O O2 0.221514 0.501989 0.347625
O O3 0.459582 0.754394 0.364019
O O4 0.460327 0.182619 0.540463
O O5 0.170801 0.532263 0.699102
O O6 0.552456 0.433678 0.778980
O O7 0.251632 0.010546 0.858954
O O8 0.224979 0.187295 0.973764
O O9 0.108634 0.695516 0.096508
O O10 0.094523 0.285404 0.311440
O O11 0.000000 0.000000 0.500000
O O12 0.278359 0.157150 0.276126
O O13 0.640498 0.262990 0.235851
O O14 0.724081 0.371442 0.094920
O O15 0.593323 0.464341 0.945898
O O16 0.000000 0.500000 0.000000
#
# Coordination Sequence:
#
# PCOD9049673 Si02
#       8
#     2   2   1   2   2   2   2   2
#     4  10  24  47  71 103 139 183 242 289 358 423
#     4  11  23  47  73  98 139 191 236 289 348 434
#     4  12  28  46  68 104 146 186 234 298 360 422
#     4  11  25  43  70 101 138 191 235 283 349 436
#     4  11  24  47  71 102 145 181 229 309 355 417
#     4  11  27  44  70 103 145 183 235 291 362 421
#     4  11  26  45  73 100 135 193 239 288 347 434
#     4  11  27  46  71 103 145 181 240 292 360 421
#
# _framework density 22.366876000000001
#
# number of rings (size 3 to 8) (size 9 to 14) (size 15 to 20)
#    0.000    1.067    2.667    1.600    9.333    2.667 
#    0.000    2.000    0.000    0.000    0.000    0.000 
#    0.000    0.000    0.000    0.000    0.000    0.000 
#
# Total GULP energy -83692.845301 kJ/mol
# GULP energy per Si atom -5579.523020 kJ/mol
# Density = 2.231597 g / cm^3
# Si number density = 22.366876 Si / 1000 Ang^3
#
#
#
# Elastic Constant Matrix: (Units=GPa)
#
#
# Indices 1 2 3 4 5 6 
#
# 1 173.5649 39.4830 58.0910 3.4026 3.6855 -9.0157
# 2 39.4830 66.9402 36.3179 -5.1556 -7.2070 -13.9044
# 3 58.0910 36.3179 104.2286 -10.6404 3.4403 -17.9978
# 4 3.4026 -5.1556 -10.6404 29.5545 -3.2537 1.2974
# 5 3.6855 -7.2070 3.4403 -3.2537 37.3039 -8.6495
# 6 -9.0157 -13.9044 -17.9978 1.2974 -8.6495 34.1228
#
#
#
# Elastic Compliance Matrix: (Units=1/GPa)
#
#
# Indices 1 2 3 4 5 6 
#
# 1 0.007758 -0.003306 -0.003682 -0.002912 -0.001680 -0.001555
# 2 -0.003306 0.021770 -0.004399 0.003033 0.006898 0.007310
# 3 -0.003682 -0.004399 0.014456 0.004621 -0.000351 0.004595
# 4 -0.002912 0.003033 0.004621 0.036718 0.004250 0.002585
# 5 -0.001680 0.006898 -0.000351 0.004250 0.030999 0.009878
# 6 -0.001555 0.007310 0.004595 0.002585 0.009878 0.036703
#
#
# Mechanical properties :
#
#
# Convention : Reuss Voigt Hill
#
# Bulk Modulus (GPa) = 47.14787 68.05748 57.60268
# Shear Modulus (GPa) = 28.05081 34.25237 31.15159
#
# Velocity S-wave (km/s) = 3.54520 3.91754 3.73601
# Velocity P-wave (km/s) = 6.15492 7.13840 6.66482
#
# Compressibility (1/GPa) = 0.02120986
#
# Stress axis : x y z
#
# Youngs Moduli (GPa) = 128.89814 45.93476 69.17599
#
# Poissons Ratio (x) = 0.15187 0.25472
# Poissons Ratio (y) = 0.42618 0.30428
# Poissons Ratio (z) = 0.47462 0.20205
#
# Static dielectric constant tensor:
#      x y z
#    x 1.781380 -0.020220 0.071990 
#    y -0.020220 1.805340 0.107270 
#    z 0.071990 0.107270 1.590480 
# 
# From -- ./inp_files/403574.got.cif
#   From: 2010.05.17/outbox.cif.g08.bks.cpg/sg2_202_cif.got.tgz:403574.got - 2010.06.03 11:33:40.
