data_PCOD9049714
_publ_section_title
;
Structure prediction by ZEFSAII (Michael W. Deem and Ramdas Pophale) SiO2 
 PCOD9049714
Probable space group: P -1
;
_chemical_formula_sum "Si O2"
_cell_formula_units_Z 14
_cell_length_a 5.592732
_cell_length_b 9.189357
_cell_length_c 21.017144
_cell_angle_alpha 140.532333
_cell_angle_beta 117.655724
_cell_angle_gamma 53.463643
_cell_volume 551.636706
_symmetry_space_group_name_H-M "P -1"
_symmetry_group_IT_number 2
_symmetry_cell_setting 'triclinic'
loop_
_space_group_symop_operation_xyz
x,y,z
-x,-y,-z
loop_
_atom_site_type_symbol
_atom_site_label
_atom_site_fract_x
_atom_site_fract_y
_atom_site_fract_z
Si Si1 0.645929 0.345570 0.233942
Si Si2 0.196005 0.863414 0.290108
Si Si3 0.857547 0.564491 0.093929
Si Si4 0.624573 0.836973 0.044573
Si Si5 0.872267 0.897687 0.507682
Si Si6 0.845892 0.259017 0.105739
Si Si7 0.961757 0.630588 0.607732
O O1 0.450833 0.617013 0.270834
O O2 0.922020 0.253678 0.186804
O O3 0.746487 0.354209 0.320765
O O4 0.522725 0.131653 0.141867
O O5 0.014764 0.756041 0.186621
O O6 0.036340 0.013699 0.384812
O O7 0.263015 0.075112 0.330913
O O8 0.584106 0.719958 0.066537
O O9 0.832263 0.482452 0.134603
O O10 0.038219 0.312607 0.989106
O O11 0.478132 0.741702 0.938689
O O12 0.044167 0.592017 0.423442
O O13 0.500000 0.000000 0.500000
O O14 0.000000 0.000000 0.500000
O O15 0.000000 0.000000 0.000000
O O16 0.000000 0.500000 0.500000
#
# Coordination Sequence:
#
# PCOD9049714 Si02
#       7
#     2   2   2   2   2   2   2
#     4  12  22  43  72  98 144 189 245 293 373 438
#     4  11  23  44  74 102 142 193 246 301 375 449
#     4  11  23  41  66  97 141 183 240 293 358 434
#     4  11  23  43  64  95 142 188 232 302 350 439
#     4  11  25  49  80 110 148 193 247 319 384 448
#     4  12  24  39  64 102 143 189 239 294 368 438
#     4  10  24  47  72 105 141 187 249 312 377 445
#
# _framework density 25.379021000000002
#
# number of rings (size 3 to 8) (size 9 to 14) (size 15 to 20)
#    0.000    0.857    5.714    1.714    2.000    0.000 
#    2.571    7.857    0.000    0.000    0.000    0.000 
#    0.000    0.000    0.000    0.000    0.000    0.000 
#
# Total GULP energy -77964.653350 kJ/mol
# GULP energy per Si atom -5568.903811 kJ/mol
# Density = 2.532126 g / cm^3
# Si number density = 25.379021 Si / 1000 Ang^3
#
#
#
# Elastic Constant Matrix: (Units=GPa)
#
#
# Indices 1 2 3 4 5 6 
#
# 1 61.4377 30.8449 14.4515 9.9776 1.5151 23.7396
# 2 30.8449 145.0535 34.9055 30.3705 9.4896 25.2108
# 3 14.4515 34.9055 144.7822 11.4048 15.9937 8.3768
# 4 9.9776 30.3705 11.4048 70.4533 5.6938 8.1385
# 5 1.5151 9.4896 15.9937 5.6938 14.1871 5.9941
# 6 23.7396 25.2108 8.3768 8.1385 5.9941 38.4428
#
#
#
# Elastic Compliance Matrix: (Units=1/GPa)
#
#
# Indices 1 2 3 4 5 6 
#
# 1 0.022933 -0.002464 -0.001630 -0.000974 0.006949 -0.013068
# 2 -0.002464 0.008998 -0.001320 -0.002800 -0.001783 -0.003221
# 3 -0.001630 -0.001320 0.008286 0.000010 -0.008902 0.001452
# 4 -0.000974 -0.002800 0.000010 0.015916 -0.004311 -0.000262
# 5 0.006949 -0.001783 -0.008902 -0.004311 0.088658 -0.014093
# 6 -0.013068 -0.003221 0.001452 -0.000262 -0.014093 0.038132
#
#
# Mechanical properties :
#
#
# Convention : Reuss Voigt Hill
#
# Bulk Modulus (GPa) = 34.02326 56.85302 45.43814
# Shear Modulus (GPa) = 24.56435 42.68808 33.62621
#
# Velocity S-wave (km/s) = 3.11448 4.10570 3.64395
# Velocity P-wave (km/s) = 5.13503 6.70268 5.97053
#
# Compressibility (1/GPa) = 0.02939165
#
# Stress axis : x y z
#
# Youngs Moduli (GPa) = 43.60443 111.13265 120.68027
#
# Poissons Ratio (x) = 0.27381 0.19669
# Poissons Ratio (y) = 0.10743 0.15924
# Poissons Ratio (z) = 0.07107 0.14664
#
# Static dielectric constant tensor:
#      x y z
#    x 2.614130 -0.438800 -0.070660 
#    y -0.438800 2.437790 0.088550 
#    z -0.070660 0.088550 2.011720 
# 
# From -- ./inp_files/143010.got.cif
#   From: 2010.05.17/outbox.cif.g08.bks.cpg/sg2_72_cif.got.tgz:143010.got - 2010.06.03 11:33:40.
