data_PCOD9049437
_publ_section_title
;
Structure prediction by ZEFSAII (Michael W. Deem and Ramdas Pophale) SiO2 
 PCOD9049437
Probable space group: P -1
;
_chemical_formula_sum "Si O2"
_cell_formula_units_Z 16
_cell_length_a 14.430539
_cell_length_b 7.367005
_cell_length_c 7.833810
_cell_angle_alpha 127.314115
_cell_angle_beta 94.801095
_cell_angle_gamma 91.194702
_cell_volume 657.332847
_symmetry_space_group_name_H-M "P -1"
_symmetry_group_IT_number 2
_symmetry_cell_setting 'triclinic'
loop_
_space_group_symop_operation_xyz
x,y,z
-x,-y,-z
loop_
_atom_site_type_symbol
_atom_site_label
_atom_site_fract_x
_atom_site_fract_y
_atom_site_fract_z
Si Si1 0.980772 0.182599 0.331036
Si Si2 0.825842 0.273934 0.562759
Si Si3 0.096557 0.273054 0.054075
Si Si4 0.582823 0.729187 0.485832
Si Si5 0.624389 0.235529 0.614447
Si Si6 0.840758 0.778880 0.434711
Si Si7 0.310264 0.592409 0.914874
Si Si8 0.266715 0.111667 0.170318
O O1 0.030951 0.241350 0.194147
O O2 0.053642 0.263310 0.533868
O O3 0.884440 0.295032 0.409627
O O4 0.958405 0.907102 0.181118
O O5 0.875801 0.458738 0.806338
O O6 0.716085 0.294274 0.547646
O O7 0.835928 0.023252 0.488428
O O8 0.198369 0.179843 0.050318
O O9 0.471619 0.718554 0.463051
O O10 0.619710 0.517578 0.268206
O O11 0.631442 0.764334 0.698640
O O12 0.615345 0.966396 0.519864
O O13 0.643371 0.377979 0.873969
O O14 0.781790 0.584169 0.209367
O O15 0.790588 0.814460 0.629685
O O16 0.281139 0.844223 0.009506
#
# Coordination Sequence:
#
# PCOD9049437 Si02
#       8
#     2   2   2   2   2   2   2   2
#     4  10  24  41  57  82 114 160 196 230 285 345
#     4  12  22  38  59  89 118 148 187 250 288 329
#     4  10  24  41  59  81 117 156 198 231 281 348
#     4   9  18  35  60  87 118 147 190 229 287 350
#     4  10  20  34  57  92 118 147 182 240 293 335
#     4  10  21  37  59  89 116 145 192 243 288 333
#     4  10  17  34  60  85 118 151 188 230 287 343
#     4   9  19  38  59  85 115 155 192 232 280 340
#
# _framework density 24.340789999999998
#
# number of rings (size 3 to 8) (size 9 to 14) (size 15 to 20)
#    0.000    2.000    3.750    1.125    1.750    6.500 
#    0.000    0.625    0.000    1.500    0.000    0.000 
#    0.000    0.000    0.000    0.000    0.000    0.000 
#
# Total GULP energy -89467.151219 kJ/mol
# GULP energy per Si atom -5591.696951 kJ/mol
# Density = 2.428539 g / cm^3
# Si number density = 24.340790 Si / 1000 Ang^3
#
#
#
# Elastic Constant Matrix: (Units=GPa)
#
#
# Indices 1 2 3 4 5 6 
#
# 1 160.5585 23.9465 47.1047 10.6803 6.4193 12.8100
# 2 23.9465 47.3734 30.4430 24.2574 7.8076 0.7374
# 3 47.1047 30.4430 118.6705 35.0751 4.2456 4.5771
# 4 10.6803 24.2574 35.0751 39.9478 -0.6764 2.7592
# 5 6.4193 7.8076 4.2456 -0.6764 34.2256 6.0491
# 6 12.8100 0.7374 4.5771 2.7592 6.0491 24.8696
#
#
#
# Elastic Compliance Matrix: (Units=1/GPa)
#
#
# Indices 1 2 3 4 5 6 
#
# 1 0.007686 -0.003527 -0.002865 0.002869 0.000438 -0.003752
# 2 -0.003527 0.035323 -0.001824 -0.019416 -0.008495 0.005325
# 3 -0.002865 -0.001824 0.012839 -0.009444 -0.000903 0.000434
# 4 0.002869 -0.019416 -0.009444 0.044870 0.006982 -0.005840
# 5 0.000438 -0.008495 -0.000903 0.006982 0.032838 -0.008570
# 6 -0.003752 0.005325 0.000434 -0.005840 -0.008570 0.044637
#
#
# Mechanical properties :
#
#
# Convention : Reuss Voigt Hill
#
# Bulk Modulus (GPa) = 25.37058 58.84342 42.10700
# Shear Modulus (GPa) = 24.06586 34.81581 29.44083
#
# Velocity S-wave (km/s) = 3.14778 3.78610 3.48160
# Velocity P-wave (km/s) = 4.86385 6.58331 5.78779
#
# Compressibility (1/GPa) = 0.03941573
#
# Stress axis : x y z
#
# Youngs Moduli (GPa) = 130.11083 28.31006 77.88839
#
# Poissons Ratio (x) = 0.09984 0.22314
# Poissons Ratio (y) = 0.45887 0.14210
# Poissons Ratio (z) = 0.37276 0.05165
#
# Static dielectric constant tensor:
#      x y z
#    x 1.951390 0.020640 -0.003820 
#    y 0.020640 1.997390 -0.014100 
#    z -0.003820 -0.014100 1.935510 
# 
# From -- ./inp_files/52475.got.cif
#   From: 2010.05.17/outbox.cif.g08.bks.cpg/sg2_27_cif.got.tgz:52475.got - 2010.06.03 11:33:40.
