data_PCOD9049288
_publ_section_title
;
Structure prediction by ZEFSAII (Michael W. Deem and Ramdas Pophale) SiO2 
 PCOD9049288
Probable space group: P -1
;
_chemical_formula_sum "Si O2"
_cell_formula_units_Z 14
_cell_length_a 8.875793
_cell_length_b 16.010958
_cell_length_c 5.747147
_cell_angle_alpha 80.410581
_cell_angle_beta 62.978987
_cell_angle_gamma 119.407495
_cell_volume 548.134265
_symmetry_space_group_name_H-M "P -1"
_symmetry_group_IT_number 2
_symmetry_cell_setting 'triclinic'
loop_
_space_group_symop_operation_xyz
x,y,z
-x,-y,-z
loop_
_atom_site_type_symbol
_atom_site_label
_atom_site_fract_x
_atom_site_fract_y
_atom_site_fract_z
Si Si1 0.630372 0.910432 0.860264
Si Si2 0.945574 0.550182 0.314906
Si Si3 0.652997 0.085856 0.555887
Si Si4 0.953575 0.726788 0.060310
Si Si5 0.578352 0.288341 0.222060
Si Si6 0.520338 0.588942 0.110027
Si Si7 0.161275 0.126272 0.910141
O O1 0.496196 0.913096 0.157188
O O2 0.782095 0.884969 0.864015
O O3 0.457843 0.808335 0.860222
O O4 0.755092 0.031048 0.606550
O O5 0.958597 0.656915 0.285254
O O6 0.678245 0.458124 0.540841
O O7 0.000000 0.500000 0.500000
O O8 0.159344 0.608148 0.964836
O O9 0.500000 0.000000 0.500000
O O10 0.836050 0.209449 0.283567
O O11 0.738778 0.649801 0.083282
O O12 0.956050 0.824101 0.094786
O O13 0.404425 0.216580 0.582953
O O14 0.493169 0.338060 0.096857
O O15 0.500000 0.500000 0.000000
O O16 0.000000 0.000000 0.000000
#
# Coordination Sequence:
#
# PCOD9049288 Si02
#       7
#     2   2   2   2   2   2   2
#     4  11  23  43  69 103 147 186 239 280 359 440
#     4  10  24  46  71  99 138 183 246 298 351 428
#     4  11  25  44  71 107 145 192 235 288 356 448
#     4  12  24  45  74 103 146 188 235 302 371 406
#     4  11  24  46  70 103 145 191 233 292 367 424
#     4  11  25  46  70 104 140 184 250 305 355 417
#     4  12  26  42  72 109 150 184 236 293 355 446
#
# _framework density 25.541186
#
# number of rings (size 3 to 8) (size 9 to 14) (size 15 to 20)
#    0.000    0.857    1.429    5.571    4.000    2.286 
#    0.000    2.143    0.000    0.000    0.000    0.000 
#    0.000    0.000    0.000    0.000    0.000    0.000 
#
# Total GULP energy -78192.985438 kJ/mol
# GULP energy per Si atom -5585.213246 kJ/mol
# Density = 2.548305 g / cm^3
# Si number density = 25.541186 Si / 1000 Ang^3
#
#
#
# Elastic Constant Matrix: (Units=GPa)
#
#
# Indices 1 2 3 4 5 6 
#
# 1 131.7038 33.7535 49.8413 -28.4657 8.7498 -23.3521
# 2 33.7535 104.1785 13.7289 -20.6656 6.9284 -17.9150
# 3 49.8413 13.7289 132.9655 -36.6455 -7.7502 -8.0428
# 4 -28.4657 -20.6656 -36.6455 44.1602 -14.1233 -0.3540
# 5 8.7498 6.9284 -7.7502 -14.1233 52.4279 -28.5947
# 6 -23.3521 -17.9150 -8.0428 -0.3540 -28.5947 53.3529
#
#
#
# Elastic Compliance Matrix: (Units=1/GPa)
#
#
# Indices 1 2 3 4 5 6 
#
# 1 0.010601 -0.001357 -0.001852 0.005504 0.002499 0.005281
# 2 -0.001357 0.012140 0.002125 0.008073 0.004542 0.006291
# 3 -0.001852 0.002125 0.012587 0.013230 0.009161 0.006798
# 4 0.005504 0.008073 0.013230 0.048885 0.024299 0.020462
# 5 0.002499 0.004542 0.009161 0.024299 0.039885 0.025538
# 6 0.005281 0.006291 0.006798 0.020462 0.025538 0.038015
#
#
# Mechanical properties :
#
#
# Convention : Reuss Voigt Hill
#
# Bulk Modulus (GPa) = 30.15594 62.61058 46.38326
# Shear Modulus (GPa) = 28.51729 48.08980 38.30355
#
# Velocity S-wave (km/s) = 3.34506 4.34387 3.87677
# Velocity P-wave (km/s) = 5.17220 7.05165 6.18375
#
# Compressibility (1/GPa) = 0.03316097
#
# Stress axis : x y z
#
# Youngs Moduli (GPa) = 94.32863 82.37491 79.44845
#
# Poissons Ratio (x) = 0.11178 0.14712
# Poissons Ratio (y) = 0.12801 -0.16886
# Poissons Ratio (z) = 0.17467 -0.17508
#
# Static dielectric constant tensor:
#      x y z
#    x 2.057690 -0.024480 -0.039640 
#    y -0.024480 2.028510 0.023100 
#    z -0.039640 0.023100 2.067410 
# 
# From -- ./inp_files/47046.got.cif
#   From: 2010.05.17/outbox.cif.g08.bks.cpg/sg2_24_cif.got.tgz:47046.got - 2010.06.03 11:33:40.
