data_PCOD9049389
_publ_section_title
;
Structure prediction by ZEFSAII (Michael W. Deem and Ramdas Pophale) SiO2 
 PCOD9049389
Probable space group: P -1
;
_chemical_formula_sum "Si O2"
_cell_formula_units_Z 15
_cell_length_a 8.624450
_cell_length_b 11.233655
_cell_length_c 9.189048
_cell_angle_alpha 123.786251
_cell_angle_beta 49.266573
_cell_angle_gamma 109.849979
_cell_volume 560.293922
_symmetry_space_group_name_H-M "P -1"
_symmetry_group_IT_number 2
_symmetry_cell_setting 'triclinic'
loop_
_space_group_symop_operation_xyz
x,y,z
-x,-y,-z
loop_
_atom_site_type_symbol
_atom_site_label
_atom_site_fract_x
_atom_site_fract_y
_atom_site_fract_z
Si Si1 0.566388 0.221285 0.647155
Si Si2 0.936634 0.828553 0.334780
Si Si3 0.661412 0.742584 0.773703
Si Si4 0.033162 0.939456 0.779291
Si Si5 0.650310 0.064569 0.761833
Si Si6 0.218996 0.414860 0.869990
Si Si7 0.804275 0.509641 0.736343
Si Si8 0.500000 0.500000 0.500000
O O1 0.747487 0.141003 0.395831
O O2 0.523319 0.112252 0.729748
O O3 0.369926 0.273607 0.714309
O O4 0.672850 0.369210 0.721905
O O5 0.954103 0.663674 0.166160
O O6 0.135459 0.855616 0.328484
O O7 0.965384 0.928402 0.243827
O O8 0.735985 0.900619 0.588433
O O9 0.662614 0.637009 0.842396
O O10 0.639065 0.630345 0.577965
O O11 0.866195 0.830472 0.745784
O O12 0.473162 0.859660 0.980170
O O13 0.000000 0.000000 0.000000
O O14 0.353173 0.505351 0.739664
O O15 0.148166 0.459484 0.104451
O O16 0.000000 0.500000 0.500000
#
# Coordination Sequence:
#
# PCOD9049389 Si02
#       8
#     2   2   2   2   2   2   2   1
#     4  11  23  43  75 104 146 200 261 314 380 466
#     4  10  26  46  71 109 149 197 256 325 389 458
#     4  12  25  48  75 110 157 198 261 319 387 474
#     4  11  26  44  74 113 148 201 264 322 387 460
#     4  10  24  46  73 104 146 205 253 319 391 453
#     4  12  26  48  78 108 157 202 265 319 389 472
#     4  12  24  46  76 110 147 206 256 325 383 463
#     4  12  30  44  74 118 152 208 254 310 404 456
#
# _framework density 26.771663
#
# number of rings (size 3 to 8) (size 9 to 14) (size 15 to 20)
#    0.000    0.800    4.000    2.000    7.467    3.733 
#    0.000    2.000    0.000    0.000    0.000    0.000 
#    0.000    0.000    0.000    0.000    0.000    0.000 
#
# Total GULP energy -83682.117350 kJ/mol
# GULP energy per Si atom -5578.807823 kJ/mol
# Density = 2.671073 g / cm^3
# Si number density = 26.771663 Si / 1000 Ang^3
#
#
#
# Elastic Constant Matrix: (Units=GPa)
#
#
# Indices 1 2 3 4 5 6 
#
# 1 86.6757 27.4986 45.9009 2.3579 17.4988 5.4415
# 2 27.4986 122.7430 30.1623 -6.1212 21.1202 23.7764
# 3 45.9009 30.1623 200.1766 -13.5827 25.4428 10.2195
# 4 2.3579 -6.1212 -13.5827 35.2851 4.4681 4.0923
# 5 17.4988 21.1202 25.4428 4.4681 47.9324 15.9195
# 6 5.4415 23.7764 10.2195 4.0923 15.9195 60.2574
#
#
#
# Elastic Compliance Matrix: (Units=1/GPa)
#
#
# Indices 1 2 3 4 5 6 
#
# 1 0.014318 -0.002339 -0.002767 -0.002182 -0.002857 0.001002
# 2 -0.002339 0.009914 -0.000309 0.002443 -0.002534 -0.003145
# 3 -0.002767 -0.000309 0.006175 0.002831 -0.002310 -0.000257
# 4 -0.002182 0.002443 0.002831 0.030759 -0.003882 -0.002310
# 5 -0.002857 -0.002534 -0.002310 -0.003882 0.026281 -0.005030
# 6 0.001002 -0.003145 -0.000257 -0.002310 -0.005030 0.019275
#
#
# Mechanical properties :
#
#
# Convention : Reuss Voigt Hill
#
# Bulk Modulus (GPa) = 51.07950 68.52431 59.80191
# Shear Modulus (GPa) = 40.29705 49.09722 44.69713
#
# Velocity S-wave (km/s) = 3.88392 4.28708 4.09047
# Velocity P-wave (km/s) = 6.26372 7.08215 6.68547
#
# Compressibility (1/GPa) = 0.01957732
#
# Stress axis : x y z
#
# Youngs Moduli (GPa) = 69.84308 100.86689 161.93226
#
# Poissons Ratio (x) = 0.23594 0.44802
# Poissons Ratio (y) = 0.16337 0.05006
# Poissons Ratio (z) = 0.19324 0.03118
#
# Static dielectric constant tensor:
#      x y z
#    x 2.706930 -0.175300 0.016200 
#    y -0.175300 2.151150 -0.006500 
#    z 0.016200 -0.006500 2.165000 
# 
# From -- ./inp_files/189706.got.cif
#   From: 2010.05.17/outbox.cif.g08.bks.cpg/sg2_95_cif.got.tgz:189706.got - 2010.06.03 11:33:40.
