data_PCOD9049613
_publ_section_title
;
Structure prediction by ZEFSAII (Michael W. Deem and Ramdas Pophale) SiO2 
 PCOD9049613
Probable space group: P -1
;
_chemical_formula_sum "Si O2"
_cell_formula_units_Z 16
_cell_length_a 8.892802
_cell_length_b 16.905191
_cell_length_c 6.494181
_cell_angle_alpha 43.309211
_cell_angle_beta 98.987507
_cell_angle_gamma 97.913724
_cell_volume 661.040965
_symmetry_space_group_name_H-M "P -1"
_symmetry_group_IT_number 2
_symmetry_cell_setting 'triclinic'
loop_
_space_group_symop_operation_xyz
x,y,z
-x,-y,-z
loop_
_atom_site_type_symbol
_atom_site_label
_atom_site_fract_x
_atom_site_fract_y
_atom_site_fract_z
Si Si1 0.887626 0.522458 0.745354
Si Si2 0.555455 0.726278 0.940963
Si Si3 0.851831 0.112426 0.179846
Si Si4 0.622433 0.059347 0.571482
Si Si5 0.334011 0.456819 0.991117
Si Si6 0.732615 0.357751 0.708584
Si Si7 0.164460 0.056038 0.860493
Si Si8 0.858046 0.768328 0.158735
O O1 0.847797 0.412666 0.801907
O O2 0.919624 0.639353 0.403726
O O3 0.741150 0.556768 0.778741
O O4 0.000000 0.500000 0.000000
O O5 0.457759 0.821344 0.624168
O O6 0.648375 0.654544 0.932973
O O7 0.431920 0.652893 0.190842
O O8 0.687996 0.776043 0.022844
O O9 0.766199 0.229550 0.878667
O O10 0.026752 0.150154 0.105121
O O11 0.815652 0.997438 0.258835
O O12 0.781958 0.089912 0.430667
O O13 0.500000 0.000000 0.500000
O O14 0.683761 0.986692 0.910388
O O15 0.263009 0.553189 0.647313
O O16 0.500000 0.500000 0.000000
O O17 0.144022 0.185522 0.693166
O O18 0.000000 0.000000 0.000000
#
# Coordination Sequence:
#
# PCOD9049613 Si02
#       8
#     2   2   2   2   2   2   2   2
#     4  12  27  43  69 102 138 180 235 283 335 415
#     4  11  23  43  68  99 141 176 226 288 339 410
#     4  10  26  43  72  96 139 184 218 286 347 398
#     4  11  24  46  70 101 133 176 232 281 339 411
#     4  12  24  41  68  96 132 187 219 276 351 400
#     4  11  24  45  64  99 144 173 232 284 339 406
#     4  10  24  47  69 100 137 176 231 282 337 409
#     4  11  23  46  66 101 138 178 229 287 339 404
#
# _framework density 24.204248
#
# number of rings (size 3 to 8) (size 9 to 14) (size 15 to 20)
#    0.000    1.000    3.750    1.875    3.500    8.500 
#    0.000    0.000    0.000    0.000    0.000    0.000 
#    0.000    0.000    0.000    0.000    0.000    0.000 
#
# Total GULP energy -89396.332832 kJ/mol
# GULP energy per Si atom -5587.270802 kJ/mol
# Density = 2.414916 g / cm^3
# Si number density = 24.204248 Si / 1000 Ang^3
#
#
#
# Elastic Constant Matrix: (Units=GPa)
#
#
# Indices 1 2 3 4 5 6 
#
# 1 87.5839 26.2361 24.5784 2.3982 5.0229 6.0576
# 2 26.2361 106.0232 5.0813 1.5624 2.4902 -8.5537
# 3 24.5784 5.0813 57.0627 0.2099 12.8464 1.8190
# 4 2.3982 1.5624 0.2099 23.6745 0.2525 8.2718
# 5 5.0229 2.4902 12.8464 0.2525 40.8228 2.2010
# 6 6.0576 -8.5537 1.8190 8.2718 2.2010 53.0986
#
#
#
# Elastic Compliance Matrix: (Units=1/GPa)
#
#
# Indices 1 2 3 4 5 6 
#
# 1 0.014194 -0.003388 -0.005840 -0.000502 0.000404 -0.001904
# 2 -0.003388 0.010453 0.000577 -0.001132 -0.000517 0.002248
# 3 -0.005840 0.000577 0.021342 0.000350 -0.006047 0.000224
# 4 -0.000502 -0.001132 0.000350 0.044852 0.000127 -0.007129
# 5 0.000404 -0.000517 -0.006047 0.000127 0.026436 -0.001038
# 6 -0.001904 0.002248 0.000224 -0.007129 -0.001038 0.020558
#
#
# Mechanical properties :
#
#
# Convention : Reuss Voigt Hill
#
# Bulk Modulus (GPa) = 34.86012 40.27348 37.56680
# Shear Modulus (GPa) = 30.35859 36.50410 33.43135
#
# Velocity S-wave (km/s) = 3.54541 3.88773 3.72051
# Velocity P-wave (km/s) = 5.58512 6.06858 5.83187
#
# Compressibility (1/GPa) = 0.02868608
#
# Stress axis : x y z
#
# Youngs Moduli (GPa) = 70.45370 95.66778 46.85681
#
# Poissons Ratio (x) = 0.32413 0.27366
# Poissons Ratio (y) = 0.23870 -0.02705
# Poissons Ratio (z) = 0.41147 -0.05523
#
# Static dielectric constant tensor:
#      x y z
#    x 1.859530 0.053340 0.069250 
#    y 0.053340 1.883170 -0.048590 
#    z 0.069250 -0.048590 1.875210 
# 
# From -- ./inp_files/46347.got.cif
#   From: 2010.05.17/outbox.cif.g08.bks.cpg/sg2_24_cif.got.tgz:46347.got - 2010.06.03 11:33:40.
