data_PCOD9049500
_publ_section_title
;
Structure prediction by ZEFSAII (Michael W. Deem and Ramdas Pophale) SiO2 
 PCOD9049500
Probable space group: P -1
;
_chemical_formula_sum "Si O2"
_cell_formula_units_Z 15
_cell_length_a 5.984157
_cell_length_b 8.759830
_cell_length_c 20.176160
_cell_angle_alpha 134.025885
_cell_angle_beta 95.164242
_cell_angle_gamma 110.730988
_cell_volume 616.074582
_symmetry_space_group_name_H-M "P -1"
_symmetry_group_IT_number 2
_symmetry_cell_setting 'triclinic'
loop_
_space_group_symop_operation_xyz
x,y,z
-x,-y,-z
loop_
_atom_site_type_symbol
_atom_site_label
_atom_site_fract_x
_atom_site_fract_y
_atom_site_fract_z
Si Si1 0.887238 0.509238 0.903392
Si Si2 0.042027 0.497599 0.766898
Si Si3 0.500000 0.500000 0.000000
Si Si4 0.718666 0.975998 0.757854
Si Si5 0.293470 0.752283 0.558518
Si Si6 0.803737 0.842818 0.384938
Si Si7 0.714852 0.516307 0.650786
Si Si8 0.479027 0.966132 0.096026
O O1 0.642488 0.452771 0.925738
O O2 0.846026 0.473281 0.812905
O O3 0.942370 0.288979 0.856995
O O4 0.161970 0.788399 0.010764
O O5 0.080451 0.266874 0.696342
O O6 0.926382 0.491981 0.690169
O O7 0.325024 0.782734 0.868106
O O8 0.432216 0.228809 0.952032
O O9 0.523199 0.868181 0.656332
O O10 0.839672 0.810508 0.722366
O O11 0.528805 0.927169 0.800390
O O12 0.381479 0.657997 0.469833
O O13 0.000000 0.500000 0.500000
O O14 0.256403 0.970393 0.597074
O O15 0.536990 0.596428 0.339264
O O16 0.000000 0.000000 0.500000
#
# Coordination Sequence:
#
# PCOD9049500 Si02
#       8
#     2   2   1   2   2   2   2   2
#     4  11  27  47  75 109 146 194 255 309 373 450
#     4  12  27  46  77 113 146 203 246 305 384 445
#     4  10  24  46  76 100 146 188 244 314 374 422
#     4  11  24  46  72 106 148 198 244 303 377 436
#     4  12  26  45  75 111 145 200 249 304 369 444
#     4  12  26  48  73 106 160 196 242 308 372 443
#     4  12  26  47  74 107 158 191 247 308 368 456
#     4  11  25  48  71 107 149 192 253 312 374 434
#
# _framework density 24.347702000000002
#
# number of rings (size 3 to 8) (size 9 to 14) (size 15 to 20)
#    0.000    0.533    2.667    5.200    7.467    3.733 
#    0.000    0.000    0.000    0.000    0.000    0.000 
#    0.000    0.000    0.000    0.000    0.000    0.000 
#
# Total GULP energy -83798.552310 kJ/mol
# GULP energy per Si atom -5586.570154 kJ/mol
# Density = 2.429229 g / cm^3
# Si number density = 24.347702 Si / 1000 Ang^3
#
#
#
# Elastic Constant Matrix: (Units=GPa)
#
#
# Indices 1 2 3 4 5 6 
#
# 1 41.8787 17.4522 36.5852 -0.5719 -27.6095 6.3688
# 2 17.4522 92.4354 44.3432 -5.0833 -18.0495 9.2004
# 3 36.5852 44.3432 113.1746 -7.9526 -28.6176 10.8709
# 4 -0.5719 -5.0833 -7.9526 54.4332 4.2796 -10.3591
# 5 -27.6095 -18.0495 -28.6176 4.2796 52.4075 13.0521
# 6 6.3688 9.2004 10.8709 -10.3591 13.0521 46.4631
#
#
#
# Elastic Compliance Matrix: (Units=1/GPa)
#
#
# Indices 1 2 3 4 5 6 
#
# 1 0.050380 0.000968 -0.009307 -0.005272 0.025527 -0.013266
# 2 0.000968 0.013778 -0.004577 -0.000178 0.003468 -0.002804
# 3 -0.009307 -0.004577 0.014232 0.001185 0.001522 -0.001311
# 4 -0.005272 -0.000178 0.001185 0.020139 -0.005456 0.006503
# 5 0.025527 0.003468 0.001522 -0.005456 0.039176 -0.016763
# 6 -0.013266 -0.002804 -0.001311 0.006503 -0.016763 0.030362
#
#
# Mechanical properties :
#
#
# Convention : Reuss Voigt Hill
#
# Bulk Modulus (GPa) = 19.02666 49.36112 34.19389
# Shear Modulus (GPa) = 23.64980 40.60132 32.12556
#
# Velocity S-wave (km/s) = 3.12001 4.08801 3.63636
# Velocity P-wave (km/s) = 4.56188 6.52686 5.63075
#
# Compressibility (1/GPa) = 0.05255784
#
# Stress axis : x y z
#
# Youngs Moduli (GPa) = 19.84899 72.57897 70.26503
#
# Poissons Ratio (x) = -0.07023 0.65392
# Poissons Ratio (y) = -0.01921 0.32163
# Poissons Ratio (z) = 0.18472 0.33222
#
# Static dielectric constant tensor:
#      x y z
#    x 1.992810 -0.015350 0.090660 
#    y -0.015350 1.953830 -0.003480 
#    z 0.090660 -0.003480 1.933190 
# 
# From -- ./inp_files/141055.got.cif
#   From: 2010.05.17/outbox.cif.g08.bks.cpg/sg2_71_cif.got.tgz:141055.got - 2010.06.03 11:33:40.
