data_PCOD9049239
_publ_section_title
;
Structure prediction by ZEFSAII (Michael W. Deem and Ramdas Pophale) SiO2 
 PCOD9049239
Probable space group: P -1
;
_chemical_formula_sum "Si O2"
_cell_formula_units_Z 12
_cell_length_a 12.618580
_cell_length_b 7.502984
_cell_length_c 7.502988
_cell_angle_alpha 124.881099
_cell_angle_beta 122.534767
_cell_angle_gamma 66.620371
_cell_volume 487.176753
_symmetry_space_group_name_H-M "P -1"
_symmetry_group_IT_number 2
_symmetry_cell_setting 'triclinic'
loop_
_space_group_symop_operation_xyz
x,y,z
-x,-y,-z
loop_
_atom_site_type_symbol
_atom_site_label
_atom_site_fract_x
_atom_site_fract_y
_atom_site_fract_z
Si Si1 0.138588 0.317722 0.191213
Si Si2 0.861413 0.447374 0.043692
Si Si3 0.672838 0.029686 0.978824
Si Si4 0.672839 0.805983 0.202527
Si Si5 0.377864 0.468546 0.688583
Si Si6 0.377862 0.810720 0.346407
O O1 0.252009 0.374185 0.450678
O O2 0.000001 0.337793 0.162208
O O3 0.132873 0.492314 0.125185
O O4 0.186541 0.082413 0.011447
O O5 0.813459 0.675093 0.231047
O O6 0.747993 0.301328 0.873810
O O7 0.657415 0.271381 0.184732
O O8 0.628800 0.868030 0.996831
O O9 0.602406 0.052338 0.738258
O O10 0.602406 0.635849 0.154745
O O11 0.657417 0.027314 0.428799
O O12 0.500001 0.371484 0.628516
#
# Coordination Sequence:
#
# PCOD9049239 Si02
#       6
#     2   2   2   2   2   2
#     4  10  24  46  71 102 139 180 228 281 340 406
#     4  10  24  46  71 102 139 180 228 281 340 406
#     4  11  25  44  71 102 138 181 225 280 344 401
#     4  11  25  44  71 102 138 181 225 280 344 401
#     4  12  25  46  69 104 138 177 232 281 334 407
#     4  12  25  46  69 104 138 177 232 281 334 407
#
# _framework density 24.631716000000001
#
# number of rings (size 3 to 8) (size 9 to 14) (size 15 to 20)
#    0.000    1.000    3.333    2.000    0.000    6.000 
#    0.000    5.000    0.000    0.000    0.000    0.000 
#    0.000    0.000    0.000    0.000    0.000    0.000 
#
# Total GULP energy -67107.723315 kJ/mol
# GULP energy per Si atom -5592.310276 kJ/mol
# Density = 2.457565 g / cm^3
# Si number density = 24.631716 Si / 1000 Ang^3
#
#
#
# Elastic Constant Matrix: (Units=GPa)
#
#
# Indices 1 2 3 4 5 6 
#
# 1 139.7832 81.6263 62.1619 -3.9979 6.2110 -38.5413
# 2 81.6263 142.2765 57.3565 9.9522 3.6111 -28.4449
# 3 62.1619 57.3565 109.6352 9.9903 -0.4679 -26.4815
# 4 -3.9979 9.9522 9.9903 40.0142 -1.4308 -10.7642
# 5 6.2110 3.6111 -0.4679 -1.4308 41.4102 -15.2606
# 6 -38.5413 -28.4449 -26.4815 -10.7642 -15.2606 77.9911
#
#
#
# Elastic Compliance Matrix: (Units=1/GPa)
#
#
# Indices 1 2 3 4 5 6 
#
# 1 0.013521 -0.005616 -0.004236 0.004845 0.000006 0.003865
# 2 -0.005616 0.011504 -0.002553 -0.002759 -0.000239 0.000126
# 3 -0.004236 -0.002553 0.013464 -0.002705 0.001454 0.001458
# 4 0.004845 -0.002759 -0.002705 0.028207 0.002226 0.004798
# 5 0.000006 -0.000239 0.001454 0.002226 0.026432 0.005889
# 6 0.003865 0.000126 0.001458 0.004798 0.005889 0.017087
#
#
# Mechanical properties :
#
#
# Convention : Reuss Voigt Hill
#
# Bulk Modulus (GPa) = 73.11072 88.22046 80.66559
# Shear Modulus (GPa) = 35.81999 44.58644 40.20321
#
# Velocity S-wave (km/s) = 3.81756 4.25917 4.04440
# Velocity P-wave (km/s) = 7.01268 7.75119 7.39116
#
# Compressibility (1/GPa) = 0.01367788
#
# Stress axis : x y z
#
# Youngs Moduli (GPa) = 73.95766 86.92514 74.27297
#
# Poissons Ratio (x) = 0.48816 0.31464
# Poissons Ratio (y) = 0.41534 0.18965
# Poissons Ratio (z) = 0.31331 0.22196
#
# Static dielectric constant tensor:
#      x y z
#    x 2.009640 -0.005060 0.020160 
#    y -0.005060 1.988710 -0.018010 
#    z 0.020160 -0.018010 1.996280 
# 
# From -- ./inp_files/241660.got.cif
#   From: 2010.05.17/outbox.cif.g08.bks.cpg/sg2_121_cif.got.tgz:241660.got - 2010.06.03 11:33:40.
