data_PCOD9049977
_publ_section_title
;
Structure prediction by ZEFSAII (Michael W. Deem and Ramdas Pophale) SiO2 
 PCOD9049977
Probable space group: P -1
;
_chemical_formula_sum "Si O2"
_cell_formula_units_Z 14
_cell_length_a 15.448147
_cell_length_b 25.620712
_cell_length_c 15.816191
_cell_angle_alpha 161.615752
_cell_angle_beta 152.672041
_cell_angle_gamma 19.501635
_cell_volume 657.972827
_symmetry_space_group_name_H-M "P -1"
_symmetry_group_IT_number 2
_symmetry_cell_setting 'triclinic'
loop_
_space_group_symop_operation_xyz
x,y,z
-x,-y,-z
loop_
_atom_site_type_symbol
_atom_site_label
_atom_site_fract_x
_atom_site_fract_y
_atom_site_fract_z
Si Si1 0.310743 0.213487 0.602472
Si Si2 0.934435 0.616013 0.030095
Si Si3 0.087634 0.633523 0.808966
Si Si4 0.372121 0.862601 0.875778
Si Si5 0.239522 0.910211 0.013695
Si Si6 0.428600 0.472710 0.021817
Si Si7 0.352100 0.584195 0.314573
O O1 0.467598 0.260331 0.761089
O O2 0.079907 0.431476 0.794773
O O3 0.500000 0.000000 0.500000
O O4 0.223241 0.119706 0.320161
O O5 0.628934 0.798474 0.032426
O O6 0.000000 0.500000 0.000000
O O7 0.057954 0.723404 0.300101
O O8 0.199999 0.587454 0.930852
O O9 0.000000 0.500000 0.500000
O O10 0.325234 0.574863 0.872553
O O11 0.834695 0.895968 0.976642
O O12 0.245510 0.852943 0.833584
O O13 0.462165 0.670799 0.593266
O O14 0.485153 0.674457 0.909768
O O15 0.000000 0.000000 0.000000
O O16 0.354885 0.604725 0.248678
#
# Coordination Sequence:
#
# PCOD9049977 Si02
#       7
#     2   2   2   2   2   2   2
#     4  11  21  41  69  98 138 182 224 280 343 415
#     4  11  23  40  63  99 144 184 223 278 351 417
#     4  11  26  48  76  98 136 183 244 298 341 423
#     4  12  26  42  66 101 138 183 231 297 350 406
#     4  12  23  38  65 100 139 185 231 279 343 420
#     4  10  24  48  71 104 134 184 242 283 352 422
#     4  11  24  43  65 100 144 181 225 289 354 415
#
# _framework density 21.277473000000001
#
# number of rings (size 3 to 8) (size 9 to 14) (size 15 to 20)
#    0.000    0.857    4.286    3.000    2.000    6.286 
#    0.000    5.000    0.000    0.000    0.000    0.000 
#    0.000    0.000    0.000    0.000    0.000    0.000 
#
# Total GULP energy -78148.041874 kJ/mol
# GULP energy per Si atom -5582.002991 kJ/mol
# Density = 2.122905 g / cm^3
# Si number density = 21.277473 Si / 1000 Ang^3
#
#
#
# Elastic Constant Matrix: (Units=GPa)
#
#
# Indices 1 2 3 4 5 6 
#
# 1 106.6270 30.3960 29.2083 -9.2861 6.7817 10.2398
# 2 30.3960 116.7211 28.9086 -4.2181 12.9962 5.5248
# 3 29.2083 28.9086 66.9802 -16.2785 2.4372 2.1368
# 4 -9.2861 -4.2181 -16.2785 31.8206 0.7625 2.4463
# 5 6.7817 12.9962 2.4372 0.7625 30.2612 -6.9156
# 6 10.2398 5.5248 2.1368 2.4463 -6.9156 38.3857
#
#
#
# Elastic Compliance Matrix: (Units=1/GPa)
#
#
# Indices 1 2 3 4 5 6 
#
# 1 0.011439 -0.001587 -0.003753 0.001505 -0.002333 -0.003130
# 2 -0.001587 0.010430 -0.003805 -0.000807 -0.004154 -0.001563
# 3 -0.003753 -0.003805 0.020322 0.008785 0.000610 -0.000033
# 4 0.001505 -0.000807 0.008785 0.036583 -0.002430 -0.003543
# 5 -0.002333 -0.004154 0.000610 -0.002430 0.037203 0.008044
# 6 -0.003130 -0.001563 -0.000033 -0.003543 0.008044 0.028788
#
#
# Mechanical properties :
#
#
# Convention : Reuss Voigt Hill
#
# Bulk Modulus (GPa) = 41.83725 51.92823 46.88274
# Shear Modulus (GPa) = 29.23592 33.54786 31.39189
#
# Velocity S-wave (km/s) = 3.71081 3.97506 3.84521
# Velocity P-wave (km/s) = 6.16973 6.74732 6.46498
#
# Compressibility (1/GPa) = 0.02390214
#
# Stress axis : x y z
#
# Youngs Moduli (GPa) = 87.42057 95.87302 49.20707
#
# Poissons Ratio (x) = 0.15216 0.18467
# Poissons Ratio (y) = 0.13875 0.18722
# Poissons Ratio (z) = 0.32807 0.36478
#
# Static dielectric constant tensor:
#      x y z
#    x 1.778290 0.002490 -0.021680 
#    y 0.002490 1.816990 -0.059800 
#    z -0.021680 -0.059800 1.849630 
# 
# From -- ./inp_files/460653.got.cif
#   From: 2010.05.17/outbox.cif.g08.bks.cpg/sg2_231_cif.got.tgz:460653.got - 2010.06.03 11:33:40.
