data_PCOD9049412
_publ_section_title
;
Structure prediction by ZEFSAII (Michael W. Deem and Ramdas Pophale) SiO2 
 PCOD9049412
Probable space group: P -1
;
_chemical_formula_sum "Si O2"
_cell_formula_units_Z 12
_cell_length_a 9.125246
_cell_length_b 9.824417
_cell_length_c 8.943679
_cell_angle_alpha 57.307376
_cell_angle_beta 134.658301
_cell_angle_gamma 116.267300
_cell_volume 477.321541
_symmetry_space_group_name_H-M "P -1"
_symmetry_group_IT_number 2
_symmetry_cell_setting 'triclinic'
loop_
_space_group_symop_operation_xyz
x,y,z
-x,-y,-z
loop_
_atom_site_type_symbol
_atom_site_label
_atom_site_fract_x
_atom_site_fract_y
_atom_site_fract_z
Si Si1 0.656601 0.122032 0.942666
Si Si2 0.929653 0.855126 0.212173
Si Si3 0.726537 0.487284 0.740283
Si Si4 0.616438 0.157765 0.561216
Si Si5 0.324528 0.362070 0.090078
Si Si6 0.957660 0.418503 0.355540
O O1 0.721007 0.309288 0.921371
O O2 0.554310 0.151308 0.692039
O O3 0.500000 0.000000 0.000000
O O4 0.850414 0.022237 0.106739
O O5 0.980806 0.759583 0.457438
O O6 0.143343 0.859564 0.274336
O O7 0.766971 0.762893 0.030991
O O8 0.500000 0.500000 0.500000
O O9 0.774801 0.624143 0.821957
O O10 0.885599 0.505465 0.705172
O O11 0.544599 0.310534 0.330512
O O12 0.500000 0.000000 0.500000
O O13 0.268863 0.533089 0.881409
O O14 0.000000 0.500000 0.500000
#
# Coordination Sequence:
#
# PCOD9049412 Si02
#       6
#     2   2   2   2   2   2
#     4  12  26  48  75 110 155 193 246 315 374 442
#     4  11  26  51  77 109 154 195 252 308 371 453
#     4  12  25  46  77 110 151 192 253 313 369 444
#     4  12  26  47  79 110 149 202 249 302 382 446
#     4  11  25  46  79 104 149 196 255 296 379 430
#     4  10  24  46  73 109 147 195 247 306 372 439
#
# _framework density 25.140286
#
# number of rings (size 3 to 8) (size 9 to 14) (size 15 to 20)
#    0.000    0.667    3.333    4.000    2.333    2.000 
#    3.000    1.667    0.000    0.000    0.000    0.000 
#    0.000    0.000    0.000    0.000    0.000    0.000 
#
# Total GULP energy -67001.948900 kJ/mol
# GULP energy per Si atom -5583.495742 kJ/mol
# Density = 2.508307 g / cm^3
# Si number density = 25.140286 Si / 1000 Ang^3
#
#
#
# Elastic Constant Matrix: (Units=GPa)
#
#
# Indices 1 2 3 4 5 6 
#
# 1 120.2316 21.1816 39.3654 -33.5033 -14.0820 13.1966
# 2 21.1816 77.8182 18.1613 -30.0623 2.4156 -15.2270
# 3 39.3654 18.1613 179.1900 -51.9889 18.4964 0.0431
# 4 -33.5033 -30.0623 -51.9889 48.1296 -5.1820 -4.8231
# 5 -14.0820 2.4156 18.4964 -5.1820 42.9843 -11.0977
# 6 13.1966 -15.2270 0.0431 -4.8231 -11.0977 43.5977
#
#
#
# Elastic Compliance Matrix: (Units=1/GPa)
#
#
# Indices 1 2 3 4 5 6 
#
# 1 0.011359 -0.000774 -0.000932 0.006720 0.004507 -0.001817
# 2 -0.000774 0.020611 0.002622 0.016353 0.001944 0.009734
# 3 -0.000932 0.002622 0.008795 0.010385 -0.002549 0.001689
# 4 0.006720 0.016353 0.010385 0.048503 0.005345 0.010393
# 5 0.004507 0.001944 -0.002549 0.005345 0.028203 0.007088
# 6 -0.001817 0.009734 0.001689 0.010393 0.007088 0.029839
#
#
# Mechanical properties :
#
#
# Convention : Reuss Voigt Hill
#
# Bulk Modulus (GPa) = 23.47527 59.40626 41.44077
# Shear Modulus (GPa) = 31.31368 46.84442 39.07905
#
# Velocity S-wave (km/s) = 3.53307 4.32130 3.94692
# Velocity P-wave (km/s) = 5.09916 6.96989 6.10659
#
# Compressibility (1/GPa) = 0.04259801
#
# Stress axis : x y z
#
# Youngs Moduli (GPa) = 88.03954 48.51888 113.69779
#
# Poissons Ratio (x) = 0.03753 0.10596
# Poissons Ratio (y) = 0.06810 -0.29816
# Poissons Ratio (z) = 0.08205 -0.12723
#
# Static dielectric constant tensor:
#      x y z
#    x 2.021520 0.012770 -0.014410 
#    y 0.012770 2.079340 -0.046770 
#    z -0.014410 -0.046770 2.032780 
# 
# From -- ./inp_files/168171.got.cif
#   From: 2010.05.17/outbox.cif.g08.bks.cpg/sg2_85_cif.got.tgz:168171.got - 2010.06.03 11:33:40.
