data_PCOD9049174
_publ_section_title
;
Structure prediction by ZEFSAII (Michael W. Deem and Ramdas Pophale) SiO2 
 PCOD9049174
Probable space group: P -1
;
_chemical_formula_sum "Si O2"
_cell_formula_units_Z 16
_cell_length_a 17.877217
_cell_length_b 6.769862
_cell_length_c 8.996968
_cell_angle_alpha 56.814006
_cell_angle_beta 72.645940
_cell_angle_gamma 54.586928
_cell_volume 742.398295
_symmetry_space_group_name_H-M "P -1"
_symmetry_group_IT_number 2
_symmetry_cell_setting 'triclinic'
loop_
_space_group_symop_operation_xyz
x,y,z
-x,-y,-z
loop_
_atom_site_type_symbol
_atom_site_label
_atom_site_fract_x
_atom_site_fract_y
_atom_site_fract_z
Si Si1 0.480867 0.502750 0.763107
Si Si2 0.232993 0.945130 0.441382
Si Si3 0.903681 0.521829 0.516177
Si Si4 0.845283 0.426589 0.272643
Si Si5 0.367675 0.534286 0.094330
Si Si6 0.190262 0.072285 0.072765
Si Si7 0.975359 0.963677 0.864320
Si Si8 0.421661 0.910062 0.375962
O O1 0.568690 0.414413 0.851761
O O2 0.458089 0.776276 0.571463
O O3 0.504376 0.270752 0.720230
O O4 0.400738 0.546308 0.903590
O O5 0.215043 0.701640 0.590569
O O6 0.337437 0.862954 0.417808
O O7 0.176357 0.191695 0.489153
O O8 0.195246 0.054305 0.254251
O O9 0.884152 0.492914 0.369192
O O10 0.000000 0.500000 0.500000
O O11 0.912135 0.261939 0.703904
O O12 0.932619 0.204405 0.216911
O O13 0.789102 0.701525 0.095421
O O14 0.263546 0.775075 0.084528
O O15 0.386950 0.230509 0.244990
O O16 0.087123 0.170135 0.045015
O O17 0.000000 0.000000 0.000000
#
# Coordination Sequence:
#
# PCOD9049174 Si02
#       8
#     2   2   2   2   2   2   2   2
#     4  10  24  46  70 105 134 180 223 283 353 409
#     4  12  26  45  68 102 141 183 230 288 338 406
#     4  12  23  43  70  96 137 182 232 282 341 399
#     4  12  27  46  68 101 143 182 231 284 340 406
#     4  11  24  46  71 102 142 175 226 286 343 407
#     4  12  26  45  68 102 140 181 233 282 341 410
#     4  12  24  45  72  99 139 184 231 285 342 404
#     4  11  24  44  73 103 137 178 232 277 347 412
#
# _framework density 21.551774000000002
#
# number of rings (size 3 to 8) (size 9 to 14) (size 15 to 20)
#    0.000    0.500    3.750    4.500    1.750    1.000 
#    9.000    0.000    0.000    0.000    0.000    0.000 
#    0.000    0.000    0.000    0.000    0.000    0.000 
#
# Total GULP energy -89591.552954 kJ/mol
# GULP energy per Si atom -5599.472060 kJ/mol
# Density = 2.150272 g / cm^3
# Si number density = 21.551774 Si / 1000 Ang^3
#
#
#
# Elastic Constant Matrix: (Units=GPa)
#
#
# Indices 1 2 3 4 5 6 
#
# 1 45.6570 10.8635 6.8595 20.5917 -3.9402 -5.6064
# 2 10.8635 82.9091 41.3075 7.2926 -7.4183 5.6403
# 3 6.8595 41.3075 140.9468 2.6907 -9.0343 13.2681
# 4 20.5917 7.2926 2.6907 49.8642 6.0686 -4.5699
# 5 -3.9402 -7.4183 -9.0343 6.0686 22.3828 -2.3668
# 6 -5.6064 5.6403 13.2681 -4.5699 -2.3668 16.1209
#
#
#
# Elastic Compliance Matrix: (Units=1/GPa)
#
#
# Indices 1 2 3 4 5 6 
#
# 1 0.029999 -0.002309 -0.000933 -0.012131 0.008466 0.009812
# 2 -0.002309 0.014851 -0.003729 -0.001670 0.003152 -0.002940
# 3 -0.000933 -0.003729 0.008930 -0.000320 0.001633 -0.006220
# 4 -0.012131 -0.001670 -0.000320 0.026771 -0.009783 0.002782
# 5 0.008466 0.003152 0.001633 -0.009783 0.051076 0.005223
# 6 0.009812 -0.002940 -0.006220 0.002782 0.005223 0.073147
#
#
# Mechanical properties :
#
#
# Convention : Reuss Voigt Hill
#
# Bulk Modulus (GPa) = 25.10219 43.06376 34.08298
# Shear Modulus (GPa) = 21.55226 31.70575 26.62901
#
# Velocity S-wave (km/s) = 3.16574 3.83971 3.51890
# Velocity P-wave (km/s) = 5.00352 6.29942 5.68850
#
# Compressibility (1/GPa) = 0.03983716
#
# Stress axis : x y z
#
# Youngs Moduli (GPa) = 33.33478 67.33568 111.98808
#
# Poissons Ratio (x) = 0.15548 0.10445
# Poissons Ratio (y) = 0.07697 0.41764
# Poissons Ratio (z) = 0.03109 0.25111
#
# Static dielectric constant tensor:
#      x y z
#    x 1.773070 0.023210 -0.002580 
#    y 0.023210 1.768900 -0.016950 
#    z -0.002580 -0.016950 1.769040 
# 
# From -- ./inp_files/48427.got.cif
#   From: 2010.05.17/outbox.cif.g08.bks.cpg/sg2_25_cif.got.tgz:48427.got - 2010.06.03 11:33:40.
