data_PCOD9049367
_publ_section_title
;
Structure prediction by ZEFSAII (Michael W. Deem and Ramdas Pophale) SiO2 
 PCOD9049367
Probable space group: P -1
;
_chemical_formula_sum "Si O2"
_cell_formula_units_Z 16
_cell_length_a 8.637440
_cell_length_b 8.358682
_cell_length_c 12.130423
_cell_angle_alpha 72.243152
_cell_angle_beta 119.077255
_cell_angle_gamma 92.796996
_cell_volume 723.724640
_symmetry_space_group_name_H-M "P -1"
_symmetry_group_IT_number 2
_symmetry_cell_setting 'triclinic'
loop_
_space_group_symop_operation_xyz
x,y,z
-x,-y,-z
loop_
_atom_site_type_symbol
_atom_site_label
_atom_site_fract_x
_atom_site_fract_y
_atom_site_fract_z
Si Si1 0.964205 0.087880 0.646007
Si Si2 0.404550 0.926364 0.380536
Si Si3 0.600369 0.784119 0.853009
Si Si4 0.359288 0.396668 0.534556
Si Si5 0.376626 0.511031 0.764738
Si Si6 0.000270 0.726025 0.612701
Si Si7 0.573808 0.176857 0.007721
Si Si8 0.858371 0.956560 0.050271
O O1 0.766002 0.144577 0.611882
O O2 0.003162 0.198033 0.529957
O O3 0.976007 0.892175 0.648555
O O4 0.081033 0.100598 0.793414
O O5 0.539314 0.792807 0.390504
O O6 0.500000 0.000000 0.500000
O O7 0.357569 0.080721 0.250056
O O8 0.545673 0.620021 0.807876
O O9 0.421418 0.823429 0.858137
O O10 0.754652 0.810741 0.989198
O O11 0.500000 0.500000 0.500000
O O12 0.338370 0.464591 0.636111
O O13 0.168208 0.381307 0.415426
O O14 0.450704 0.343004 0.892068
O O15 0.188210 0.609712 0.719850
O O16 0.747071 0.140725 0.999714
O O17 0.500000 0.000000 0.000000
O O18 0.000000 0.000000 0.000000
#
# Coordination Sequence:
#
# PCOD9049367 Si02
#       8
#     2   2   2   2   2   2   2   2
#     4  11  24  44  78 107 151 193 255 302 366 450
#     4  12  23  44  75 104 147 195 242 305 373 439
#     4  11  24  44  70 105 145 193 246 303 365 441
#     4  12  26  43  69 109 151 191 236 304 381 433
#     4  12  26  46  71 107 149 191 247 305 376 435
#     4  11  26  46  74 113 144 197 249 312 366 442
#     4  10  24  46  72  98 138 197 246 302 360 448
#     4  11  23  43  74 108 143 198 250 299 370 442
#
# _framework density 22.107856000000002
#
# number of rings (size 3 to 8) (size 9 to 14) (size 15 to 20)
#    0.000    0.750    2.500    5.250    7.000    0.000 
#    0.000    0.625    0.000    0.000    0.000    0.000 
#    0.000    0.000    0.000    0.000    0.000    0.000 
#
# Total GULP energy -89245.238441 kJ/mol
# GULP energy per Si atom -5577.827403 kJ/mol
# Density = 2.205754 g / cm^3
# Si number density = 22.107856 Si / 1000 Ang^3
#
#
#
# Elastic Constant Matrix: (Units=GPa)
#
#
# Indices 1 2 3 4 5 6 
#
# 1 113.3703 12.7957 10.6645 5.3695 4.1571 1.2707
# 2 12.7957 62.5791 12.3693 16.4503 14.0330 8.5203
# 3 10.6645 12.3693 81.4864 22.8013 4.0040 11.3525
# 4 5.3695 16.4503 22.8013 42.2793 6.2840 1.5768
# 5 4.1571 14.0330 4.0040 6.2840 39.1699 5.8130
# 6 1.2707 8.5203 11.3525 1.5768 5.8130 43.4168
#
#
#
# Elastic Compliance Matrix: (Units=1/GPa)
#
#
# Indices 1 2 3 4 5 6 
#
# 1 0.009106 -0.001655 -0.000990 0.000058 -0.000335 0.000360
# 2 -0.001655 0.019639 -0.000339 -0.006343 -0.005398 -0.002764
# 3 -0.000990 -0.000339 0.015130 -0.007837 0.000478 -0.003640
# 4 0.000058 -0.006343 -0.007837 0.030575 -0.002205 0.002477
# 5 -0.000335 -0.005398 0.000478 -0.002205 0.028213 -0.002753
# 6 0.000360 -0.002764 -0.003640 0.002477 -0.002753 0.024795
#
#
# Mechanical properties :
#
#
# Convention : Reuss Voigt Hill
#
# Bulk Modulus (GPa) = 26.38197 36.56610 31.47404
# Shear Modulus (GPa) = 34.23187 39.74695 36.98941
#
# Velocity S-wave (km/s) = 3.93924 4.24472 4.09483
# Velocity P-wave (km/s) = 5.71397 6.37176 6.05181
#
# Compressibility (1/GPa) = 0.03790468
#
# Stress axis : x y z
#
# Youngs Moduli (GPa) = 109.81584 50.91796 66.09550
#
# Poissons Ratio (x) = 0.08429 0.06546
# Poissons Ratio (y) = 0.18179 0.02243
# Poissons Ratio (z) = 0.10877 0.01728
#
# Static dielectric constant tensor:
#      x y z
#    x 2.656520 0.176900 0.198040 
#    y 0.176900 1.952560 0.052600 
#    z 0.198040 0.052600 1.867590 
# 
# From -- ./inp_files/378875.got.cif
#   From: 2010.05.17/outbox.cif.g08.bks.cpg/sg2_190_cif.got.tgz:378875.got - 2010.06.03 11:33:40.
