data_PCOD9049964
_publ_section_title
;
Structure prediction by ZEFSAII (Michael W. Deem and Ramdas Pophale) SiO2 
 PCOD9049964
Probable space group: P -1
;
_chemical_formula_sum "Si O2"
_cell_formula_units_Z 16
_cell_length_a 29.874170
_cell_length_b 9.978414
_cell_length_c 13.528707
_cell_angle_alpha 133.308378
_cell_angle_beta 25.481031
_cell_angle_gamma 147.712517
_cell_volume 872.883118
_symmetry_space_group_name_H-M "P -1"
_symmetry_group_IT_number 2
_symmetry_cell_setting 'triclinic'
loop_
_space_group_symop_operation_xyz
x,y,z
-x,-y,-z
loop_
_atom_site_type_symbol
_atom_site_label
_atom_site_fract_x
_atom_site_fract_y
_atom_site_fract_z
Si Si1 0.047084 0.272284 0.049258
Si Si2 0.658036 0.020550 0.371055
Si Si3 0.383643 0.174507 0.428019
Si Si4 0.727799 0.527401 0.944189
Si Si5 0.850072 0.350374 0.501793
Si Si6 0.326797 0.522772 0.737481
Si Si7 0.915304 0.579167 0.176411
Si Si8 0.078332 0.889399 0.190581
O O1 0.208483 0.480201 0.885160
O O2 0.042149 0.323312 0.970313
O O3 0.939969 0.282781 0.321918
O O4 0.000000 0.000000 0.000000
O O5 0.738190 0.311667 0.391702
O O6 0.642609 0.882597 0.431622
O O7 0.493142 0.823013 0.555593
O O8 0.779600 0.067056 0.086825
O O9 0.342705 0.334123 0.569633
O O10 0.277447 0.895412 0.441369
O O11 0.559537 0.357231 0.155338
O O12 0.773213 0.377516 0.751595
O O13 0.841047 0.811445 0.805486
O O14 0.725109 0.551498 0.081066
O O15 0.967130 0.637048 0.357400
O O16 0.979424 0.795081 0.240237
O O17 0.000000 0.500000 0.000000
#
# Coordination Sequence:
#
# PCOD9049964 Si02
#       8
#     2   2   2   2   2   2   2   2
#     4  12  23  36  59  91 120 158 198 245 297 355
#     4  10  17  34  61  86 112 150 204 246 286 341
#     4  11  19  39  61  87 118 157 203 248 288 354
#     4  11  23  37  60  90 123 159 193 252 301 343
#     4  12  23  37  58  91 123 155 204 241 297 361
#     4  11  22  36  59  86 124 157 198 242 298 356
#     4  10  19  35  61  85 114 149 202 249 286 339
#     4  11  18  36  61  88 116 153 199 253 293 341
#
# _framework density 18.330061000000001
#
# number of rings (size 3 to 8) (size 9 to 14) (size 15 to 20)
#    0.000    1.000    7.500    3.000    0.000    1.000 
#    0.000    0.000    0.000    0.000    0.000    3.500 
#    0.000    0.000    0.000    0.000    0.000    0.000 
#
# Total GULP energy -89182.337202 kJ/mol
# GULP energy per Si atom -5573.896075 kJ/mol
# Density = 1.828834 g / cm^3
# Si number density = 18.330061 Si / 1000 Ang^3
#
#
#
# Elastic Constant Matrix: (Units=GPa)
#
#
# Indices 1 2 3 4 5 6 
#
# 1 51.5510 22.2960 32.9088 1.5009 -16.8737 1.9443
# 2 22.2960 96.4708 60.3630 -7.2791 -5.8156 8.8639
# 3 32.9088 60.3630 94.7333 12.1348 -10.0016 16.1206
# 4 1.5009 -7.2791 12.1348 35.1645 3.3550 -5.7385
# 5 -16.8737 -5.8156 -10.0016 3.3550 25.1583 -3.3861
# 6 1.9443 8.8639 16.1206 -5.7385 -3.3861 23.0053
#
#
#
# Elastic Compliance Matrix: (Units=1/GPa)
#
#
# Indices 1 2 3 4 5 6 
#
# 1 0.031739 -0.000232 -0.010572 0.001832 0.017850 0.007899
# 2 -0.000232 0.020104 -0.015194 0.010478 -0.002246 0.005204
# 3 -0.010572 -0.015194 0.028914 -0.015556 0.000638 -0.017300
# 4 0.001832 0.010478 -0.015556 0.038980 -0.005632 0.015603
# 5 0.017850 -0.002246 0.000638 -0.005632 0.052918 0.005294
# 6 0.007899 0.005204 -0.017300 0.015603 0.005294 0.057589
#
#
# Mechanical properties :
#
#
# Convention : Reuss Voigt Hill
#
# Bulk Modulus (GPa) = 34.77038 52.65453 43.71245
# Shear Modulus (GPa) = 17.13345 25.14478 21.13912
#
# Velocity S-wave (km/s) = 3.06063 3.70777 3.39964
# Velocity P-wave (km/s) = 5.61250 6.86427 6.26971
#
# Compressibility (1/GPa) = 0.02876011
#
# Stress axis : x y z
#
# Youngs Moduli (GPa) = 31.50713 49.74221 34.58543
#
# Poissons Ratio (x) = 0.01152 0.36565
# Poissons Ratio (y) = 0.00730 0.52550
# Poissons Ratio (z) = 0.33310 0.75579
#
# Static dielectric constant tensor:
#      x y z
#    x 1.636080 0.019850 0.012770 
#    y 0.019850 1.700110 -0.011640 
#    z 0.012770 -0.011640 1.654980 
# 
# From -- ./inp_files/544883.got.cif
#   From: 2010.05.17/outbox.cif.g08.bks.cpg/sg2_273_cif.got.tgz:544883.got - 2010.06.03 11:33:40.
