data_PCOD9049798
_publ_section_title
;
Structure prediction by ZEFSAII (Michael W. Deem and Ramdas Pophale) SiO2 
 PCOD9049798
Probable space group: P -1
;
_chemical_formula_sum "Si O2"
_cell_formula_units_Z 16
_cell_length_a 14.367679
_cell_length_b 18.490318
_cell_length_c 9.544816
_cell_angle_alpha 135.111354
_cell_angle_beta 135.037292
_cell_angle_gamma 22.051499
_cell_volume 659.338017
_symmetry_space_group_name_H-M "P -1"
_symmetry_group_IT_number 2
_symmetry_cell_setting 'triclinic'
loop_
_space_group_symop_operation_xyz
x,y,z
-x,-y,-z
loop_
_atom_site_type_symbol
_atom_site_label
_atom_site_fract_x
_atom_site_fract_y
_atom_site_fract_z
Si Si1 0.746198 0.419697 0.014449
Si Si2 0.165267 0.967908 0.227078
Si Si3 0.850241 0.550156 0.112668
Si Si4 0.263563 0.598140 0.695810
Si Si5 0.695242 0.719876 0.439447
Si Si6 0.458564 0.304170 0.276410
Si Si7 0.971364 0.976387 0.282939
Si Si8 0.427771 0.147747 0.209457
O O1 0.812305 0.470014 0.052568
O O2 0.473331 0.549085 0.870374
O O3 0.944010 0.196306 0.887341
O O4 0.765364 0.428911 0.215118
O O5 0.004441 0.178337 0.329916
O O6 0.460261 0.793413 0.278535
O O7 0.139017 0.932173 0.298729
O O8 0.000000 0.000000 0.000000
O O9 0.747807 0.601806 0.920886
O O10 0.723260 0.724681 0.310391
O O11 0.145703 0.371055 0.181310
O O12 0.363298 0.456128 0.486812
O O13 0.584450 0.856065 0.640730
O O14 0.000000 0.500000 0.500000
O O15 0.576887 0.139621 0.279657
O O16 0.675020 0.191281 0.239789
O O17 0.000000 0.000000 0.500000
O O18 0.500000 0.000000 0.000000
#
# Coordination Sequence:
#
# PCOD9049798 Si02
#       8
#     2   2   2   2   2   2   2   2
#     4  11  23  43  64 102 138 194 231 288 367 427
#     4  12  24  44  71 110 147 185 241 301 353 420
#     4  11  25  43  70  97 136 180 240 293 347 426
#     4  11  25  40  69 100 146 186 231 297 363 426
#     4  10  24  47  74  98 141 195 238 289 358 433
#     4  12  25  43  67 105 140 178 237 300 360 416
#     4  12  24  38  64 100 141 182 230 288 355 424
#     4  11  25  48  72  97 134 194 236 288 352 438
#
# _framework density 24.266763999999998
#
# number of rings (size 3 to 8) (size 9 to 14) (size 15 to 20)
#    0.000    0.750    2.500    4.875    5.250    1.000 
#    0.000    0.625    0.000    0.000    0.000    0.000 
#    0.000    0.000    0.000    0.000    0.000    0.000 
#
# Total GULP energy -89275.814972 kJ/mol
# GULP energy per Si atom -5579.738436 kJ/mol
# Density = 2.421153 g / cm^3
# Si number density = 24.266764 Si / 1000 Ang^3
#
#
#
# Elastic Constant Matrix: (Units=GPa)
#
#
# Indices 1 2 3 4 5 6 
#
# 1 91.7960 21.9460 23.8310 9.2904 -13.6209 -8.7213
# 2 21.9460 91.2421 35.4460 17.3233 -1.0997 -17.3944
# 3 23.8310 35.4460 156.2278 4.9146 -27.0174 -9.3838
# 4 9.2904 17.3233 4.9146 38.7677 -13.6645 3.5240
# 5 -13.6209 -1.0997 -27.0174 -13.6645 32.3449 1.6370
# 6 -8.7213 -17.3944 -9.3838 3.5240 1.6370 39.0509
#
#
#
# Elastic Compliance Matrix: (Units=1/GPa)
#
#
# Indices 1 2 3 4 5 6 
#
# 1 0.012439 -0.002410 -0.000469 -0.000378 0.004532 0.001436
# 2 -0.002410 0.016147 -0.004002 -0.009663 -0.008241 0.006910
# 3 -0.000469 -0.004002 0.008717 0.003876 0.008611 -0.000503
# 4 -0.000378 -0.009663 0.003876 0.037018 0.018773 -0.007585
# 5 0.004532 -0.008241 0.008611 0.018773 0.047886 -0.004291
# 6 0.001436 0.006910 -0.000503 -0.007585 -0.004291 0.029750
#
#
# Mechanical properties :
#
#
# Convention : Reuss Voigt Hill
#
# Bulk Modulus (GPa) = 42.47688 55.74576 49.11132
# Shear Modulus (GPa) = 28.80768 39.23555 34.02162
#
# Velocity S-wave (km/s) = 3.44921 4.02536 3.74837
# Velocity P-wave (km/s) = 5.77969 6.68032 6.24626
#
# Compressibility (1/GPa) = 0.02354222
#
# Stress axis : x y z
#
# Youngs Moduli (GPa) = 80.39444 61.93200 114.71267
#
# Poissons Ratio (x) = 0.14923 0.05377
# Poissons Ratio (y) = 0.19372 0.45908
# Poissons Ratio (z) = 0.03768 0.24785
#
# Static dielectric constant tensor:
#      x y z
#    x 1.922960 0.009330 0.086530 
#    y 0.009330 2.019340 -0.086940 
#    z 0.086530 -0.086940 2.113750 
# 
# From -- ./inp_files/319489.got.cif
#   From: 2010.05.17/outbox.cif.g08.bks.cpg/sg2_160_cif.got.tgz:319489.got - 2010.06.03 11:33:40.
