data_PCOD9049318
_publ_section_title
;
Structure prediction by ZEFSAII (Michael W. Deem and Ramdas Pophale) SiO2 
 PCOD9049318
Probable space group: P -1
;
_chemical_formula_sum "Si O2"
_cell_formula_units_Z 16
_cell_length_a 9.304817
_cell_length_b 14.808913
_cell_length_c 8.048910
_cell_angle_alpha 38.969255
_cell_angle_beta 104.903697
_cell_angle_gamma 112.578260
_cell_volume 642.420085
_symmetry_space_group_name_H-M "P -1"
_symmetry_group_IT_number 2
_symmetry_cell_setting 'triclinic'
loop_
_space_group_symop_operation_xyz
x,y,z
-x,-y,-z
loop_
_atom_site_type_symbol
_atom_site_label
_atom_site_fract_x
_atom_site_fract_y
_atom_site_fract_z
Si Si1 0.156441 0.129625 0.318462
Si Si2 0.335882 0.402849 0.407660
Si Si3 0.627775 0.254617 0.107972
Si Si4 0.928352 0.301458 0.955225
Si Si5 0.754547 0.157886 0.774993
Si Si6 0.994161 0.603430 0.692089
Si Si7 0.327870 0.136760 0.015755
Si Si8 0.527855 0.767054 0.549092
O O1 0.296912 0.141317 0.471834
O O2 0.218874 0.110591 0.181395
O O3 0.000000 0.000000 0.500000
O O4 0.092469 0.274105 0.081574
O O5 0.362106 0.578348 0.193151
O O6 0.351710 0.301333 0.712145
O O7 0.445693 0.376022 0.332362
O O8 0.152624 0.338140 0.402530
O O9 0.796113 0.235723 0.151713
O O10 0.495496 0.132954 0.139611
O O11 0.567633 0.256274 0.274229
O O12 0.846954 0.218234 0.884440
O O13 0.956281 0.480166 0.708609
O O14 0.857148 0.265316 0.508896
O O15 0.579706 0.171936 0.694711
O O16 0.739840 0.987962 0.964400
O O17 0.000000 0.500000 0.000000
#
# Coordination Sequence:
#
# PCOD9049318 Si02
#       8
#     2   2   2   2   2   2   2   2
#     4  11  28  46  72 102 146 191 240 297 356 435
#     4  11  23  44  72 104 143 186 240 292 362 428
#     4  10  24  46  72 104 146 188 239 298 355 433
#     4  11  25  46  74 104 144 189 240 290 363 424
#     4  12  27  45  73 108 147 186 242 299 365 427
#     4  11  25  46  74 105 143 193 239 298 355 431
#     4  11  27  44  71 105 147 188 237 299 368 421
#     4  11  26  44  74 106 141 191 242 298 357 426
#
# _framework density 24.905821
#
# number of rings (size 3 to 8) (size 9 to 14) (size 15 to 20)
#    0.000    1.000    0.000    4.875    8.750    7.000 
#    0.000    0.000    0.000    0.000    0.000    0.000 
#    0.000    0.000    0.000    0.000    0.000    0.000 
#
# Total GULP energy -89560.255752 kJ/mol
# GULP energy per Si atom -5597.515985 kJ/mol
# Density = 2.484913 g / cm^3
# Si number density = 24.905821 Si / 1000 Ang^3
#
#
#
# Elastic Constant Matrix: (Units=GPa)
#
#
# Indices 1 2 3 4 5 6 
#
# 1 145.9557 22.7264 19.9637 10.4246 -0.9403 12.3007
# 2 22.7264 106.5207 19.7672 8.5625 -4.6023 -0.5147
# 3 19.9637 19.7672 61.7934 8.7979 -13.8444 3.1808
# 4 10.4246 8.5625 8.7979 34.8867 -1.0547 4.3581
# 5 -0.9403 -4.6023 -13.8444 -1.0547 42.8549 2.4153
# 6 12.3007 -0.5147 3.1808 4.3581 2.4153 39.0390
#
#
#
# Elastic Compliance Matrix: (Units=1/GPa)
#
#
# Indices 1 2 3 4 5 6 
#
# 1 0.007555 -0.001193 -0.001884 -0.001245 -0.000485 -0.002074
# 2 -0.001193 0.010280 -0.002696 -0.001596 0.000117 0.000902
# 3 -0.001884 -0.002696 0.019523 -0.003391 0.005950 -0.001022
# 4 -0.001245 -0.001596 -0.003391 0.030615 -0.000386 -0.002746
# 5 -0.000485 0.000117 0.005950 -0.000386 0.025354 -0.001856
# 6 -0.002074 0.000902 -0.001022 -0.002746 -0.001856 0.026785
#
#
# Mechanical properties :
#
#
# Convention : Reuss Voigt Hill
#
# Bulk Modulus (GPa) = 38.74171 48.79827 43.76999
# Shear Modulus (GPa) = 35.64741 40.14361 37.89551
#
# Velocity S-wave (km/s) = 3.78734 4.01910 3.90494
# Velocity P-wave (km/s) = 5.89189 6.41663 6.15985
#
# Compressibility (1/GPa) = 0.02581198
#
# Stress axis : x y z
#
# Youngs Moduli (GPa) = 132.35465 97.27194 51.22289
#
# Poissons Ratio (x) = 0.11607 0.09649
# Poissons Ratio (y) = 0.15793 0.13811
# Poissons Ratio (z) = 0.24933 0.26226
#
# Static dielectric constant tensor:
#      x y z
#    x 1.956880 0.013240 0.022850 
#    y 0.013240 2.012150 0.019870 
#    z 0.022850 0.019870 1.994470 
# 
# From -- ./inp_files/205337.got.cif
#   From: 2010.05.17/outbox.cif.g08.bks.cpg/sg2_103_cif.got.tgz:205337.got - 2010.06.03 11:33:40.
