data_PCOD9049438
_publ_section_title
;
Structure prediction by ZEFSAII (Michael W. Deem and Ramdas Pophale) SiO2 
 PCOD9049438
Probable space group: P -1
;
_chemical_formula_sum "Si O2"
_cell_formula_units_Z 15
_cell_length_a 9.111692
_cell_length_b 9.450589
_cell_length_c 8.020617
_cell_angle_alpha 81.379679
_cell_angle_beta 59.879977
_cell_angle_gamma 93.455244
_cell_volume 583.198407
_symmetry_space_group_name_H-M "P -1"
_symmetry_group_IT_number 2
_symmetry_cell_setting 'triclinic'
loop_
_space_group_symop_operation_xyz
x,y,z
-x,-y,-z
loop_
_atom_site_type_symbol
_atom_site_label
_atom_site_fract_x
_atom_site_fract_y
_atom_site_fract_z
Si Si1 0.152793 0.938332 0.838301
Si Si2 0.609221 0.566723 0.582959
Si Si3 0.998965 0.424100 0.692362
Si Si4 0.076169 0.283886 0.188959
Si Si5 0.739652 0.127101 0.872856
Si Si6 0.000000 0.000000 0.500000
Si Si7 0.405609 0.139174 0.520926
Si Si8 0.544146 0.728980 0.159402
O O1 0.077713 0.785254 0.833935
O O2 0.211650 0.050603 0.633297
O O3 0.283945 0.935018 0.914891
O O4 0.000000 0.000000 0.000000
O O5 0.500000 0.500000 0.500000
O O6 0.804033 0.598857 0.399707
O O7 0.561729 0.721649 0.640911
O O8 0.567931 0.433356 0.757432
O O9 0.000000 0.500000 0.500000
O O10 0.942916 0.549237 0.815074
O O11 0.870009 0.276537 0.800215
O O12 0.265225 0.273996 0.014931
O O13 0.037119 0.176724 0.388937
O O14 0.564823 0.165537 0.891545
O O15 0.838944 0.032090 0.710381
O O16 0.437390 0.215532 0.669376
O O17 0.500000 0.000000 0.500000
#
# Coordination Sequence:
#
# PCOD9049438 Si02
#       8
#     2   2   2   2   2   1   2   2
#     4  12  25  49  70 111 149 196 248 310 379 443
#     4  10  24  46  74 104 149 190 245 310 365 447
#     4  12  25  49  73 110 145 200 256 300 376 453
#     4  12  28  47  77 106 154 198 253 311 375 453
#     4  12  27  47  78 108 158 195 254 312 375 456
#     4  12  24  44  78 106 144 206 242 306 374 442
#     4  11  26  44  76 111 150 192 248 309 378 446
#     4  11  25  50  69 116 150 192 254 316 373 440
#
# _framework density 25.720237000000001
#
# number of rings (size 3 to 8) (size 9 to 14) (size 15 to 20)
#    0.000    0.533    5.333    0.800    7.467    4.267 
#    2.400    0.000    0.000    0.000    0.000    0.000 
#    0.000    0.000    0.000    0.000    0.000    0.000 
#
# Total GULP energy -83722.366253 kJ/mol
# GULP energy per Si atom -5581.491084 kJ/mol
# Density = 2.566170 g / cm^3
# Si number density = 25.720237 Si / 1000 Ang^3
#
#
#
# Elastic Constant Matrix: (Units=GPa)
#
#
# Indices 1 2 3 4 5 6 
#
# 1 101.0044 14.5072 2.2905 4.9215 -3.8656 -10.7123
# 2 14.5072 213.4759 38.2989 -0.4559 -13.6365 -4.8291
# 3 2.2905 38.2989 77.9340 -1.8761 -2.3110 -7.7799
# 4 4.9215 -0.4559 -1.8761 44.2906 1.6498 -5.1314
# 5 -3.8656 -13.6365 -2.3110 1.6498 30.6180 -1.8239
# 6 -10.7123 -4.8291 -7.7799 -5.1314 -1.8239 43.5266
#
#
#
# Elastic Compliance Matrix: (Units=1/GPa)
#
#
# Indices 1 2 3 4 5 6 
#
# 1 0.010337 -0.000616 0.000260 -0.000904 0.001246 0.002468
# 2 -0.000616 0.005315 -0.002526 -0.000054 0.002106 0.000069
# 3 0.000260 -0.002526 0.014332 0.000832 0.000091 0.002447
# 4 -0.000904 -0.000054 0.000832 0.023057 -0.001164 0.002590
# 5 0.001246 0.002106 0.000091 -0.001164 0.033935 0.001841
# 6 0.002468 0.000069 0.002447 0.002590 0.001841 0.024409
#
#
# Mechanical properties :
#
#
# Convention : Reuss Voigt Hill
#
# Bulk Modulus (GPa) = 41.28607 55.84529 48.56568
# Shear Modulus (GPa) = 39.92918 46.17487 43.05203
#
# Velocity S-wave (km/s) = 3.94438 4.24166 4.09572
# Velocity P-wave (km/s) = 6.06885 6.76378 6.42572
#
# Compressibility (1/GPa) = 0.02422124
#
# Stress axis : x y z
#
# Youngs Moduli (GPa) = 96.74392 188.13425 69.77331
#
# Poissons Ratio (x) = 0.11582 -0.01816
# Poissons Ratio (y) = 0.05956 0.17625
# Poissons Ratio (z) = -0.02518 0.47523
#
# Static dielectric constant tensor:
#      x y z
#    x 1.895590 -0.160010 0.008420 
#    y -0.160010 2.001500 0.014440 
#    z 0.008420 0.014440 2.201850 
# 
# From -- ./inp_files/156711.got.cif
#   From: 2010.05.17/outbox.cif.g08.bks.cpg/sg2_79_cif.got.tgz:156711.got - 2010.06.03 11:33:40.
