data_PCOD9049193
_publ_section_title
;
Structure prediction by ZEFSAII (Michael W. Deem and Ramdas Pophale) SiO2 
 PCOD9049193
Probable space group: P -1
;
_chemical_formula_sum "Si O2"
_cell_formula_units_Z 14
_cell_length_a 7.389042
_cell_length_b 18.854414
_cell_length_c 11.539037
_cell_angle_alpha 146.235314
_cell_angle_beta 71.460242
_cell_angle_gamma 131.046068
_cell_volume 565.489452
_symmetry_space_group_name_H-M "P -1"
_symmetry_group_IT_number 2
_symmetry_cell_setting 'triclinic'
loop_
_space_group_symop_operation_xyz
x,y,z
-x,-y,-z
loop_
_atom_site_type_symbol
_atom_site_label
_atom_site_fract_x
_atom_site_fract_y
_atom_site_fract_z
Si Si1 0.202145 0.903018 0.790802
Si Si2 0.132289 0.504984 0.597298
Si Si3 0.616373 0.756995 0.686817
Si Si4 0.812436 0.843840 0.222494
Si Si5 0.694823 0.044733 0.410731
Si Si6 0.156046 0.420062 0.145639
Si Si7 0.197407 0.475414 0.947646
O O1 0.380308 0.962510 0.718005
O O2 0.058595 0.706586 0.607998
O O3 0.927189 0.851982 0.742381
O O4 0.365745 0.080031 0.085421
O O5 0.455182 0.634156 0.671808
O O6 0.000000 0.500000 0.500000
O O7 0.099750 0.604687 0.828291
O O8 0.416513 0.602478 0.416945
O O9 0.497306 0.648026 0.062180
O O10 0.753555 0.924684 0.252507
O O11 0.935710 0.768269 0.056239
O O12 0.000000 0.000000 0.500000
O O13 0.500000 0.000000 0.500000
O O14 0.002846 0.264154 0.657409
O O15 0.251501 0.473586 0.067500
O O16 0.000000 0.500000 0.000000
#
# Coordination Sequence:
#
# PCOD9049193 Si02
#       7
#     2   2   2   2   2   2   2
#     4  11  25  46  77 108 151 193 257 312 377 471
#     4  10  24  46  70 108 143 194 244 308 384 446
#     4  10  25  47  74 109 145 196 254 312 389 443
#     4  12  27  46  72 110 155 202 257 314 387 456
#     4  12  27  47  75 115 150 208 254 312 390 459
#     4  11  25  45  72 105 151 191 247 322 377 449
#     4  12  25  47  73 107 152 199 260 312 375 457
#
# _framework density 24.757311999999999
#
# number of rings (size 3 to 8) (size 9 to 14) (size 15 to 20)
#    0.000    0.857    2.857    2.571    4.000    9.143 
#    0.000    0.000    0.000    0.000    0.000    0.000 
#    0.000    0.000    0.000    0.000    0.000    0.000 
#
# Total GULP energy -78338.565677 kJ/mol
# GULP energy per Si atom -5595.611834 kJ/mol
# Density = 2.470096 g / cm^3
# Si number density = 24.757312 Si / 1000 Ang^3
#
#
#
# Elastic Constant Matrix: (Units=GPa)
#
#
# Indices 1 2 3 4 5 6 
#
# 1 77.7716 34.9758 37.4076 6.3576 -21.8791 1.3266
# 2 34.9758 113.5825 52.2761 21.8996 -22.0049 -3.2895
# 3 37.4076 52.2761 180.3813 15.8005 -21.8368 -5.0212
# 4 6.3576 21.8996 15.8005 44.2017 -2.8426 -2.6884
# 5 -21.8791 -22.0049 -21.8368 -2.8426 52.9800 17.4806
# 6 1.3266 -3.2895 -5.0212 -2.6884 17.4806 43.9803
#
#
#
# Elastic Compliance Matrix: (Units=1/GPa)
#
#
# Indices 1 2 3 4 5 6 
#
# 1 0.017005 -0.003294 -0.001949 0.000063 0.005959 -0.003346
# 2 -0.003294 0.012224 -0.002129 -0.004680 0.002795 -0.000626
# 3 -0.001949 -0.002129 0.006778 -0.001012 0.000977 0.000223
# 4 0.000063 -0.004680 -0.001012 0.025299 -0.001535 0.001689
# 5 0.005959 0.002795 0.000977 -0.001535 0.026243 -0.010384
# 6 -0.003346 -0.000626 0.000223 0.001689 -0.010384 0.027047
#
#
# Mechanical properties :
#
#
# Convention : Reuss Voigt Hill
#
# Bulk Modulus (GPa) = 47.02871 69.00605 58.01738
# Shear Modulus (GPa) = 36.64937 44.70412 40.67674
#
# Velocity S-wave (km/s) = 3.85170 4.25396 4.05782
# Velocity P-wave (km/s) = 6.23040 7.21538 6.74091
#
# Compressibility (1/GPa) = 0.02126360
#
# Stress axis : x y z
#
# Youngs Moduli (GPa) = 58.80481 81.80718 147.53631
#
# Poissons Ratio (x) = 0.26947 0.28759
# Poissons Ratio (y) = 0.19370 0.31405
# Poissons Ratio (z) = 0.11463 0.17414
#
# Static dielectric constant tensor:
#      x y z
#    x 1.998920 0.019770 -0.091750 
#    y 0.019770 2.022410 -0.111150 
#    z -0.091750 -0.111150 2.047690 
# 
# From -- ./inp_files/405690.got.cif
#   From: 2010.05.17/outbox.cif.g08.bks.cpg/sg2_203_cif.got.tgz:405690.got - 2010.06.03 11:33:40.
