data_PCOD9049427
_publ_section_title
;
Structure prediction by ZEFSAII (Michael W. Deem and Ramdas Pophale) SiO2 
 PCOD9049427
Probable space group: P -1
;
_chemical_formula_sum "Si O2"
_cell_formula_units_Z 13
_cell_length_a 8.673958
_cell_length_b 12.298287
_cell_length_c 8.746429
_cell_angle_alpha 89.565293
_cell_angle_beta 130.363979
_cell_angle_gamma 61.705272
_cell_volume 552.900272
_symmetry_space_group_name_H-M "P -1"
_symmetry_group_IT_number 2
_symmetry_cell_setting 'triclinic'
loop_
_space_group_symop_operation_xyz
x,y,z
-x,-y,-z
loop_
_atom_site_type_symbol
_atom_site_label
_atom_site_fract_x
_atom_site_fract_y
_atom_site_fract_z
Si Si1 0.837259 0.380261 0.536763
Si Si2 0.338702 0.090128 0.745064
Si Si3 0.283969 0.859873 0.136349
Si Si4 0.848254 0.626223 0.017828
Si Si5 0.623875 0.233826 0.471147
Si Si6 0.000000 0.000000 0.500000
Si Si7 0.558209 0.600821 0.108348
O O1 0.622318 0.358401 0.408126
O O2 0.726616 0.516928 0.367300
O O3 0.096439 0.251317 0.620978
O O4 0.939790 0.366724 0.772922
O O5 0.540457 0.093612 0.779872
O O6 0.203246 0.030332 0.590145
O O7 0.500000 0.000000 0.000000
O O8 0.388291 0.766663 0.356807
O O9 0.328726 0.760693 0.021269
O O10 0.000000 0.000000 0.000000
O O11 0.716523 0.611215 0.079338
O O12 0.609304 0.750067 0.763002
O O13 0.000000 0.500000 0.000000
O O14 0.899867 0.099504 0.586762
O O15 0.500000 0.500000 0.000000
#
# Coordination Sequence:
#
# PCOD9049427 Si02
#       7
#     2   2   2   2   2   1   2
#     4  11  24  47  76 103 155 198 257 314 384 453
#     4  11  24  47  77 106 151 205 254 319 386 460
#     4  12  28  48  79 117 159 204 263 321 395 464
#     4  12  26  43  72 108 147 197 255 311 383 451
#     4  11  26  45  73 112 150 197 255 319 380 460
#     4  10  24  46  74 102 148 204 252 306 388 452
#     4  12  27  49  77 113 156 208 256 322 387 463
#
# _framework density 23.512376
#
# number of rings (size 3 to 8) (size 9 to 14) (size 15 to 20)
#    0.000    0.615    3.077    4.154    6.462    1.846 
#    0.000    1.538    0.000    0.000    0.000    0.000 
#    0.000    0.000    0.000    0.000    0.000    0.000 
#
# Total GULP energy -72376.325423 kJ/mol
# GULP energy per Si atom -5567.409648 kJ/mol
# Density = 2.345886 g / cm^3
# Si number density = 23.512376 Si / 1000 Ang^3
#
#
#
# Elastic Constant Matrix: (Units=GPa)
#
#
# Indices 1 2 3 4 5 6 
#
# 1 135.2991 56.3561 20.9967 -1.6986 1.3959 -13.8195
# 2 56.3561 137.3651 25.3104 3.2344 21.2297 -25.9919
# 3 20.9967 25.3104 84.7638 -2.4460 5.3791 -7.0512
# 4 -1.6986 3.2344 -2.4460 44.3637 2.2861 12.0909
# 5 1.3959 21.2297 5.3791 2.2861 37.2993 5.9112
# 6 -13.8195 -25.9919 -7.0512 12.0909 5.9112 45.3394
#
#
#
# Elastic Compliance Matrix: (Units=1/GPa)
#
#
# Indices 1 2 3 4 5 6 
#
# 1 0.009174 -0.003854 -0.001234 0.000458 0.001998 0.000013
# 2 -0.003854 0.011617 -0.001563 -0.002582 -0.007173 0.006866
# 3 -0.001234 -0.001563 0.012710 0.000638 -0.001043 0.000670
# 4 0.000458 -0.002582 0.000638 0.024913 0.001106 -0.008030
# 5 0.001998 -0.007173 -0.001043 0.001106 0.032193 -0.008157
# 6 0.000013 0.006866 0.000670 -0.008030 -0.008157 0.029305
#
#
# Mechanical properties :
#
#
# Convention : Reuss Voigt Hill
#
# Bulk Modulus (GPa) = 49.50333 62.52824 56.01579
# Shear Modulus (GPa) = 35.72772 42.38481 39.05626
#
# Velocity S-wave (km/s) = 3.90234 4.25038 4.08007
# Velocity P-wave (km/s) = 6.43461 7.12314 6.78761
#
# Compressibility (1/GPa) = 0.02020066
#
# Stress axis : x y z
#
# Youngs Moduli (GPa) = 109.00209 86.07888 78.67703
#
# Poissons Ratio (x) = 0.33171 0.09712
# Poissons Ratio (y) = 0.42005 0.12294
# Poissons Ratio (z) = 0.13455 0.13450
#
# Static dielectric constant tensor:
#      x y z
#    x 1.869100 -0.027990 -0.063430 
#    y -0.027990 1.979680 0.029940 
#    z -0.063430 0.029940 2.197370 
# 
# From -- ./inp_files/179518.got.cif
#   From: 2010.05.17/outbox.cif.g08.bks.cpg/sg2_90_cif.got.tgz:179518.got - 2010.06.03 11:33:40.
