data_PCOD9049934
_publ_section_title
;
Structure prediction by ZEFSAII (Michael W. Deem and Ramdas Pophale) SiO2 
 PCOD9049934
Probable space group: P -1
;
_chemical_formula_sum "Si O2"
_cell_formula_units_Z 15
_cell_length_a 8.686526
_cell_length_b 5.336794
_cell_length_c 20.021420
_cell_angle_alpha 127.763776
_cell_angle_beta 118.126628
_cell_angle_gamma 62.665636
_cell_volume 627.453440
_symmetry_space_group_name_H-M "P -1"
_symmetry_group_IT_number 2
_symmetry_cell_setting 'triclinic'
loop_
_space_group_symop_operation_xyz
x,y,z
-x,-y,-z
loop_
_atom_site_type_symbol
_atom_site_label
_atom_site_fract_x
_atom_site_fract_y
_atom_site_fract_z
Si Si1 0.971438 0.834006 0.767135
Si Si2 0.500000 0.000000 0.000000
Si Si3 0.661025 0.130051 0.345823
Si Si4 0.632080 0.185332 0.204523
Si Si5 0.240776 0.249708 0.477894
Si Si6 0.612482 0.129966 0.678873
Si Si7 0.039454 0.734722 0.401117
Si Si8 0.925538 0.885938 0.034348
O O1 0.164790 0.796639 0.766320
O O2 0.814894 0.092121 0.739637
O O3 0.920644 0.491246 0.692929
O O4 0.989859 0.934031 0.861917
O O5 0.440808 0.945494 0.899024
O O6 0.290449 0.024516 0.985968
O O7 0.650850 0.987640 0.245996
O O8 0.696346 0.490364 0.419638
O O9 0.477410 0.128475 0.344304
O O10 0.828630 0.899148 0.380247
O O11 0.503121 0.525303 0.260101
O O12 0.376882 0.998176 0.416030
O O13 0.110527 0.485487 0.435470
O O14 0.141092 0.019780 0.460445
O O15 0.000000 0.500000 0.000000
O O16 0.000000 0.000000 0.000000
#
# Coordination Sequence:
#
# PCOD9049934 Si02
#       8
#     2   1   2   2   2   2   2   2
#     4  10  24  48  69 105 144 192 240 306 368 441
#     4  10  26  50  76 116 150 202 254 324 382 462
#     4  12  25  42  71 105 143 196 247 303 366 442
#     4  11  25  48  73 104 148 191 249 304 376 445
#     4  11  27  44  72 105 151 192 246 304 364 438
#     4  11  25  43  69 104 143 190 245 302 363 442
#     4  11  24  46  71 104 145 197 240 299 366 439
#     4  11  26  47  78 110 152 194 254 315 389 454
#
# _framework density 23.906157
#
# number of rings (size 3 to 8) (size 9 to 14) (size 15 to 20)
#    0.000    1.067    1.333    3.600    7.467    5.333 
#    0.000    0.000    0.000    0.000    0.000    0.000 
#    0.000    0.000    0.000    0.000    0.000    0.000 
#
# Total GULP energy -83598.839292 kJ/mol
# GULP energy per Si atom -5573.255953 kJ/mol
# Density = 2.385175 g / cm^3
# Si number density = 23.906157 Si / 1000 Ang^3
#
#
#
# Elastic Constant Matrix: (Units=GPa)
#
#
# Indices 1 2 3 4 5 6 
#
# 1 97.2207 51.8970 60.5581 -21.0205 -26.1051 -14.8191
# 2 51.8970 119.0643 50.9688 -11.2365 -3.0024 -11.0696
# 3 60.5581 50.9688 179.7621 -33.6215 -23.4398 -4.8969
# 4 -21.0205 -11.2365 -33.6215 32.3931 1.8234 -6.6718
# 5 -26.1051 -3.0024 -23.4398 1.8234 41.2654 3.2282
# 6 -14.8191 -11.0696 -4.8969 -6.6718 3.2282 32.2547
#
#
#
# Elastic Compliance Matrix: (Units=1/GPa)
#
#
# Indices 1 2 3 4 5 6 
#
# 1 0.021448 -0.006530 -0.001628 0.011107 0.011008 0.008562
# 2 -0.006530 0.011929 -0.002081 -0.001836 -0.004430 0.000841
# 3 -0.001628 -0.002081 0.008462 0.007018 0.003241 0.000950
# 4 0.011107 -0.001836 0.007018 0.047293 0.007651 0.014555
# 5 0.011008 -0.004430 0.003241 0.007651 0.032191 0.002390
# 6 0.008562 0.000841 0.000950 0.014555 0.002390 0.038141
#
#
# Mechanical properties :
#
#
# Convention : Reuss Voigt Hill
#
# Bulk Modulus (GPa) = 46.81138 80.32166 63.56652
# Shear Modulus (GPa) = 26.72913 36.69084 31.70999
#
# Velocity S-wave (km/s) = 3.34741 3.92189 3.64598
# Velocity P-wave (km/s) = 5.87911 7.36070 6.66123
#
# Compressibility (1/GPa) = 0.02136233
#
# Stress axis : x y z
#
# Youngs Moduli (GPa) = 46.62476 83.82983 118.16914
#
# Poissons Ratio (x) = 0.54740 0.19237
# Poissons Ratio (y) = 0.30446 0.24586
# Poissons Ratio (z) = 0.07590 0.17441
#
# Static dielectric constant tensor:
#      x y z
#    x 1.894560 -0.019870 -0.011070 
#    y -0.019870 2.005620 0.010150 
#    z -0.011070 0.010150 1.904860 
# 
# From -- ./inp_files/585950.got.cif
#   From: 2010.05.17/outbox.cif.g08.bks.cpg/sg2_293_cif.got.tgz:585950.got - 2010.06.03 11:33:40.
