data_PCOD9049974
_publ_section_title
;
Structure prediction by ZEFSAII (Michael W. Deem and Ramdas Pophale) SiO2 
 PCOD9049974
Probable space group: P -1
;
_chemical_formula_sum "Si O2"
_cell_formula_units_Z 16
_cell_length_a 8.392405
_cell_length_b 23.968403
_cell_length_c 8.942680
_cell_angle_alpha 40.588002
_cell_angle_beta 44.256691
_cell_angle_gamma 39.512384
_cell_volume 706.752344
_symmetry_space_group_name_H-M "P -1"
_symmetry_group_IT_number 2
_symmetry_cell_setting 'triclinic'
loop_
_space_group_symop_operation_xyz
x,y,z
-x,-y,-z
loop_
_atom_site_type_symbol
_atom_site_label
_atom_site_fract_x
_atom_site_fract_y
_atom_site_fract_z
Si Si1 0.100279 0.480668 0.219021
Si Si2 0.867144 0.808697 0.421433
Si Si3 0.847486 0.256925 0.929662
Si Si4 0.644272 0.193157 0.731668
Si Si5 0.035712 0.367901 0.762904
Si Si6 0.078744 0.894084 0.594190
Si Si7 0.701150 0.649235 0.925601
Si Si8 0.502472 0.034182 0.260608
O O1 0.998947 0.432659 0.507792
O O2 0.292939 0.390310 0.166944
O O3 0.140601 0.555777 0.144613
O O4 0.897773 0.558901 0.078939
O O5 0.766628 0.738235 0.704490
O O6 0.929024 0.775181 0.276462
O O7 0.121880 0.795320 0.371285
O O8 0.671603 0.926171 0.294477
O O9 0.911354 0.302130 0.936089
O O10 0.800502 0.174276 0.203292
O O11 0.584204 0.323034 0.880986
O O12 0.352756 0.293906 0.727931
O O13 0.737384 0.150891 0.584991
O O14 0.622131 0.106014 0.010357
O O15 0.795803 0.906465 0.717425
O O16 0.000000 0.000000 0.500000
O O17 0.500000 0.000000 0.500000
#
# Coordination Sequence:
#
# PCOD9049974 Si02
#       8
#     2   2   2   2   2   2   2   2
#     4  10  24  48  71 101 140 182 238 292 348 419
#     4  12  27  45  74 103 145 187 235 286 346 423
#     4  12  26  44  74 104 145 184 231 293 353 411
#     4  12  27  48  72 105 145 187 234 285 350 419
#     4  11  24  47  70 105 142 181 235 294 352 408
#     4  12  27  43  72 106 143 189 231 289 347 411
#     4  11  25  48  72 104 139 185 237 284 356 417
#     4  12  27  46  72 106 143 186 237 278 349 424
#
# _framework density 22.638766
#
# number of rings (size 3 to 8) (size 9 to 14) (size 15 to 20)
#    0.000    0.500    3.750    3.375    8.750    2.000 
#    9.000    0.000    0.000    0.000    0.000    0.000 
#    0.000    0.000    0.000    0.000    0.000    0.000 
#
# Total GULP energy -89248.762290 kJ/mol
# GULP energy per Si atom -5578.047643 kJ/mol
# Density = 2.258724 g / cm^3
# Si number density = 22.638766 Si / 1000 Ang^3
#
#
#
# Elastic Constant Matrix: (Units=GPa)
#
#
# Indices 1 2 3 4 5 6 
#
# 1 55.0988 -53.0558 89.5581 -5.0276 -43.5161 53.0814
# 2 -53.0558 -273.2097 314.2031 -29.4347 -157.4369 247.4439
# 3 89.5581 314.2031 -202.8558 -6.3868 115.4306 -211.2463
# 4 -5.0276 -29.4347 -6.3868 31.8699 -2.3041 12.4678
# 5 -43.5161 -157.4369 115.4306 -2.3041 -15.4285 95.9245
# 6 53.0814 247.4439 -211.2463 12.4678 95.9245 -123.9249
#
#
#
# Elastic Compliance Matrix: (Units=1/GPa)
#
#
# Indices 1 2 3 4 5 6 
#
# 1 0.017812 -0.007310 -0.005624 -0.006116 0.001139 0.002886
# 2 -0.007310 0.010826 0.008789 0.009002 -0.000517 0.004009
# 3 -0.005624 0.008789 0.016814 0.013803 0.006694 -0.006951
# 4 -0.006116 0.009002 0.013803 0.042898 0.000456 -0.003507
# 5 0.001139 -0.000517 0.006694 0.000456 0.022762 0.005710
# 6 0.002886 0.004009 -0.006951 -0.003507 0.005710 0.017087
#
#
# Mechanical properties :
#
#
# Convention : Reuss Voigt Hill
#
# Bulk Modulus (GPa) = 26.90821 31.16046 29.03434
# Shear Modulus (GPa) = 33.58464 -72.94150 -19.67843
#
# Velocity S-wave (km/s) = 3.85580 -5.68240 -2.95148
# Velocity P-wave (km/s) = 5.63335 5.40914 1.11262
#
# Compressibility (1/GPa) = 0.03716338
#
# Stress axis : x y z
#
# Youngs Moduli (GPa) = 56.14107 92.36846 59.47266
#
# Poissons Ratio (x) = 0.67524 0.33447
# Poissons Ratio (y) = 0.41041 -0.52273
# Poissons Ratio (z) = 0.31574 -0.81187
#
# Static dielectric constant tensor:
#      x y z
#    x 1.940810 -0.167130 -0.033800 
#    y -0.167130 2.693870 0.076940 
#    z -0.033800 0.076940 1.879300 
# 
# From -- ./inp_files/135185.got.cif
#   From: 2010.05.17/outbox.cif.g08.bks.cpg/sg2_68_cif.got.tgz:135185.got - 2010.06.03 11:33:40.
