data_PCOD9049715
_publ_section_title
;
Structure prediction by ZEFSAII (Michael W. Deem and Ramdas Pophale) SiO2 
 PCOD9049715
Probable space group: P -1
;
_chemical_formula_sum "Si O2"
_cell_formula_units_Z 15
_cell_length_a 5.187268
_cell_length_b 21.097780
_cell_length_c 12.035870
_cell_angle_alpha 152.584188
_cell_angle_beta 91.356730
_cell_angle_gamma 91.494252
_cell_volume 603.147888
_symmetry_space_group_name_H-M "P -1"
_symmetry_group_IT_number 2
_symmetry_cell_setting 'triclinic'
loop_
_space_group_symop_operation_xyz
x,y,z
-x,-y,-z
loop_
_atom_site_type_symbol
_atom_site_label
_atom_site_fract_x
_atom_site_fract_y
_atom_site_fract_z
Si Si1 0.464075 0.100315 0.552235
Si Si2 0.500000 0.500000 0.000000
Si Si3 0.177414 0.020993 0.925048
Si Si4 0.981463 0.254223 0.863092
Si Si5 0.567394 0.273666 0.323867
Si Si6 0.828903 0.151334 0.948747
Si Si7 0.735447 0.524557 0.242617
Si Si8 0.870150 0.295126 0.582973
O O1 0.746146 0.180661 0.672926
O O2 0.239796 0.195235 0.730728
O O3 0.500000 0.000000 0.500000
O O4 0.359940 0.991530 0.287914
O O5 0.508849 0.545568 0.936662
O O6 0.703175 0.384296 0.795177
O O7 0.177566 0.865325 0.640124
O O8 0.051190 0.110878 0.969929
O O9 0.435477 0.119276 0.110372
O O10 0.000000 0.000000 0.000000
O O11 0.933974 0.203646 0.911781
O O12 0.931140 0.415291 0.106892
O O13 0.363519 0.383713 0.517483
O O14 0.788865 0.303879 0.465916
O O15 0.678884 0.264462 0.187758
O O16 0.835684 0.628873 0.301079
#
# Coordination Sequence:
#
# PCOD9049715 Si02
#       8
#     2   1   2   2   2   2   2   2
#     4  10  24  47  72 105 145 185 239 297 347 427
#     4  10  26  42  70  96 136 188 230 286 358 424
#     4  12  24  43  69 100 136 178 235 301 349 422
#     4  11  27  47  73 108 149 186 238 295 359 431
#     4  11  24  43  68 100 135 182 237 293 354 424
#     4  11  25  42  73 102 136 185 234 293 363 413
#     4  11  25  46  69  99 146 183 236 291 357 434
#     4  11  24  46  65 100 138 178 237 293 355 424
#
# _framework density 24.869523999999998
#
# number of rings (size 3 to 8) (size 9 to 14) (size 15 to 20)
#    0.000    1.067    2.667    2.400   11.200    1.600 
#    0.000    2.667    0.000    0.000    0.000    0.000 
#    0.000    0.000    0.000    0.000    0.000    0.000 
#
# Total GULP energy -83710.097682 kJ/mol
# GULP energy per Si atom -5580.673179 kJ/mol
# Density = 2.481292 g / cm^3
# Si number density = 24.869524 Si / 1000 Ang^3
#
#
#
# Elastic Constant Matrix: (Units=GPa)
#
#
# Indices 1 2 3 4 5 6 
#
# 1 89.0084 26.0226 43.4476 10.1997 -32.7510 -1.1300
# 2 26.0226 85.9006 47.9982 -2.9331 -2.0763 -5.9166
# 3 43.4476 47.9982 171.8493 -5.6702 -44.4188 8.8225
# 4 10.1997 -2.9331 -5.6702 52.5390 4.8475 -9.1578
# 5 -32.7510 -2.0763 -44.4188 4.8475 42.4958 5.9105
# 6 -1.1300 -5.9166 8.8225 -9.1578 5.9105 28.3225
#
#
#
# Elastic Compliance Matrix: (Units=1/GPa)
#
#
# Indices 1 2 3 4 5 6 
#
# 1 0.020359 -0.007754 0.002257 -0.007342 0.019617 -0.007979
# 2 -0.007754 0.018745 -0.007535 0.004986 -0.014992 0.010694
# 3 0.002257 -0.007535 0.011636 -0.002580 0.015092 -0.009092
# 4 -0.007342 0.004986 -0.002580 0.023665 -0.012453 0.011803
# 5 0.019617 -0.014992 0.015092 -0.012453 0.058348 -0.023253
# 6 -0.007979 0.010694 -0.009092 0.011803 -0.023253 0.048725
#
#
# Mechanical properties :
#
#
# Convention : Reuss Voigt Hill
#
# Bulk Modulus (GPa) = 40.52785 64.63279 52.58032
# Shear Modulus (GPa) = 23.17314 39.95745 31.56530
#
# Velocity S-wave (km/s) = 3.05583 4.01269 3.56650
# Velocity P-wave (km/s) = 5.36492 6.89305 6.17643
#
# Compressibility (1/GPa) = 0.02467439
#
# Stress axis : x y z
#
# Youngs Moduli (GPa) = 49.11863 53.34734 85.94339
#
# Poissons Ratio (x) = 0.41368 -0.19394
# Poissons Ratio (y) = 0.38089 0.64756
# Poissons Ratio (z) = -0.11084 0.40196
#
# Static dielectric constant tensor:
#      x y z
#    x 1.746880 0.042530 -0.108890 
#    y 0.042530 1.953210 0.043180 
#    z -0.108890 0.043180 1.891920 
# 
# From -- ./inp_files/370533.got.cif
#   From: 2010.05.17/outbox.cif.g08.bks.cpg/sg2_186_cif.got.tgz:370533.got - 2010.06.03 11:33:40.
