data_PCOD9049477
_publ_section_title
;
Structure prediction by ZEFSAII (Michael W. Deem and Ramdas Pophale) SiO2 
 PCOD9049477
Probable space group: P -1
;
_chemical_formula_sum "Si O2"
_cell_formula_units_Z 15
_cell_length_a 17.187342
_cell_length_b 8.995623
_cell_length_c 9.180395
_cell_angle_alpha 133.880292
_cell_angle_beta 51.810514
_cell_angle_gamma 141.254862
_cell_volume 630.746034
_symmetry_space_group_name_H-M "P -1"
_symmetry_group_IT_number 2
_symmetry_cell_setting 'triclinic'
loop_
_space_group_symop_operation_xyz
x,y,z
-x,-y,-z
loop_
_atom_site_type_symbol
_atom_site_label
_atom_site_fract_x
_atom_site_fract_y
_atom_site_fract_z
Si Si1 0.500000 0.500000 0.500000
Si Si2 0.529222 0.156828 0.217302
Si Si3 0.836297 0.171921 0.320062
Si Si4 0.616936 0.563816 0.731306
Si Si5 0.230831 0.344431 0.828192
Si Si6 0.132879 0.098888 0.469899
Si Si7 0.387404 0.055728 0.788977
Si Si8 0.126131 0.629040 0.258613
O O1 0.423212 0.172046 0.405193
O O2 0.561041 0.581329 0.658598
O O3 0.624299 0.472953 0.277782
O O4 0.593853 0.101124 0.222756
O O5 0.500000 0.000000 0.000000
O O6 0.848947 0.292724 0.546770
O O7 0.979362 0.376216 0.233734
O O8 0.799283 0.882318 0.185646
O O9 0.730384 0.125611 0.304459
O O10 0.756429 0.670711 0.602443
O O11 0.520683 0.267021 0.698248
O O12 0.630023 0.757737 0.969566
O O13 0.148024 0.204781 0.686921
O O14 0.209582 0.542432 0.052675
O O15 0.147116 0.869108 0.309957
O O16 0.000000 0.000000 0.500000
#
# Coordination Sequence:
#
# PCOD9049477 Si02
#       8
#     1   2   2   2   2   2   2   2
#     4  12  24  48  72  96 154 186 236 298 360 438
#     4  12  26  45  71 106 143 192 239 296 373 433
#     4  10  24  47  72 110 145 186 245 309 361 432
#     4  11  25  47  74 109 146 194 244 303 363 436
#     4  11  24  46  73 103 142 197 241 297 373 430
#     4  11  26  46  72 108 148 191 244 303 365 436
#     4  11  26  46  76 110 145 191 250 303 365 433
#     4  10  24  46  75 104 143 196 247 295 368 438
#
# _framework density 23.781362000000001
#
# number of rings (size 3 to 8) (size 9 to 14) (size 15 to 20)
#    0.000    1.067    2.667    2.000    7.467    1.067 
#    2.400    1.333    0.000    0.000    0.000    0.000 
#    0.000    0.000    0.000    0.000    0.000    0.000 
#
# Total GULP energy -83875.919842 kJ/mol
# GULP energy per Si atom -5591.727989 kJ/mol
# Density = 2.372723 g / cm^3
# Si number density = 23.781362 Si / 1000 Ang^3
#
#
#
# Elastic Constant Matrix: (Units=GPa)
#
#
# Indices 1 2 3 4 5 6 
#
# 1 183.8110 73.7101 64.1954 10.7177 12.0252 15.6061
# 2 73.7101 127.1487 34.9121 4.8582 5.6388 13.2832
# 3 64.1954 34.9121 129.1110 18.8884 -13.5595 -8.1957
# 4 10.7177 4.8582 18.8884 36.3120 -1.2290 -12.1002
# 5 12.0252 5.6388 -13.5595 -1.2290 38.5865 8.2212
# 6 15.6061 13.2832 -8.1957 -12.1002 8.2212 33.8647
#
#
#
# Elastic Compliance Matrix: (Units=1/GPa)
#
#
# Indices 1 2 3 4 5 6 
#
# 1 0.008671 -0.003493 -0.003671 -0.001386 -0.002817 -0.003325
# 2 -0.003493 0.010589 -0.001236 -0.000769 -0.000267 -0.003053
# 3 -0.003671 -0.001236 0.011057 -0.003520 0.004568 0.002486
# 4 -0.001386 -0.000769 -0.003520 0.034079 -0.002342 0.012834
# 5 -0.002817 -0.000267 0.004568 -0.002342 0.029535 -0.005498
# 6 -0.003325 -0.003053 0.002486 0.012834 -0.005498 0.038781
#
#
# Mechanical properties :
#
#
# Convention : Reuss Voigt Hill
#
# Bulk Modulus (GPa) = 73.97882 87.30066 80.63974
# Shear Modulus (GPa) = 32.46374 39.56953 36.01663
#
# Velocity S-wave (km/s) = 3.69872 4.08350 3.89587
# Velocity P-wave (km/s) = 7.02966 7.68263 7.36339
#
# Compressibility (1/GPa) = 0.01351738
#
# Stress axis : x y z
#
# Youngs Moduli (GPa) = 115.33146 94.43363 90.43980
#
# Poissons Ratio (x) = 0.32989 0.33198
# Poissons Ratio (y) = 0.40289 0.11177
# Poissons Ratio (z) = 0.42335 0.11670
#
# Static dielectric constant tensor:
#      x y z
#    x 1.872680 0.013730 -0.049730 
#    y 0.013730 1.952140 0.001700 
#    z -0.049730 0.001700 1.937840 
# 
# From -- ./inp_files/328006.got.cif
#   From: 2010.05.17/outbox.cif.g08.bks.cpg/sg2_165_cif.got.tgz:328006.got - 2010.06.03 11:33:40.
