data_PCOD9049274
_publ_section_title
;
Structure prediction by ZEFSAII (Michael W. Deem and Ramdas Pophale) SiO2 
 PCOD9049274
Probable space group: P -1
;
_chemical_formula_sum "Si O2"
_cell_formula_units_Z 12
_cell_length_a 9.679463
_cell_length_b 5.482097
_cell_length_c 19.990495
_cell_angle_alpha 61.460833
_cell_angle_beta 144.309317
_cell_angle_gamma 100.140500
_cell_volume 494.992304
_symmetry_space_group_name_H-M "P -1"
_symmetry_group_IT_number 2
_symmetry_cell_setting 'triclinic'
loop_
_space_group_symop_operation_xyz
x,y,z
-x,-y,-z
loop_
_atom_site_type_symbol
_atom_site_label
_atom_site_fract_x
_atom_site_fract_y
_atom_site_fract_z
Si Si1 0.271920 0.786370 0.338994
Si Si2 0.859851 0.461280 0.384496
Si Si3 0.419009 0.283859 0.883452
Si Si4 0.596546 0.051071 0.343816
Si Si5 0.231148 0.408208 0.048641
Si Si6 0.042215 0.567781 0.805493
O O1 0.500000 0.500000 0.500000
O O2 0.103661 0.626330 0.258889
O O3 0.403462 0.943313 0.319972
O O4 0.120398 0.073475 0.290382
O O5 0.753942 0.697185 0.251684
O O6 0.627576 0.365932 0.327747
O O7 0.000000 0.500000 0.500000
O O8 0.112872 0.181060 0.490790
O O9 0.668324 0.325637 0.950407
O O10 0.255942 0.549849 0.836714
O O11 0.500000 0.000000 0.000000
O O12 0.478273 0.114498 0.213331
O O13 0.000000 0.500000 0.000000
O O14 0.145501 0.403399 0.939310
#
# Coordination Sequence:
#
# PCOD9049274 Si02
#       6
#     2   2   2   2   2   2
#     4  12  27  49  78 112 159 207 264 329 399 472
#     4  10  24  47  77 110 153 210 266 324 402 471
#     4  11  26  49  79 119 160 209 267 331 398 477
#     4  10  24  46  71 111 149 207 264 329 386 480
#     4  11  24  48  77 110 157 207 268 326 399 469
#     4  12  27  50  77 115 160 208 264 327 403 475
#
# _framework density 24.242802999999999
#
# number of rings (size 3 to 8) (size 9 to 14) (size 15 to 20)
#    0.000    1.000    1.667    3.000    4.667    0.667 
#   21.000    0.000    0.000    0.000    0.000    0.000 
#    0.000    0.000    0.000    0.000    0.000    0.000 
#
# Total GULP energy -66971.305071 kJ/mol
# GULP energy per Si atom -5580.942089 kJ/mol
# Density = 2.418763 g / cm^3
# Si number density = 24.242803 Si / 1000 Ang^3
#
#
#
# Elastic Constant Matrix: (Units=GPa)
#
#
# Indices 1 2 3 4 5 6 
#
# 1 128.5174 55.4321 56.9799 6.6747 -15.5066 20.9434
# 2 55.4321 135.0328 67.8173 3.8007 -3.2446 3.2456
# 3 56.9799 67.8173 183.7379 0.1844 -32.6269 0.2624
# 4 6.6747 3.8007 0.1844 44.3814 6.1065 -1.2340
# 5 -15.5066 -3.2446 -32.6269 6.1065 38.6993 4.7013
# 6 20.9434 3.2456 0.2624 -1.2340 4.7013 41.4644
#
#
#
# Elastic Compliance Matrix: (Units=1/GPa)
#
#
# Indices 1 2 3 4 5 6 
#
# 1 0.011669 -0.003736 -0.001483 -0.002177 0.004201 -0.006133
# 2 -0.003736 0.010503 -0.003374 0.000225 -0.003680 0.001510
# 3 -0.001483 -0.003374 0.008228 -0.000352 0.006084 0.000261
# 4 -0.002177 0.000225 -0.000352 0.023618 -0.005166 0.002373
# 5 0.004201 -0.003680 0.006084 -0.005166 0.033872 -0.005867
# 6 -0.006133 0.001510 0.000261 0.002373 -0.005867 0.027831
#
#
# Mechanical properties :
#
#
# Convention : Reuss Voigt Hill
#
# Bulk Modulus (GPa) = 75.67346 89.74961 82.71154
# Shear Modulus (GPa) = 36.41357 42.71294 39.56326
#
# Velocity S-wave (km/s) = 3.87982 4.20203 4.04413
# Velocity P-wave (km/s) = 7.16612 7.78744 7.48323
#
# Compressibility (1/GPa) = 0.01321467
#
# Stress axis : x y z
#
# Youngs Moduli (GPa) = 85.69388 95.21481 121.53720
#
# Poissons Ratio (x) = 0.35572 0.18024
# Poissons Ratio (y) = 0.32015 0.41003
# Poissons Ratio (z) = 0.12708 0.32123
#
# Static dielectric constant tensor:
#      x y z
#    x 1.949480 -0.032660 0.023720 
#    y -0.032660 2.001660 -0.012990 
#    z 0.023720 -0.012990 1.945830 
# 
# From -- ./inp_files/62315.got.cif
#   From: 2010.05.17/outbox.cif.g08.bks.cpg/sg2_32_cif.got.tgz:62315.got - 2010.06.03 11:33:40.
