data_PCOD9049901
_publ_section_title
;
Structure prediction by ZEFSAII (Michael W. Deem and Ramdas Pophale) SiO2 
 PCOD9049901
Probable space group: P -1
;
_chemical_formula_sum "Si O2"
_cell_formula_units_Z 14
_cell_length_a 12.021499
_cell_length_b 10.366664
_cell_length_c 8.997409
_cell_angle_alpha 124.431288
_cell_angle_beta 35.464723
_cell_angle_gamma 133.368827
_cell_volume 472.880932
_symmetry_space_group_name_H-M "P -1"
_symmetry_group_IT_number 2
_symmetry_cell_setting 'triclinic'
loop_
_space_group_symop_operation_xyz
x,y,z
-x,-y,-z
loop_
_atom_site_type_symbol
_atom_site_label
_atom_site_fract_x
_atom_site_fract_y
_atom_site_fract_z
Si Si1 0.291600 0.189326 0.981302
Si Si2 0.482829 0.673957 0.684006
Si Si3 0.981349 0.833607 0.276887
Si Si4 0.214903 0.514518 0.350767
Si Si5 0.723273 0.054287 0.382478
Si Si6 0.842568 0.348303 0.217267
Si Si7 0.285502 0.842446 0.200844
O O1 0.227003 0.341752 0.174387
O O2 0.240571 0.109815 0.817245
O O3 0.155159 0.013875 0.117388
O O4 0.730628 0.106207 0.578498
O O5 0.500000 0.500000 0.500000
O O6 0.372319 0.727947 0.703343
O O7 0.737213 0.802064 0.523348
O O8 0.333233 0.677768 0.989521
O O9 0.089334 0.843055 0.323427
O O10 0.980947 0.657600 0.088815
O O11 0.448042 0.692909 0.193678
O O12 0.178958 0.509753 0.563919
O O13 0.000000 0.500000 0.500000
O O14 0.866504 0.229033 0.245113
O O15 0.500000 0.000000 0.500000
O O16 0.500000 0.000000 0.000000
#
# Coordination Sequence:
#
# PCOD9049901 Si02
#       7
#     2   2   2   2   2   2   2
#     4  10  24  47  83 118 167 209 274 337 406 488
#     4  11  27  55  82 116 165 216 272 335 410 491
#     4  10  25  52  83 120 155 219 274 325 414 489
#     4  11  25  47  76 128 163 206 263 344 416 474
#     4  11  21  48  80 114 160 213 266 338 403 479
#     4  10  24  48  79 118 161 208 265 342 404 477
#     4  11  26  48  81 117 165 211 268 343 399 488
#
# _framework density 29.605763
#
# number of rings (size 3 to 8) (size 9 to 14) (size 15 to 20)
#    0.000    1.429    1.429    2.571    0.000   10.857 
#    5.143    6.429    0.000    0.000    0.000    0.000 
#    0.000    0.000    0.000    0.000    0.000    0.000 
#
# Total GULP energy -78376.547877 kJ/mol
# GULP energy per Si atom -5598.324848 kJ/mol
# Density = 2.953838 g / cm^3
# Si number density = 29.605763 Si / 1000 Ang^3
#
#
#
# Elastic Constant Matrix: (Units=GPa)
#
#
# Indices 1 2 3 4 5 6 
#
# 1 277.0410 59.6865 140.1399 5.2611 25.1063 44.3928
# 2 59.6865 176.0163 80.0099 18.1429 2.1662 32.7231
# 3 140.1399 80.0099 238.6533 15.0333 -13.8429 34.6103
# 4 5.2611 18.1429 15.0333 85.8224 25.8192 7.3629
# 5 25.1063 2.1662 -13.8429 25.8192 75.5177 7.9606
# 6 44.3928 32.7231 34.6103 7.3629 7.9606 42.6309
#
#
#
# Elastic Compliance Matrix: (Units=1/GPa)
#
#
# Indices 1 2 3 4 5 6 
#
# 1 0.006031 -0.000038 -0.003290 0.001312 -0.002708 -0.003302
# 2 -0.000038 0.007351 -0.001784 -0.000962 0.000229 -0.004031
# 3 -0.003290 -0.001784 0.007194 -0.001503 0.003122 -0.001369
# 4 0.001312 -0.000962 -0.001503 0.013695 -0.005284 -0.000786
# 5 -0.002708 0.000229 0.003122 -0.005284 0.016736 -0.002103
# 6 -0.003302 -0.004031 -0.001369 -0.000786 -0.002103 0.031630
#
#
# Mechanical properties :
#
#
# Convention : Reuss Voigt Hill
#
# Bulk Modulus (GPa) = 96.58417 139.04257 117.81337
# Shear Modulus (GPa) = 51.91460 68.25250 60.08355
#
# Velocity S-wave (km/s) = 4.19206 4.80664 4.50983
# Velocity P-wave (km/s) = 7.49169 8.82450 8.18527
#
# Compressibility (1/GPa) = 0.01035366
#
# Stress axis : x y z
#
# Youngs Moduli (GPa) = 165.79657 136.04095 138.99723
#
# Poissons Ratio (x) = 0.00516 0.45730
# Poissons Ratio (y) = 0.00629 0.24791
# Poissons Ratio (z) = 0.54546 0.24264
#
# Static dielectric constant tensor:
#      x y z
#    x 2.288440 -0.081400 0.052070 
#    y -0.081400 2.600100 0.019130 
#    z 0.052070 0.019130 2.402790 
# 
# From -- ./inp_files/428838.got.cif
#   From: 2010.05.17/outbox.cif.g08.bks.cpg/sg2_215_cif.got.tgz:428838.got - 2010.06.03 11:33:40.
