data_PCOD9049794
_publ_section_title
;
Structure prediction by ZEFSAII (Michael W. Deem and Ramdas Pophale) SiO2 
 PCOD9049794
Probable space group: P -1
;
_chemical_formula_sum "Si O2"
_cell_formula_units_Z 12
_cell_length_a 15.663493
_cell_length_b 9.864256
_cell_length_c 4.855808
_cell_angle_alpha 116.538773
_cell_angle_beta 92.616102
_cell_angle_gamma 129.027526
_cell_volume 460.105943
_symmetry_space_group_name_H-M "P -1"
_symmetry_group_IT_number 2
_symmetry_cell_setting 'triclinic'
loop_
_space_group_symop_operation_xyz
x,y,z
-x,-y,-z
loop_
_atom_site_type_symbol
_atom_site_label
_atom_site_fract_x
_atom_site_fract_y
_atom_site_fract_z
Si Si1 0.230492 0.009408 0.510416
Si Si2 0.017722 0.661377 0.448820
Si Si3 0.752199 0.467907 0.309197
Si Si4 0.406105 0.776716 0.463679
Si Si5 0.580377 0.757615 0.749377
Si Si6 0.872070 0.916609 0.837757
O O1 0.313590 0.097408 0.332468
O O2 0.156628 0.069470 0.467061
O O3 0.113521 0.744234 0.291461
O O4 0.341240 0.138744 0.865043
O O5 0.000000 0.500000 0.500000
O O6 0.884087 0.569476 0.318694
O O7 0.108377 0.904885 0.825063
O O8 0.688374 0.280754 0.366792
O O9 0.772869 0.656041 0.636464
O O10 0.673685 0.394167 0.954809
O O11 0.487533 0.771488 0.662755
O O12 0.500000 0.000000 0.500000
O O13 0.500000 0.500000 0.500000
O O14 0.000000 0.000000 0.000000
#
# Coordination Sequence:
#
# PCOD9049794 Si02
#       6
#     2   2   2   2   2   2
#     4  12  25  46  75 109 151 189 250 308 378 447
#     4  11  28  47  78 113 152 197 247 318 392 445
#     4  11  27  48  79 107 153 195 254 312 380 450
#     4  12  28  48  76 110 150 206 257 309 373 452
#     4  12  26  47  75 107 152 199 250 309 372 450
#     4  10  24  47  74 113 148 192 248 305 380 454
#
# _framework density 26.080950000000001
#
# number of rings (size 3 to 8) (size 9 to 14) (size 15 to 20)
#    0.000    0.667    1.667    4.000   11.667    2.000 
#    0.000    0.000    0.000    0.000    0.000    0.000 
#    0.000    0.000    0.000    0.000    0.000    0.000 
#
# Total GULP energy -67017.579854 kJ/mol
# GULP energy per Si atom -5584.798321 kJ/mol
# Density = 2.602159 g / cm^3
# Si number density = 26.080950 Si / 1000 Ang^3
#
#
#
# Elastic Constant Matrix: (Units=GPa)
#
#
# Indices 1 2 3 4 5 6 
#
# 1 84.0710 33.8420 44.9744 -1.7538 44.3188 2.6187
# 2 33.8420 117.9883 33.7123 -12.8057 11.7192 31.9770
# 3 44.9744 33.7123 156.9715 -32.9334 40.0853 0.0945
# 4 -1.7538 -12.8057 -32.9334 51.5580 0.2421 3.0466
# 5 44.3188 11.7192 40.0853 0.2421 48.0068 -1.6405
# 6 2.6187 31.9770 0.0945 3.0466 -1.6405 55.5079
#
#
#
# Elastic Compliance Matrix: (Units=1/GPa)
#
#
# Indices 1 2 3 4 5 6 
#
# 1 0.026113 -0.005534 -0.000909 -0.001045 -0.021945 0.001366
# 2 -0.005534 0.012255 -0.001285 0.002425 0.002945 -0.006843
# 3 -0.000909 -0.001285 0.010034 0.006080 -0.007248 0.000218
# 4 -0.001045 0.002425 0.006080 0.024036 -0.004922 -0.002823
# 5 -0.021945 0.002945 -0.007248 -0.004922 0.046481 0.000995
# 6 0.001366 -0.006843 0.000218 -0.002823 0.000995 0.022077
#
#
# Mechanical properties :
#
#
# Convention : Reuss Voigt Hill
#
# Bulk Modulus (GPa) = 30.35447 64.89870 47.62659
# Shear Modulus (GPa) = 29.86240 47.44801 38.65521
#
# Velocity S-wave (km/s) = 3.38744 4.26991 3.85401
# Velocity P-wave (km/s) = 5.19264 7.01762 6.17295
#
# Compressibility (1/GPa) = 0.03294407
#
# Stress axis : x y z
#
# Youngs Moduli (GPa) = 38.29542 81.59739 99.66588
#
# Poissons Ratio (x) = 0.45157 0.09062
# Poissons Ratio (y) = 0.21193 0.12812
# Poissons Ratio (z) = 0.03482 0.10489
#
# Static dielectric constant tensor:
#      x y z
#    x 2.251770 0.178150 -0.185910 
#    y 0.178150 2.272790 -0.118820 
#    z -0.185910 -0.118820 2.186140 
# 
# From -- ./inp_files/105467.got.cif
#   From: 2010.05.17/outbox.cif.g08.bks.cpg/sg2_53_cif.got.tgz:105467.got - 2010.06.03 11:33:40.
