data_PCOD9049219
_publ_section_title
;
Structure prediction by ZEFSAII (Michael W. Deem and Ramdas Pophale) SiO2 
 PCOD9049219
Probable space group: P -1
;
_chemical_formula_sum "Si O2"
_cell_formula_units_Z 16
_cell_length_a 9.123946
_cell_length_b 12.740602
_cell_length_c 17.450025
_cell_angle_alpha 53.931537
_cell_angle_beta 29.394417
_cell_angle_gamma 52.072432
_cell_volume 777.872133
_symmetry_space_group_name_H-M "P -1"
_symmetry_group_IT_number 2
_symmetry_cell_setting 'triclinic'
loop_
_space_group_symop_operation_xyz
x,y,z
-x,-y,-z
loop_
_atom_site_type_symbol
_atom_site_label
_atom_site_fract_x
_atom_site_fract_y
_atom_site_fract_z
Si Si1 0.144320 0.220704 0.968969
Si Si2 0.313849 0.967640 0.919124
Si Si3 0.893644 0.863645 0.597248
Si Si4 0.041635 0.478805 0.082805
Si Si5 0.622587 0.376007 0.439613
Si Si6 0.420798 0.755438 0.097126
Si Si7 0.441697 0.882134 0.668591
Si Si8 0.729791 0.801011 0.412263
O O1 0.348408 0.219477 0.952817
O O2 0.026047 0.368206 0.924172
O O3 0.351808 0.112725 0.864077
O O4 0.838715 0.171905 0.148466
O O5 0.586315 0.886958 0.777580
O O6 0.331762 0.877931 0.025351
O O7 0.000000 0.000000 0.000000
O O8 0.769389 0.841378 0.579917
O O9 0.141981 0.738191 0.570596
O O10 0.000000 0.000000 0.500000
O O11 0.802511 0.416528 0.266207
O O12 0.382202 0.378813 0.977604
O O13 0.000000 0.500000 0.000000
O O14 0.500000 0.500000 0.500000
O O15 0.369708 0.302726 0.554456
O O16 0.095175 0.746904 0.284214
O O17 0.514000 0.823851 0.575694
O O18 0.337295 0.044424 0.652366
#
# Coordination Sequence:
#
# PCOD9049219 Si02
#       8
#     2   2   2   2   2   2   2   2
#     4  11  24  42  70 101 136 182 238 288 356 417
#     4  12  24  42  67 101 142 175 240 289 345 424
#     4  12  26  44  70 104 144 187 234 296 367 419
#     4  10  24  46  70  98 140 190 237 288 349 431
#     4  12  28  49  72 105 148 192 239 297 364 430
#     4  11  23  43  70 103 133 186 233 293 352 423
#     4  11  24  43  70 107 140 182 233 301 353 431
#     4  11  24  43  71 104 142 181 241 292 357 426
#
# _framework density 20.568933000000001
#
# number of rings (size 3 to 8) (size 9 to 14) (size 15 to 20)
#    0.000    0.750    5.000    1.875    3.500    2.000 
#    0.000    5.625    0.000    0.000    0.000    0.000 
#    0.000    0.000    0.000    0.000    0.000    0.000 
#
# Total GULP energy -89334.317474 kJ/mol
# GULP energy per Si atom -5583.394842 kJ/mol
# Density = 2.052212 g / cm^3
# Si number density = 20.568933 Si / 1000 Ang^3
#
#
#
# Elastic Constant Matrix: (Units=GPa)
#
#
# Indices 1 2 3 4 5 6 
#
# 1 99.1082 48.0380 21.0724 -6.7829 -25.3744 -0.1296
# 2 48.0380 158.0117 28.7908 1.4539 -8.5380 -0.7250
# 3 21.0724 28.7908 70.5884 1.5777 -19.4234 -3.2492
# 4 -6.7829 1.4539 1.5777 23.7280 1.8598 3.4044
# 5 -25.3744 -8.5380 -19.4234 1.8598 28.4868 4.0243
# 6 -0.1296 -0.7250 -3.2492 3.4044 4.0243 29.6834
#
#
#
# Elastic Compliance Matrix: (Units=1/GPa)
#
#
# Indices 1 2 3 4 5 6 
#
# 1 0.015621 -0.004171 0.000426 0.003990 0.013006 -0.002208
# 2 -0.004171 0.007953 -0.002843 -0.001301 -0.003249 0.000455
# 3 0.000426 -0.002843 0.018652 -0.001985 0.012299 0.000534
# 4 0.003990 -0.001301 -0.001985 0.044278 -0.000336 -0.005264
# 5 0.013006 -0.003249 0.012299 -0.000336 0.054984 -0.006092
# 6 -0.002208 0.000455 0.000534 -0.005264 -0.006092 0.035179
#
#
# Mechanical properties :
#
#
# Convention : Reuss Voigt Hill
#
# Bulk Modulus (GPa) = 34.42204 58.16787 46.29495
# Shear Modulus (GPa) = 25.05937 31.70010 28.37973
#
# Velocity S-wave (km/s) = 3.49422 3.93002 3.71851
# Velocity P-wave (km/s) = 5.74898 6.99531 6.40254
#
# Compressibility (1/GPa) = 0.02905116
#
# Stress axis : x y z
#
# Youngs Moduli (GPa) = 64.01603 125.73746 53.61279
#
# Poissons Ratio (x) = 0.52441 -0.02283
# Poissons Ratio (y) = 0.26699 0.15241
# Poissons Ratio (z) = -0.02726 0.35744
#
# Static dielectric constant tensor:
#      x y z
#    x 2.587030 0.206030 0.283760 
#    y 0.206030 1.778570 0.050990 
#    z 0.283760 0.050990 1.817900 
# 
# From -- ./inp_files/175004.got.cif
#   From: 2010.05.17/outbox.cif.g08.bks.cpg/sg2_88_cif.got.tgz:175004.got - 2010.06.03 11:33:40.
