data_PCOD9049565
_publ_section_title
;
Structure prediction by ZEFSAII (Michael W. Deem and Ramdas Pophale) SiO2 
 PCOD9049565
Probable space group: P -1
;
_chemical_formula_sum "Si O2"
_cell_formula_units_Z 14
_cell_length_a 8.765485
_cell_length_b 7.740048
_cell_length_c 13.442497
_cell_angle_alpha 103.284642
_cell_angle_beta 52.342658
_cell_angle_gamma 70.014223
_cell_volume 548.093800
_symmetry_space_group_name_H-M "P -1"
_symmetry_group_IT_number 2
_symmetry_cell_setting 'triclinic'
loop_
_space_group_symop_operation_xyz
x,y,z
-x,-y,-z
loop_
_atom_site_type_symbol
_atom_site_label
_atom_site_fract_x
_atom_site_fract_y
_atom_site_fract_z
Si Si1 0.683936 0.953068 0.214560
Si Si2 0.940302 0.571572 0.189883
Si Si3 0.311261 0.693131 0.342405
Si Si4 0.831335 0.857810 0.633053
Si Si5 0.473982 0.715851 0.497707
Si Si6 0.193299 0.733212 0.007003
Si Si7 0.216879 0.113773 0.121948
O O1 0.765684 0.705074 0.180234
O O2 0.419310 0.103829 0.288894
O O3 0.660304 0.084258 0.341900
O O4 0.942560 0.873879 0.059869
O O5 0.096145 0.308937 0.114227
O O6 0.730407 0.673840 0.371144
O O7 0.133360 0.620181 0.101762
O O8 0.346778 0.761067 0.446884
O O9 0.559991 0.453142 0.176637
O O10 0.076413 0.696085 0.447016
O O11 0.242521 0.892802 0.322002
O O12 0.898074 0.786018 0.710821
O O13 0.500000 0.500000 0.500000
O O14 0.206737 0.915035 0.074879
O O15 0.500000 0.000000 0.000000
#
# Coordination Sequence:
#
# PCOD9049565 Si02
#       7
#     2   2   2   2   2   2   2
#     4  10  24  48  77 107 144 198 253 300 381 441
#     4  10  24  46  81 103 152 196 258 302 379 450
#     4  11  24  45  73 111 151 193 250 312 378 446
#     4  11  25  44  76 110 150 193 251 314 377 443
#     4  12  24  45  78 111 149 203 254 310 372 459
#     4  10  25  48  78 105 149 205 245 303 384 448
#     4  12  27  49  75 115 152 196 254 315 375 450
#
# _framework density 25.543073
#
# number of rings (size 3 to 8) (size 9 to 14) (size 15 to 20)
#    0.857    0.286    1.429    3.857    0.000    9.143 
#    0.000    4.286    3.143    0.000    0.000    0.000 
#    0.000    0.000    0.000    0.000    0.000    0.000 
#
# Total GULP energy -78271.372068 kJ/mol
# GULP energy per Si atom -5590.812291 kJ/mol
# Density = 2.548494 g / cm^3
# Si number density = 25.543073 Si / 1000 Ang^3
#
#
#
# Elastic Constant Matrix: (Units=GPa)
#
#
# Indices 1 2 3 4 5 6 
#
# 1 116.3840 63.7090 66.0420 5.1732 -18.6576 -0.6445
# 2 63.7090 144.1899 64.0789 -18.3442 8.1576 7.8559
# 3 66.0420 64.0789 156.8791 7.9071 -53.1765 4.8098
# 4 5.1732 -18.3442 7.9071 42.7676 -1.1650 -5.1250
# 5 -18.6576 8.1576 -53.1765 -1.1650 45.2872 -10.0963
# 6 -0.6445 7.8559 4.8098 -5.1250 -10.0963 25.0073
#
#
#
# Elastic Compliance Matrix: (Units=1/GPa)
#
#
# Indices 1 2 3 4 5 6 
#
# 1 0.014305 -0.007514 -0.000154 -0.004080 0.008120 0.005201
# 2 -0.007514 0.019257 -0.013030 0.009534 -0.024194 -0.011551
# 3 -0.000154 -0.013030 0.022136 -0.007567 0.030437 0.010570
# 4 -0.004080 0.009534 -0.007567 0.029000 -0.011626 -0.000395
# 5 0.008120 -0.024194 0.030437 -0.011626 0.071572 0.028469
# 6 0.005201 -0.011551 0.010570 -0.000395 0.028469 0.053131
#
#
# Mechanical properties :
#
#
# Convention : Reuss Voigt Hill
#
# Bulk Modulus (GPa) = 69.92027 89.45699 79.68863
# Shear Modulus (GPa) = 19.56456 37.52064 28.54260
#
# Velocity S-wave (km/s) = 2.77057 3.83680 3.34643
# Velocity P-wave (km/s) = 6.13740 7.39771 6.79683
#
# Compressibility (1/GPa) = 0.01430200
#
# Stress axis : x y z
#
# Youngs Moduli (GPa) = 69.90708 51.92958 45.17532
#
# Poissons Ratio (x) = 0.39019 0.00696
# Poissons Ratio (y) = 0.52527 0.58863
# Poissons Ratio (z) = 0.01078 0.67663
#
# Static dielectric constant tensor:
#      x y z
#    x 2.020480 -0.000510 -0.001390 
#    y -0.000510 2.012370 0.021240 
#    z -0.001390 0.021240 2.367800 
# 
# From -- ./inp_files/495388.got.cif
#   From: 2010.05.17/outbox.cif.g08.bks.cpg/sg2_248_cif.got.tgz:495388.got - 2010.06.03 11:33:40.
