data_PCOD9049632
_publ_section_title
;
Structure prediction by ZEFSAII (Michael W. Deem and Ramdas Pophale) SiO2 
 PCOD9049632
Probable space group: P -1
;
_chemical_formula_sum "Si O2"
_cell_formula_units_Z 16
_cell_length_a 8.026376
_cell_length_b 22.432821
_cell_length_c 9.214564
_cell_angle_alpha 36.335084
_cell_angle_beta 45.490200
_cell_angle_gamma 43.566120
_cell_volume 648.931804
_symmetry_space_group_name_H-M "P -1"
_symmetry_group_IT_number 2
_symmetry_cell_setting 'triclinic'
loop_
_space_group_symop_operation_xyz
x,y,z
-x,-y,-z
loop_
_atom_site_type_symbol
_atom_site_label
_atom_site_fract_x
_atom_site_fract_y
_atom_site_fract_z
Si Si1 0.053560 0.531234 0.162990
Si Si2 0.821348 0.779704 0.537030
Si Si3 0.873732 0.283967 0.802051
Si Si4 0.795759 0.180775 0.583465
Si Si5 0.253761 0.346994 0.633229
Si Si6 0.012257 0.879890 0.719700
Si Si7 0.667600 0.569585 0.082023
Si Si8 0.550584 0.015268 0.108164
O O1 0.200317 0.453973 0.357275
O O2 0.256301 0.508398 0.952929
O O3 0.882167 0.632824 0.166623
O O4 0.839754 0.513006 0.226590
O O5 0.723472 0.681003 0.804161
O O6 0.053380 0.737237 0.365571
O O7 0.951713 0.805316 0.547730
O O8 0.635230 0.896812 0.361582
O O9 0.112647 0.291849 0.723147
O O10 0.867245 0.177624 0.091792
O O11 0.625570 0.386066 0.791218
O O12 0.547166 0.278165 0.597745
O O13 0.808264 0.181425 0.400571
O O14 0.756459 0.071716 0.874729
O O15 0.717238 0.900770 0.833208
O O16 0.000000 0.000000 0.500000
O O17 0.500000 0.000000 0.000000
#
# Coordination Sequence:
#
# PCOD9049632 Si02
#       8
#     2   2   2   2   2   2   2   2
#     4  10  24  47  69  99 138 177 232 286 340 403
#     4  12  26  45  69 102 142 182 221 283 341 405
#     4  12  24  42  73  95 139 181 224 282 342 399
#     4  12  26  44  70 104 140 176 228 280 337 408
#     4  11  23  47  71 101 136 182 230 280 342 404
#     4  12  24  39  71 103 131 182 224 273 334 407
#     4  11  25  46  68 104 138 176 231 283 343 401
#     4  12  23  45  71  99 141 177 228 275 340 408
#
# _framework density 24.655902000000001
#
# number of rings (size 3 to 8) (size 9 to 14) (size 15 to 20)
#    0.000    0.500    5.000    2.625    1.750    2.500 
#    9.000    0.000    0.000    0.000    0.000    0.000 
#    0.000    0.000    0.000    0.000    0.000    0.000 
#
# Total GULP energy -89405.711984 kJ/mol
# GULP energy per Si atom -5587.856999 kJ/mol
# Density = 2.459978 g / cm^3
# Si number density = 24.655902 Si / 1000 Ang^3
#
#
#
# Elastic Constant Matrix: (Units=GPa)
#
#
# Indices 1 2 3 4 5 6 
#
# 1 75.2049 9.5926 21.4443 -4.6781 10.9562 -4.3969
# 2 9.5926 113.8318 28.8361 9.8277 5.4412 -16.5065
# 3 21.4443 28.8361 104.0971 5.2432 -3.7629 1.7344
# 4 -4.6781 9.8277 5.2432 24.4503 5.1248 4.8984
# 5 10.9562 5.4412 -3.7629 5.1248 21.1168 4.8046
# 6 -4.3969 -16.5065 1.7344 4.8984 4.8046 46.5055
#
#
#
# Elastic Compliance Matrix: (Units=1/GPa)
#
#
# Indices 1 2 3 4 5 6 
#
# 1 0.016651 0.000012 -0.004184 0.006004 -0.011363 0.002276
# 2 0.000012 0.010715 -0.002976 -0.003887 -0.003418 0.004678
# 3 -0.004184 -0.002976 0.011706 -0.002980 0.006252 -0.002221
# 4 0.006004 -0.003887 -0.002980 0.047909 -0.013276 -0.004376
# 5 -0.011363 -0.003418 0.006252 -0.013276 0.060137 -0.007335
# 6 0.002276 0.004678 -0.002221 -0.004376 -0.007335 0.024680
#
#
# Mechanical properties :
#
#
# Convention : Reuss Voigt Hill
#
# Bulk Modulus (GPa) = 40.36546 45.87554 43.12050
# Shear Modulus (GPa) = 25.72629 33.96520 29.84575
#
# Velocity S-wave (km/s) = 3.23370 3.71559 3.48299
# Velocity P-wave (km/s) = 5.50903 6.08721 5.80533
#
# Compressibility (1/GPa) = 0.02477365
#
# Stress axis : x y z
#
# Youngs Moduli (GPa) = 60.05799 93.32513 85.42619
#
# Poissons Ratio (x) = -0.00109 0.35745
# Poissons Ratio (y) = -0.00070 0.25426
# Poissons Ratio (z) = 0.25130 0.27777
#
# Static dielectric constant tensor:
#      x y z
#    x 1.924950 0.004180 -0.026830 
#    y 0.004180 1.962980 -0.023680 
#    z -0.026830 -0.023680 2.264540 
# 
# From -- ./inp_files/225917.got.cif
#   From: 2010.05.17/outbox.cif.g08.bks.cpg/sg2_113_cif.got.tgz:225917.got - 2010.06.03 11:33:40.
