data_PCOD9049454
_publ_section_title
;
Structure prediction by ZEFSAII (Michael W. Deem and Ramdas Pophale) SiO2 
 PCOD9049454
Probable space group: P -1
;
_chemical_formula_sum "Si O2"
_cell_formula_units_Z 16
_cell_length_a 14.189182
_cell_length_b 11.483089
_cell_length_c 16.319713
_cell_angle_alpha 147.955824
_cell_angle_beta 34.122188
_cell_angle_gamma 124.158010
_cell_volume 698.061938
_symmetry_space_group_name_H-M "P -1"
_symmetry_group_IT_number 2
_symmetry_cell_setting 'triclinic'
loop_
_space_group_symop_operation_xyz
x,y,z
-x,-y,-z
loop_
_atom_site_type_symbol
_atom_site_label
_atom_site_fract_x
_atom_site_fract_y
_atom_site_fract_z
Si Si1 0.017766 0.136776 0.832544
Si Si2 0.890903 0.590110 0.462992
Si Si3 0.515030 0.029630 0.272274
Si Si4 0.455400 0.308039 0.106779
Si Si5 0.868860 0.098124 0.761999
Si Si6 0.898448 0.954882 0.968587
Si Si7 0.579223 0.287188 0.746674
Si Si8 0.099289 0.370705 0.709726
O O1 0.849291 0.223284 0.939523
O O2 0.205034 0.929074 0.530039
O O3 0.980727 0.006386 0.858266
O O4 0.033412 0.373815 0.995523
O O5 0.699006 0.660994 0.694958
O O6 0.868225 0.562412 0.365749
O O7 0.048338 0.334541 0.235879
O O8 0.949714 0.807847 0.551905
O O9 0.301105 0.236325 0.530323
O O10 0.529819 0.870621 0.248705
O O11 0.563375 0.849892 0.050021
O O12 0.671911 0.118646 0.224362
O O13 0.432830 0.567691 0.241430
O O14 0.668858 0.171811 0.906891
O O15 0.999501 0.192452 0.675304
O O16 0.000000 0.000000 0.000000
O O17 0.500000 0.500000 0.000000
#
# Coordination Sequence:
#
# PCOD9049454 Si02
#       8
#     2   2   2   2   2   2   2   2
#     4  12  26  50  74 109 152 196 248 304 375 439
#     4  12  26  46  76 106 150 199 254 303 368 442
#     4  11  26  46  74 107 150 195 250 303 369 437
#     4  11  25  46  73 114 145 192 251 312 361 433
#     4  12  27  44  77 108 151 198 249 307 365 441
#     4  12  28  49  73 110 151 199 244 310 379 438
#     4  10  24  46  74 108 148 190 249 300 366 438
#     4  12  27  48  73 111 155 198 245 305 373 440
#
# _framework density 22.920601999999999
#
# number of rings (size 3 to 8) (size 9 to 14) (size 15 to 20)
#    0.000    0.500    5.000    1.875    7.000    2.500 
#    0.000    1.250    0.000    0.000    0.000    0.000 
#    0.000    0.000    0.000    0.000    0.000    0.000 
#
# Total GULP energy -89435.342503 kJ/mol
# GULP energy per Si atom -5589.708906 kJ/mol
# Density = 2.286843 g / cm^3
# Si number density = 22.920602 Si / 1000 Ang^3
#
#
#
# Elastic Constant Matrix: (Units=GPa)
#
#
# Indices 1 2 3 4 5 6 
#
# 1 99.0700 47.3578 24.6493 -15.3282 -0.5278 -1.3225
# 2 47.3578 133.5362 48.1855 -7.3469 -0.4314 -20.2970
# 3 24.6493 48.1855 103.8888 -6.6414 -4.8420 10.0331
# 4 -15.3282 -7.3469 -6.6414 40.1700 3.2403 -0.0031
# 5 -0.5278 -0.4314 -4.8420 3.2403 25.5174 -7.1831
# 6 -1.3225 -20.2970 10.0331 -0.0031 -7.1831 44.6146
#
#
#
# Elastic Compliance Matrix: (Units=1/GPa)
#
#
# Indices 1 2 3 4 5 6 
#
# 1 0.012961 -0.004375 -0.000671 0.004108 -0.000905 -0.001601
# 2 -0.004375 0.011848 -0.005070 -0.000425 0.001051 0.006570
# 3 -0.000671 -0.005070 0.012716 0.000856 0.000780 -0.005061
# 4 0.004108 -0.000425 0.000856 0.026799 -0.003390 -0.000808
# 5 -0.000905 0.001051 0.000780 -0.003390 0.041736 0.006995
# 6 -0.001601 0.006570 -0.005061 -0.000808 0.006995 0.027620
#
#
# Mechanical properties :
#
#
# Convention : Reuss Voigt Hill
#
# Bulk Modulus (GPa) = 57.82404 64.09778 60.96091
# Shear Modulus (GPa) = 31.31317 36.48055 33.89686
#
# Velocity S-wave (km/s) = 3.70017 3.99382 3.84980
# Velocity P-wave (km/s) = 6.59831 7.02092 6.81289
#
# Compressibility (1/GPa) = 0.01729385
#
# Stress axis : x y z
#
# Youngs Moduli (GPa) = 77.15184 84.40102 78.63892
#
# Poissons Ratio (x) = 0.36923 0.05279
# Poissons Ratio (y) = 0.33751 0.39871
# Poissons Ratio (z) = 0.05179 0.42792
#
# Static dielectric constant tensor:
#      x y z
#    x 1.858060 -0.002370 0.012310 
#    y -0.002370 1.853070 0.018710 
#    z 0.012310 0.018710 1.901430 
# 
# From -- ./inp_files/573645.got.cif
#   From: 2010.05.17/outbox.cif.g08.bks.cpg/sg2_287_cif.got.tgz:573645.got - 2010.06.03 11:33:40.
