data_PCOD9049397
_publ_section_title
;
Structure prediction by ZEFSAII (Michael W. Deem and Ramdas Pophale) SiO2 
 PCOD9049397
Probable space group: P -1
;
_chemical_formula_sum "Si O2"
_cell_formula_units_Z 16
_cell_length_a 27.186099
_cell_length_b 5.273964
_cell_length_c 5.515740
_cell_angle_alpha 127.710986
_cell_angle_beta 79.675000
_cell_angle_gamma 94.189097
_cell_volume 614.826010
_symmetry_space_group_name_H-M "P -1"
_symmetry_group_IT_number 2
_symmetry_cell_setting 'triclinic'
loop_
_space_group_symop_operation_xyz
x,y,z
-x,-y,-z
loop_
_atom_site_type_symbol
_atom_site_label
_atom_site_fract_x
_atom_site_fract_y
_atom_site_fract_z
Si Si1 0.843778 0.291578 0.314577
Si Si2 0.382144 0.702249 0.224648
Si Si3 0.780716 0.817703 0.390027
Si Si4 0.464409 0.717209 0.821528
Si Si5 0.969341 0.059570 0.313126
Si Si6 0.095294 0.314802 0.150349
Si Si7 0.713342 0.263663 0.022847
Si Si8 0.367404 0.041265 0.856863
O O1 0.821948 0.560129 0.308766
O O2 0.860188 0.478330 0.654749
O O3 0.803629 0.043418 0.299578
O O4 0.886553 0.054723 0.010091
O O5 0.382262 0.038310 0.559470
O O6 0.438182 0.610925 0.029873
O O7 0.334752 0.733850 0.107427
O O8 0.367981 0.378832 0.187605
O O9 0.734743 0.608633 0.231752
O O10 0.758826 0.041773 0.753697
O O11 0.500000 0.500000 0.500000
O O12 0.413529 0.827036 0.793333
O O13 0.500000 0.000000 0.000000
O O14 0.947405 0.427625 0.563080
O O15 0.000000 0.000000 0.500000
O O16 0.926032 0.794723 0.160802
O O17 0.000000 0.000000 0.000000
O O18 0.687005 0.104503 0.180520
#
# Coordination Sequence:
#
# PCOD9049397 Si02
#       8
#     2   2   2   2   2   2   2   2
#     4  11  26  46  70 110 145 204 247 303 384 446
#     4  11  24  42  65  94 129 171 224 273 363 416
#     4  12  26  45  73 103 144 184 258 298 363 454
#     4  11  24  41  62  94 131 166 220 274 334 432
#     4  11  24  44  75 118 151 204 266 318 383 457
#     4  10  24  46  73 106 160 200 247 321 377 445
#     4  11  26  42  67  99 131 178 220 316 345 424
#     4  11  24  42  65  94 129 171 224 273 363 416
#
# _framework density 26.023624000000002
#
# number of rings (size 3 to 8) (size 9 to 14) (size 15 to 20)
#    0.000    1.000    0.000    5.250    5.250   11.000 
#    0.000    0.000    0.000    0.000    0.000    0.000 
#    0.000    0.000    0.000    0.000    0.000    0.000 
#
# Total GULP energy -89218.630303 kJ/mol
# GULP energy per Si atom -5576.164394 kJ/mol
# Density = 2.596439 g / cm^3
# Si number density = 26.023624 Si / 1000 Ang^3
#
#
#
# Elastic Constant Matrix: (Units=GPa)
#
#
# Indices 1 2 3 4 5 6 
#
# 1 99.5769 28.1680 20.5322 4.2901 7.4385 11.0246
# 2 28.1680 72.3640 28.7613 15.4275 -7.0092 2.8745
# 3 20.5322 28.7613 150.5095 38.3199 -1.1465 2.9132
# 4 4.2901 15.4275 38.3199 38.5414 -1.5474 5.4858
# 5 7.4385 -7.0092 -1.1465 -1.5474 59.2980 21.3454
# 6 11.0246 2.8745 2.9132 5.4858 21.3454 38.8710
#
#
#
# Elastic Compliance Matrix: (Units=1/GPa)
#
#
# Indices 1 2 3 4 5 6 
#
# 1 0.011871 -0.004568 -0.001229 0.002065 -0.001043 -0.002656
# 2 -0.004568 0.017501 -0.001454 -0.004839 0.002744 -0.000714
# 3 -0.001229 -0.001454 0.009278 -0.008709 -0.000526 0.001279
# 4 0.002065 -0.004839 -0.008709 0.037253 0.002134 -0.006004
# 5 -0.001043 0.002744 -0.000526 0.002134 0.021719 -0.012095
# 6 -0.002656 -0.000714 0.001279 -0.006004 -0.012095 0.033926
#
#
# Mechanical properties :
#
#
# Convention : Reuss Voigt Hill
#
# Bulk Modulus (GPa) = 41.41201 53.04148 47.22675
# Shear Modulus (GPa) = 32.44659 43.67467 38.06063
#
# Velocity S-wave (km/s) = 3.53485 4.10111 3.82847
# Velocity P-wave (km/s) = 5.71035 6.54613 6.14247
#
# Compressibility (1/GPa) = 0.02414759
#
# Stress axis : x y z
#
# Youngs Moduli (GPa) = 84.23830 57.13923 107.77910
#
# Poissons Ratio (x) = 0.26103 0.13243
# Poissons Ratio (y) = 0.38482 0.15675
# Poissons Ratio (z) = 0.10351 0.08310
#
# Static dielectric constant tensor:
#      x y z
#    x 2.088210 0.048550 0.010990 
#    y 0.048550 2.232090 -0.090490 
#    z 0.010990 -0.090490 2.057580 
# 
# From -- ./inp_files/125969.got.cif
#   From: 2010.05.17/outbox.cif.g08.bks.cpg/sg2_63_cif.got.tgz:125969.got - 2010.06.03 11:33:40.
