data_PCOD9049861
_publ_section_title
;
Structure prediction by ZEFSAII (Michael W. Deem and Ramdas Pophale) SiO2 
 PCOD9049861
Probable space group: P -1
;
_chemical_formula_sum "Si O2"
_cell_formula_units_Z 15
_cell_length_a 19.141736
_cell_length_b 7.815350
_cell_length_c 5.443712
_cell_angle_alpha 89.344074
_cell_angle_beta 100.400509
_cell_angle_gamma 44.672728
_cell_volume 551.511938
_symmetry_space_group_name_H-M "P -1"
_symmetry_group_IT_number 2
_symmetry_cell_setting 'triclinic'
loop_
_space_group_symop_operation_xyz
x,y,z
-x,-y,-z
loop_
_atom_site_type_symbol
_atom_site_label
_atom_site_fract_x
_atom_site_fract_y
_atom_site_fract_z
Si Si1 0.914206 0.509805 0.018985
Si Si2 0.701503 0.762526 0.860476
Si Si3 0.614897 0.370442 0.387339
Si Si4 0.531085 0.192452 0.102442
Si Si5 0.169486 0.091427 0.706280
Si Si6 0.946733 0.972165 0.660376
Si Si7 0.245037 0.691000 0.155425
Si Si8 0.500000 0.000000 0.500000
O O1 0.868189 0.657052 0.246238
O O2 0.973485 0.227350 0.077689
O O3 0.803048 0.679348 0.817050
O O4 0.000000 0.500000 0.000000
O O5 0.736899 0.513147 0.983401
O O6 0.619158 0.865866 0.596025
O O7 0.636417 0.983265 0.016163
O O8 0.546704 0.318038 0.313272
O O9 0.652067 0.411741 0.649201
O O10 0.724949 0.113425 0.367148
O O11 0.553989 0.602808 0.160020
O O12 0.491535 0.097016 0.220371
O O13 0.081070 0.153951 0.497180
O O14 0.192616 0.934885 0.965195
O O15 0.836641 0.220714 0.689810
O O16 0.000000 0.000000 0.500000
#
# Coordination Sequence:
#
# PCOD9049861 Si02
#       8
#     2   2   2   2   2   2   2   1
#     4  12  26  47  76 110 154 204 259 311 379 456
#     4  12  27  47  75 115 156 200 253 320 382 456
#     4  10  24  47  77 108 149 199 257 316 380 455
#     4  11  25  48  76 112 151 201 256 320 382 456
#     4  11  23  46  75 106 148 198 258 314 375 456
#     4  11  26  44  70 107 150 199 251 318 379 445
#     4  11  25  46  74 108 151 201 253 314 382 453
#     4  12  28  46  78 112 158 194 254 312 390 450
#
# _framework density 27.197959000000001
#
# number of rings (size 3 to 8) (size 9 to 14) (size 15 to 20)
#    0.000    0.800    2.667    3.200    3.733    5.333 
#    0.000    3.333    0.000    0.800    0.000    0.000 
#    0.000    0.000    0.000    0.000    0.000    0.000 
#
# Total GULP energy -83759.749670 kJ/mol
# GULP energy per Si atom -5583.983311 kJ/mol
# Density = 2.713605 g / cm^3
# Si number density = 27.197959 Si / 1000 Ang^3
#
#
#
# Elastic Constant Matrix: (Units=GPa)
#
#
# Indices 1 2 3 4 5 6 
#
# 1 142.8359 53.0713 31.1396 -26.2014 12.9246 -49.9981
# 2 53.0713 128.0956 22.7225 -9.5820 12.2036 -8.7185
# 3 31.1396 22.7225 77.8347 -23.8753 10.7688 -6.9725
# 4 -26.2014 -9.5820 -23.8753 40.1654 5.9301 12.4338
# 5 12.9246 12.2036 10.7688 5.9301 55.4606 -10.2773
# 6 -49.9981 -8.7185 -6.9725 12.4338 -10.2773 61.0126
#
#
#
# Elastic Compliance Matrix: (Units=1/GPa)
#
#
# Indices 1 2 3 4 5 6 
#
# 1 0.012682 -0.004001 -0.001994 0.003468 -0.000425 0.008815
# 2 -0.004001 0.009654 -0.001290 -0.000185 -0.001336 -0.002234
# 3 -0.001994 -0.001290 0.017513 0.010236 -0.004231 -0.002616
# 4 0.003468 -0.000185 0.010236 0.035699 -0.007413 -0.004539
# 5 -0.000425 -0.001336 -0.004231 -0.007413 0.020777 0.003988
# 6 0.008815 -0.002234 -0.002616 -0.004539 0.003988 0.024592
#
#
# Mechanical properties :
#
#
# Convention : Reuss Voigt Hill
#
# Bulk Modulus (GPa) = 39.55535 62.51477 51.03506
# Shear Modulus (GPa) = 34.74295 47.44993 41.09644
#
# Velocity S-wave (km/s) = 3.57796 4.18139 3.89139
# Velocity P-wave (km/s) = 5.62532 6.80786 6.24465
#
# Compressibility (1/GPa) = 0.02528103
#
# Stress axis : x y z
#
# Youngs Moduli (GPa) = 78.84931 103.57895 57.10073
#
# Poissons Ratio (x) = 0.41441 0.11384
# Poissons Ratio (y) = 0.31547 0.07364
# Poissons Ratio (z) = 0.15721 0.13359
#
# Static dielectric constant tensor:
#      x y z
#    x 2.143160 0.072740 0.022170 
#    y 0.072740 2.176180 0.016310 
#    z 0.022170 0.016310 2.250300 
# 
# From -- ./inp_files/116169.got.cif
#   From: 2010.05.17/outbox.cif.g08.bks.cpg/sg2_59_cif.got.tgz:116169.got - 2010.06.03 11:33:40.
