data_PCOD9049568
_publ_section_title
;
Structure prediction by ZEFSAII (Michael W. Deem and Ramdas Pophale) SiO2 
 PCOD9049568
Probable space group: P -1
;
_chemical_formula_sum "Si O2"
_cell_formula_units_Z 14
_cell_length_a 9.942311
_cell_length_b 11.348786
_cell_length_c 7.260448
_cell_angle_alpha 85.893828
_cell_angle_beta 50.290810
_cell_angle_gamma 59.305884
_cell_volume 500.214470
_symmetry_space_group_name_H-M "P -1"
_symmetry_group_IT_number 2
_symmetry_cell_setting 'triclinic'
loop_
_space_group_symop_operation_xyz
x,y,z
-x,-y,-z
loop_
_atom_site_type_symbol
_atom_site_label
_atom_site_fract_x
_atom_site_fract_y
_atom_site_fract_z
Si Si1 0.896502 0.031392 0.886300
Si Si2 0.011572 0.743813 0.230933
Si Si3 0.361284 0.408103 0.473698
Si Si4 0.703206 0.288539 0.500469
Si Si5 0.806174 0.714265 0.093196
Si Si6 0.299866 0.399685 0.108858
Si Si7 0.484522 0.033465 0.225395
O O1 0.892742 0.168385 0.809610
O O2 0.665605 0.060089 0.095473
O O3 0.975879 0.731938 0.044431
O O4 0.000000 0.000000 0.000000
O O5 0.763804 0.841832 0.513694
O O6 0.073970 0.875337 0.645491
O O7 0.164165 0.575874 0.184543
O O8 0.592695 0.312670 0.392043
O O9 0.290289 0.573097 0.501702
O O10 0.346264 0.365577 0.285879
O O11 0.215976 0.388163 0.740157
O O12 0.520749 0.321099 0.804584
O O13 0.829902 0.654007 0.872787
O O14 0.578642 0.881010 0.268342
O O15 0.500000 0.000000 0.000000
#
# Coordination Sequence:
#
# PCOD9049568 Si02
#       7
#     2   2   2   2   2   2   2
#     4  12  29  53  90 115 170 228 272 347 423 495
#     4  12  28  53  83 128 167 219 284 340 424 504
#     4  10  24  46  82 119 167 216 277 349 415 493
#     4  10  25  49  80 123 164 221 287 340 420 501
#     4  11  26  50  79 118 162 220 277 338 416 495
#     4  11  26  48  85 121 170 220 277 352 417 496
#     4  12  31  56  86 125 169 220 285 347 417 504
#
# _framework density 27.987991999999998
#
# number of rings (size 3 to 8) (size 9 to 14) (size 15 to 20)
#    0.000    0.857    1.429    3.000   14.000    2.286 
#    7.714    0.000    0.000    0.000    0.000    0.000 
#    0.000    0.000    0.000    0.000    0.000    0.000 
#
# Total GULP energy -78696.613896 kJ/mol
# GULP energy per Si atom -5621.186707 kJ/mol
# Density = 2.792429 g / cm^3
# Si number density = 27.987992 Si / 1000 Ang^3
#
#
#
# Elastic Constant Matrix: (Units=GPa)
#
#
# Indices 1 2 3 4 5 6 
#
# 1 201.5117 58.3607 89.3213 -13.5461 18.4581 25.0334
# 2 58.3607 165.4421 36.4809 6.5292 -17.1362 10.0145
# 3 89.3213 36.4809 150.1850 18.3147 -0.2406 4.5483
# 4 -13.5461 6.5292 18.3147 40.1167 -1.7543 -13.5213
# 5 18.4581 -17.1362 -0.2406 -1.7543 74.1391 -7.8221
# 6 25.0334 10.0145 4.5483 -13.5213 -7.8221 51.3288
#
#
#
# Elastic Compliance Matrix: (Units=1/GPa)
#
#
# Indices 1 2 3 4 5 6 
#
# 1 0.008844 -0.002304 -0.005204 0.004733 -0.002914 -0.002600
# 2 -0.002304 0.007212 -0.000126 -0.001956 0.002145 -0.000461
# 3 -0.005204 -0.000126 0.010573 -0.006481 0.001157 0.000095
# 4 0.004733 -0.001956 -0.006481 0.032192 -0.000140 0.007106
# 5 -0.002914 0.002145 0.001157 -0.000140 0.015043 0.003155
# 6 -0.002600 -0.000461 0.000095 0.007106 0.003155 0.023185
#
#
# Mechanical properties :
#
#
# Convention : Reuss Voigt Hill
#
# Bulk Modulus (GPa) = 88.00347 98.38495 93.19421
# Shear Modulus (GPa) = 43.06540 55.31533 49.19037
#
# Velocity S-wave (km/s) = 3.92689 4.45049 4.19687
# Velocity P-wave (km/s) = 7.21611 7.85099 7.54023
#
# Compressibility (1/GPa) = 0.01136319
#
# Stress axis : x y z
#
# Youngs Moduli (GPa) = 113.06819 138.65672 94.57891
#
# Poissons Ratio (x) = 0.31941 0.49215
# Poissons Ratio (y) = 0.26047 0.01191
# Poissons Ratio (z) = 0.58836 0.01746
#
# Static dielectric constant tensor:
#      x y z
#    x 2.147520 0.005290 -0.019920 
#    y 0.005290 2.160270 0.071250 
#    z -0.019920 0.071250 2.141190 
# 
# From -- ./inp_files/162836.got.cif
#   From: 2010.05.17/outbox.cif.g08.bks.cpg/sg2_82_cif.got.tgz:162836.got - 2010.06.03 11:33:40.
