data_PCOD9049739
_publ_section_title
;
Structure prediction by ZEFSAII (Michael W. Deem and Ramdas Pophale) SiO2 
 PCOD9049739
Probable space group: P -1
;
_chemical_formula_sum "Si O2"
_cell_formula_units_Z 16
_cell_length_a 11.066356
_cell_length_b 13.725299
_cell_length_c 8.399401
_cell_angle_alpha 116.490962
_cell_angle_beta 118.230288
_cell_angle_gamma 112.164365
_cell_volume 669.947091
_symmetry_space_group_name_H-M "P -1"
_symmetry_group_IT_number 2
_symmetry_cell_setting 'triclinic'
loop_
_space_group_symop_operation_xyz
x,y,z
-x,-y,-z
loop_
_atom_site_type_symbol
_atom_site_label
_atom_site_fract_x
_atom_site_fract_y
_atom_site_fract_z
Si Si1 0.919406 0.870380 0.183466
Si Si2 0.087001 0.431459 0.045083
Si Si3 0.856172 0.061531 0.151238
Si Si4 0.731733 0.142989 0.399655
Si Si5 0.182112 0.343710 0.318842
Si Si6 0.588875 0.874368 0.320582
Si Si7 0.468537 0.777333 0.518474
Si Si8 0.456136 0.387874 0.030972
O O1 0.890789 0.983436 0.237352
O O2 0.815728 0.748604 0.879775
O O3 0.778504 0.748127 0.153116
O O4 0.164040 0.996198 0.411652
O O5 0.072695 0.377627 0.176673
O O6 0.332640 0.587842 0.283888
O O7 0.000000 0.500000 0.000000
O O8 0.947992 0.276348 0.729101
O O9 0.768737 0.112677 0.230257
O O10 0.050690 0.218805 0.291297
O O11 0.700600 0.915081 0.821496
O O12 0.641323 0.209802 0.411353
O O13 0.576955 0.969981 0.267563
O O14 0.396372 0.504852 0.647686
O O15 0.477139 0.831483 0.386476
O O16 0.504884 0.711468 0.080760
O O17 0.500000 0.500000 0.000000
#
# Coordination Sequence:
#
# PCOD9049739 Si02
#       8
#     2   2   2   2   2   2   2   2
#     4  12  25  48  71 104 147 191 237 295 371 428
#     4  10  24  47  73 102 141 192 240 300 360 422
#     4  12  25  45  73 110 143 187 244 299 360 433
#     4  11  24  47  72 101 140 191 240 306 350 427
#     4  12  26  45  72 106 150 191 237 298 365 431
#     4  12  25  44  73 102 144 191 240 291 359 435
#     4  11  25  45  72 101 142 187 242 294 367 420
#     4  12  29  43  71 114 147 189 236 295 361 438
#
# _framework density 23.882484999999999
#
# number of rings (size 3 to 8) (size 9 to 14) (size 15 to 20)
#    0.000    0.500    3.750    3.375    7.000    1.000 
#    0.000    2.500    0.000    0.000    0.000    0.000 
#    0.000    0.000    0.000    0.000    0.000    0.000 
#
# Total GULP energy -89474.542329 kJ/mol
# GULP energy per Si atom -5592.158896 kJ/mol
# Density = 2.382813 g / cm^3
# Si number density = 23.882485 Si / 1000 Ang^3
#
#
#
# Elastic Constant Matrix: (Units=GPa)
#
#
# Indices 1 2 3 4 5 6 
#
# 1 63.3233 20.1558 3.7392 3.4538 -18.8942 2.0907
# 2 20.1558 119.5465 23.1095 21.0815 -5.5828 10.9064
# 3 3.7392 23.1095 161.8789 3.3946 -13.6774 -4.9704
# 4 3.4538 21.0815 3.3946 37.8353 1.5045 0.5642
# 5 -18.8942 -5.5828 -13.6774 1.5045 36.7469 -1.4733
# 6 2.0907 10.9064 -4.9704 0.5642 -1.4733 43.3570
#
#
#
# Elastic Compliance Matrix: (Units=1/GPa)
#
#
# Indices 1 2 3 4 5 6 
#
# 1 0.019691 -0.002919 0.000830 -0.000648 0.010026 0.000229
# 2 -0.002919 0.010275 -0.001396 -0.005281 -0.000345 -0.002547
# 3 0.000830 -0.001396 0.006624 -0.000018 0.002727 0.001163
# 4 -0.000648 -0.005281 -0.000018 0.029513 -0.002315 0.000895
# 5 0.010026 -0.000345 0.002727 -0.002315 0.033469 0.001083
# 6 0.000229 -0.002547 0.001163 0.000895 0.001083 0.023852
#
#
# Mechanical properties :
#
#
# Convention : Reuss Voigt Hill
#
# Bulk Modulus (GPa) = 33.76167 48.75087 41.25627
# Shear Modulus (GPa) = 35.64618 43.43745 39.54182
#
# Velocity S-wave (km/s) = 3.86757 4.26937 4.07342
# Velocity P-wave (km/s) = 5.84049 6.69032 6.27980
#
# Compressibility (1/GPa) = 0.02961939
#
# Stress axis : x y z
#
# Youngs Moduli (GPa) = 50.78402 97.32828 150.96342
#
# Poissons Ratio (x) = 0.28408 -0.12523
# Poissons Ratio (y) = 0.14823 0.21074
# Poissons Ratio (z) = -0.04213 0.13587
#
# Static dielectric constant tensor:
#      x y z
#    x 1.925040 -0.049200 0.031950 
#    y -0.049200 1.898940 -0.017660 
#    z 0.031950 -0.017660 1.935350 
# 
# From -- ./inp_files/187979.got.cif
#   From: 2010.05.17/outbox.cif.g08.bks.cpg/sg2_94_cif.got.tgz:187979.got - 2010.06.03 11:33:40.
