data_PCOD9049830
_publ_section_title
;
Structure prediction by ZEFSAII (Michael W. Deem and Ramdas Pophale) SiO2 
 PCOD9049830
Probable space group: P -1
;
_chemical_formula_sum "Si O2"
_cell_formula_units_Z 13
_cell_length_a 10.435037
_cell_length_b 15.853762
_cell_length_c 13.503784
_cell_angle_alpha 161.824524
_cell_angle_beta 45.020186
_cell_angle_gamma 135.984417
_cell_volume 481.329934
_symmetry_space_group_name_H-M "P -1"
_symmetry_group_IT_number 2
_symmetry_cell_setting 'triclinic'
loop_
_space_group_symop_operation_xyz
x,y,z
-x,-y,-z
loop_
_atom_site_type_symbol
_atom_site_label
_atom_site_fract_x
_atom_site_fract_y
_atom_site_fract_z
Si Si1 0.406256 0.251702 0.442951
Si Si2 0.922894 0.126587 0.406797
Si Si3 0.580707 0.251832 0.633259
Si Si4 0.000000 0.000000 0.000000
Si Si5 0.219130 0.036860 0.494382
Si Si6 0.221993 0.505713 0.398035
Si Si7 0.205638 0.658464 0.907175
O O1 0.295153 0.272982 0.633003
O O2 0.624225 0.304698 0.406626
O O3 0.354440 0.477901 0.652800
O O4 0.684597 0.059519 0.889002
O O5 0.711862 0.131585 0.500156
O O6 0.003776 0.020478 0.145144
O O7 0.039036 0.439155 0.705745
O O8 0.909571 0.969194 0.344967
O O9 0.419598 0.027109 0.419570
O O10 0.713488 0.407785 0.649509
O O11 0.500000 0.500000 0.000000
O O12 0.207609 0.196501 0.098470
O O13 0.136614 0.779603 0.182018
O O14 0.000000 0.500000 0.500000
#
# Coordination Sequence:
#
# PCOD9049830 Si02
#       7
#     2   2   2   1   2   2   2
#     4   9  24  43  77 109 152 192 254 315 395 446
#     4  12  25  45  74 113 155 203 253 312 390 462
#     4  11  24  43  75 113 149 196 261 324 382 445
#     4  12  28  44  72 104 154 198 260 300 380 460
#     4   9  23  43  74 108 147 191 251 318 385 437
#     4  11  24  47  73 103 149 203 250 313 376 462
#     4  10  24  47  75 116 150 200 248 327 385 460
#
# _framework density 27.008499
#
# number of rings (size 3 to 8) (size 9 to 14) (size 15 to 20)
#    0.923    0.615    1.538    1.846    8.615    3.077 
#    0.000    1.538    0.000    0.000    0.000    0.000 
#    0.000    0.000    0.000    0.000    0.000    0.000 
#
# Total GULP energy -72376.196743 kJ/mol
# GULP energy per Si atom -5567.399749 kJ/mol
# Density = 2.694703 g / cm^3
# Si number density = 27.008499 Si / 1000 Ang^3
#
#
#
# Elastic Constant Matrix: (Units=GPa)
#
#
# Indices 1 2 3 4 5 6 
#
# 1 86.8374 4.2544 25.8505 -13.2034 19.1692 26.5005
# 2 4.2544 148.7559 27.3111 -12.1750 27.0766 -3.4827
# 3 25.8505 27.3111 85.9923 -3.1400 21.4923 -5.4953
# 4 -13.2034 -12.1750 -3.1400 33.8586 -0.2940 15.4345
# 5 19.1692 27.0766 21.4923 -0.2940 54.5327 2.3537
# 6 26.5005 -3.4827 -5.4953 15.4345 2.3537 61.8662
#
#
#
# Elastic Compliance Matrix: (Units=1/GPa)
#
#
# Indices 1 2 3 4 5 6 
#
# 1 0.020060 0.002273 -0.005699 0.013610 -0.005336 -0.012163
# 2 0.002273 0.008080 -0.002239 0.004301 -0.003834 -0.001645
# 3 -0.005699 -0.002239 0.014967 -0.003813 -0.003007 0.004710
# 4 0.013610 0.004301 -0.003813 0.043576 -0.004464 -0.016628
# 5 -0.005336 -0.003834 -0.003007 -0.004464 0.023190 0.002034
# 6 -0.012163 -0.001645 0.004710 -0.016628 0.002034 0.025771
#
#
# Mechanical properties :
#
#
# Convention : Reuss Voigt Hill
#
# Bulk Modulus (GPa) = 31.47029 48.49085 39.98057
# Shear Modulus (GPa) = 31.73268 47.66280 39.69774
#
# Velocity S-wave (km/s) = 3.43142 4.20543 3.83799
# Velocity P-wave (km/s) = 5.23229 6.44777 5.87157
#
# Compressibility (1/GPa) = 0.03177601
#
# Stress axis : x y z
#
# Youngs Moduli (GPa) = 49.85038 123.76411 66.81475
#
# Poissons Ratio (x) = -0.28130 0.38078
# Poissons Ratio (y) = -0.11331 0.14961
# Poissons Ratio (z) = 0.28410 0.27714
#
# Static dielectric constant tensor:
#      x y z
#    x 2.032940 0.115830 0.053260 
#    y 0.115830 1.809550 -0.327590 
#    z 0.053260 -0.327590 1.943000 
# 
# From -- ./inp_files/523345.got.cif
#   From: 2010.05.17/outbox.cif.g08.bks.cpg/sg2_262_cif.got.tgz:523345.got - 2010.06.03 11:33:40.
