data_PCOD9049819
_publ_section_title
;
Structure prediction by ZEFSAII (Michael W. Deem and Ramdas Pophale) SiO2 
 PCOD9049819
Probable space group: P -1
;
_chemical_formula_sum "Si O2"
_cell_formula_units_Z 16
_cell_length_a 28.276510
_cell_length_b 13.005822
_cell_length_c 5.341131
_cell_angle_alpha 46.455367
_cell_angle_beta 129.806528
_cell_angle_gamma 153.304654
_cell_volume 637.776119
_symmetry_space_group_name_H-M "P -1"
_symmetry_group_IT_number 2
_symmetry_cell_setting 'triclinic'
loop_
_space_group_symop_operation_xyz
x,y,z
-x,-y,-z
loop_
_atom_site_type_symbol
_atom_site_label
_atom_site_fract_x
_atom_site_fract_y
_atom_site_fract_z
Si Si1 0.289543 0.728340 0.240903
Si Si2 0.392061 0.140814 0.548384
Si Si3 0.488468 0.103737 0.585395
Si Si4 0.117936 0.541733 0.300917
Si Si5 0.723740 0.596548 0.391436
Si Si6 0.995584 0.322998 0.756257
Si Si7 0.370490 0.379009 0.294703
Si Si8 0.804048 0.993410 0.321748
O O1 0.220067 0.648146 0.373586
O O2 0.238445 0.493347 0.339838
O O3 0.408610 0.906743 0.426376
O O4 0.308512 0.891150 0.837925
O O5 0.424678 0.120448 0.445604
O O6 0.355523 0.234465 0.267401
O O7 0.506003 0.359185 0.707186
O O8 0.607175 0.376731 0.487735
O O9 0.500000 0.000000 0.000000
O O10 0.073111 0.425163 0.618599
O O11 0.033981 0.347737 0.119328
O O12 0.147533 0.766333 0.013491
O O13 0.795640 0.847590 0.346012
O O14 0.691824 0.593890 0.014149
O O15 0.000000 0.500000 0.500000
O O16 0.879576 0.082680 0.655411
O O17 0.312431 0.199685 0.633290
#
# Coordination Sequence:
#
# PCOD9049819 Si02
#       8
#     2   2   2   2   2   2   2   2
#     4  12  26  43  68  96 141 194 231 285 353 426
#     4  11  23  41  63  97 141 184 233 289 343 422
#     4  12  24  40  65  93 142 192 237 279 339 432
#     4  11  26  47  75 107 135 186 245 294 357 431
#     4  12  26  40  64 102 138 185 234 283 360 427
#     4  10  24  47  75 107 136 180 241 303 359 425
#     4  11  24  39  64 102 140 173 235 296 356 413
#     4  11  24  41  71  99 134 181 227 304 355 418
#
# _framework density 25.087171999999999
#
# number of rings (size 3 to 8) (size 9 to 14) (size 15 to 20)
#    0.000    0.750    5.000    2.625    8.750    0.500 
#    0.000    1.250    0.000    0.000    0.000    0.000 
#    0.000    0.000    0.000    0.000    0.000    0.000 
#
# Total GULP energy -89500.326995 kJ/mol
# GULP energy per Si atom -5593.770437 kJ/mol
# Density = 2.503007 g / cm^3
# Si number density = 25.087172 Si / 1000 Ang^3
#
#
#
# Elastic Constant Matrix: (Units=GPa)
#
#
# Indices 1 2 3 4 5 6 
#
# 1 128.8379 37.5837 9.9345 -18.5745 -5.0581 -2.8774
# 2 37.5837 108.0001 31.9937 0.8741 11.0486 -19.0379
# 3 9.9345 31.9937 60.4959 -12.2167 -1.1846 -1.2903
# 4 -18.5745 0.8741 -12.2167 36.0450 -0.6159 -1.6279
# 5 -5.0581 11.0486 -1.1846 -0.6159 39.8323 -7.8246
# 6 -2.8774 -19.0379 -1.2903 -1.6279 -7.8246 46.7846
#
#
#
# Elastic Compliance Matrix: (Units=1/GPa)
#
#
# Indices 1 2 3 4 5 6 
#
# 1 0.009820 -0.004379 0.001920 0.005838 0.002510 -0.000502
# 2 -0.004379 0.014367 -0.007900 -0.005146 -0.003968 0.004516
# 3 0.001920 -0.007900 0.022163 0.008666 0.002894 -0.001700
# 4 0.005838 -0.005146 0.008666 0.033872 0.002986 0.000182
# 5 0.002510 -0.003968 0.002894 0.002986 0.027303 0.003290
# 6 -0.000502 0.004516 -0.001700 0.000182 0.003290 0.023691
#
#
# Mechanical properties :
#
#
# Convention : Reuss Voigt Hill
#
# Bulk Modulus (GPa) = 39.01085 50.70641 44.85863
# Shear Modulus (GPa) = 31.15713 39.05383 35.10548
#
# Velocity S-wave (km/s) = 3.52796 3.94982 3.74483
# Velocity P-wave (km/s) = 5.67267 6.40760 6.05130
#
# Compressibility (1/GPa) = 0.02563389
#
# Stress axis : x y z
#
# Youngs Moduli (GPa) = 101.83395 69.60415 45.12060
#
# Poissons Ratio (x) = 0.30478 -0.08665
# Poissons Ratio (y) = 0.44590 0.35644
# Poissons Ratio (z) = -0.19557 0.54985
#
# Static dielectric constant tensor:
#      x y z
#    x 1.987420 -0.018310 -0.056340 
#    y -0.018310 2.045690 0.035800 
#    z -0.056340 0.035800 2.013830 
# 
# From -- ./inp_files/81238.got.cif
#   From: 2010.05.17/outbox.cif.g08.bks.cpg/sg2_41_cif.got.tgz:81238.got - 2010.06.03 11:33:40.
