data_PCOD9049499
_publ_section_title
;
Structure prediction by ZEFSAII (Michael W. Deem and Ramdas Pophale) SiO2 
 PCOD9049499
Probable space group: P -1
;
_chemical_formula_sum "Si O2"
_cell_formula_units_Z 14
_cell_length_a 22.481656
_cell_length_b 13.265623
_cell_length_c 14.473605
_cell_angle_alpha 32.319357
_cell_angle_beta 21.504959
_cell_angle_gamma 22.007622
_cell_volume 588.117777
_symmetry_space_group_name_H-M "P -1"
_symmetry_group_IT_number 2
_symmetry_cell_setting 'triclinic'
loop_
_space_group_symop_operation_xyz
x,y,z
-x,-y,-z
loop_
_atom_site_type_symbol
_atom_site_label
_atom_site_fract_x
_atom_site_fract_y
_atom_site_fract_z
Si Si1 0.348182 0.826793 0.564324
Si Si2 0.453276 0.371404 0.872120
Si Si3 0.297510 0.068830 0.633335
Si Si4 0.069195 0.165068 0.394889
Si Si5 0.753154 0.599259 0.025987
Si Si6 0.936688 0.358661 0.647635
Si Si7 0.426932 0.387621 0.261645
O O1 0.340812 0.643017 0.774292
O O2 0.568960 0.642230 0.320730
O O3 0.365945 0.970805 0.505387
O O4 0.112256 0.060999 0.668753
O O5 0.363227 0.286858 0.995703
O O6 0.731056 0.157082 0.638807
O O7 0.330970 0.449614 0.086217
O O8 0.388813 0.204549 0.418349
O O9 0.402984 0.815626 0.742770
O O10 0.016115 0.301728 0.869223
O O11 0.983001 0.296875 0.520281
O O12 0.835028 0.332198 0.546652
O O13 0.213882 0.226992 0.106849
O O14 0.000000 0.500000 0.500000
O O15 0.500000 0.500000 0.000000
#
# Coordination Sequence:
#
# PCOD9049499 Si02
#       7
#     2   2   2   2   2   2   2
#     4  12  25  38  65 101 134 174 211 267 333 393
#     4  12  24  37  63 102 135 170 209 261 332 405
#     4  10  24  48  67  98 132 172 229 274 328 388
#     4  11  24  42  64  97 130 172 221 269 331 391
#     4  11  22  42  66  95 139 172 208 271 334 392
#     4  12  22  39  65  94 133 171 213 267 327 399
#     4  10  24  46  75  90 127 183 224 279 329 382
#
# _framework density 23.804753999999999
#
# number of rings (size 3 to 8) (size 9 to 14) (size 15 to 20)
#    0.000    0.857    4.286    3.000    4.000    0.000 
#    0.000    8.571    0.000    0.000    0.000    0.000 
#    0.000    0.000    0.000    0.000    0.000    0.000 
#
# Total GULP energy -78219.374021 kJ/mol
# GULP energy per Si atom -5587.098144 kJ/mol
# Density = 2.375057 g / cm^3
# Si number density = 23.804754 Si / 1000 Ang^3
#
#
#
# Elastic Constant Matrix: (Units=GPa)
#
#
# Indices 1 2 3 4 5 6 
#
# 1 80.7187 31.3654 25.2810 17.1973 10.8414 -4.1588
# 2 31.3654 145.5135 37.1816 10.3213 -2.6274 -35.8789
# 3 25.2810 37.1816 99.4973 12.7490 19.1647 3.7942
# 4 17.1973 10.3213 12.7490 47.2505 1.7055 -3.5164
# 5 10.8414 -2.6274 19.1647 1.7055 35.7251 1.1379
# 6 -4.1588 -35.8789 3.7942 -3.5164 1.1379 39.2061
#
#
#
# Elastic Compliance Matrix: (Units=1/GPa)
#
#
# Indices 1 2 3 4 5 6 
#
# 1 0.015430 -0.003036 -0.001406 -0.004529 -0.003894 -0.001299
# 2 -0.003036 0.011327 -0.004680 0.000529 0.003907 0.010431
# 3 -0.001406 -0.004680 0.014070 -0.002436 -0.007164 -0.005804
# 4 -0.004529 0.000529 -0.002436 0.023470 0.001526 0.002300
# 5 -0.003894 0.003907 -0.007164 0.001526 0.033134 0.003031
# 6 -0.001299 0.010431 -0.005804 0.002300 0.003031 0.035594
#
#
# Mechanical properties :
#
#
# Convention : Reuss Voigt Hill
#
# Bulk Modulus (GPa) = 44.27970 57.04286 50.66128
# Shear Modulus (GPa) = 31.48677 39.89645 35.69161
#
# Velocity S-wave (km/s) = 3.64085 4.09832 3.87634
# Velocity P-wave (km/s) = 6.02627 6.81248 6.43140
#
# Compressibility (1/GPa) = 0.02258371
#
# Stress axis : x y z
#
# Youngs Moduli (GPa) = 64.80947 88.28202 71.07361
#
# Poissons Ratio (x) = 0.26801 0.09994
# Poissons Ratio (y) = 0.19675 0.33260
# Poissons Ratio (z) = 0.09113 0.41313
#
# Static dielectric constant tensor:
#      x y z
#    x 1.991970 0.057540 -0.059320 
#    y 0.057540 1.970460 -0.029890 
#    z -0.059320 -0.029890 1.924960 
# 
# From -- ./inp_files/272947.got.cif
#   From: 2010.05.17/outbox.cif.g08.bks.cpg/sg2_137_cif.got.tgz:272947.got - 2010.06.03 11:33:40.
