data_PCOD9049670
_publ_section_title
;
Structure prediction by ZEFSAII (Michael W. Deem and Ramdas Pophale) SiO2 
 PCOD9049670
Probable space group: P -1
;
_chemical_formula_sum "Si O2"
_cell_formula_units_Z 12
_cell_length_a 8.140357
_cell_length_b 12.383616
_cell_length_c 6.249435
_cell_angle_alpha 121.763675
_cell_angle_beta 70.380545
_cell_angle_gamma 112.151689
_cell_volume 488.499535
_symmetry_space_group_name_H-M "P -1"
_symmetry_group_IT_number 2
_symmetry_cell_setting 'triclinic'
loop_
_space_group_symop_operation_xyz
x,y,z
-x,-y,-z
loop_
_atom_site_type_symbol
_atom_site_label
_atom_site_fract_x
_atom_site_fract_y
_atom_site_fract_z
Si Si1 0.135161 0.139552 0.638067
Si Si2 0.919814 0.609507 0.258308
Si Si3 0.653023 0.975946 0.249987
Si Si4 0.539697 0.770981 0.746153
Si Si5 0.579421 0.421725 0.060037
Si Si6 0.776508 0.275305 0.483472
O O1 0.042551 0.259391 0.769247
O O2 0.227550 0.113473 0.790545
O O3 0.301037 0.183620 0.445653
O O4 0.000000 0.000000 0.500000
O O5 0.712277 0.534698 0.256602
O O6 0.017842 0.646347 0.481486
O O7 0.000000 0.500000 0.000000
O O8 0.500000 0.000000 0.500000
O O9 0.774283 0.122222 0.316520
O O10 0.551961 0.902046 0.013603
O O11 0.557297 0.666308 0.808120
O O12 0.349410 0.712801 0.649725
O O13 0.500000 0.500000 0.000000
O O14 0.675417 0.323520 0.782487
#
# Coordination Sequence:
#
# PCOD9049670 Si02
#       6
#     2   2   2   2   2   2
#     4  12  26  46  74 106 148 189 249 306 362 428
#     4  10  24  47  71 102 146 196 235 300 360 423
#     4  12  23  45  71 106 145 187 244 301 365 433
#     4  12  25  42  76 105 142 197 242 300 371 428
#     4  11  24  46  73 101 148 192 246 299 359 440
#     4  11  23  43  69 103 143 190 244 297 361 433
#
# _framework density 24.565020000000001
#
# number of rings (size 3 to 8) (size 9 to 14) (size 15 to 20)
#    0.000    0.667    5.000    2.500    0.000    4.000 
#    0.000    3.333    0.000    0.000    0.000    0.000 
#    0.000    0.000    0.000    0.000    0.000    0.000 
#
# Total GULP energy -67073.729077 kJ/mol
# GULP energy per Si atom -5589.477423 kJ/mol
# Density = 2.450911 g / cm^3
# Si number density = 24.565020 Si / 1000 Ang^3
#
#
#
# Elastic Constant Matrix: (Units=GPa)
#
#
# Indices 1 2 3 4 5 6 
#
# 1 127.2251 57.3483 45.0061 11.0956 46.9582 -6.9509
# 2 57.3483 176.8472 33.9651 22.5272 20.9198 -20.8198
# 3 45.0061 33.9651 112.7213 32.6336 32.6004 -2.7674
# 4 11.0956 22.5272 32.6336 41.8302 4.3959 7.1660
# 5 46.9582 20.9198 32.6004 4.3959 51.2273 19.6832
# 6 -6.9509 -20.8198 -2.7674 7.1660 19.6832 48.6147
#
#
#
# Elastic Compliance Matrix: (Units=1/GPa)
#
#
# Indices 1 2 3 4 5 6 
#
# 1 0.015447 -0.001638 0.000337 -0.003221 -0.016814 0.008809
# 2 -0.001638 0.007763 0.001120 -0.005145 -0.004078 0.005564
# 3 0.000337 0.001120 0.016490 -0.013670 -0.013530 0.008960
# 4 -0.003221 -0.005145 -0.013670 0.039186 0.016499 -0.015899
# 5 -0.016814 -0.004078 -0.013530 0.016499 0.055208 -0.029706
# 6 0.008809 0.005564 0.008960 -0.015899 -0.029706 0.039093
#
#
# Mechanical properties :
#
#
# Convention : Reuss Voigt Hill
#
# Bulk Modulus (GPa) = 25.41907 76.60363 51.01135
# Shear Modulus (GPa) = 26.78658 47.03272 36.90965
#
# Velocity S-wave (km/s) = 3.30576 4.38039 3.88045
# Velocity P-wave (km/s) = 4.99408 7.53893 6.39438
#
# Compressibility (1/GPa) = 0.03934054
#
# Stress axis : x y z
#
# Youngs Moduli (GPa) = 64.73729 128.80952 60.64285
#
# Poissons Ratio (x) = 0.21095 -0.02046
# Poissons Ratio (y) = 0.10602 -0.06794
# Poissons Ratio (z) = -0.02185 -0.14431
#
# Static dielectric constant tensor:
#      x y z
#    x 2.096600 -0.024180 -0.052970 
#    y -0.024180 1.959550 0.011110 
#    z -0.052970 0.011110 1.980320 
# 
# From -- ./inp_files/28895.got.cif
#   From: 2010.05.17/outbox.cif.g08.bks.cpg/sg2_15_cif.got.tgz:28895.got - 2010.06.03 11:33:40.
