data_PCOD9049520
_publ_section_title
;
Structure prediction by ZEFSAII (Michael W. Deem and Ramdas Pophale) SiO2 
 PCOD9049520
Probable space group: P -1
;
_chemical_formula_sum "Si O2"
_cell_formula_units_Z 13
_cell_length_a 6.433434
_cell_length_b 18.569423
_cell_length_c 5.324591
_cell_angle_alpha 110.107854
_cell_angle_beta 77.073619
_cell_angle_gamma 122.233678
_cell_volume 504.618327
_symmetry_space_group_name_H-M "P -1"
_symmetry_group_IT_number 2
_symmetry_cell_setting 'triclinic'
loop_
_space_group_symop_operation_xyz
x,y,z
-x,-y,-z
loop_
_atom_site_type_symbol
_atom_site_label
_atom_site_fract_x
_atom_site_fract_y
_atom_site_fract_z
Si Si1 0.500000 0.500000 0.000000
Si Si2 0.381379 0.101092 0.138027
Si Si3 0.761888 0.410683 0.534585
Si Si4 0.012151 0.332334 0.718099
Si Si5 0.237322 0.993052 0.549452
Si Si6 0.668664 0.731580 0.763295
Si Si7 0.097607 0.821861 0.127246
O O1 0.400965 0.561368 0.223293
O O2 0.790763 0.578886 0.086821
O O3 0.371591 0.190838 0.238265
O O4 0.251683 0.046964 0.359332
O O5 0.668850 0.124806 0.061108
O O6 0.239251 0.042154 0.862151
O O7 0.595861 0.357411 0.275642
O O8 0.000000 0.500000 0.500000
O O9 0.848960 0.353246 0.599762
O O10 0.162518 0.295404 0.477143
O O11 0.849315 0.250183 0.844791
O O12 0.082523 0.889469 0.405094
O O13 0.500000 0.000000 0.500000
O O14 0.829676 0.767762 0.012123
#
# Coordination Sequence:
#
# PCOD9049520 Si02
#       7
#     1   2   2   2   2   2   2
#     4  10  26  48  76 110 142 194 260 310 392 478
#     4  11  26  47  77 109 159 209 264 324 393 464
#     4  11  27  51  78 108 156 200 256 325 403 471
#     4  11  27  47  75 110 152 197 254 324 391 469
#     4  10  24  46  76 109 155 211 263 322 395 461
#     4  11  28  44  73 113 149 199 266 314 392 470
#     4  11  26  45  76 104 154 202 259 323 386 464
#
# _framework density 25.762043999999999
#
# number of rings (size 3 to 8) (size 9 to 14) (size 15 to 20)
#    0.000    1.231    0.000    3.231   19.385    3.692 
#    0.000    0.000    0.000    0.000    0.000    0.000 
#    0.000    0.000    0.000    0.000    0.000    0.000 
#
# Total GULP energy -72585.544948 kJ/mol
# GULP energy per Si atom -5583.503458 kJ/mol
# Density = 2.570341 g / cm^3
# Si number density = 25.762044 Si / 1000 Ang^3
#
#
#
# Elastic Constant Matrix: (Units=GPa)
#
#
# Indices 1 2 3 4 5 6 
#
# 1 125.2269 52.9975 50.9027 16.8353 -4.3994 4.7652
# 2 52.9975 128.3997 73.7027 18.0458 26.6364 9.8839
# 3 50.9027 73.7027 137.3538 44.0304 19.9659 9.0577
# 4 16.8353 18.0458 44.0304 54.9084 2.9317 2.1828
# 5 -4.3994 26.6364 19.9659 2.9317 51.5020 10.8261
# 6 4.7652 9.8839 9.0577 2.1828 10.8261 45.6024
#
#
#
# Elastic Compliance Matrix: (Units=1/GPa)
#
#
# Indices 1 2 3 4 5 6 
#
# 1 0.010775 -0.003807 -0.002374 -0.000332 0.003988 -0.000760
# 2 -0.003807 0.013384 -0.005465 0.001436 -0.005156 -0.000262
# 3 -0.002374 -0.005465 0.014272 -0.008780 -0.002319 -0.000432
# 4 -0.000332 0.001436 -0.008780 0.024818 0.001222 -0.000011
# 5 0.003988 -0.005156 -0.002319 0.001222 0.024231 -0.004650
# 6 -0.000760 -0.000262 -0.000432 -0.000011 -0.004650 0.023255
#
#
# Mechanical properties :
#
#
# Convention : Reuss Voigt Hill
#
# Bulk Modulus (GPa) = 66.04493 82.90959 74.47726
# Shear Modulus (GPa) = 35.95219 44.62771 40.28995
#
# Velocity S-wave (km/s) = 3.73976 4.16661 3.95894
# Velocity P-wave (km/s) = 6.65882 7.44313 7.06187
#
# Compressibility (1/GPa) = 0.01514121
#
# Stress axis : x y z
#
# Youngs Moduli (GPa) = 92.80492 74.71467 70.06483
#
# Poissons Ratio (x) = 0.28446 0.16630
# Poissons Ratio (y) = 0.35334 0.38287
# Poissons Ratio (z) = 0.22027 0.40828
#
# Static dielectric constant tensor:
#      x y z
#    x 2.519200 0.147270 -0.126470 
#    y 0.147270 2.055630 -0.071780 
#    z -0.126470 -0.071780 2.104910 
# 
# From -- ./inp_files/10098.got.cif
#   From: 2010.05.17/outbox.cif.g08.bks.cpg/sg2_6_cif.got.tgz:10098.got - 2010.06.03 11:33:40.
