data_PCOD9049348
_publ_section_title
;
Structure prediction by ZEFSAII (Michael W. Deem and Ramdas Pophale) SiO2 
 PCOD9049348
Probable space group: P -1
;
_chemical_formula_sum "Si O2"
_cell_formula_units_Z 16
_cell_length_a 7.759624
_cell_length_b 17.949460
_cell_length_c 6.788879
_cell_angle_alpha 133.328224
_cell_angle_beta 92.147547
_cell_angle_gamma 100.536827
_cell_volume 658.448530
_symmetry_space_group_name_H-M "P -1"
_symmetry_group_IT_number 2
_symmetry_cell_setting 'triclinic'
loop_
_space_group_symop_operation_xyz
x,y,z
-x,-y,-z
loop_
_atom_site_type_symbol
_atom_site_label
_atom_site_fract_x
_atom_site_fract_y
_atom_site_fract_z
Si Si1 0.866743 0.883490 0.325886
Si Si2 0.561669 0.943987 0.210466
Si Si3 0.253919 0.870720 0.746595
Si Si4 0.715867 0.734150 0.378173
Si Si5 0.696279 0.506114 0.926273
Si Si6 0.154820 0.598652 0.596805
Si Si7 0.294627 0.676818 0.156417
Si Si8 0.047951 0.237503 0.218339
O O1 0.683309 0.878277 0.193599
O O2 0.817937 0.843590 0.471700
O O3 0.000000 0.000000 0.500000
O O4 0.944607 0.797058 0.066392
O O5 0.500000 0.000000 0.500000
O O6 0.681550 0.032841 0.228214
O O7 0.402336 0.880503 0.943877
O O8 0.223151 0.764979 0.421318
O O9 0.075760 0.862538 0.847261
O O10 0.506928 0.713493 0.284152
O O11 0.762923 0.733757 0.609256
O O12 0.777083 0.632015 0.120185
O O13 0.712328 0.443911 0.613924
O O14 0.781701 0.442371 0.972209
O O15 0.500000 0.500000 0.000000
O O16 0.050225 0.670660 0.609328
O O17 0.000000 0.500000 0.500000
O O18 0.261606 0.667532 0.907050
#
# Coordination Sequence:
#
# PCOD9049348 Si02
#       8
#     2   2   2   2   2   2   2   2
#     4  12  27  44  70 104 146 188 243 303 368 436
#     4  11  25  45  72 101 145 187 249 300 367 435
#     4  11  25  43  71 104 139 192 240 301 367 434
#     4  11  26  45  71 103 144 189 240 298 374 435
#     4  10  24  46  72 108 149 190 245 307 374 443
#     4  12  27  44  76 111 148 197 251 308 373 445
#     4  11  25  45  76 101 148 192 249 298 372 450
#     4  12  27  43  71 102 147 183 241 298 371 429
#
# _framework density 24.299544999999998
#
# number of rings (size 3 to 8) (size 9 to 14) (size 15 to 20)
#    0.000    0.750    1.250    4.500    8.750    9.000 
#    0.000    0.000    0.000    0.000    0.000    0.000 
#    0.000    0.000    0.000    0.000    0.000    0.000 
#
# Total GULP energy -89517.280721 kJ/mol
# GULP energy per Si atom -5594.830045 kJ/mol
# Density = 2.424424 g / cm^3
# Si number density = 24.299545 Si / 1000 Ang^3
#
#
#
# Elastic Constant Matrix: (Units=GPa)
#
#
# Indices 1 2 3 4 5 6 
#
# 1 73.3620 14.8055 30.2339 -9.6239 9.5766 1.1048
# 2 14.8055 107.3698 9.9054 -8.4215 10.3727 5.8771
# 3 30.2339 9.9054 118.7683 -16.7115 -5.9016 -2.8756
# 4 -9.6239 -8.4215 -16.7115 37.7723 -4.7700 3.1558
# 5 9.5766 10.3727 -5.9016 -4.7700 43.5482 -4.5082
# 6 1.1048 5.8771 -2.8756 3.1558 -4.5082 32.9213
#
#
#
# Elastic Compliance Matrix: (Units=1/GPa)
#
#
# Indices 1 2 3 4 5 6 
#
# 1 0.016286 -0.001303 -0.004015 0.001719 -0.003766 -0.001345
# 2 -0.001303 0.009996 -0.000439 0.001610 -0.002209 -0.002236
# 3 -0.004015 -0.000439 0.010162 0.003643 0.002882 0.001146
# 4 0.001719 0.001610 0.003643 0.029431 0.002699 -0.002479
# 5 -0.003766 -0.002209 0.002882 0.002699 0.025417 0.003994
# 6 -0.001345 -0.002236 0.001146 -0.002479 0.003994 0.031705
#
#
# Mechanical properties :
#
#
# Convention : Reuss Voigt Hill
#
# Bulk Modulus (GPa) = 40.11304 45.48775 42.80040
# Shear Modulus (GPa) = 35.00874 39.15203 37.08039
#
# Velocity S-wave (km/s) = 3.79979 4.01836 3.91061
# Velocity P-wave (km/s) = 5.98288 6.34743 6.16785
#
# Compressibility (1/GPa) = 0.02492955
#
# Stress axis : x y z
#
# Youngs Moduli (GPa) = 61.40213 100.04103 98.40524
#
# Poissons Ratio (x) = 0.13035 0.39509
# Poissons Ratio (y) = 0.08001 0.04323
# Poissons Ratio (z) = 0.24652 0.04395
#
# Static dielectric constant tensor:
#      x y z
#    x 1.993720 0.042460 0.027880 
#    y 0.042460 1.958390 0.035380 
#    z 0.027880 0.035380 1.947390 
# 
# From -- ./inp_files/49353.got.cif
#   From: 2010.05.17/outbox.cif.g08.bks.cpg/sg2_25_cif.got.tgz:49353.got - 2010.06.03 11:33:40.
