data_PCOD9049444
_publ_section_title
;
Structure prediction by ZEFSAII (Michael W. Deem and Ramdas Pophale) SiO2 
 PCOD9049444
Probable space group: P -1
;
_chemical_formula_sum "Si O2"
_cell_formula_units_Z 14
_cell_length_a 12.453303
_cell_length_b 11.108369
_cell_length_c 14.251381
_cell_angle_alpha 137.515396
_cell_angle_beta 138.122947
_cell_angle_gamma 23.293754
_cell_volume 509.588246
_symmetry_space_group_name_H-M "P -1"
_symmetry_group_IT_number 2
_symmetry_cell_setting 'triclinic'
loop_
_space_group_symop_operation_xyz
x,y,z
-x,-y,-z
loop_
_atom_site_type_symbol
_atom_site_label
_atom_site_fract_x
_atom_site_fract_y
_atom_site_fract_z
Si Si1 0.680977 0.112295 0.739210
Si Si2 0.145729 0.431331 0.650620
Si Si3 0.987896 0.748463 0.387776
Si Si4 0.800407 0.981153 0.043633
Si Si5 0.000000 0.000000 0.000000
Si Si6 0.719848 0.738636 0.068365
Si Si7 0.786996 0.190724 0.662764
Si Si8 0.500000 0.500000 0.500000
O O1 0.462177 0.175318 0.676848
O O2 0.663152 0.172215 0.651910
O O3 0.999212 0.754292 0.765742
O O4 0.691737 0.281140 0.900748
O O5 0.059971 0.363397 0.631266
O O6 0.000000 0.500000 0.500000
O O7 0.847243 0.794770 0.232917
O O8 0.172913 0.934655 0.489061
O O9 0.294627 0.535526 0.441759
O O10 0.018358 0.621040 0.995174
O O11 0.861153 0.006028 0.996656
O O12 0.920154 0.013726 0.218313
O O13 0.487506 0.190385 0.961240
O O14 0.500000 0.000000 0.000000
O O15 0.576613 0.522548 0.672993
#
# Coordination Sequence:
#
# PCOD9049444 Si02
#       8
#     2   2   2   2   1   2   2   1
#     4  11  25  45  73 109 144 187 237 294 370 427
#     4  12  24  44  73 107 144 183 236 301 359 435
#     4  12  28  46  77 105 146 194 250 303 371 426
#     4  11  27  49  76 109 150 194 246 297 378 433
#     4  10  24  46  74 106 150 188 236 298 362 452
#     4  12  28  50  75 107 147 199 247 308 359 446
#     4  11  27  45  75 107 147 196 239 310 356 442
#     4  12  28  46  70 106 144 190 244 308 356 436
#
# _framework density 27.473161000000001
#
# number of rings (size 3 to 8) (size 9 to 14) (size 15 to 20)
#    0.000    0.571    1.429    4.714    8.000    4.571 
#    0.000    0.000    0.000    0.000    0.000    0.000 
#    0.000    0.000    0.000    0.000    0.000    0.000 
#
# Total GULP energy -78028.587257 kJ/mol
# GULP energy per Si atom -5573.470518 kJ/mol
# Density = 2.741063 g / cm^3
# Si number density = 27.473161 Si / 1000 Ang^3
#
#
#
# Elastic Constant Matrix: (Units=GPa)
#
#
# Indices 1 2 3 4 5 6 
#
# 1 186.0118 17.1572 15.6308 -5.6161 0.2360 -10.6128
# 2 17.1572 87.7564 5.5962 14.6118 11.3635 -10.1216
# 3 15.6308 5.5962 131.3982 -29.3004 1.2105 -24.9985
# 4 -5.6161 14.6118 -29.3004 37.4882 -1.0043 12.7716
# 5 0.2360 11.3635 1.2105 -1.0043 55.8705 -20.2421
# 6 -10.6128 -10.1216 -24.9985 12.7716 -20.2421 46.7274
#
#
#
# Elastic Compliance Matrix: (Units=1/GPa)
#
#
# Indices 1 2 3 4 5 6 
#
# 1 0.005581 -0.001175 -0.000273 0.000792 0.000559 0.000893
# 2 -0.001175 0.013630 -0.001557 -0.007864 -0.001690 0.003270
# 3 -0.000273 -0.001557 0.009990 0.007169 0.001556 0.003660
# 4 0.000792 -0.007864 0.007169 0.038366 -0.000986 -0.008602
# 5 0.000559 -0.001690 0.001556 -0.000986 0.021945 0.010370
# 6 0.000893 0.003270 0.003660 -0.008602 0.010370 0.031113
#
#
# Mechanical properties :
#
#
# Convention : Reuss Voigt Hill
#
# Bulk Modulus (GPa) = 43.11819 53.54830 48.33324
# Shear Modulus (GPa) = 37.21213 52.46937 44.84075
#
# Velocity S-wave (km/s) = 3.68433 4.37491 4.04439
# Velocity P-wave (km/s) = 5.81617 6.71217 6.28017
#
# Compressibility (1/GPa) = 0.02319207
#
# Stress axis : x y z
#
# Youngs Moduli (GPa) = 179.16497 73.36944 100.10333
#
# Poissons Ratio (x) = 0.08622 0.02729
# Poissons Ratio (y) = 0.21053 0.15583
# Poissons Ratio (z) = 0.04884 0.11421
#
# Static dielectric constant tensor:
#      x y z
#    x 1.671120 -0.239560 -0.228270 
#    y -0.239560 2.285350 -0.501860 
#    z -0.228270 -0.501860 1.798340 
# 
# From -- ./inp_files/517109.got.cif
#   From: 2010.05.17/outbox.cif.g08.bks.cpg/sg2_259_cif.got.tgz:517109.got - 2010.06.03 11:33:40.
