data_PCOD9049370
_publ_section_title
;
Structure prediction by ZEFSAII (Michael W. Deem and Ramdas Pophale) SiO2 
 PCOD9049370
Probable space group: P -1
;
_chemical_formula_sum "Si O2"
_cell_formula_units_Z 13
_cell_length_a 7.675671
_cell_length_b 6.611425
_cell_length_c 13.187628
_cell_angle_alpha 97.700056
_cell_angle_beta 98.055250
_cell_angle_gamma 47.613593
_cell_volume 488.714232
_symmetry_space_group_name_H-M "P -1"
_symmetry_group_IT_number 2
_symmetry_cell_setting 'triclinic'
loop_
_space_group_symop_operation_xyz
x,y,z
-x,-y,-z
loop_
_atom_site_type_symbol
_atom_site_label
_atom_site_fract_x
_atom_site_fract_y
_atom_site_fract_z
Si Si1 0.140880 0.077452 0.963667
Si Si2 0.902309 0.053726 0.351713
Si Si3 0.261511 0.563197 0.461757
Si Si4 0.481206 0.065572 0.338746
Si Si5 0.126026 0.425928 0.158338
Si Si6 0.683149 0.539503 0.223507
Si Si7 0.500000 0.500000 0.000000
O O1 0.159643 0.248693 0.054343
O O2 0.967289 0.288902 0.875499
O O3 0.396121 0.782968 0.949651
O O4 0.000000 0.000000 0.000000
O O5 0.904445 0.236482 0.446859
O O6 0.716477 0.019284 0.361043
O O7 0.805612 0.243471 0.258651
O O8 0.149923 0.747193 0.363002
O O9 0.500000 0.500000 0.500000
O O10 0.316315 0.283583 0.429313
O O11 0.348426 0.234397 0.236115
O O12 0.537165 0.784053 0.310775
O O13 0.900326 0.513990 0.206299
O O14 0.537019 0.606192 0.114734
#
# Coordination Sequence:
#
# PCOD9049370 Si02
#       7
#     2   2   2   2   2   2   1
#     4  11  25  44  65  90 136 183 229 274 331 386
#     4  10  24  46  72  99 134 178 221 279 337 405
#     4   9  21  46  72  99 133 174 224 275 341 399
#     4  11  24  42  68 100 136 175 221 278 334 401
#     4  11  26  42  64  99 134 178 228 277 329 401
#     4  12  27  41  67 104 136 177 230 274 335 393
#     4  12  26  44  66  98 138 180 226 278 328 396
#
# _framework density 26.600413
#
# number of rings (size 3 to 8) (size 9 to 14) (size 15 to 20)
#    0.000    1.231    3.077    0.923    6.462    3.692 
#    0.000   10.769    0.000    0.000    0.000    0.000 
#    0.000    0.000    0.000    0.000    0.000    0.000 
#
# Total GULP energy -72545.805820 kJ/mol
# GULP energy per Si atom -5580.446602 kJ/mol
# Density = 2.653987 g / cm^3
# Si number density = 26.600413 Si / 1000 Ang^3
#
#
#
# Elastic Constant Matrix: (Units=GPa)
#
#
# Indices 1 2 3 4 5 6 
#
# 1 68.1819 9.5261 6.2422 -4.2735 14.0962 10.4815
# 2 9.5261 188.1679 34.0660 6.9728 18.3392 -0.3359
# 3 6.2422 34.0660 115.2584 -3.4243 40.1249 -2.5020
# 4 -4.2735 6.9728 -3.4243 65.3387 1.4718 5.0081
# 5 14.0962 18.3392 40.1249 1.4718 31.7471 -9.6729
# 6 10.4815 -0.3359 -2.5020 5.0081 -9.6729 26.0413
#
#
#
# Elastic Compliance Matrix: (Units=1/GPa)
#
#
# Indices 1 2 3 4 5 6 
#
# 1 0.022019 -0.000200 0.006980 0.003739 -0.024099 -0.017865
# 2 -0.000200 0.005730 -0.000954 -0.000577 -0.002184 -0.000637
# 3 0.006980 -0.000954 0.019143 0.003260 -0.030879 -0.013079
# 4 0.003739 -0.000577 0.003260 0.016552 -0.008513 -0.007545
# 5 -0.024099 -0.002184 -0.030879 -0.008513 0.096326 0.044122
# 6 -0.017865 -0.000637 -0.013079 -0.007545 0.044122 0.062166
#
#
# Mechanical properties :
#
#
# Convention : Reuss Voigt Hill
#
# Bulk Modulus (GPa) = 17.08128 52.36408 34.72268
# Shear Modulus (GPa) = 21.75819 46.07700 33.91760
#
# Velocity S-wave (km/s) = 2.86311 4.16648 3.57470
# Velocity P-wave (km/s) = 4.16716 6.54784 5.48814
#
# Compressibility (1/GPa) = 0.05854363
#
# Stress axis : x y z
#
# Youngs Moduli (GPa) = 45.41589 174.51360 52.23916
#
# Poissons Ratio (x) = 0.03490 -0.36461
# Poissons Ratio (y) = 0.00908 0.04981
# Poissons Ratio (z) = -0.31698 0.16641
#
# Static dielectric constant tensor:
#      x y z
#    x 1.940910 0.127400 -0.195200 
#    y 0.127400 1.809640 0.221170 
#    z -0.195200 0.221170 2.026460 
# 
# From -- ./inp_files/86057.got.cif
#   From: 2010.05.17/outbox.cif.g08.bks.cpg/sg2_44_cif.got.tgz:86057.got - 2010.06.03 11:33:40.
