data_PCOD9049074
_publ_section_title
;
Structure prediction by ZEFSAII (Michael W. Deem and Ramdas Pophale) SiO2 
 PCOD9049074
Probable space group: P -1
;
_chemical_formula_sum "Si O2"
_cell_formula_units_Z 16
_cell_length_a 9.048618
_cell_length_b 14.482952
_cell_length_c 11.219815
_cell_angle_alpha 44.131079
_cell_angle_beta 132.591651
_cell_angle_gamma 104.900306
_cell_volume 674.624118
_symmetry_space_group_name_H-M "P -1"
_symmetry_group_IT_number 2
_symmetry_cell_setting 'triclinic'
loop_
_space_group_symop_operation_xyz
x,y,z
-x,-y,-z
loop_
_atom_site_type_symbol
_atom_site_label
_atom_site_fract_x
_atom_site_fract_y
_atom_site_fract_z
Si Si1 0.381196 0.121776 0.946062
Si Si2 0.248244 0.856925 0.468292
Si Si3 0.608628 0.171986 0.693830
Si Si4 0.844119 0.320312 0.849464
Si Si5 0.765063 0.433218 0.225592
Si Si6 0.119980 0.928059 0.754078
Si Si7 0.287297 0.269533 0.013334
Si Si8 0.810823 0.635992 0.593196
O O1 0.647854 0.062128 0.133675
O O2 0.311848 0.199673 0.963364
O O3 0.338340 0.977804 0.066621
O O4 0.273675 0.243459 0.671473
O O5 0.303028 0.879675 0.342473
O O6 0.173211 0.725791 0.540214
O O7 0.476041 0.801968 0.721358
O O8 0.054279 0.985365 0.316602
O O9 0.715168 0.268545 0.728578
O O10 0.340575 0.278176 0.456731
O O11 0.769169 0.494423 0.667250
O O12 0.824176 0.242366 0.032642
O O13 0.099715 0.255292 0.004140
O O14 0.921867 0.415753 0.212253
O O15 0.500000 0.500000 0.000000
O O16 0.793515 0.554524 0.208414
O O17 0.000000 0.000000 0.500000
#
# Coordination Sequence:
#
# PCOD9049074 Si02
#       8
#     2   2   2   2   2   2   2   2
#     4  12  26  44  75 105 145 191 242 295 363 427
#     4  11  25  45  72 103 149 187 242 301 356 427
#     4  12  27  44  72 112 144 188 244 300 358 423
#     4  11  27  47  73 106 144 191 242 298 363 425
#     4   9  22  45  71 103 141 186 238 292 358 423
#     4  12  26  46  73 104 142 192 242 292 360 432
#     4  10  24  46  68 105 142 194 238 294 364 430
#     4  11  25  49  74 104 150 187 242 297 361 430
#
# _framework density 23.716909999999999
#
# number of rings (size 3 to 8) (size 9 to 14) (size 15 to 20)
#    0.000    1.000    2.500    2.250    7.000    3.000 
#    2.250    3.125    0.000    0.000    0.000    0.000 
#    0.000    0.000    0.000    0.000    0.000    0.000 
#
# Total GULP energy -89520.732097 kJ/mol
# GULP energy per Si atom -5595.045756 kJ/mol
# Density = 2.366293 g / cm^3
# Si number density = 23.716910 Si / 1000 Ang^3
#
#
#
# Elastic Constant Matrix: (Units=GPa)
#
#
# Indices 1 2 3 4 5 6 
#
# 1 132.1063 48.0098 35.1060 -7.3163 11.7625 2.0490
# 2 48.0098 78.9031 29.1839 -25.4898 -3.9110 5.6836
# 3 35.1060 29.1839 73.5230 -17.9945 0.2733 3.7879
# 4 -7.3163 -25.4898 -17.9945 41.2461 8.1061 -2.1222
# 5 11.7625 -3.9110 0.2733 8.1061 44.7121 -0.2435
# 6 2.0490 5.6836 3.7879 -2.1222 -0.2435 43.0366
#
#
#
# Elastic Compliance Matrix: (Units=1/GPa)
#
#
# Indices 1 2 3 4 5 6 
#
# 1 0.010926 -0.006545 -0.003363 -0.002983 -0.002883 0.000477
# 2 -0.006545 0.021197 -0.002673 0.010348 0.001707 -0.001733
# 3 -0.003363 -0.002673 0.017657 0.005505 -0.000459 -0.000772
# 4 -0.002983 0.010348 0.005505 0.033371 -0.004394 -0.000088
# 5 -0.002883 0.001707 -0.000459 -0.004394 0.024072 -0.000128
# 6 0.000477 -0.001733 -0.000772 -0.000088 -0.000128 0.023505
#
#
# Mechanical properties :
#
#
# Convention : Reuss Voigt Hill
#
# Bulk Modulus (GPa) = 40.62111 56.57020 48.59565
# Shear Modulus (GPa) = 30.46981 37.28114 33.87548
#
# Velocity S-wave (km/s) = 3.58820 3.96905 3.78342
# Velocity P-wave (km/s) = 5.85932 6.70138 6.29445
#
# Compressibility (1/GPa) = 0.02461774
#
# Stress axis : x y z
#
# Youngs Moduli (GPa) = 91.52459 47.17575 56.63523
#
# Poissons Ratio (x) = 0.30877 0.19046
# Poissons Ratio (y) = 0.59904 0.15140
# Poissons Ratio (z) = 0.30778 0.12611
#
# Static dielectric constant tensor:
#      x y z
#    x 1.901620 0.017180 0.045650 
#    y 0.017180 1.916980 -0.024410 
#    z 0.045650 -0.024410 1.943920 
# 
# From -- ./inp_files/398464.got.cif
#   From: 2010.05.17/outbox.cif.g08.bks.cpg/sg2_200_cif.got.tgz:398464.got - 2010.06.03 11:33:40.
