data_PCOD9049814
_publ_section_title
;
Structure prediction by ZEFSAII (Michael W. Deem and Ramdas Pophale) SiO2 
 PCOD9049814
Probable space group: P -1
;
_chemical_formula_sum "Si O2"
_cell_formula_units_Z 12
_cell_length_a 5.325980
_cell_length_b 11.948818
_cell_length_c 13.681137
_cell_angle_alpha 32.197186
_cell_angle_beta 78.256230
_cell_angle_gamma 78.501030
_cell_volume 453.591023
_symmetry_space_group_name_H-M "P -1"
_symmetry_group_IT_number 2
_symmetry_cell_setting 'triclinic'
loop_
_space_group_symop_operation_xyz
x,y,z
-x,-y,-z
loop_
_atom_site_type_symbol
_atom_site_label
_atom_site_fract_x
_atom_site_fract_y
_atom_site_fract_z
Si Si1 0.249668 0.007094 0.082815
Si Si2 0.887081 0.656353 0.287653
Si Si3 0.532835 0.545934 0.789707
Si Si4 0.292039 0.312631 0.519560
Si Si5 0.594211 0.907433 0.781430
Si Si6 0.983570 0.686596 0.782335
O O1 0.287462 0.001208 0.197932
O O2 0.138066 0.241347 0.892081
O O3 0.077537 0.824205 0.195169
O O4 0.500000 0.000000 0.000000
O O5 0.669901 0.669844 0.379216
O O6 0.010853 0.423690 0.445809
O O7 0.548102 0.544434 0.671761
O O8 0.796642 0.626808 0.752828
O O9 0.282133 0.695822 0.724773
O O10 0.501576 0.319834 0.010448
O O11 0.360296 0.075919 0.653677
O O12 0.818160 0.875150 0.708321
O O13 0.000000 0.500000 0.000000
#
# Coordination Sequence:
#
# PCOD9049814 Si02
#       6
#     2   2   2   2   2   2
#     4  11  22  44  73  97 140 189 235 286 360 427
#     4  10  25  44  65 107 144 180 236 297 349 426
#     4  11  26  48  74 105 146 186 240 300 357 421
#     4  11  25  44  69 107 140 187 235 294 356 429
#     4  11  24  44  74 102 137 192 235 292 361 423
#     4  10  24  47  75 105 142 187 242 297 356 424
#
# _framework density 26.455549999999999
#
# number of rings (size 3 to 8) (size 9 to 14) (size 15 to 20)
#    0.000    1.333    1.667    3.000    7.000    4.667 
#    3.000    0.000    0.000    0.000    0.000    0.000 
#    0.000    0.000    0.000    0.000    0.000    0.000 
#
# Total GULP energy -67105.492408 kJ/mol
# GULP energy per Si atom -5592.124367 kJ/mol
# Density = 2.639534 g / cm^3
# Si number density = 26.455550 Si / 1000 Ang^3
#
#
#
# Elastic Constant Matrix: (Units=GPa)
#
#
# Indices 1 2 3 4 5 6 
#
# 1 89.8201 42.8928 31.8294 -4.5596 3.4514 2.3716
# 2 42.8928 130.0498 33.6284 -15.1832 6.9557 -38.8602
# 3 31.8294 33.6284 144.6109 -22.2170 18.6717 -21.7577
# 4 -4.5596 -15.1832 -22.2170 49.7065 -20.0398 7.2910
# 5 3.4514 6.9557 18.6717 -20.0398 27.5746 -12.8983
# 6 2.3716 -38.8602 -21.7577 7.2910 -12.8983 46.6513
#
#
#
# Elastic Compliance Matrix: (Units=1/GPa)
#
#
# Indices 1 2 3 4 5 6 
#
# 1 0.015923 -0.007220 -0.003022 -0.002428 -0.004092 -0.008985
# 2 -0.007220 0.014218 0.000119 0.004502 0.006796 0.013442
# 3 -0.003022 0.000119 0.008697 0.002194 -0.002402 0.003302
# 4 -0.002428 0.004502 0.002194 0.030534 0.022892 0.006454
# 5 -0.004092 0.006796 -0.002402 0.022892 0.061876 0.018279
# 6 -0.008985 0.013442 0.003302 0.006454 0.018279 0.038674
#
#
# Mechanical properties :
#
#
# Convention : Reuss Voigt Hill
#
# Bulk Modulus (GPa) = 53.78377 64.57579 59.17978
# Shear Modulus (GPa) = 25.46273 41.86185 33.66229
#
# Velocity S-wave (km/s) = 3.10574 3.98219 3.57095
# Velocity P-wave (km/s) = 5.76496 6.75322 6.27856
#
# Compressibility (1/GPa) = 0.01859297
#
# Stress axis : x y z
#
# Youngs Moduli (GPa) = 62.80091 70.33146 114.98848
#
# Poissons Ratio (x) = 0.50777 0.34753
# Poissons Ratio (y) = 0.45340 -0.01372
# Poissons Ratio (z) = 0.18980 -0.00839
#
# Static dielectric constant tensor:
#      x y z
#    x 2.160810 0.001950 0.095870 
#    y 0.001950 2.076560 0.029480 
#    z 0.095870 0.029480 2.173410 
# 
# From -- ./inp_files/62361.got.cif
#   From: 2010.05.17/outbox.cif.g08.bks.cpg/sg2_32_cif.got.tgz:62361.got - 2010.06.03 11:33:40.
