data_PCOD9049418
_publ_section_title
;
Structure prediction by ZEFSAII (Michael W. Deem and Ramdas Pophale) SiO2 
 PCOD9049418
Probable space group: P -1
;
_chemical_formula_sum "Si O2"
_cell_formula_units_Z 16
_cell_length_a 13.100573
_cell_length_b 9.787252
_cell_length_c 19.759044
_cell_angle_alpha 60.058398
_cell_angle_beta 155.399267
_cell_angle_gamma 124.825033
_cell_volume 864.274408
_symmetry_space_group_name_H-M "P -1"
_symmetry_group_IT_number 2
_symmetry_cell_setting 'triclinic'
loop_
_space_group_symop_operation_xyz
x,y,z
-x,-y,-z
loop_
_atom_site_type_symbol
_atom_site_label
_atom_site_fract_x
_atom_site_fract_y
_atom_site_fract_z
Si Si1 0.553793 0.955502 0.721718
Si Si2 0.269370 0.910341 0.065549
Si Si3 0.443633 0.362669 0.675946
Si Si4 0.012074 0.110685 0.547888
Si Si5 0.660657 0.077941 0.143350
Si Si6 0.677178 0.753502 0.727036
Si Si7 0.541282 0.255994 0.542813
Si Si8 0.855074 0.624541 0.645884
O O1 0.605309 0.819975 0.737831
O O2 0.266987 0.892542 0.596657
O O3 0.734800 0.008498 0.883636
O O4 0.568955 0.112928 0.643663
O O5 0.383140 0.758284 0.185042
O O6 0.469125 0.034409 0.103226
O O7 0.983275 0.842550 0.879236
O O8 0.214989 0.291142 0.610263
O O9 0.607784 0.554268 0.736594
O O10 0.292512 0.344758 0.518065
O O11 0.133638 0.019842 0.698327
O O12 0.000000 0.000000 0.500000
O O13 0.842858 0.269385 0.200422
O O14 0.500000 0.000000 0.000000
O O15 0.509821 0.791397 0.554949
O O16 0.782891 0.425686 0.656117
O O17 0.291481 0.310267 0.399689
#
# Coordination Sequence:
#
# PCOD9049418 Si02
#       8
#     2   2   2   2   2   2   2   2
#     4  12  21  39  59  82 117 154 184 230 286 343
#     4  11  21  38  59  82 116 154 183 233 281 338
#     4  10  19  38  60  86 108 147 197 233 274 330
#     4  11  18  37  62  82 106 147 191 229 279 337
#     4  11  20  34  58  89 110 137 191 245 277 322
#     4  11  25  35  55  88 119 148 187 235 283 329
#     4  10  20  35  57  82 113 150 190 231 274 334
#     4  10  17  34  60  85 108 146 195 233 275 329
#
# _framework density 18.512640000000001
#
# number of rings (size 3 to 8) (size 9 to 14) (size 15 to 20)
#    0.000    1.250    6.250    1.875    0.000    0.500 
#    4.500    0.000    0.000    0.750    0.000    0.000 
#    0.000    0.000    0.000    0.000    0.000    0.000 
#
# Total GULP energy -89313.496741 kJ/mol
# GULP energy per Si atom -5582.093546 kJ/mol
# Density = 1.847050 g / cm^3
# Si number density = 18.512640 Si / 1000 Ang^3
#
#
#
# Elastic Constant Matrix: (Units=GPa)
#
#
# Indices 1 2 3 4 5 6 
#
# 1 84.0543 40.6426 23.9528 22.3229 -3.4752 -1.3230
# 2 40.6426 57.3612 19.2579 29.2605 0.8310 2.5889
# 3 23.9528 19.2579 73.7155 30.4165 -5.6228 -3.6941
# 4 22.3229 29.2605 30.4165 29.1260 6.2377 3.1040
# 5 -3.4752 0.8310 -5.6228 6.2377 36.6608 8.2336
# 6 -1.3230 2.5889 -3.6941 3.1040 8.2336 24.8447
#
#
#
# Elastic Compliance Matrix: (Units=1/GPa)
#
#
# Indices 1 2 3 4 5 6 
#
# 1 0.018810 -0.013452 -0.003444 0.002371 0.000862 0.001309
# 2 -0.013452 0.054052 0.018147 -0.065434 0.011236 0.000801
# 3 -0.003444 0.018147 0.033223 -0.053489 0.012224 0.005497
# 4 0.002371 -0.065434 -0.053489 0.162037 -0.031648 -0.010765
# 5 0.000862 0.011236 0.012224 -0.031648 0.036000 -0.007284
# 6 0.001309 0.000801 0.005497 -0.010765 -0.007284 0.044812
#
#
# Mechanical properties :
#
#
# Convention : Reuss Voigt Hill
#
# Bulk Modulus (GPa) = 9.20934 42.53750 25.87342
# Shear Modulus (GPa) = 13.06754 26.87817 19.97286
#
# Velocity S-wave (km/s) = 2.65971 3.81449 3.28819
# Velocity P-wave (km/s) = 3.79703 6.51367 5.33129
#
# Compressibility (1/GPa) = 0.10858539
#
# Stress axis : x y z
#
# Youngs Moduli (GPa) = 53.16433 18.50080 30.09982
#
# Poissons Ratio (x) = 0.24887 0.10368
# Poissons Ratio (y) = 0.71515 -0.54622
# Poissons Ratio (z) = 0.18312 -0.33573
#
# Static dielectric constant tensor:
#      x y z
#    x 1.668010 0.020210 -0.018650 
#    y 0.020210 1.653110 0.036230 
#    z -0.018650 0.036230 1.653840 
# 
# From -- ./inp_files/185849.got.cif
#   From: 2010.05.17/outbox.cif.g08.bks.cpg/sg2_93_cif.got.tgz:185849.got - 2010.06.03 11:33:40.
