data_PCOD9049093
_publ_section_title
;
Structure prediction by ZEFSAII (Michael W. Deem and Ramdas Pophale) SiO2 
 PCOD9049093
Probable space group: P -1
;
_chemical_formula_sum "Si O2"
_cell_formula_units_Z 16
_cell_length_a 16.401991
_cell_length_b 5.237788
_cell_length_c 13.886215
_cell_angle_alpha 102.705581
_cell_angle_beta 32.916693
_cell_angle_gamma 98.152635
_cell_volume 630.339887
_symmetry_space_group_name_H-M "P -1"
_symmetry_group_IT_number 2
_symmetry_cell_setting 'triclinic'
loop_
_space_group_symop_operation_xyz
x,y,z
-x,-y,-z
loop_
_atom_site_type_symbol
_atom_site_label
_atom_site_fract_x
_atom_site_fract_y
_atom_site_fract_z
Si Si1 0.734919 0.382763 0.891749
Si Si2 0.341593 0.797533 0.840438
Si Si3 0.835569 0.410586 0.147944
Si Si4 0.485605 0.774465 0.189605
Si Si5 0.394154 0.186409 0.551772
Si Si6 0.776038 0.972395 0.661896
Si Si7 0.944340 0.401593 0.420094
Si Si8 0.758079 0.255865 0.425611
O O1 0.744738 0.098927 0.807892
O O2 0.886364 0.522904 0.733941
O O3 0.708112 0.354701 0.029507
O O4 0.590525 0.559367 0.011048
O O5 0.199789 0.816137 0.909747
O O6 0.485171 0.683573 0.624526
O O7 0.403441 0.059254 0.844346
O O8 0.721737 0.654109 0.250505
O O9 0.776373 0.356368 0.308709
O O10 0.000000 0.500000 0.000000
O O11 0.373062 0.959023 0.249763
O O12 0.377416 0.637449 0.361053
O O13 0.500000 0.000000 0.500000
O O14 0.287228 0.038586 0.572646
O O15 0.898084 0.160262 0.511150
O O16 0.840472 0.671029 0.568505
O O17 0.905241 0.307818 0.343792
#
# Coordination Sequence:
#
# PCOD9049093 Si02
#       8
#     2   2   2   2   2   2   2   2
#     4  12  26  45  72 105 143 182 240 300 349 428
#     4  11  26  42  70 102 141 183 237 289 359 418
#     4  12  26  42  67 101 138 181 231 290 350 421
#     4  10  26  43  73 102 137 186 240 294 353 423
#     4  11  24  44  70  95 136 186 233 287 350 421
#     4  11  27  49  74 104 145 193 235 294 366 426
#     4  11  27  47  74 105 145 193 236 291 365 427
#     4  10  24  46  68  97 141 184 229 287 357 423
#
# _framework density 25.383133000000001
#
# number of rings (size 3 to 8) (size 9 to 14) (size 15 to 20)
#    0.000    1.000    1.250    3.000   15.750    2.000 
#    0.000    0.000    0.000    0.000    0.000    0.000 
#    0.000    0.000    0.000    0.000    0.000    0.000 
#
# Total GULP energy -89557.259593 kJ/mol
# GULP energy per Si atom -5597.328725 kJ/mol
# Density = 2.532536 g / cm^3
# Si number density = 25.383133 Si / 1000 Ang^3
#
#
#
# Elastic Constant Matrix: (Units=GPa)
#
#
# Indices 1 2 3 4 5 6 
#
# 1 138.9635 33.8637 48.5323 -12.8331 6.2674 28.0571
# 2 33.8637 93.2708 48.5124 -12.5608 -12.7727 20.4119
# 3 48.5323 48.5124 105.4961 -2.9456 -11.0472 6.1145
# 4 -12.8331 -12.5608 -2.9456 32.4137 4.4341 -6.2214
# 5 6.2674 -12.7727 -11.0472 4.4341 26.9362 -6.2445
# 6 28.0571 20.4119 6.1145 -6.2214 -6.2445 47.9825
#
#
#
# Elastic Compliance Matrix: (Units=1/GPa)
#
#
# Indices 1 2 3 4 5 6 
#
# 1 0.010915 -0.000488 -0.005067 0.003457 -0.006801 -0.005966
# 2 -0.000488 0.016406 -0.006567 0.004169 0.003383 -0.004876
# 3 -0.005067 -0.006567 0.015101 -0.003164 0.005746 0.004170
# 4 0.003457 0.004169 -0.003164 0.034391 -0.005712 0.000324
# 5 -0.006801 0.003383 0.005746 -0.005712 0.045219 0.006950
# 6 -0.005966 -0.004876 0.004170 0.000324 0.006950 0.026819
#
#
# Mechanical properties :
#
#
# Convention : Reuss Voigt Hill
#
# Bulk Modulus (GPa) = 55.00565 66.61633 60.81099
# Shear Modulus (GPa) = 27.90874 35.25460 31.58167
#
# Velocity S-wave (km/s) = 3.31947 3.73084 3.53115
# Velocity P-wave (km/s) = 6.03399 6.69777 6.37453
#
# Compressibility (1/GPa) = 0.01817995
#
# Stress axis : x y z
#
# Youngs Moduli (GPa) = 91.61493 60.95385 66.21861
#
# Poissons Ratio (x) = 0.02972 0.33554
# Poissons Ratio (y) = 0.04467 0.43484
# Poissons Ratio (z) = 0.46422 0.40026
#
# Static dielectric constant tensor:
#      x y z
#    x 2.034190 -0.029430 0.005410 
#    y -0.029430 2.095540 0.049810 
#    z 0.005410 0.049810 1.992650 
# 
# From -- ./inp_files/536397.got.cif
#   From: 2010.05.17/outbox.cif.g08.bks.cpg/sg2_269_cif.got.tgz:536397.got - 2010.06.03 11:33:40.
