data_PCOD9049317
_publ_section_title
;
Structure prediction by ZEFSAII (Michael W. Deem and Ramdas Pophale) SiO2 
 PCOD9049317
Probable space group: P -1
;
_chemical_formula_sum "Si O2"
_cell_formula_units_Z 12
_cell_length_a 10.537650
_cell_length_b 5.273883
_cell_length_c 16.478947
_cell_angle_alpha 54.777201
_cell_angle_beta 40.996071
_cell_angle_gamma 62.469098
_cell_volume 490.163527
_symmetry_space_group_name_H-M "P -1"
_symmetry_group_IT_number 2
_symmetry_cell_setting 'triclinic'
loop_
_space_group_symop_operation_xyz
x,y,z
-x,-y,-z
loop_
_atom_site_type_symbol
_atom_site_label
_atom_site_fract_x
_atom_site_fract_y
_atom_site_fract_z
Si Si1 0.931876 0.043949 0.617199
Si Si2 0.339714 0.571053 0.713953
Si Si3 0.366320 0.263801 0.063392
Si Si4 0.825121 0.723133 0.009776
Si Si5 0.889654 0.782278 0.247516
Si Si6 0.782690 0.619220 0.494274
O O1 0.817221 0.379351 0.595589
O O2 0.127435 0.074679 0.569149
O O3 0.780546 0.858014 0.776073
O O4 0.000000 0.000000 0.500000
O O5 0.338721 0.333585 0.834770
O O6 0.212919 0.407502 0.737480
O O7 0.560777 0.618428 0.575756
O O8 0.246247 0.908695 0.721843
O O9 0.500000 0.500000 0.000000
O O10 0.238186 0.389976 0.026356
O O11 0.500000 0.000000 0.000000
O O12 0.000000 0.500000 0.000000
O O13 0.908866 0.063864 0.899818
O O14 0.904975 0.578161 0.359581
#
# Coordination Sequence:
#
# PCOD9049317 Si02
#       6
#     2   2   2   2   2   2
#     4  11  28  45  75 103 146 199 240 302 365 437
#     4  11  25  41  72 103 138 185 238 296 361 434
#     4  12  29  51  78 110 150 196 251 307 368 441
#     4  10  24  46  72 104 145 190 243 303 363 434
#     4  11  24  44  69 102 138 186 234 299 364 427
#     4  11  25  45  67 104 146 183 244 294 366 434
#
# _framework density 24.481627
#
# number of rings (size 3 to 8) (size 9 to 14) (size 15 to 20)
#    0.000    1.000    1.667    2.500   11.667    6.667 
#    0.000    0.000    0.000    0.000    0.000    0.000 
#    0.000    0.000    0.000    0.000    0.000    0.000 
#
# Total GULP energy -67095.980636 kJ/mol
# GULP energy per Si atom -5591.331720 kJ/mol
# Density = 2.442591 g / cm^3
# Si number density = 24.481627 Si / 1000 Ang^3
#
#
#
# Elastic Constant Matrix: (Units=GPa)
#
#
# Indices 1 2 3 4 5 6 
#
# 1 172.2463 57.2977 81.2070 -17.2615 4.0626 46.9549
# 2 57.2977 96.0165 41.3240 6.0373 -6.9594 46.9913
# 3 81.2070 41.3240 232.2675 -14.3994 13.2748 33.3530
# 4 -17.2615 6.0373 -14.3994 37.5391 -1.8444 -4.3179
# 5 4.0626 -6.9594 13.2748 -1.8444 53.2648 -5.8523
# 6 46.9549 46.9913 33.3530 -4.3179 -5.8523 49.4115
#
#
#
# Elastic Compliance Matrix: (Units=1/GPa)
#
#
# Indices 1 2 3 4 5 6 
#
# 1 0.009212 -0.002627 -0.001786 0.003362 -0.001020 -0.004877
# 2 -0.002627 0.021709 -0.000844 -0.007052 0.001017 -0.018076
# 3 -0.001786 -0.000844 0.005409 0.001180 -0.001415 -0.001215
# 4 0.003362 -0.007052 0.001180 0.030400 0.000173 0.005393
# 5 -0.001020 0.001017 -0.001415 0.000173 0.019707 0.003306
# 6 -0.004877 -0.018076 -0.001215 0.005393 0.003306 0.043747
#
#
# Mechanical properties :
#
#
# Convention : Reuss Voigt Hill
#
# Bulk Modulus (GPa) = 38.73569 95.57643 67.15606
# Shear Modulus (GPa) = 33.48898 49.42319 41.45608
#
# Velocity S-wave (km/s) = 3.70256 4.49797 4.11950
# Velocity P-wave (km/s) = 5.84254 8.13022 7.07940
#
# Compressibility (1/GPa) = 0.02581598
#
# Stress axis : x y z
#
# Youngs Moduli (GPa) = 108.55139 46.06336 184.89267
#
# Poissons Ratio (x) = 0.12101 0.33029
# Poissons Ratio (y) = 0.28517 0.15598
# Poissons Ratio (z) = 0.19391 0.03886
#
# Static dielectric constant tensor:
#      x y z
#    x 1.951980 -0.113710 0.033380 
#    y -0.113710 2.144540 -0.024650 
#    z 0.033380 -0.024650 1.998030 
# 
# From -- ./inp_files/93113.got.cif
#   From: 2010.05.17/outbox.cif.g08.bks.cpg/sg2_47_cif.got.tgz:93113.got - 2010.06.03 11:33:40.
