data_PCOD9049366
_publ_section_title
;
Structure prediction by ZEFSAII (Michael W. Deem and Ramdas Pophale) SiO2 
 PCOD9049366
Probable space group: P -1
;
_chemical_formula_sum "Si O2"
_cell_formula_units_Z 15
_cell_length_a 8.280825
_cell_length_b 16.802460
_cell_length_c 19.064362
_cell_angle_alpha 21.162948
_cell_angle_beta 43.146330
_cell_angle_gamma 42.388690
_cell_volume 636.447881
_symmetry_space_group_name_H-M "P -1"
_symmetry_group_IT_number 2
_symmetry_cell_setting 'triclinic'
loop_
_space_group_symop_operation_xyz
x,y,z
-x,-y,-z
loop_
_atom_site_type_symbol
_atom_site_label
_atom_site_fract_x
_atom_site_fract_y
_atom_site_fract_z
Si Si1 0.142741 0.840623 0.890348
Si Si2 0.000000 0.000000 0.500000
Si Si3 0.348071 0.485991 0.860382
Si Si4 0.147232 0.456037 0.098824
Si Si5 0.888095 0.242760 0.869954
Si Si6 0.459649 0.895823 0.410121
Si Si7 0.627927 0.147045 0.788892
Si Si8 0.317960 0.382762 0.563547
O O1 0.363393 0.965664 0.725841
O O2 0.207466 0.613592 0.010925
O O3 0.073720 0.777563 0.042355
O O4 0.903173 0.014806 0.794514
O O5 0.800274 0.983238 0.640052
O O6 0.113324 0.206193 0.334975
O O7 0.601015 0.335370 0.877132
O O8 0.334266 0.751610 0.624838
O O9 0.122782 0.431092 0.937258
O O10 0.318655 0.463063 0.971355
O O11 0.038040 0.404628 0.654013
O O12 0.000000 0.000000 0.000000
O O13 0.611117 0.735286 0.435890
O O14 0.474140 0.224306 0.704085
O O15 0.628882 0.373211 0.646644
O O16 0.500000 0.000000 0.000000
#
# Coordination Sequence:
#
# PCOD9049366 Si02
#       8
#     2   1   2   2   2   2   2   2
#     4  12  26  43  74 110 144 190 245 311 362 436
#     4  10  24  46  72  98 138 188 248 298 370 428
#     4  10  25  46  70 101 145 194 247 298 370 437
#     4  10  25  47  74 105 140 196 247 311 366 435
#     4  12  25  42  70 108 146 196 241 300 367 440
#     4  11  25  45  73 104 140 198 238 309 364 439
#     4  11  26  44  68 106 148 193 244 302 358 435
#     4  11  26  45  70 105 150 196 244 295 373 440
#
# _framework density 23.568308999999999
#
# number of rings (size 3 to 8) (size 9 to 14) (size 15 to 20)
#    0.000    1.067    2.667    1.600    7.467    5.867 
#    0.000    2.667    0.000    0.000    0.000    0.000 
#    0.000    0.000    0.000    0.000    0.000    0.000 
#
# Total GULP energy -83727.907308 kJ/mol
# GULP energy per Si atom -5581.860487 kJ/mol
# Density = 2.351467 g / cm^3
# Si number density = 23.568309 Si / 1000 Ang^3
#
#
#
# Elastic Constant Matrix: (Units=GPa)
#
#
# Indices 1 2 3 4 5 6 
#
# 1 93.6807 77.4666 62.2290 -2.9688 -30.6805 2.6656
# 2 77.4666 138.9330 53.6454 19.6233 -30.2996 -4.0430
# 3 62.2290 53.6454 167.8963 3.8995 -31.2537 17.7040
# 4 -2.9688 19.6233 3.8995 40.4065 -4.8064 -11.7089
# 5 -30.6805 -30.2996 -31.2537 -4.8064 38.0380 -7.6602
# 6 2.6656 -4.0430 17.7040 -11.7089 -7.6602 54.6176
#
#
#
# Elastic Compliance Matrix: (Units=1/GPa)
#
#
# Indices 1 2 3 4 5 6 
#
# 1 0.028662 -0.013242 -0.005030 0.011171 0.010476 0.003116
# 2 -0.013242 0.015963 0.000211 -0.008588 0.001139 0.000078
# 3 -0.005030 0.000211 0.008501 -0.001746 0.002364 -0.002537
# 4 0.011171 -0.008588 -0.001746 0.032780 0.006348 0.007303
# 5 0.010476 0.001139 0.002364 0.006348 0.039542 0.005713
# 6 0.003116 0.000078 -0.002537 0.007303 0.005713 0.021352
#
#
# Mechanical properties :
#
#
# Convention : Reuss Voigt Hill
#
# Bulk Modulus (GPa) = 58.80898 87.46579 73.13738
# Shear Modulus (GPa) = 26.51237 40.42368 33.46803
#
# Velocity S-wave (km/s) = 3.35762 4.14596 3.77243
# Velocity P-wave (km/s) = 6.32757 7.75311 7.07633
#
# Compressibility (1/GPa) = 0.01700421
#
# Stress axis : x y z
#
# Youngs Moduli (GPa) = 34.88914 62.64345 117.62838
#
# Poissons Ratio (x) = 0.82950 0.59170
# Poissons Ratio (y) = 0.46199 -0.02477
# Poissons Ratio (z) = 0.17550 -0.01319
#
# Static dielectric constant tensor:
#      x y z
#    x 1.816680 0.018630 -0.089020 
#    y 0.018630 1.862850 0.044150 
#    z -0.089020 0.044150 1.857310 
# 
# From -- ./inp_files/591160.got.cif
#   From: 2010.05.17/outbox.cif.g08.bks.cpg/sg2_296_cif.got.tgz:591160.got - 2010.06.03 11:33:40.
