data_PCOD9049531
_publ_section_title
;
Structure prediction by ZEFSAII (Michael W. Deem and Ramdas Pophale) SiO2 
 PCOD9049531
Probable space group: P -1
;
_chemical_formula_sum "Si O2"
_cell_formula_units_Z 14
_cell_length_a 18.306366
_cell_length_b 17.922310
_cell_length_c 9.169814
_cell_angle_alpha 40.041062
_cell_angle_beta 41.557806
_cell_angle_gamma 18.315846
_cell_volume 604.797306
_symmetry_space_group_name_H-M "P -1"
_symmetry_group_IT_number 2
_symmetry_cell_setting 'triclinic'
loop_
_space_group_symop_operation_xyz
x,y,z
-x,-y,-z
loop_
_atom_site_type_symbol
_atom_site_label
_atom_site_fract_x
_atom_site_fract_y
_atom_site_fract_z
Si Si1 0.333279 0.053412 0.727169
Si Si2 0.446103 0.357930 0.809764
Si Si3 0.223826 0.679869 0.136625
Si Si4 0.720573 0.859017 0.816235
Si Si5 0.480363 0.539931 0.710345
Si Si6 0.960693 0.430839 0.943964
Si Si7 0.690839 0.086439 0.306070
O O1 0.500000 0.000000 0.500000
O O2 0.291087 0.009655 0.719884
O O3 0.427202 0.876312 0.975329
O O4 0.112177 0.312183 0.751851
O O5 0.471894 0.433755 0.780248
O O6 0.528938 0.342149 0.560610
O O7 0.185460 0.550808 0.889528
O O8 0.291792 0.664007 0.219802
O O9 0.957615 0.887329 0.216206
O O10 0.441806 0.387445 0.219355
O O11 0.273813 0.722112 0.865201
O O12 0.817588 0.680699 0.816582
O O13 0.656443 0.037719 0.570095
O O14 0.898217 0.713847 0.899869
O O15 0.500000 0.000000 0.000000
#
# Coordination Sequence:
#
# PCOD9049531 Si02
#       7
#     2   2   2   2   2   2   2
#     4  12  27  45  72 110 151 197 244 308 373 456
#     4  11  23  48  67 110 141 196 242 311 370 444
#     4  11  26  50  73 112 140 202 248 315 367 444
#     4  11  26  45  72 109 145 196 249 311 372 451
#     4  10  24  46  76  99 152 187 257 305 375 436
#     4  11  25  44  73 104 147 192 250 303 379 442
#     4  12  27  47  78 106 156 193 253 306 381 440
#
# _framework density 23.148250999999998
#
# number of rings (size 3 to 8) (size 9 to 14) (size 15 to 20)
#    0.000    0.857    1.429    4.286   10.000    3.429 
#    5.143    2.143    0.000    0.000    0.000    0.000 
#    0.000    0.000    0.000    0.000    0.000    0.000 
#
# Total GULP energy -78244.530026 kJ/mol
# GULP energy per Si atom -5588.895002 kJ/mol
# Density = 2.309556 g / cm^3
# Si number density = 23.148251 Si / 1000 Ang^3
#
#
#
# Elastic Constant Matrix: (Units=GPa)
#
#
# Indices 1 2 3 4 5 6 
#
# 1 186.4622 80.1869 46.5017 16.1836 -3.7941 2.9924
# 2 80.1869 153.4541 73.1035 17.5118 -10.8566 11.4806
# 3 46.5017 73.1035 199.1871 17.3125 0.8600 -12.1055
# 4 16.1836 17.5118 17.3125 32.8366 -9.6160 -0.9650
# 5 -3.7941 -10.8566 0.8600 -9.6160 31.6099 6.1898
# 6 2.9924 11.4806 -12.1055 -0.9650 6.1898 41.4247
#
#
#
# Elastic Compliance Matrix: (Units=1/GPa)
#
#
# Indices 1 2 3 4 5 6 
#
# 1 0.007038 -0.003505 -0.000165 -0.001791 -0.001001 0.000523
# 2 -0.003505 0.010618 -0.003244 -0.001248 0.003763 -0.004229
# 3 -0.000165 -0.003244 0.006663 -0.002389 -0.002669 0.003201
# 4 -0.001791 -0.001248 -0.002389 0.036358 0.010672 -0.000971
# 5 -0.001001 0.003763 -0.002669 0.010672 0.037519 -0.007108
# 6 0.000523 -0.004229 0.003201 -0.000971 -0.007108 0.027249
#
#
# Mechanical properties :
#
#
# Convention : Reuss Voigt Hill
#
# Bulk Modulus (GPa) = 95.30583 104.29862 99.80222
# Shear Modulus (GPa) = 35.02142 43.79499 39.40820
#
# Velocity S-wave (km/s) = 3.89384 4.35436 4.13052
# Velocity P-wave (km/s) = 7.84075 8.39257 8.12135
#
# Compressibility (1/GPa) = 0.01049254
#
# Stress axis : x y z
#
# Youngs Moduli (GPa) = 142.08616 94.17880 150.07987
#
# Poissons Ratio (x) = 0.33006 0.02478
# Poissons Ratio (y) = 0.49796 0.48680
# Poissons Ratio (z) = 0.02346 0.30548
#
# Static dielectric constant tensor:
#      x y z
#    x 1.906840 0.010730 -0.006370 
#    y 0.010730 1.946630 -0.058160 
#    z -0.006370 -0.058160 1.909340 
# 
# From -- ./inp_files/135670.got.cif
#   From: 2010.05.17/outbox.cif.g08.bks.cpg/sg2_68_cif.got.tgz:135670.got - 2010.06.03 11:33:40.
