data_PCOD9049346
_publ_section_title
;
Structure prediction by ZEFSAII (Michael W. Deem and Ramdas Pophale) SiO2 
 PCOD9049346
Probable space group: P -1
;
_chemical_formula_sum "Si O2"
_cell_formula_units_Z 13
_cell_length_a 13.780130
_cell_length_b 16.958113
_cell_length_c 5.325653
_cell_angle_alpha 86.931376
_cell_angle_beta 75.576276
_cell_angle_gamma 149.697226
_cell_volume 508.055058
_symmetry_space_group_name_H-M "P -1"
_symmetry_group_IT_number 2
_symmetry_cell_setting 'triclinic'
loop_
_space_group_symop_operation_xyz
x,y,z
-x,-y,-z
loop_
_atom_site_type_symbol
_atom_site_label
_atom_site_fract_x
_atom_site_fract_y
_atom_site_fract_z
Si Si1 0.996938 0.195644 0.827721
Si Si2 0.375564 0.138174 0.216957
Si Si3 0.131005 0.564965 0.652953
Si Si4 0.588391 0.974303 0.434413
Si Si5 0.745707 0.816106 0.325254
Si Si6 0.291087 0.523480 0.353331
Si Si7 0.500000 0.500000 0.500000
O O1 0.100707 0.318822 0.501332
O O2 0.234261 0.338976 0.796446
O O3 0.812248 0.000691 0.864938
O O4 0.838615 0.138620 0.114707
O O5 0.416948 0.079073 0.295095
O O6 0.275460 0.120489 0.508224
O O7 0.615957 0.355023 0.948045
O O8 0.390041 0.787872 0.433771
O O9 0.178731 0.505847 0.622875
O O10 0.000000 0.500000 0.500000
O O11 0.000000 0.500000 0.000000
O O12 0.500000 0.000000 0.500000
O O13 0.531248 0.654516 0.285084
O O14 0.656400 0.674761 0.558164
O O15 0.000000 0.000000 0.000000
#
# Coordination Sequence:
#
# PCOD9049346 Si02
#       7
#     2   2   2   2   2   2   1
#     4  11  26  47  74 110 151 200 258 320 389 476
#     4  12  24  47  76 108 151 200 259 320 394 467
#     4  12  26  46  75 110 153 204 263 325 400 471
#     4  12  27  48  74 110 156 204 261 327 390 477
#     4  11  24  45  74 104 149 193 250 320 392 468
#     4  11  25  45  70 106 149 195 253 314 389 462
#     4  10  24  46  72 108 146 192 254 314 394 466
#
# _framework density 25.587776999999999
#
# number of rings (size 3 to 8) (size 9 to 14) (size 15 to 20)
#    0.000    0.615    3.077    3.692    2.154    6.769 
#    0.000    5.385    0.000    0.000    0.000    0.000 
#    0.000    0.000    0.000    0.000    0.000    0.000 
#
# Total GULP energy -72465.470260 kJ/mol
# GULP energy per Si atom -5574.266943 kJ/mol
# Density = 2.552954 g / cm^3
# Si number density = 25.587777 Si / 1000 Ang^3
#
#
#
# Elastic Constant Matrix: (Units=GPa)
#
#
# Indices 1 2 3 4 5 6 
#
# 1 73.1805 6.2509 46.9774 -3.0870 -13.6535 7.4865
# 2 6.2509 65.4055 25.4593 -20.1956 -0.6866 13.0674
# 3 46.9774 25.4593 164.0650 -14.9768 -15.1987 17.0241
# 4 -3.0870 -20.1956 -14.9768 45.0591 -1.0261 -0.4636
# 5 -13.6535 -0.6866 -15.1987 -1.0261 52.3952 -9.8616
# 6 7.4865 13.0674 17.0241 -0.4636 -9.8616 45.6239
#
#
#
# Elastic Compliance Matrix: (Units=1/GPa)
#
#
# Indices 1 2 3 4 5 6 
#
# 1 0.017247 0.000237 -0.004659 -0.000196 0.003048 -0.000503
# 2 0.000237 0.019497 -0.001932 0.008037 -0.001035 -0.005044
# 3 -0.004659 -0.001932 0.008102 0.001512 0.000857 -0.001505
# 4 -0.000196 0.008037 0.001512 0.026272 0.000546 -0.002449
# 5 0.003048 -0.001035 0.000857 0.000546 0.020878 0.003995
# 6 -0.000503 -0.005044 -0.001505 -0.002449 0.003995 0.024846
#
#
# Mechanical properties :
#
#
# Convention : Reuss Voigt Hill
#
# Bulk Modulus (GPa) = 31.11486 51.11402 41.11444
# Shear Modulus (GPa) = 35.64743 43.54655 39.59699
#
# Velocity S-wave (km/s) = 3.73653 4.12982 3.93809
# Velocity P-wave (km/s) = 5.54996 6.53911 6.06473
#
# Compressibility (1/GPa) = 0.03213899
#
# Stress axis : x y z
#
# Youngs Moduli (GPa) = 57.98154 51.28891 123.41897
#
# Poissons Ratio (x) = -0.01215 0.57495
# Poissons Ratio (y) = -0.01373 0.23847
# Poissons Ratio (z) = 0.27011 0.09910
#
# Static dielectric constant tensor:
#      x y z
#    x 2.873360 -0.113860 0.111120 
#    y -0.113860 2.016740 0.044470 
#    z 0.111120 0.044470 2.019810 
# 
# From -- ./inp_files/99374.got.cif
#   From: 2010.05.17/outbox.cif.g08.bks.cpg/sg2_50_cif.got.tgz:99374.got - 2010.06.03 11:33:40.
