data_PCOD9049486
_publ_section_title
;
Structure prediction by ZEFSAII (Michael W. Deem and Ramdas Pophale) SiO2 
 PCOD9049486
Probable space group: P -1
;
_chemical_formula_sum "Si O2"
_cell_formula_units_Z 12
_cell_length_a 4.836369
_cell_length_b 15.791850
_cell_length_c 19.415850
_cell_angle_alpha 22.123409
_cell_angle_beta 52.585523
_cell_angle_gamma 54.937067
_cell_volume 443.227849
_symmetry_space_group_name_H-M "P -1"
_symmetry_group_IT_number 2
_symmetry_cell_setting 'triclinic'
loop_
_space_group_symop_operation_xyz
x,y,z
-x,-y,-z
loop_
_atom_site_type_symbol
_atom_site_label
_atom_site_fract_x
_atom_site_fract_y
_atom_site_fract_z
Si Si1 0.275222 0.472631 0.838913
Si Si2 0.645892 0.417214 0.467143
Si Si3 0.506999 0.430122 0.130309
Si Si4 0.594387 0.025165 0.562962
Si Si5 0.089600 0.835553 0.046789
Si Si6 0.187217 0.108776 0.687704
O O1 0.251827 0.448859 0.943287
O O2 0.476509 0.706981 0.630494
O O3 0.519627 0.272476 0.925148
O O4 0.900442 0.514252 0.830280
O O5 0.500000 0.500000 0.500000
O O6 0.352102 0.333792 0.523424
O O7 0.842568 0.624305 0.249179
O O8 0.880796 0.194109 0.618723
O O9 0.583399 0.160814 0.316855
O O10 0.500000 0.500000 0.000000
O O11 0.472606 0.977403 0.695805
O O12 0.000000 0.000000 0.500000
O O13 0.071193 0.970888 0.875690
O O14 0.000000 0.000000 0.000000
#
# Coordination Sequence:
#
# PCOD9049486 Si02
#       6
#     2   2   2   2   2   2
#     4  11  25  45  70 106 148 193 246 312 374 452
#     4  12  28  51  78 112 156 201 262 322 385 455
#     4  11  24  45  72 107 144 192 252 306 378 455
#     4  10  24  46  75 106 151 196 245 311 380 448
#     4  12  28  51  80 115 155 206 262 318 385 465
#     4  12  28  50  78 113 154 205 252 322 390 453
#
# _framework density 27.074113000000001
#
# number of rings (size 3 to 8) (size 9 to 14) (size 15 to 20)
#    0.000    0.667    3.333    2.500    4.667    8.667 
#    0.000    0.000    0.000    0.000    0.000    0.000 
#    0.000    0.000    0.000    0.000    0.000    0.000 
#
# Total GULP energy -67289.500465 kJ/mol
# GULP energy per Si atom -5607.458372 kJ/mol
# Density = 2.701249 g / cm^3
# Si number density = 27.074113 Si / 1000 Ang^3
#
#
#
# Elastic Constant Matrix: (Units=GPa)
#
#
# Indices 1 2 3 4 5 6 
#
# 1 109.4203 19.2391 16.5691 -3.2557 1.0831 7.9145
# 2 19.2391 195.0628 36.8929 5.6233 1.8746 16.1841
# 3 16.5691 36.8929 167.9511 9.1505 5.8804 -4.2132
# 4 -3.2557 5.6233 9.1505 54.0435 6.9462 0.9596
# 5 1.0831 1.8746 5.8804 6.9462 44.3967 -4.6965
# 6 7.9145 16.1841 -4.2132 0.9596 -4.6965 33.1143
#
#
#
# Elastic Compliance Matrix: (Units=1/GPa)
#
#
# Indices 1 2 3 4 5 6 
#
# 1 0.009572 -0.000614 -0.000897 0.000890 -0.000460 -0.002193
# 2 -0.000614 0.005665 -0.001226 -0.000329 -0.000308 -0.002812
# 3 -0.000897 -0.001226 0.006421 -0.000984 -0.000454 0.001594
# 4 0.000890 -0.000329 -0.000984 0.019164 -0.002998 -0.001158
# 5 -0.000460 -0.000308 -0.000454 -0.002998 0.023460 0.003617
# 6 -0.002193 -0.002812 0.001594 -0.001158 0.003617 0.032846
#
#
# Mechanical properties :
#
#
# Convention : Reuss Voigt Hill
#
# Bulk Modulus (GPa) = 61.78258 68.64847 65.21553
# Shear Modulus (GPa) = 46.29763 52.95979 49.62871
#
# Velocity S-wave (km/s) = 4.13974 4.42758 4.28608
# Velocity P-wave (km/s) = 6.76160 7.17975 6.97381
#
# Compressibility (1/GPa) = 0.01618579
#
# Stress axis : x y z
#
# Youngs Moduli (GPa) = 104.46602 176.53379 155.73129
#
# Poissons Ratio (x) = 0.10835 0.13968
# Poissons Ratio (y) = 0.06412 0.19086
# Poissons Ratio (z) = 0.09370 0.21636
#
# Static dielectric constant tensor:
#      x y z
#    x 2.055680 -0.017140 0.029390 
#    y -0.017140 2.153180 0.085530 
#    z 0.029390 0.085530 2.286720 
# 
# From -- ./inp_files/133696.got.cif
#   From: 2010.05.17/outbox.cif.g08.bks.cpg/sg2_67_cif.got.tgz:133696.got - 2010.06.03 11:33:40.
