data_PCOD9049512
_publ_section_title
;
Structure prediction by ZEFSAII (Michael W. Deem and Ramdas Pophale) SiO2 
 PCOD9049512
Probable space group: P -1
;
_chemical_formula_sum "Si O2"
_cell_formula_units_Z 13
_cell_length_a 9.929422
_cell_length_b 7.867679
_cell_length_c 11.957896
_cell_angle_alpha 47.736060
_cell_angle_beta 70.203689
_cell_angle_gamma 101.216454
_cell_volume 517.203592
_symmetry_space_group_name_H-M "P -1"
_symmetry_group_IT_number 2
_symmetry_cell_setting 'triclinic'
loop_
_space_group_symop_operation_xyz
x,y,z
-x,-y,-z
loop_
_atom_site_type_symbol
_atom_site_label
_atom_site_fract_x
_atom_site_fract_y
_atom_site_fract_z
Si Si1 0.000000 0.500000 0.500000
Si Si2 0.631654 0.619537 0.268423
Si Si3 0.913504 0.534209 0.309845
Si Si4 0.256523 0.099817 0.326730
Si Si5 0.318508 0.505287 0.936681
Si Si6 0.793017 0.776608 0.465393
Si Si7 0.153778 0.814087 0.910550
O O1 0.067274 0.728907 0.270437
O O2 0.848549 0.566351 0.539215
O O3 0.744828 0.536378 0.341470
O O4 0.686012 0.621779 0.124883
O O5 0.417395 0.393033 0.432536
O O6 0.698738 0.922285 0.167545
O O7 0.849388 0.237936 0.524893
O O8 0.997850 0.592372 0.139037
O O9 0.467779 0.251509 0.207761
O O10 0.189620 0.115154 0.460126
O O11 0.238907 0.276006 0.160874
O O12 0.230924 0.669568 0.891019
O O13 0.895121 0.041870 0.231492
#
# Coordination Sequence:
#
# PCOD9049512 Si02
#       7
#     1   2   2   2   2   2   2
#     4  12  28  42  68 108 144 184 230 306 354 422
#     4  11  25  48  76 108 139 196 240 296 351 443
#     4  12  27  45  72 106 148 188 239 293 369 419
#     4  10  24  48  71 106 147 188 236 303 358 429
#     4  10  24  46  76 107 143 188 247 293 359 424
#     4  11  25  48  74 104 145 187 246 289 366 422
#     4  12  25  44  75 108 144 190 241 294 354 436
#
# _framework density 25.135172000000001
#
# number of rings (size 3 to 8) (size 9 to 14) (size 15 to 20)
#    0.000    0.923    1.538    3.692    4.308    7.385 
#    0.000    3.077    0.000    0.000    0.000    0.000 
#    0.000    0.000    0.000    0.000    0.000    0.000 
#
# Total GULP energy -72635.897793 kJ/mol
# GULP energy per Si atom -5587.376753 kJ/mol
# Density = 2.507796 g / cm^3
# Si number density = 25.135172 Si / 1000 Ang^3
#
#
#
# Elastic Constant Matrix: (Units=GPa)
#
#
# Indices 1 2 3 4 5 6 
#
# 1 178.7111 50.7731 69.0816 4.6326 25.6773 -10.1113
# 2 50.7731 143.4463 61.0778 9.3870 1.2583 -15.6083
# 3 69.0816 61.0778 148.1656 19.5022 17.2022 -5.1363
# 4 4.6326 9.3870 19.5022 53.4580 3.2290 -0.2206
# 5 25.6773 1.2583 17.2022 3.2290 28.9552 5.5353
# 6 -10.1113 -15.6083 -5.1363 -0.2206 5.5353 48.4907
#
#
#
# Elastic Compliance Matrix: (Units=1/GPa)
#
#
# Indices 1 2 3 4 5 6 
#
# 1 0.007889 -0.001611 -0.002385 0.000832 -0.005898 0.001551
# 2 -0.001611 0.009116 -0.003181 -0.000449 0.002597 0.001963
# 3 -0.002385 -0.003181 0.009902 -0.002647 -0.003314 -0.000106
# 4 0.000832 -0.000449 -0.002647 0.019760 -0.001348 -0.000008
# 5 -0.005898 0.002597 -0.003314 -0.001348 0.042851 -0.005643
# 6 0.001551 0.001963 -0.000106 -0.000008 -0.005643 0.022211
#
#
# Mechanical properties :
#
#
# Convention : Reuss Voigt Hill
#
# Bulk Modulus (GPa) = 79.66210 92.46533 86.06371
# Shear Modulus (GPa) = 38.38247 45.47349 41.92798
#
# Velocity S-wave (km/s) = 3.91198 4.25803 4.08867
# Velocity P-wave (km/s) = 7.22268 7.81291 7.52358
#
# Compressibility (1/GPa) = 0.01255302
#
# Stress axis : x y z
#
# Youngs Moduli (GPa) = 126.76148 109.69604 100.98759
#
# Poissons Ratio (x) = 0.17668 0.24087
# Poissons Ratio (y) = 0.20417 0.32127
# Poissons Ratio (z) = 0.30235 0.34897
#
# Static dielectric constant tensor:
#      x y z
#    x 2.567150 1.192120 0.075050 
#    y 1.192120 4.032180 0.195510 
#    z 0.075050 0.195510 1.975060 
# 
# From -- ./inp_files/152091.got.cif
#   From: 2010.05.17/outbox.cif.g08.bks.cpg/sg2_77_cif.got.tgz:152091.got - 2010.06.03 11:33:40.
