data_PCOD9049027
_publ_section_title
;
Structure prediction by ZEFSAII (Michael W. Deem and Ramdas Pophale) SiO2 
 PCOD9049027
Probable space group: P -1
;
_chemical_formula_sum "Si O2"
_cell_formula_units_Z 11
_cell_length_a 6.577027
_cell_length_b 13.225696
_cell_length_c 14.166664
_cell_angle_alpha 150.332314
_cell_angle_beta 57.010315
_cell_angle_gamma 125.059815
_cell_volume 496.136750
_symmetry_space_group_name_H-M "P -1"
_symmetry_group_IT_number 2
_symmetry_cell_setting 'triclinic'
loop_
_space_group_symop_operation_xyz
x,y,z
-x,-y,-z
loop_
_atom_site_type_symbol
_atom_site_label
_atom_site_fract_x
_atom_site_fract_y
_atom_site_fract_z
Si Si1 0.181413 0.841310 0.071200
Si Si2 0.426285 0.109963 0.393944
Si Si3 0.500000 0.000000 0.500000
Si Si4 0.992299 0.127388 0.201700
Si Si5 0.572954 0.583472 0.757034
Si Si6 0.298231 0.511965 0.140780
O O1 0.424201 0.760474 0.917762
O O2 0.955900 0.634916 0.953628
O O3 0.231640 0.949647 0.248134
O O4 0.111591 0.011593 0.158475
O O5 0.406702 0.032823 0.443074
O O6 0.709196 0.119679 0.294913
O O7 0.408867 0.351095 0.586880
O O8 0.682585 0.243770 0.648471
O O9 0.175184 0.353447 0.316520
O O10 0.000000 0.000000 0.000000
O O11 0.638980 0.581411 0.850169
O O12 0.500000 0.500000 0.000000
#
# Coordination Sequence:
#
# PCOD9049027 Si02
#       6
#     2   2   1   2   2   2
#     4  12  24  43  71 102 132 178 229 280 334 404
#     4  11  26  45  70 102 137 180 228 277 335 403
#     4  10  24  46  66  94 134 176 222 274 336 394
#     4  12  23  45  70  99 142 179 221 279 342 397
#     4  11  25  43  67 101 139 178 222 280 337 400
#     4  11  24  44  68  95 137 180 223 278 340 395
#
# _framework density 22.171303999999999
#
# number of rings (size 3 to 8) (size 9 to 14) (size 15 to 20)
#    0.000    0.727    3.636    3.273    0.000    8.000 
#    0.000    6.364    0.000    0.000    0.000    0.000 
#    0.000    0.000    0.000    0.000    0.000    0.000 
#
# Total GULP energy -61285.574664 kJ/mol
# GULP energy per Si atom -5571.415879 kJ/mol
# Density = 2.212084 g / cm^3
# Si number density = 22.171304 Si / 1000 Ang^3
#
#
#
# Elastic Constant Matrix: (Units=GPa)
#
#
# Indices 1 2 3 4 5 6 
#
# 1 79.9080 36.6566 49.6878 6.2402 28.7088 0.0967
# 2 36.6566 107.5306 22.6997 14.7064 20.2753 -8.4384
# 3 49.6878 22.6997 106.3805 16.5503 41.8381 -13.6084
# 4 6.2402 14.7064 16.5503 9.4113 9.9682 10.1516
# 5 28.7088 20.2753 41.8381 9.9682 47.5243 1.2459
# 6 0.0967 -8.4384 -13.6084 10.1516 1.2459 30.4734
#
#
#
# Elastic Compliance Matrix: (Units=1/GPa)
#
#
# Indices 1 2 3 4 5 6 
#
# 1 0.003433 0.014096 0.020365 -0.108482 -0.004555 0.049311
# 2 0.014096 -0.009470 -0.029197 0.118576 -0.002198 -0.055117
# 3 0.020365 -0.029197 -0.026647 0.174331 -0.010917 -0.077678
# 4 -0.108482 0.118576 0.174331 -0.663871 -0.007999 0.332511
# 5 -0.004555 -0.002198 -0.010917 -0.007999 0.036132 -0.004282
# 6 0.049311 -0.055117 -0.077678 0.332511 -0.004282 -0.127886
#
#
# Mechanical properties :
#
#
# Convention : Reuss Voigt Hill
#
# Bulk Modulus (GPa) = -45.13502 56.87858 5.87178
# Shear Modulus (GPa) = -6.20177 29.80014 11.79919
#
# Velocity S-wave (km/s) = -1.67430 3.67016 2.30941
# Velocity P-wave (km/s) = 4.91318 6.60832 3.12495
#
# Compressibility (1/GPa) = -0.02215575
#
# Stress axis : x y z
#
# Youngs Moduli (GPa) = 291.27190 -105.59761 -37.52792
#
# Poissons Ratio (x) = 1.48846 0.76427
# Poissons Ratio (y) = -4.10565 -1.09570
# Poissons Ratio (z) = -5.93184 -3.08314
#
# Static dielectric constant tensor:
#      x y z
#    x 1.861050 0.082680 -0.037950 
#    y 0.082680 1.850140 0.006630 
#    z -0.037950 0.006630 1.842380 
# 
# From -- ./inp_files/265126.got.cif
#   From: 2010.05.17/outbox.cif.g08.bks.cpg/sg2_133_cif.got.tgz:265126.got - 2010.06.03 11:33:40.
