data_PCOD9049337
_publ_section_title
;
Structure prediction by ZEFSAII (Michael W. Deem and Ramdas Pophale) SiO2 
 PCOD9049337
Probable space group: P -1
;
_chemical_formula_sum "Si O2"
_cell_formula_units_Z 14
_cell_length_a 19.215491
_cell_length_b 4.814141
_cell_length_c 5.671710
_cell_angle_alpha 90.681392
_cell_angle_beta 102.410265
_cell_angle_gamma 94.387704
_cell_volume 510.690089
_symmetry_space_group_name_H-M "P -1"
_symmetry_group_IT_number 2
_symmetry_cell_setting 'triclinic'
loop_
_space_group_symop_operation_xyz
x,y,z
-x,-y,-z
loop_
_atom_site_type_symbol
_atom_site_label
_atom_site_fract_x
_atom_site_fract_y
_atom_site_fract_z
Si Si1 0.778531 0.228213 0.791154
Si Si2 0.313984 0.227486 0.076431
Si Si3 0.579937 0.072467 0.143783
Si Si4 0.418262 0.426955 0.526022
Si Si5 0.924628 0.385859 0.042294
Si Si6 0.227506 0.902221 0.694226
Si Si7 0.922765 0.894993 0.340956
O O1 0.745949 0.257378 0.511503
O O2 0.751467 0.896113 0.803257
O O3 0.856800 0.390619 0.826082
O O4 0.766813 0.282701 0.063547
O O5 0.361495 0.447953 0.271281
O O6 0.372598 0.012951 0.041500
O O7 0.272831 0.190197 0.796315
O O8 0.591867 0.384728 0.248888
O O9 0.410004 0.115073 0.619056
O O10 0.500000 0.000000 0.000000
O O11 0.500000 0.500000 0.500000
O O12 0.922583 0.058960 0.094029
O O13 0.916105 0.569428 0.273902
O O14 0.000000 0.500000 0.000000
O O15 0.147451 0.994994 0.590757
O O16 0.000000 0.000000 0.500000
#
# Coordination Sequence:
#
# PCOD9049337 Si02
#       7
#     2   2   2   2   2   2   2
#     4   9  21  45  67 105 144 193 244 301 374 443
#     4  10  24  46  72 106 156 198 250 314 378 456
#     4  12  26  47  76 112 149 196 256 313 379 452
#     4  12  26  47  76 112 149 196 256 313 379 452
#     4  11  23  43  71 106 142 191 248 311 371 445
#     4   9  21  45  67 105 144 193 244 301 374 443
#     4  11  23  43  71 106 142 191 248 311 371 445
#
# _framework density 27.413889000000001
#
# number of rings (size 3 to 8) (size 9 to 14) (size 15 to 20)
#    0.857    0.571    1.429    3.429    0.000    2.286 
#   10.286    0.000    0.000    0.000    0.000    0.000 
#    0.000    0.000    0.000    0.000    0.000    0.000 
#
# Total GULP energy -77986.354659 kJ/mol
# GULP energy per Si atom -5570.453904 kJ/mol
# Density = 2.735149 g / cm^3
# Si number density = 27.413889 Si / 1000 Ang^3
#
#
#
# Elastic Constant Matrix: (Units=GPa)
#
#
# Indices 1 2 3 4 5 6 
#
# 1 174.3940 27.6929 38.2208 34.9593 16.2118 22.8885
# 2 27.6929 68.6791 27.7890 13.7473 2.0742 9.7057
# 3 38.2208 27.7890 197.5507 34.3937 10.7537 -3.8771
# 4 34.9593 13.7473 34.3937 58.3735 10.7267 2.4163
# 5 16.2118 2.0742 10.7537 10.7267 46.2087 18.8728
# 6 22.8885 9.7057 -3.8771 2.4163 18.8728 40.1951
#
#
#
# Elastic Compliance Matrix: (Units=1/GPa)
#
#
# Indices 1 2 3 4 5 6 
#
# 1 0.007289 -0.001459 -0.000670 -0.003468 -0.000047 -0.003632
# 2 -0.001459 0.016946 -0.001936 -0.002262 0.002573 -0.004520
# 3 -0.000670 -0.001936 0.006025 -0.002526 -0.001410 0.002244
# 4 -0.003468 -0.002262 -0.002526 0.021916 -0.004421 0.003036
# 5 -0.000047 0.002573 -0.001410 -0.004421 0.028564 -0.013876
# 6 -0.003632 -0.004520 0.002244 0.003036 -0.013876 0.034588
#
#
# Mechanical properties :
#
#
# Convention : Reuss Voigt Hill
#
# Bulk Modulus (GPa) = 45.19010 69.78102 57.48556
# Shear Modulus (GPa) = 38.21627 52.08353 45.14990
#
# Velocity S-wave (km/s) = 3.73775 4.36351 4.06269
# Velocity P-wave (km/s) = 5.92856 7.13420 6.55914
#
# Compressibility (1/GPa) = 0.02212874
#
# Stress axis : x y z
#
# Youngs Moduli (GPa) = 137.19394 59.01053 165.98540
#
# Poissons Ratio (x) = 0.08610 0.11120
# Poissons Ratio (y) = 0.20018 0.32142
# Poissons Ratio (z) = 0.09191 0.11427
#
# Static dielectric constant tensor:
#      x y z
#    x 2.264460 -0.112170 -0.036620 
#    y -0.112170 2.208700 -0.068780 
#    z -0.036620 -0.068780 2.129050 
# 
# From -- ./inp_files/121266.got.cif
#   From: 2010.05.17/outbox.cif.g08.bks.cpg/sg2_61_cif.got.tgz:121266.got - 2010.06.03 11:33:40.
