data_PCOD9049395
_publ_section_title
;
Structure prediction by ZEFSAII (Michael W. Deem and Ramdas Pophale) SiO2 
 PCOD9049395
Probable space group: P -1
;
_chemical_formula_sum "Si O2"
_cell_formula_units_Z 13
_cell_length_a 8.653951
_cell_length_b 9.120960
_cell_length_c 11.275864
_cell_angle_alpha 61.616651
_cell_angle_beta 125.190212
_cell_angle_gamma 83.797075
_cell_volume 542.141482
_symmetry_space_group_name_H-M "P -1"
_symmetry_group_IT_number 2
_symmetry_cell_setting 'triclinic'
loop_
_space_group_symop_operation_xyz
x,y,z
-x,-y,-z
loop_
_atom_site_type_symbol
_atom_site_label
_atom_site_fract_x
_atom_site_fract_y
_atom_site_fract_z
Si Si1 0.726844 0.365529 0.413008
Si Si2 0.000000 0.000000 0.000000
Si Si3 0.618352 0.705593 0.058443
Si Si4 0.853152 0.774946 0.670563
Si Si5 0.915369 0.391407 0.721329
Si Si6 0.883039 0.043947 0.211085
Si Si7 0.549772 0.798575 0.722665
O O1 0.668840 0.513447 0.224098
O O2 0.751258 0.451984 0.513626
O O3 0.547620 0.301564 0.364473
O O4 0.962810 0.163123 0.574667
O O5 0.105760 0.758294 0.146422
O O6 0.970264 0.009249 0.128303
O O7 0.827888 0.727110 0.166479
O O8 0.375787 0.875399 0.927987
O O9 0.602683 0.702295 0.911064
O O10 0.891150 0.582048 0.698509
O O11 0.762366 0.778454 0.761424
O O12 0.059274 0.804837 0.761281
O O13 0.645483 0.971731 0.443743
#
# Coordination Sequence:
#
# PCOD9049395 Si02
#       7
#     2   1   2   2   2   2   2
#     4  10  25  47  66 109 146 186 234 301 353 425
#     4  10  24  48  68 102 140 190 232 298 348 422
#     4  12  26  44  76 109 139 197 237 288 364 437
#     4  10  24  47  75 106 144 192 236 305 351 423
#     4  11  26  47  74 101 151 184 244 296 360 418
#     4  10  25  47  74 105 151 181 243 298 354 423
#     4  10  24  46  73 106 144 189 247 286 362 422
#
# _framework density 23.978978999999999
#
# number of rings (size 3 to 8) (size 9 to 14) (size 15 to 20)
#    0.000    1.538    0.000    1.846    8.615    6.769 
#   13.846    0.000    0.000    0.000    0.000    0.000 
#    0.000    0.000    0.000    0.000    0.000    0.000 
#
# Total GULP energy -72551.669531 kJ/mol
# GULP energy per Si atom -5580.897656 kJ/mol
# Density = 2.392440 g / cm^3
# Si number density = 23.978979 Si / 1000 Ang^3
#
#
#
# Elastic Constant Matrix: (Units=GPa)
#
#
# Indices 1 2 3 4 5 6 
#
# 1 31.3717 -8.3331 28.3502 -3.1176 1.6220 -0.8927
# 2 -8.3331 110.3352 11.9328 -6.3197 -4.9019 2.8538
# 3 28.3502 11.9328 83.7721 -15.4988 -21.3639 0.1420
# 4 -3.1176 -6.3197 -15.4988 33.8704 11.5673 -0.6742
# 5 1.6220 -4.9019 -21.3639 11.5673 34.7970 1.8073
# 6 -0.8927 2.8538 0.1420 -0.6742 1.8073 21.4908
#
#
#
# Elastic Compliance Matrix: (Units=1/GPa)
#
#
# Indices 1 2 3 4 5 6 
#
# 1 0.056357 0.006088 -0.024088 0.001213 -0.017126 0.003170
# 2 0.006088 0.009943 -0.003621 0.001245 -0.001474 -0.000881
# 3 -0.024088 -0.003621 0.025055 0.003430 0.014951 -0.001835
# 4 0.001213 0.001245 0.003430 0.034681 -0.009395 0.001740
# 5 -0.017126 -0.001474 0.014951 -0.009395 0.041861 -0.004430
# 6 0.003170 -0.000881 -0.001835 0.001740 -0.004430 0.047219
#
#
# Mechanical properties :
#
#
# Convention : Reuss Voigt Hill
#
# Bulk Modulus (GPa) = 20.78394 32.15319 26.46857
# Shear Modulus (GPa) = 18.22175 30.93358 24.57766
#
# Velocity S-wave (km/s) = 2.75963 3.59559 3.20498
# Velocity P-wave (km/s) = 4.34056 5.53857 4.97575
#
# Compressibility (1/GPa) = 0.04811407
#
# Stress axis : x y z
#
# Youngs Moduli (GPa) = 17.74387 100.57044 39.91154
#
# Poissons Ratio (x) = -0.61229 0.96140
# Poissons Ratio (y) = -0.10803 0.14452
# Poissons Ratio (z) = 0.42742 0.36416
#
# Static dielectric constant tensor:
#      x y z
#    x 1.975330 -0.143880 0.037920 
#    y -0.143880 2.291770 -0.017310 
#    z 0.037920 -0.017310 1.885110 
# 
# From -- ./inp_files/378094.got.cif
#   From: 2010.05.17/outbox.cif.g08.bks.cpg/sg2_190_cif.got.tgz:378094.got - 2010.06.03 11:33:40.
