data_PCOD9049525
_publ_section_title
;
Structure prediction by ZEFSAII (Michael W. Deem and Ramdas Pophale) SiO2 
 PCOD9049525
Probable space group: P -1
;
_chemical_formula_sum "Si O2"
_cell_formula_units_Z 14
_cell_length_a 11.161096
_cell_length_b 10.168648
_cell_length_c 5.027456
_cell_angle_alpha 104.872136
_cell_angle_beta 98.703202
_cell_angle_gamma 81.171842
_cell_volume 541.180133
_symmetry_space_group_name_H-M "P -1"
_symmetry_group_IT_number 2
_symmetry_cell_setting 'triclinic'
loop_
_space_group_symop_operation_xyz
x,y,z
-x,-y,-z
loop_
_atom_site_type_symbol
_atom_site_label
_atom_site_fract_x
_atom_site_fract_y
_atom_site_fract_z
Si Si1 0.343013 0.629394 0.356062
Si Si2 0.795609 0.022842 0.016010
Si Si3 0.744819 0.617366 0.593359
Si Si4 0.422573 0.775443 0.976746
Si Si5 0.698197 0.798273 0.161266
Si Si6 0.930582 0.410080 0.729043
Si Si7 0.011218 0.128021 0.377839
O O1 0.359289 0.479109 0.418640
O O2 0.375902 0.732222 0.650710
O O3 0.414392 0.655299 0.126391
O O4 0.197792 0.641029 0.236454
O O5 0.755243 0.938849 0.212802
O O6 0.877166 0.916265 0.801868
O O7 0.673499 0.098644 0.889345
O O8 0.885397 0.134682 0.173988
O O9 0.708056 0.723965 0.407187
O O10 0.000000 0.500000 0.000000
O O11 0.866869 0.511727 0.529760
O O12 0.557030 0.817861 0.038097
O O13 0.763571 0.693901 0.913321
O O14 0.988331 0.728082 0.404561
O O15 0.000000 0.000000 0.500000
#
# Coordination Sequence:
#
# PCOD9049525 Si02
#       7
#     2   2   2   2   2   2   2
#     4  10  24  46  76 110 154 198 268 318 402 468
#     4  11  27  47  76 116 155 206 275 320 409 476
#     4  10  26  47  72 116 156 201 269 322 400 475
#     4  12  24  49  79 111 157 210 269 327 398 469
#     4  12  27  47  75 115 160 211 259 336 389 482
#     4  10  24  50  82 116 158 208 265 336 402 476
#     4  11  25  50  82 108 159 208 262 338 401 476
#
# _framework density 25.869391
#
# number of rings (size 3 to 8) (size 9 to 14) (size 15 to 20)
#    0.857    0.286    1.429    3.000    4.000    3.429 
#    2.571    7.143    0.000    0.000    0.000    0.000 
#    0.000    0.000    0.000    0.000    0.000    0.000 
#
# Total GULP energy -78429.906255 kJ/mol
# GULP energy per Si atom -5602.136161 kJ/mol
# Density = 2.581051 g / cm^3
# Si number density = 25.869391 Si / 1000 Ang^3
#
#
#
# Elastic Constant Matrix: (Units=GPa)
#
#
# Indices 1 2 3 4 5 6 
#
# 1 127.2099 55.8625 49.6590 7.9798 21.9770 5.0717
# 2 55.8625 128.4234 40.1122 -2.2080 2.5530 6.1155
# 3 49.6590 40.1122 129.8908 10.8765 13.2565 6.9777
# 4 7.9798 -2.2080 10.8765 48.9960 7.8759 -6.0992
# 5 21.9770 2.5530 13.2565 7.8759 39.3780 -4.0468
# 6 5.0717 6.1155 6.9777 -6.0992 -4.0468 47.7639
#
#
#
# Elastic Compliance Matrix: (Units=1/GPa)
#
#
# Indices 1 2 3 4 5 6 
#
# 1 0.011677 -0.004156 -0.002523 -0.000783 -0.005333 -0.000891
# 2 -0.004156 0.010162 -0.001840 0.001186 0.002015 -0.000269
# 3 -0.002523 -0.001840 0.009594 -0.001718 -0.001487 -0.001243
# 4 -0.000783 0.001186 -0.001718 0.021814 -0.003147 0.002701
# 5 -0.005333 0.002015 -0.001487 -0.003147 0.029641 0.002635
# 6 -0.000891 -0.000269 -0.001243 0.002701 0.002635 0.021815
#
#
# Mechanical properties :
#
#
# Convention : Reuss Voigt Hill
#
# Bulk Modulus (GPa) = 69.46873 75.19906 72.33389
# Shear Modulus (GPa) = 39.51282 43.22026 41.36654
#
# Velocity S-wave (km/s) = 3.91243 4.09187 4.00315
# Velocity P-wave (km/s) = 6.87906 7.17331 7.02772
#
# Compressibility (1/GPa) = 0.01439497
#
# Stress axis : x y z
#
# Youngs Moduli (GPa) = 85.63717 98.40102 104.23302
#
# Poissons Ratio (x) = 0.40899 0.26299
# Poissons Ratio (y) = 0.35594 0.19177
# Poissons Ratio (z) = 0.21607 0.18104
#
# Static dielectric constant tensor:
#      x y z
#    x 2.059740 -0.025160 0.013240 
#    y -0.025160 2.092170 0.001280 
#    z 0.013240 0.001280 2.031550 
# 
# From -- ./inp_files/42871.got.cif
#   From: 2010.05.17/outbox.cif.g08.bks.cpg/sg2_22_cif.got.tgz:42871.got - 2010.06.03 11:33:40.
