data_PCOD9049547
_publ_section_title
;
Structure prediction by ZEFSAII (Michael W. Deem and Ramdas Pophale) SiO2 
 PCOD9049547
Probable space group: P -1
;
_chemical_formula_sum "Si O2"
_cell_formula_units_Z 14
_cell_length_a 5.032953
_cell_length_b 7.074273
_cell_length_c 20.649019
_cell_angle_alpha 44.776698
_cell_angle_beta 74.032091
_cell_angle_gamma 76.408248
_cell_volume 496.995871
_symmetry_space_group_name_H-M "P -1"
_symmetry_group_IT_number 2
_symmetry_cell_setting 'triclinic'
loop_
_space_group_symop_operation_xyz
x,y,z
-x,-y,-z
loop_
_atom_site_type_symbol
_atom_site_label
_atom_site_fract_x
_atom_site_fract_y
_atom_site_fract_z
Si Si1 0.500000 0.500000 0.500000
Si Si2 0.439328 0.838101 0.978284
Si Si3 0.960266 0.597469 0.852167
Si Si4 0.383789 0.364043 0.775578
Si Si5 0.792121 0.881109 0.481192
Si Si6 0.796300 0.032172 0.672247
Si Si7 0.000000 0.500000 0.000000
Si Si8 0.970928 0.449079 0.666950
O O1 0.697791 0.633355 0.505173
O O2 0.561853 0.200421 0.607337
O O3 0.159542 0.674170 0.041190
O O4 0.687747 0.621520 0.006508
O O5 0.500000 0.000000 0.000000
O O6 0.418056 0.056329 0.870604
O O7 0.206491 0.508821 0.809423
O O8 0.741397 0.766637 0.781545
O O9 0.028966 0.733029 0.881796
O O10 0.683225 0.476793 0.718205
O O11 0.223052 0.391833 0.711903
O O12 0.001813 0.723465 0.556675
O O13 0.969646 0.042676 0.379571
O O14 0.500000 0.000000 0.500000
O O15 0.927364 0.216903 0.673962
#
# Coordination Sequence:
#
# PCOD9049547 Si02
#       8
#     1   2   2   2   2   2   1   2
#     4  10  24  46  78 106 162 206 264 342 406 486
#     4  12  27  54  80 116 165 218 274 349 416 502
#     4  12  28  48  81 117 166 215 278 344 420 507
#     4  12  27  49  81 118 164 222 274 347 421 499
#     4  11  26  48  79 116 161 214 277 346 416 507
#     4  11  27  49  77 117 160 217 271 344 417 505
#     4  12  28  50  80 120 160 210 282 334 422 492
#     4  11  27  48  81 120 162 220 277 342 425 496
#
# _framework density 28.169246000000001
#
# number of rings (size 3 to 8) (size 9 to 14) (size 15 to 20)
#    0.000    0.571    1.429    5.143   14.000    1.714 
#    0.000    0.000    0.000    0.000    0.000    0.000 
#    0.000    0.000    0.000    0.000    0.000    0.000 
#
# Total GULP energy -78161.386251 kJ/mol
# GULP energy per Si atom -5582.956161 kJ/mol
# Density = 2.810513 g / cm^3
# Si number density = 28.169246 Si / 1000 Ang^3
#
#
#
# Elastic Constant Matrix: (Units=GPa)
#
#
# Indices 1 2 3 4 5 6 
#
# 1 127.1428 17.9207 52.6131 -0.9464 14.4361 -21.2763
# 2 17.9207 65.3335 15.1025 31.0792 2.4465 -7.8631
# 3 52.6131 15.1025 253.8803 -10.6300 33.5098 -21.8909
# 4 -0.9464 31.0792 -10.6300 54.1375 -8.4256 -2.7140
# 5 14.4361 2.4465 33.5098 -8.4256 65.8098 3.3472
# 6 -21.2763 -7.8631 -21.8909 -2.7140 3.3472 35.9168
#
#
#
# Elastic Compliance Matrix: (Units=1/GPa)
#
#
# Indices 1 2 3 4 5 6 
#
# 1 0.009664 -0.002365 -0.001205 0.001294 -0.001492 0.004710
# 2 -0.002365 0.022977 -0.001045 -0.013588 -0.001651 0.002119
# 3 -0.001205 -0.001045 0.004774 0.001307 -0.002075 0.002259
# 4 0.001294 -0.013588 0.001307 0.027036 0.002999 0.000351
# 5 -0.001492 -0.001651 -0.002075 0.002999 0.017223 -0.003889
# 6 0.004710 0.002119 0.002259 0.000351 -0.003889 0.032862
#
#
# Mechanical properties :
#
#
# Convention : Reuss Voigt Hill
#
# Bulk Modulus (GPa) = 35.47930 68.62546 52.05238
# Shear Modulus (GPa) = 37.54849 55.22084 46.38466
#
# Velocity S-wave (km/s) = 3.65493 4.43236 4.06229
# Velocity P-wave (km/s) = 5.51668 7.11401 6.36565
#
# Compressibility (1/GPa) = 0.02818545
#
# Stress axis : x y z
#
# Youngs Moduli (GPa) = 103.47329 43.52172 209.45991
#
# Poissons Ratio (x) = 0.10294 0.25237
# Poissons Ratio (y) = 0.24474 0.21888
# Poissons Ratio (z) = 0.12467 0.04548
#
# Static dielectric constant tensor:
#      x y z
#    x 2.871640 -0.395230 -0.649030 
#    y -0.395230 2.456960 0.196790 
#    z -0.649030 0.196790 2.454660 
# 
# From -- ./inp_files/582165.got.cif
#   From: 2010.05.17/outbox.cif.g08.bks.cpg/sg2_292_cif.got.tgz:582165.got - 2010.06.03 11:33:40.
