data_PCOD9049369
_publ_section_title
;
Structure prediction by ZEFSAII (Michael W. Deem and Ramdas Pophale) SiO2 
 PCOD9049369
Probable space group: P -1
;
_chemical_formula_sum "Si O2"
_cell_formula_units_Z 16
_cell_length_a 10.706183
_cell_length_b 12.273935
_cell_length_c 12.007868
_cell_angle_alpha 115.826791
_cell_angle_beta 85.094433
_cell_angle_gamma 39.963382
_cell_volume 627.872337
_symmetry_space_group_name_H-M "P -1"
_symmetry_group_IT_number 2
_symmetry_cell_setting 'triclinic'
loop_
_space_group_symop_operation_xyz
x,y,z
-x,-y,-z
loop_
_atom_site_type_symbol
_atom_site_label
_atom_site_fract_x
_atom_site_fract_y
_atom_site_fract_z
Si Si1 0.302652 0.552376 0.617338
Si Si2 0.126064 0.673139 0.908368
Si Si3 0.595955 0.712569 0.087503
Si Si4 0.484713 0.238939 0.276629
Si Si5 0.936937 0.967952 0.388225
Si Si6 0.962230 0.398507 0.721637
Si Si7 0.205208 0.833578 0.091086
Si Si8 0.723642 0.781462 0.577885
O O1 0.318613 0.490193 0.463226
O O2 0.627232 0.272436 0.504139
O O3 0.161497 0.595581 0.745887
O O4 0.099426 0.843096 0.766277
O O5 0.277008 0.672888 0.919895
O O6 0.260498 0.466511 0.894047
O O7 0.801992 0.980664 0.097752
O O8 0.420957 0.757001 0.058698
O O9 0.379467 0.002581 0.269190
O O10 0.836864 0.554356 0.916241
O O11 0.298587 0.368718 0.241800
O O12 0.497588 0.127899 0.325333
O O13 0.952174 0.815136 0.357342
O O14 0.153692 0.806423 0.198591
O O15 0.000000 0.000000 0.500000
O O16 0.202982 0.262311 0.576109
O O17 0.000000 0.500000 0.500000
#
# Coordination Sequence:
#
# PCOD9049369 Si02
#       8
#     2   2   2   2   2   2   2   2
#     4  12  25  43  66 100 142 179 226 275 339 401
#     4  12  26  43  66 103 140 179 227 274 344 405
#     4  12  25  46  70 103 137 180 229 284 336 406
#     4  11  25  46  69 100 137 178 231 285 336 404
#     4  12  24  40  69  98 139 186 222 273 337 405
#     4  11  24  44  71 100 137 178 231 278 342 400
#     4  12  24  43  67  99 145 178 223 277 336 411
#     4  10  24  46  72  99 132 178 233 283 343 399
#
# _framework density 25.482885
#
# number of rings (size 3 to 8) (size 9 to 14) (size 15 to 20)
#    0.000    0.500    2.500    6.375    3.500    3.500 
#    0.000    4.375    0.000    0.000    0.000    0.000 
#    0.000    0.000    0.000    0.000    0.000    0.000 
#
# Total GULP energy -89664.480221 kJ/mol
# GULP energy per Si atom -5604.030014 kJ/mol
# Density = 2.542489 g / cm^3
# Si number density = 25.482885 Si / 1000 Ang^3
#
#
#
# Elastic Constant Matrix: (Units=GPa)
#
#
# Indices 1 2 3 4 5 6 
#
# 1 41.9254 12.1495 7.0394 1.5749 -7.8907 13.9684
# 2 12.1495 113.1145 29.8521 3.5535 -0.0041 15.6253
# 3 7.0394 29.8521 127.3260 -8.3027 -3.5139 13.1724
# 4 1.5749 3.5535 -8.3027 51.3381 18.0808 -9.6690
# 5 -7.8907 -0.0041 -3.5139 18.0808 31.4305 -1.2045
# 6 13.9684 15.6253 13.1724 -9.6690 -1.2045 36.9423
#
#
#
# Elastic Compliance Matrix: (Units=1/GPa)
#
#
# Indices 1 2 3 4 5 6 
#
# 1 0.030887 -0.001280 -0.000266 -0.007301 0.011442 -0.012580
# 2 -0.001280 0.010052 -0.002030 -0.001759 0.000331 -0.003494
# 3 -0.000266 -0.002030 0.008611 0.001141 0.000170 -0.001807
# 4 -0.007301 -0.001759 0.001141 0.028008 -0.017440 0.009860
# 5 0.011442 0.000331 0.000170 -0.017440 0.044447 -0.007642
# 6 -0.012580 -0.003494 -0.001807 0.009860 -0.007642 0.036279
#
#
# Mechanical properties :
#
#
# Convention : Reuss Voigt Hill
#
# Bulk Modulus (GPa) = 23.58678 42.27199 32.92939
# Shear Modulus (GPa) = 27.84458 39.49719 33.67089
#
# Velocity S-wave (km/s) = 3.30915 3.94121 3.63893
# Velocity P-wave (km/s) = 4.88638 6.11026 5.53227
#
# Compressibility (1/GPa) = 0.04239662
#
# Stress axis : x y z
#
# Youngs Moduli (GPa) = 32.37648 99.48591 116.13665
#
# Poissons Ratio (x) = 0.12730 0.03094
# Poissons Ratio (y) = 0.04143 0.23577
# Poissons Ratio (z) = 0.00863 0.20196
#
# Static dielectric constant tensor:
#      x y z
#    x 2.082610 0.019540 -0.029490 
#    y 0.019540 1.977230 -0.031920 
#    z -0.029490 -0.031920 1.998170 
# 
# From -- ./inp_files/428547.got.cif
#   From: 2010.05.17/outbox.cif.g08.bks.cpg/sg2_215_cif.got.tgz:428547.got - 2010.06.03 11:33:40.
