data_PCOD9050698
_publ_section_title
;
Structure prediction by ZEFSAII (Michael W. Deem and Ramdas Pophale) SiO2 
 PCOD9050698
Probable space group: P -1
;
_chemical_formula_sum "Si O2"
_cell_formula_units_Z 14
_cell_length_a 21.941704
_cell_length_b 19.173049
_cell_length_c 11.452601
_cell_angle_alpha 23.161333
_cell_angle_beta 34.274926
_cell_angle_gamma 21.752016
_cell_volume 689.578284
_symmetry_space_group_name_H-M "P -1"
_symmetry_group_IT_number 2
_symmetry_cell_setting 'triclinic'
loop_
_space_group_symop_operation_xyz
x,y,z
-x,-y,-z
loop_
_atom_site_type_symbol
_atom_site_label
_atom_site_fract_x
_atom_site_fract_y
_atom_site_fract_z
Si Si1 0.324775 0.295284 0.856547
Si Si2 0.309060 0.724260 0.698313
Si Si3 0.112379 0.395389 0.244880
Si Si4 0.833102 0.089285 0.105109
Si Si5 0.311717 0.708361 0.226853
Si Si6 0.042765 0.824630 0.817417
Si Si7 0.845528 0.718546 0.996907
O O1 0.324842 0.495286 0.586712
O O2 0.241409 0.287252 0.104319
O O3 0.232029 0.376634 0.754472
O O4 0.500000 0.000000 0.000000
O O5 0.266939 0.774902 0.824206
O O6 0.506672 0.431537 0.820657
O O7 0.171534 0.776193 0.768506
O O8 0.270281 0.973923 0.331607
O O9 0.125347 0.169846 0.589597
O O10 0.129542 0.527466 0.109467
O O11 0.925086 0.658914 0.085919
O O12 0.720593 0.278723 0.879873
O O13 0.000000 0.000000 0.000000
O O14 0.135392 0.996156 0.114817
O O15 0.000000 0.000000 0.500000
O O16 0.000000 0.500000 0.000000
#
# Coordination Sequence:
#
# PCOD9050698 Si02
#       7
#     2   2   2   2   2   2   2
#     4  11  19  36  64 101 124 164 230 285 324 380
#     4  12  23  43  69 102 133 169 230 282 329 401
#     4  11  23  41  67  94 135 176 223 274 335 401
#     4  12  24  45  73  97 134 181 225 282 338 396
#     4  12  25  42  69  99 139 179 222 276 344 394
#     4  12  24  44  68  98 141 182 216 276 340 406
#     4  10  17  34  64  90 124 161 216 274 325 366
#
# _framework density 20.302263
#
# number of rings (size 3 to 8) (size 9 to 14) (size 15 to 20)
#    0.000    0.571    8.571    2.143    0.000    1.143 
#    2.571    0.714    0.000    0.000    0.000    0.000 
#    0.000    0.000    0.000    0.000    0.000    0.000 
#
# Total GULP energy -77945.197105 kJ/mol
# GULP energy per Si atom -5567.514079 kJ/mol
# Density = 2.025605 g / cm^3
# Si number density = 20.302263 Si / 1000 Ang^3
#
#
#
# Elastic Constant Matrix: (Units=GPa)
#
#
# Indices 1 2 3 4 5 6 
#
# 1 96.3566 44.9648 18.3435 -5.1196 -11.5266 -4.4779
# 2 44.9648 119.9442 28.0668 -6.0104 -6.8466 -12.9771
# 3 18.3435 28.0668 72.7083 4.9321 -16.3311 0.1054
# 4 -5.1196 -6.0104 4.9321 16.9960 4.2816 -0.0855
# 5 -11.5266 -6.8466 -16.3311 4.2816 39.7799 -6.5096
# 6 -4.4779 -12.9771 0.1054 -0.0855 -6.5096 28.7495
#
#
#
# Elastic Compliance Matrix: (Units=1/GPa)
#
#
# Indices 1 2 3 4 5 6 
#
# 1 0.013048 -0.004282 -0.001247 0.002175 0.002405 0.000655
# 2 -0.004282 0.011467 -0.003738 0.004000 -0.000509 0.004419
# 3 -0.001247 -0.003738 0.017699 -0.008632 0.007132 -0.000357
# 4 0.002175 0.004000 -0.008632 0.065746 -0.009256 0.000276
# 5 0.002405 -0.000509 0.007132 -0.009256 0.030829 0.007071
# 6 0.000655 0.004419 -0.000357 0.000276 0.007071 0.038483
#
#
# Mechanical properties :
#
#
# Convention : Reuss Voigt Hill
#
# Bulk Modulus (GPa) = 42.23264 52.41768 47.32516
# Shear Modulus (GPa) = 24.54597 30.28068 27.41333
#
# Velocity S-wave (km/s) = 3.48088 3.86618 3.67857
# Velocity P-wave (km/s) = 6.08296 6.76790 6.43455
#
# Compressibility (1/GPa) = 0.02367837
#
# Stress axis : x y z
#
# Youngs Moduli (GPa) = 76.64284 87.20806 56.49954
#
# Poissons Ratio (x) = 0.37346 0.07046
# Poissons Ratio (y) = 0.32821 0.21121
# Poissons Ratio (z) = 0.09558 0.32600
#
# Static dielectric constant tensor:
#      x y z
#    x 1.768020 -0.011490 0.012050 
#    y -0.011490 1.722340 0.002320 
#    z 0.012050 0.002320 1.764920 
# 
# From -- ./inp_files/190823.got.cif
#   From: 2010.05.17/outbox.cif.g08.bks.cpg/sg2_96_cif.got.tgz:190823.got - 2010.06.03 11:33:40.
