data_PCOD9050291
_publ_section_title
;
Structure prediction by ZEFSAII (Michael W. Deem and Ramdas Pophale) SiO2 
 PCOD9050291
Probable space group: P -1
;
_chemical_formula_sum "Si O2"
_cell_formula_units_Z 12
_cell_length_a 11.515550
_cell_length_b 8.665129
_cell_length_c 7.963145
_cell_angle_alpha 70.639039
_cell_angle_beta 62.778938
_cell_angle_gamma 44.425378
_cell_volume 494.583586
_symmetry_space_group_name_H-M "P -1"
_symmetry_group_IT_number 2
_symmetry_cell_setting 'triclinic'
loop_
_space_group_symop_operation_xyz
x,y,z
-x,-y,-z
loop_
_atom_site_type_symbol
_atom_site_label
_atom_site_fract_x
_atom_site_fract_y
_atom_site_fract_z
Si Si1 0.329334 0.392296 0.084539
Si Si2 0.198366 0.825264 0.874435
Si Si3 0.402399 0.819904 0.305739
Si Si4 0.838150 0.249533 0.455198
Si Si5 0.073345 0.347876 0.342385
Si Si6 0.489570 0.818918 0.609875
O O1 0.158309 0.423261 0.150227
O O2 0.383051 0.319726 0.267769
O O3 0.292159 0.613944 0.004004
O O4 0.481199 0.221290 0.912568
O O5 0.197278 0.755453 0.713431
O O6 0.302071 0.908085 0.767536
O O7 0.000000 0.000000 0.000000
O O8 0.324786 0.704307 0.361824
O O9 0.510297 0.724083 0.443983
O O10 0.239303 0.082632 0.349946
O O11 0.911649 0.370622 0.381575
O O12 0.000000 0.000000 0.500000
O O13 0.000000 0.500000 0.500000
O O14 0.500000 0.000000 0.500000
#
# Coordination Sequence:
#
# PCOD9050291 Si02
#       6
#     2   2   2   2   2   2
#     4  12  27  45  79 110 150 195 253 306 377 441
#     4  11  28  47  71 111 151 196 250 307 375 443
#     4  10  24  50  72 109 151 197 248 304 375 448
#     4   9  23  46  73 102 152 195 240 307 373 440
#     4  11  25  43  76 112 149 192 247 309 373 440
#     4  11  25  47  76 107 151 196 246 308 372 443
#
# _framework density 24.262834999999999
#
# number of rings (size 3 to 8) (size 9 to 14) (size 15 to 20)
#    0.000    1.333    1.667    1.000   11.667    6.000 
#    0.000    0.000    0.000    0.000    0.000    0.000 
#    0.000    0.000    0.000    0.000    0.000    0.000 
#
# Total GULP energy -67134.003376 kJ/mol
# GULP energy per Si atom -5594.500281 kJ/mol
# Density = 2.420761 g / cm^3
# Si number density = 24.262835 Si / 1000 Ang^3
#
#
#
# Elastic Constant Matrix: (Units=GPa)
#
#
# Indices 1 2 3 4 5 6 
#
# 1 176.7944 24.4554 74.8233 -3.9420 -39.3845 22.5301
# 2 24.4554 103.8759 55.8741 0.2050 -10.5072 1.4778
# 3 74.8233 55.8741 163.7087 -5.4829 -29.7943 0.5272
# 4 -3.9420 0.2050 -5.4829 50.2868 -8.3699 -2.0513
# 5 -39.3845 -10.5072 -29.7943 -8.3699 62.7477 -15.6083
# 6 22.5301 1.4778 0.5272 -2.0513 -15.6083 34.1898
#
#
#
# Elastic Compliance Matrix: (Units=1/GPa)
#
#
# Indices 1 2 3 4 5 6 
#
# 1 0.008135 0.000163 -0.003261 0.000555 0.002645 -0.004077
# 2 0.000163 0.011816 -0.004145 -0.000533 -0.000117 -0.000640
# 3 -0.003261 -0.004145 0.009575 0.001432 0.002889 0.003585
# 4 0.000555 -0.000533 0.001432 0.020950 0.004463 0.002929
# 5 0.002645 -0.000117 0.002889 0.004463 0.021623 0.008357
# 6 -0.004077 -0.000640 0.003585 0.002929 0.008357 0.035898
#
#
# Mechanical properties :
#
#
# Convention : Reuss Voigt Hill
#
# Bulk Modulus (GPa) = 66.47893 83.85384 75.16639
# Shear Modulus (GPa) = 39.21708 48.72660 43.97184
#
# Velocity S-wave (km/s) = 4.02474 4.48625 4.26174
# Velocity P-wave (km/s) = 7.00407 7.84034 7.43397
#
# Compressibility (1/GPa) = 0.01504236
#
# Stress axis : x y z
#
# Youngs Moduli (GPa) = 122.92859 84.63051 104.43447
#
# Poissons Ratio (x) = -0.01381 0.34052
# Poissons Ratio (y) = -0.02005 0.43283
# Poissons Ratio (z) = 0.40082 0.35075
#
# Static dielectric constant tensor:
#      x y z
#    x 1.931680 -0.013050 -0.034270 
#    y -0.013050 2.012630 -0.010410 
#    z -0.034270 -0.010410 1.879170 
# 
# From -- ./inp_files/233743.got.cif
#   From: 2010.05.17/outbox.cif.g08.bks.cpg/sg2_117_cif.got.tgz:233743.got - 2010.06.03 11:33:40.
