data_PCOD9050294
_publ_section_title
;
Structure prediction by ZEFSAII (Michael W. Deem and Ramdas Pophale) SiO2 
 PCOD9050294
Probable space group: P -1
;
_chemical_formula_sum "Si O2"
_cell_formula_units_Z 14
_cell_length_a 11.638963
_cell_length_b 12.426222
_cell_length_c 7.001205
_cell_angle_alpha 49.886665
_cell_angle_beta 106.781298
_cell_angle_gamma 131.053913
_cell_volume 567.870502
_symmetry_space_group_name_H-M "P -1"
_symmetry_group_IT_number 2
_symmetry_cell_setting 'triclinic'
loop_
_space_group_symop_operation_xyz
x,y,z
-x,-y,-z
loop_
_atom_site_type_symbol
_atom_site_label
_atom_site_fract_x
_atom_site_fract_y
_atom_site_fract_z
Si Si1 0.234288 0.531519 0.661005
Si Si2 0.751068 0.026854 0.445698
Si Si3 0.667372 0.182930 0.938654
Si Si4 0.346205 0.336280 0.731038
Si Si5 0.831001 0.820403 0.543296
Si Si6 0.482243 0.777313 0.827747
Si Si7 0.950345 0.622431 0.889474
O O1 0.269262 0.408375 0.721870
O O2 0.377984 0.670258 0.715268
O O3 0.080700 0.413971 0.854915
O O4 0.245024 0.659138 0.357109
O O5 0.751294 0.110500 0.149082
O O6 0.924644 0.199375 0.390467
O O7 0.722905 0.843006 0.591247
O O8 0.622507 0.982585 0.581608
O O9 0.629396 0.248837 0.030147
O O10 0.500000 0.000000 0.000000
O O11 0.500000 0.500000 0.500000
O O12 0.217066 0.184310 0.691445
O O13 0.416755 0.271636 0.975647
O O14 0.813627 0.640067 0.769191
O O15 0.000000 0.000000 0.500000
O O16 0.000000 0.500000 0.000000
#
# Coordination Sequence:
#
# PCOD9050294 Si02
#       7
#     2   2   2   2   2   2   2
#     4  12  26  45  74 111 151 190 246 320 369 438
#     4  11  24  46  72 103 149 198 241 303 365 448
#     4  12  25  43  71 111 147 193 258 296 379 442
#     4  12  23  44  78 113 147 191 253 311 376 440
#     4  10  24  50  73 103 152 194 248 303 370 457
#     4  12  24  45  75 108 150 195 246 312 369 443
#     4  11  26  47  73 104 147 192 244 309 371 432
#
# _framework density 24.653509
#
# number of rings (size 3 to 8) (size 9 to 14) (size 15 to 20)
#    0.000    0.571    2.857    5.143    4.000    0.571 
#    0.000   10.000    0.000    0.000    0.000    0.000 
#    0.000    0.000    0.000    0.000    0.000    0.000 
#
# Total GULP energy -78059.964985 kJ/mol
# GULP energy per Si atom -5575.711785 kJ/mol
# Density = 2.459740 g / cm^3
# Si number density = 24.653509 Si / 1000 Ang^3
#
#
#
# Elastic Constant Matrix: (Units=GPa)
#
#
# Indices 1 2 3 4 5 6 
#
# 1 136.3142 34.5440 64.5885 -4.5972 -9.4675 -32.5383
# 2 34.5440 89.6736 19.4076 9.2086 -1.4282 -20.4691
# 3 64.5885 19.4076 156.4489 3.0443 -2.9466 -2.2656
# 4 -4.5972 9.2086 3.0443 38.3116 -1.0368 2.1107
# 5 -9.4675 -1.4282 -2.9466 -1.0368 59.0761 -8.3988
# 6 -32.5383 -20.4691 -2.2656 2.1107 -8.3988 53.9917
#
#
#
# Elastic Compliance Matrix: (Units=1/GPa)
#
#
# Indices 1 2 3 4 5 6 
#
# 1 0.011815 -0.002292 -0.004493 0.002043 0.002557 0.006381
# 2 -0.002292 0.013432 -0.000585 -0.003660 0.000418 0.003895
# 3 -0.004493 -0.000585 0.008285 -0.000930 -0.000715 -0.002656
# 4 0.002043 -0.003660 -0.000930 0.027380 0.000504 -0.001187
# 5 0.002557 0.000418 -0.000715 0.000504 0.017952 0.004442
# 6 0.006381 0.003895 -0.002656 -0.001187 0.004442 0.024470
#
#
# Mechanical properties :
#
#
# Convention : Reuss Voigt Hill
#
# Bulk Modulus (GPa) = 53.20604 68.83521 61.02063
# Shear Modulus (GPa) = 40.21326 47.86900 44.04113
#
# Velocity S-wave (km/s) = 4.04312 4.41122 4.23117
# Velocity P-wave (km/s) = 6.58970 7.34349 6.97678
#
# Compressibility (1/GPa) = 0.01879486
#
# Stress axis : x y z
#
# Youngs Moduli (GPa) = 84.63747 74.44631 120.69538
#
# Poissons Ratio (x) = 0.17060 0.54224
# Poissons Ratio (y) = 0.19396 0.07057
# Poissons Ratio (z) = 0.38025 0.04353
#
# Static dielectric constant tensor:
#      x y z
#    x 2.120070 0.137050 0.011770 
#    y 0.137050 2.309360 -0.050080 
#    z 0.011770 -0.050080 1.973580 
# 
# From -- ./inp_files/68706.got.cif
#   From: 2010.05.17/outbox.cif.g08.bks.cpg/sg2_35_cif.got.tgz:68706.got - 2010.06.03 11:33:40.
