data_PCOD9050509
_publ_section_title
;
Structure prediction by ZEFSAII (Michael W. Deem and Ramdas Pophale) SiO2 
 PCOD9050509
Probable space group: P -1
;
_chemical_formula_sum "Si O2"
_cell_formula_units_Z 14
_cell_length_a 11.588236
_cell_length_b 16.047456
_cell_length_c 7.748045
_cell_angle_alpha 31.569249
_cell_angle_beta 115.548871
_cell_angle_gamma 127.244548
_cell_volume 588.050858
_symmetry_space_group_name_H-M "P -1"
_symmetry_group_IT_number 2
_symmetry_cell_setting 'triclinic'
loop_
_space_group_symop_operation_xyz
x,y,z
-x,-y,-z
loop_
_atom_site_type_symbol
_atom_site_label
_atom_site_fract_x
_atom_site_fract_y
_atom_site_fract_z
Si Si1 0.918048 0.541292 0.218849
Si Si2 0.667031 0.765479 0.301183
Si Si3 0.546175 0.840028 0.647956
Si Si4 0.325405 0.355655 0.116604
Si Si5 0.355113 0.559211 0.323058
Si Si6 0.288279 0.846916 0.275077
Si Si7 0.222398 0.789088 0.924018
O O1 0.841895 0.352603 0.394098
O O2 0.000000 0.500000 0.500000
O O3 0.782977 0.570588 0.136275
O O4 0.051756 0.726199 0.897680
O O5 0.728742 0.734141 0.572729
O O6 0.486720 0.646647 0.394220
O O7 0.701060 0.653335 0.376821
O O8 0.710321 0.977239 0.950781
O O9 0.666168 0.790227 0.743144
O O10 0.437919 0.847513 0.421254
O O11 0.652985 0.051608 0.396711
O O12 0.443557 0.683534 0.993375
O O13 0.500000 0.500000 0.000000
O O14 0.233883 0.609961 0.204686
O O15 0.268916 0.847495 0.052502
#
# Coordination Sequence:
#
# PCOD9050509 Si02
#       7
#     2   2   2   2   2   2   2
#     4  10  25  42  67  99 136 170 216 281 337 378
#     4  11  23  39  66  98 132 168 225 273 321 380
#     4  12  22  39  72  97 130 176 230 266 322 399
#     4  12  22  42  72  98 127 174 232 271 317 397
#     4  11  24  38  65 102 135 171 217 278 329 387
#     4  11  21  42  68  97 128 179 227 266 318 400
#     4  11  23  41  65  97 136 170 218 275 334 383
#
# _framework density 23.807466000000002
#
# number of rings (size 3 to 8) (size 9 to 14) (size 15 to 20)
#    0.000    0.857    5.714    1.714    2.000    0.571 
#    0.000    3.571    0.000    0.000    0.000    0.000 
#    0.000    0.000    0.000    0.000    0.000    0.000 
#
# Total GULP energy -78179.565053 kJ/mol
# GULP energy per Si atom -5584.254647 kJ/mol
# Density = 2.375328 g / cm^3
# Si number density = 23.807466 Si / 1000 Ang^3
#
#
#
# Elastic Constant Matrix: (Units=GPa)
#
#
# Indices 1 2 3 4 5 6 
#
# 1 92.5589 49.8622 38.1160 -15.2476 31.0949 15.9952
# 2 49.8622 89.1329 60.3663 -17.5282 12.3995 5.9498
# 3 38.1160 60.3663 106.4214 -7.8729 20.3566 0.8636
# 4 -15.2476 -17.5282 -7.8729 46.6347 -5.1509 4.6990
# 5 31.0949 12.3995 20.3566 -5.1509 50.3009 -6.8356
# 6 15.9952 5.9498 0.8636 4.6990 -6.8356 40.4137
#
#
#
# Elastic Compliance Matrix: (Units=1/GPa)
#
#
# Indices 1 2 3 4 5 6 
#
# 1 0.022380 -0.009524 0.000117 0.003377 -0.012544 -0.009973
# 2 -0.009524 0.024052 -0.010841 0.004562 0.004917 0.000762
# 3 0.000117 -0.010841 0.016131 -0.001831 -0.004015 0.000739
# 4 0.003377 0.004562 -0.001831 0.024377 -0.000642 -0.004912
# 5 -0.012544 0.004917 -0.004015 -0.000642 0.029252 0.009349
# 6 -0.009973 0.000762 0.000739 -0.004912 0.009349 0.030716
#
#
# Mechanical properties :
#
#
# Convention : Reuss Voigt Hill
#
# Bulk Modulus (GPa) = 45.31843 64.97800 55.14821
# Shear Modulus (GPa) = 25.67260 36.78776 31.23018
#
# Velocity S-wave (km/s) = 3.28738 3.93519 3.62578
# Velocity P-wave (km/s) = 5.78669 6.92820 6.38302
#
# Compressibility (1/GPa) = 0.02206608
#
# Stress axis : x y z
#
# Youngs Moduli (GPa) = 44.68203 41.57682 61.99353
#
# Poissons Ratio (x) = 0.39599 -0.00725
# Poissons Ratio (y) = 0.42557 0.67208
# Poissons Ratio (z) = -0.00523 0.45074
#
# Static dielectric constant tensor:
#      x y z
#    x 1.915740 -0.054650 -0.025340 
#    y -0.054650 1.982200 -0.027550 
#    z -0.025340 -0.027550 2.058880 
# 
# From -- ./inp_files/205405.got.cif
#   From: 2010.05.17/outbox.cif.g08.bks.cpg/sg2_103_cif.got.tgz:205405.got - 2010.06.03 11:33:40.
