data_PCOD9050505
_publ_section_title
;
Structure prediction by ZEFSAII (Michael W. Deem and Ramdas Pophale) SiO2 
 PCOD9050505
Probable space group: P -1
;
_chemical_formula_sum "Si O2"
_cell_formula_units_Z 16
_cell_length_a 19.455510
_cell_length_b 8.055484
_cell_length_c 12.054105
_cell_angle_alpha 80.716781
_cell_angle_beta 149.765191
_cell_angle_gamma 80.341922
_cell_volume 738.043399
_symmetry_space_group_name_H-M "P -1"
_symmetry_group_IT_number 2
_symmetry_cell_setting 'triclinic'
loop_
_space_group_symop_operation_xyz
x,y,z
-x,-y,-z
loop_
_atom_site_type_symbol
_atom_site_label
_atom_site_fract_x
_atom_site_fract_y
_atom_site_fract_z
Si Si1 0.342563 0.766088 0.366809
Si Si2 0.992328 0.830265 0.073192
Si Si3 0.853828 0.439861 0.887331
Si Si4 0.672144 0.455201 0.995671
Si Si5 0.902487 0.321415 0.530014
Si Si6 0.508738 0.867163 0.422562
Si Si7 0.992766 0.373278 0.324264
Si Si8 0.783330 0.992540 0.151555
O O1 0.240721 0.670095 0.221335
O O2 0.444905 0.740366 0.402512
O O3 0.479338 0.648151 0.669707
O O4 0.202786 0.018890 0.168952
O O5 0.049312 0.644898 0.086193
O O6 0.110593 0.736347 0.357597
O O7 0.000000 0.000000 0.000000
O O8 0.698310 0.691942 0.655738
O O9 0.980719 0.359913 0.177431
O O10 0.729698 0.444867 0.202878
O O11 0.704410 0.233819 0.041573
O O12 0.808262 0.456126 0.109537
O O13 0.969129 0.462106 0.613988
O O14 0.054082 0.110481 0.695276
O O15 0.500000 0.000000 0.500000
O O16 0.363749 0.009911 0.111503
O O17 0.135879 0.153854 0.611027
#
# Coordination Sequence:
#
# PCOD9050505 Si02
#       8
#     2   2   2   2   2   2   2   2
#     4  11  22  41  63  96 121 169 213 264 310 371
#     4  10  25  42  67  88 130 174 215 258 311 389
#     4  11  23  43  63  92 128 167 214 260 316 381
#     4  11  22  37  67  94 129 163 214 270 312 377
#     4  11  23  41  60  96 130 170 209 258 328 377
#     4  12  23  37  66  97 132 158 213 271 315 368
#     4  11  23  37  64  94 133 162 207 267 325 371
#     4  11  22  37  63  97 127 164 213 262 322 369
#
# _framework density 21.678941999999999
#
# number of rings (size 3 to 8) (size 9 to 14) (size 15 to 20)
#    0.000    1.000    3.750    4.875    7.000    0.500 
#    0.000    3.750    0.000    1.500    0.000    0.000 
#    0.000    0.000    0.000    0.000    0.000    0.000 
#
# Total GULP energy -89521.269840 kJ/mol
# GULP energy per Si atom -5595.079365 kJ/mol
# Density = 2.162960 g / cm^3
# Si number density = 21.678942 Si / 1000 Ang^3
#
#
#
# Elastic Constant Matrix: (Units=GPa)
#
#
# Indices 1 2 3 4 5 6 
#
# 1 66.4138 3.8499 20.5328 3.3994 -24.2362 -17.5730
# 2 3.8499 72.5311 31.3452 14.1643 1.8573 -13.8986
# 3 20.5328 31.3452 136.6571 19.1830 -33.6994 -27.7562
# 4 3.3994 14.1643 19.1830 32.1335 -11.2865 2.4749
# 5 -24.2362 1.8573 -33.6994 -11.2865 39.2941 7.7540
# 6 -17.5730 -13.8986 -27.7562 2.4749 7.7540 42.6476
#
#
#
# Elastic Compliance Matrix: (Units=1/GPa)
#
#
# Indices 1 2 3 4 5 6 
#
# 1 0.021375 -0.001173 0.001620 0.001577 0.013721 0.006893
# 2 -0.001173 0.018493 -0.003849 -0.009119 -0.008528 0.005118
# 3 0.001620 -0.003849 0.011770 -0.002610 0.009438 0.005509
# 4 0.001577 -0.009119 -0.002610 0.041734 0.012886 -0.008786
# 5 0.013721 -0.008528 0.009438 0.012886 0.046134 -0.000118
# 6 0.006893 0.005118 0.005509 -0.008786 -0.000118 0.032073
#
#
# Mechanical properties :
#
#
# Convention : Reuss Voigt Hill
#
# Bulk Modulus (GPa) = 22.30497 43.00644 32.65570
# Shear Modulus (GPa) = 25.86292 37.47333 31.66812
#
# Velocity S-wave (km/s) = 3.45773 4.16210 3.82616
# Velocity P-wave (km/s) = 5.12370 6.55579 5.88348
#
# Compressibility (1/GPa) = 0.04483305
#
# Stress axis : x y z
#
# Youngs Moduli (GPa) = 46.78420 54.07532 84.96392
#
# Poissons Ratio (x) = 0.06343 -0.13762
# Poissons Ratio (y) = 0.05488 0.32700
# Poissons Ratio (z) = -0.07578 0.20812
#
# Static dielectric constant tensor:
#      x y z
#    x 1.830130 0.008580 0.065280 
#    y 0.008580 1.849850 0.019070 
#    z 0.065280 0.019070 1.934180 
# 
# From -- ./inp_files/469422.got.cif
#   From: 2010.05.17/outbox.cif.g08.bks.cpg/sg2_235_cif.got.tgz:469422.got - 2010.06.03 11:33:40.
