data_PCOD9050898
_publ_section_title
;
Structure prediction by ZEFSAII (Michael W. Deem and Ramdas Pophale) SiO2 
 PCOD9050898
Probable space group: P -1
;
_chemical_formula_sum "Si O2"
_cell_formula_units_Z 14
_cell_length_a 11.854294
_cell_length_b 7.770490
_cell_length_c 8.579286
_cell_angle_alpha 63.374196
_cell_angle_beta 108.175191
_cell_angle_gamma 126.642584
_cell_volume 565.758452
_symmetry_space_group_name_H-M "P -1"
_symmetry_group_IT_number 2
_symmetry_cell_setting 'triclinic'
loop_
_space_group_symop_operation_xyz
x,y,z
-x,-y,-z
loop_
_atom_site_type_symbol
_atom_site_label
_atom_site_fract_x
_atom_site_fract_y
_atom_site_fract_z
Si Si1 0.486159 0.220394 0.431715
Si Si2 0.368058 0.275036 0.830850
Si Si3 0.955759 0.620900 0.307238
Si Si4 0.735374 0.988907 0.811004
Si Si5 0.611497 0.272892 0.789731
Si Si6 0.085663 0.045144 0.677562
Si Si7 0.103100 0.414054 0.038779
O O1 0.570813 0.457621 0.276202
O O2 0.327812 0.113189 0.344374
O O3 0.540780 0.307244 0.593208
O O4 0.500000 0.000000 0.500000
O O5 0.493642 0.228071 0.883978
O O6 0.243402 0.098415 0.728996
O O7 0.298019 0.203650 0.000380
O O8 0.000000 0.500000 0.500000
O O9 0.884982 0.718507 0.341619
O O10 0.102437 0.821530 0.215690
O O11 0.862889 0.511981 0.157476
O O12 0.657898 0.105402 0.809197
O O13 0.757879 0.472627 0.843002
O O14 0.000000 0.000000 0.500000
O O15 0.987906 0.849400 0.839430
O O16 0.000000 0.500000 0.000000
#
# Coordination Sequence:
#
# PCOD9050898 Si02
#       7
#     2   2   2   2   2   2   2
#     4  10  25  44  71 105 150 191 243 299 365 439
#     4  12  25  46  73 110 148 193 245 304 373 438
#     4  12  28  48  77 105 150 200 252 309 375 436
#     4  11  25  48  72 110 146 193 250 303 369 443
#     4  11  25  47  74 110 148 195 240 308 373 436
#     4  12  28  46  76 110 148 197 252 306 376 443
#     4  12  24  50  75 107 151 194 251 307 364 453
#
# _framework density 24.745543000000001
#
# number of rings (size 3 to 8) (size 9 to 14) (size 15 to 20)
#    0.000    0.571    2.857    3.429    8.000    1.143 
#    2.571    0.000    0.000    0.000    0.000    0.000 
#    0.000    0.000    0.000    0.000    0.000    0.000 
#
# Total GULP energy -78164.711949 kJ/mol
# GULP energy per Si atom -5583.193711 kJ/mol
# Density = 2.468922 g / cm^3
# Si number density = 24.745543 Si / 1000 Ang^3
#
#
#
# Elastic Constant Matrix: (Units=GPa)
#
#
# Indices 1 2 3 4 5 6 
#
# 1 95.3718 19.8617 -7.1086 1.7877 10.8948 10.7034
# 2 19.8617 87.5778 22.3422 27.9576 13.9378 18.0016
# 3 -7.1086 22.3422 74.9414 11.3390 7.7953 -0.4028
# 4 1.7877 27.9576 11.3390 47.1439 6.4576 7.6454
# 5 10.8948 13.9378 7.7953 6.4576 28.1576 1.4221
# 6 10.7034 18.0016 -0.4028 7.6454 1.4221 45.7626
#
#
#
# Elastic Compliance Matrix: (Units=1/GPa)
#
#
# Indices 1 2 3 4 5 6 
#
# 1 0.011843 -0.002673 0.002112 0.001484 -0.004092 -0.001821
# 2 -0.002673 0.017136 -0.003752 -0.007794 -0.004384 -0.004710
# 3 0.002112 -0.003752 0.015177 -0.001336 -0.002927 0.001430
# 4 0.001484 -0.007794 -0.001336 0.026698 -0.002384 -0.001679
# 5 -0.004092 -0.004384 -0.002927 -0.002384 0.040534 0.001795
# 6 -0.001821 -0.004710 0.001430 -0.001679 0.001795 0.024368
#
#
# Mechanical properties :
#
#
# Convention : Reuss Voigt Hill
#
# Bulk Modulus (GPa) = 28.14590 36.45350 32.29970
# Shear Modulus (GPa) = 32.00494 39.06587 35.53540
#
# Velocity S-wave (km/s) = 3.60024 3.97760 3.79361
# Velocity P-wave (km/s) = 5.35547 5.98819 5.68065
#
# Compressibility (1/GPa) = 0.03552916
#
# Stress axis : x y z
#
# Youngs Moduli (GPa) = 84.43578 58.35767 65.88893
#
# Poissons Ratio (x) = 0.15598 -0.13913
# Poissons Ratio (y) = 0.22568 0.24723
# Poissons Ratio (z) = -0.17830 0.21897
#
# Static dielectric constant tensor:
#      x y z
#    x 2.086700 -0.040640 0.148950 
#    y -0.040640 2.002280 0.024140 
#    z 0.148950 0.024140 2.162750 
# 
# From -- ./inp_files/156805.got.cif
#   From: 2010.05.17/outbox.cif.g08.bks.cpg/sg2_79_cif.got.tgz:156805.got - 2010.06.03 11:33:40.
