data_PCOD9050736
_publ_section_title
;
Structure prediction by ZEFSAII (Michael W. Deem and Ramdas Pophale) SiO2 
 PCOD9050736
Probable space group: P -1
;
_chemical_formula_sum "Si O2"
_cell_formula_units_Z 12
_cell_length_a 16.171893
_cell_length_b 5.146813
_cell_length_c 10.944015
_cell_angle_alpha 108.864110
_cell_angle_beta 32.338760
_cell_angle_gamma 106.302985
_cell_volume 461.044907
_symmetry_space_group_name_H-M "P -1"
_symmetry_group_IT_number 2
_symmetry_cell_setting 'triclinic'
loop_
_space_group_symop_operation_xyz
x,y,z
-x,-y,-z
loop_
_atom_site_type_symbol
_atom_site_label
_atom_site_fract_x
_atom_site_fract_y
_atom_site_fract_z
Si Si1 0.399866 0.718943 0.234008
Si Si2 0.171103 0.347481 0.184310
Si Si3 0.751171 0.582282 0.158725
Si Si4 0.211466 0.966252 0.310579
Si Si5 0.496958 0.898912 0.627032
Si Si6 0.070178 0.458640 0.658959
O O1 0.345145 0.952229 0.243034
O O2 0.490721 0.867212 0.251719
O O3 0.500000 0.500000 0.000000
O O4 0.795127 0.845539 0.773973
O O5 0.221903 0.658350 0.199670
O O6 0.243525 0.580562 0.466660
O O7 0.244578 0.252240 0.950179
O O8 0.662338 0.735335 0.400397
O O9 0.642941 0.319682 0.222937
O O10 0.933473 0.516159 0.935222
O O11 0.002579 0.594833 0.639549
O O12 0.079357 0.133496 0.574969
O O13 0.500000 0.000000 0.500000
#
# Coordination Sequence:
#
# PCOD9050736 Si02
#       6
#     2   2   2   2   2   2
#     4  12  31  48  77 126 167 209 271 343 408 469
#     4  10  25  43  84 119 157 213 267 325 408 493
#     4   9  26  48  80 111 150 218 277 315 404 497
#     4  12  24  47  77 121 170 202 269 336 408 481
#     4  11  27  54  79 107 162 218 272 332 406 491
#     4  10  25  45  79 121 158 209 265 334 403 486
#
# _framework density 26.027832
#
# number of rings (size 3 to 8) (size 9 to 14) (size 15 to 20)
#    1.000    0.333    1.667    1.000    9.333    5.333 
#    0.000    2.500    0.000    0.000    0.000    0.000 
#    0.000    0.000    0.000    0.000    0.000    0.000 
#
# Total GULP energy -66979.211772 kJ/mol
# GULP energy per Si atom -5581.600981 kJ/mol
# Density = 2.596859 g / cm^3
# Si number density = 26.027832 Si / 1000 Ang^3
#
#
#
# Elastic Constant Matrix: (Units=GPa)
#
#
# Indices 1 2 3 4 5 6 
#
# 1 106.6524 28.4333 22.4953 14.7972 -2.7697 -3.8033
# 2 28.4333 98.5007 25.2347 25.6913 -8.4441 -14.1076
# 3 22.4953 25.2347 193.0304 9.8508 -18.7311 21.4489
# 4 14.7972 25.6913 9.8508 42.7900 7.2326 -4.3902
# 5 -2.7697 -8.4441 -18.7311 7.2326 34.6547 4.3828
# 6 -3.8033 -14.1076 21.4489 -4.3902 4.3828 56.2266
#
#
#
# Elastic Compliance Matrix: (Units=1/GPa)
#
#
# Indices 1 2 3 4 5 6 
#
# 1 0.010446 -0.002185 -0.000830 -0.002124 0.000260 0.000289
# 2 -0.002185 0.013788 -0.001104 -0.007623 0.003820 0.002840
# 3 -0.000830 -0.001104 0.006197 -0.001421 0.003703 -0.003097
# 4 -0.002124 -0.007623 -0.001421 0.030767 -0.009422 0.001622
# 5 0.000260 0.003820 0.003703 -0.009422 0.034261 -0.003843
# 6 0.000289 0.002840 -0.003097 0.001622 -0.003843 0.020125
#
#
# Mechanical properties :
#
#
# Convention : Reuss Voigt Hill
#
# Bulk Modulus (GPa) = 45.05791 61.16780 53.11286
# Shear Modulus (GPa) = 38.10392 48.20228 43.15310
#
# Velocity S-wave (km/s) = 3.83033 4.30810 4.07622
# Velocity P-wave (km/s) = 6.07544 6.94969 6.52722
#
# Compressibility (1/GPa) = 0.02219366
#
# Stress axis : x y z
#
# Youngs Moduli (GPa) = 95.73457 72.52566 161.35686
#
# Poissons Ratio (x) = 0.15847 0.13395
# Poissons Ratio (y) = 0.20918 0.17809
# Poissons Ratio (z) = 0.07947 0.08005
#
# Static dielectric constant tensor:
#      x y z
#    x 2.029090 0.033470 -0.099290 
#    y 0.033470 2.173930 -0.074820 
#    z -0.099290 -0.074820 2.266950 
# 
# From -- ./inp_files/459252.got.cif
#   From: 2010.05.17/outbox.cif.g08.bks.cpg/sg2_230_cif.got.tgz:459252.got - 2010.06.03 11:33:40.
