data_PCOD9050039
_publ_section_title
;
Structure prediction by ZEFSAII (Michael W. Deem and Ramdas Pophale) SiO2 
 PCOD9050039
Probable space group: P -1
;
_chemical_formula_sum "Si O2"
_cell_formula_units_Z 16
_cell_length_a 5.403615
_cell_length_b 12.336821
_cell_length_c 12.741266
_cell_angle_alpha 124.826418
_cell_angle_beta 62.423209
_cell_angle_gamma 112.819593
_cell_volume 609.068427
_symmetry_space_group_name_H-M "P -1"
_symmetry_group_IT_number 2
_symmetry_cell_setting 'triclinic'
loop_
_space_group_symop_operation_xyz
x,y,z
-x,-y,-z
loop_
_atom_site_type_symbol
_atom_site_label
_atom_site_fract_x
_atom_site_fract_y
_atom_site_fract_z
Si Si1 0.085370 0.665666 0.471874
Si Si2 0.682713 0.326055 0.157990
Si Si3 0.719567 0.633618 0.019459
Si Si4 0.495684 0.686272 0.574905
Si Si5 0.649764 0.622646 0.250206
Si Si6 0.076853 0.093463 0.636994
Si Si7 0.475046 0.870178 0.108788
Si Si8 0.716658 0.066192 0.321150
O O1 0.234944 0.611175 0.513783
O O2 0.325944 0.653792 0.331211
O O3 0.056944 0.815309 0.604167
O O4 0.768861 0.615658 0.469199
O O5 0.573290 0.306606 0.285877
O O6 0.619717 0.467870 0.203669
O O7 0.565947 0.195936 0.035708
O O8 0.024136 0.348868 0.101256
O O9 0.835630 0.640592 0.117617
O O10 0.541328 0.747529 0.095912
O O11 0.500000 0.500000 0.000000
O O12 0.505602 0.835927 0.609198
O O13 0.818519 0.756726 0.344541
O O14 0.310233 0.044135 0.641954
O O15 0.811139 0.090225 0.766592
O O16 0.726840 0.989459 0.165260
O O17 0.000000 0.000000 0.500000
#
# Coordination Sequence:
#
# PCOD9050039 Si02
#       8
#     2   2   2   2   2   2   2   2
#     4  10  26  49  73 117 146 206 256 320 383 442
#     4  12  27  49  74 112 150 210 252 316 383 453
#     4  12  25  45  72 113 152 197 251 312 396 463
#     4  10  27  50  79 108 157 201 267 311 374 463
#     4  12  25  45  75 111 152 194 252 324 386 460
#     4  12  26  44  78 113 156 198 248 320 390 461
#     4  12  23  42  74 110 153 196 257 308 388 451
#     4  10  24  48  73 110 151 203 254 316 378 451
#
# _framework density 26.269625999999999
#
# number of rings (size 3 to 8) (size 9 to 14) (size 15 to 20)
#    0.750    0.000    3.750    2.625    5.250    3.500 
#    0.000    3.750    0.000    0.750    0.000    0.000 
#    0.000    0.000    0.000    0.000    0.000    0.000 
#
# Total GULP energy -89195.435609 kJ/mol
# GULP energy per Si atom -5574.714726 kJ/mol
# Density = 2.620983 g / cm^3
# Si number density = 26.269626 Si / 1000 Ang^3
#
#
#
# Elastic Constant Matrix: (Units=GPa)
#
#
# Indices 1 2 3 4 5 6 
#
# 1 104.8147 18.1158 25.5090 9.0972 -14.2153 1.2175
# 2 18.1158 43.4851 -1.2719 12.7129 -15.4351 -11.8112
# 3 25.5090 -1.2719 98.0898 -12.3638 -14.3374 6.2211
# 4 9.0972 12.7129 -12.3638 44.4163 -1.4731 15.9860
# 5 -14.2153 -15.4351 -14.3374 -1.4731 37.5278 17.3743
# 6 1.2175 -11.8112 6.2211 15.9860 17.3743 45.9380
#
#
#
# Elastic Compliance Matrix: (Units=1/GPa)
#
#
# Indices 1 2 3 4 5 6 
#
# 1 0.011332 -0.003966 -0.002795 -0.001450 0.002108 -0.001234
# 2 -0.003966 0.033523 0.000359 -0.012092 0.007254 0.010140
# 3 -0.002795 0.000359 0.013372 0.006959 0.007702 -0.006979
# 4 -0.001450 -0.012092 0.006959 0.035324 0.007361 -0.019089
# 5 0.002108 0.007254 0.007702 0.007361 0.041813 -0.017610
# 6 -0.001234 0.010140 -0.006979 -0.019089 -0.017610 0.038656
#
#
# Mechanical properties :
#
#
# Convention : Reuss Voigt Hill
#
# Bulk Modulus (GPa) = 22.01485 36.78838 29.40161
# Shear Modulus (GPa) = 24.75680 39.17887 31.96783
#
# Velocity S-wave (km/s) = 3.07320 3.86607 3.49221
# Velocity P-wave (km/s) = 4.58163 5.82780 5.24188
#
# Compressibility (1/GPa) = 0.04542389
#
# Stress axis : x y z
#
# Youngs Moduli (GPa) = 88.24280 29.83036 74.78444
#
# Poissons Ratio (x) = 0.11830 0.20900
# Poissons Ratio (y) = 0.34996 -0.02685
# Poissons Ratio (z) = 0.24662 -0.01071
#
# Static dielectric constant tensor:
#      x y z
#    x 2.356070 0.081360 0.198290 
#    y 0.081360 2.066160 0.062240 
#    z 0.198290 0.062240 2.135040 
# 
# From -- ./inp_files/484370.got.cif
#   From: 2010.05.17/outbox.cif.g08.bks.cpg/sg2_243_cif.got.tgz:484370.got - 2010.06.03 11:33:40.
