data_PCOD9050343
_publ_section_title
;
Structure prediction by ZEFSAII (Michael W. Deem and Ramdas Pophale) SiO2 
 PCOD9050343
Probable space group: P -1
;
_chemical_formula_sum "Si O2"
_cell_formula_units_Z 16
_cell_length_a 5.208632
_cell_length_b 11.557682
_cell_length_c 11.047318
_cell_angle_alpha 63.661908
_cell_angle_beta 100.380386
_cell_angle_gamma 106.628556
_cell_volume 569.985251
_symmetry_space_group_name_H-M "P -1"
_symmetry_group_IT_number 2
_symmetry_cell_setting 'triclinic'
loop_
_space_group_symop_operation_xyz
x,y,z
-x,-y,-z
loop_
_atom_site_type_symbol
_atom_site_label
_atom_site_fract_x
_atom_site_fract_y
_atom_site_fract_z
Si Si1 0.474152 0.069006 0.278882
Si Si2 0.747047 0.384902 0.576120
Si Si3 0.782406 0.725903 0.740218
Si Si4 0.686978 0.822662 0.468762
Si Si5 0.531191 0.858284 0.014595
Si Si6 0.512708 0.433568 0.778168
Si Si7 0.191575 0.426380 0.975955
Si Si8 0.012276 0.147508 0.767170
O O1 0.441035 0.188447 0.304527
O O2 0.613494 0.964283 0.401379
O O3 0.586870 0.133189 0.132900
O O4 0.191783 0.982444 0.241425
O O5 0.567063 0.304253 0.490218
O O6 0.556747 0.430012 0.639602
O O7 0.000000 0.500000 0.500000
O O8 0.860581 0.265542 0.700582
O O9 0.910765 0.801544 0.594264
O O10 0.703811 0.574029 0.764116
O O11 0.860010 0.714150 0.892837
O O12 0.777390 0.818737 0.339433
O O13 0.408210 0.702341 0.109001
O O14 0.833529 0.864138 0.090090
O O15 0.500000 0.000000 0.000000
O O16 0.233940 0.429292 0.832160
O O17 0.500000 0.500000 0.000000
O O18 0.000000 0.500000 0.000000
#
# Coordination Sequence:
#
# PCOD9050343 Si02
#       8
#     2   2   2   2   2   2   2   2
#     4  11  24  46  69 109 148 201 261 317 392 473
#     4  11  25  46  77 114 154 198 258 333 396 477
#     4  11  25  47  73 110 152 210 252 325 392 481
#     4  11  24  48  73 107 156 200 261 318 400 474
#     4  12  22  44  76 103 149 197 259 323 389 462
#     4  11  24  47  77 110 151 200 261 322 402 459
#     4  10  24  51  74 112 158 206 263 323 401 473
#     4  11  24  44  74 105 145 200 258 320 394 464
#
# _framework density 28.070905
#
# number of rings (size 3 to 8) (size 9 to 14) (size 15 to 20)
#    0.000    1.000    3.750    2.250    1.750    3.500 
#   22.500    0.000    0.000    0.000    0.000    0.000 
#    0.000    0.000    0.000    0.000    0.000    0.000 
#
# Total GULP energy -89205.081334 kJ/mol
# GULP energy per Si atom -5575.317583 kJ/mol
# Density = 2.800701 g / cm^3
# Si number density = 28.070905 Si / 1000 Ang^3
#
#
#
# Elastic Constant Matrix: (Units=GPa)
#
#
# Indices 1 2 3 4 5 6 
#
# 1 116.9805 56.0495 40.3236 -5.4544 -8.8183 -9.3027
# 2 56.0495 195.5709 37.2243 -16.0528 -17.9831 -15.1957
# 3 40.3236 37.2243 190.9869 -12.4170 3.7310 -9.6145
# 4 -5.4544 -16.0528 -12.4170 50.2049 -13.6068 0.9808
# 5 -8.8183 -17.9831 3.7310 -13.6068 39.3289 -4.8883
# 6 -9.3027 -15.1957 -9.6145 0.9808 -4.8883 59.8588
#
#
#
# Elastic Compliance Matrix: (Units=1/GPa)
#
#
# Indices 1 2 3 4 5 6 
#
# 1 0.010517 -0.002440 -0.001709 0.000367 0.001639 0.000868
# 2 -0.002440 0.006588 -0.000594 0.002647 0.003618 0.001450
# 3 -0.001709 -0.000594 0.005804 0.000816 -0.000870 0.000431
# 4 0.000367 0.002647 0.000816 0.023563 0.009523 0.001251
# 5 0.001639 0.003618 -0.000870 0.009523 0.031252 0.003429
# 6 0.000868 0.001450 0.000431 0.001251 0.003429 0.017538
#
#
# Mechanical properties :
#
#
# Convention : Reuss Voigt Hill
#
# Bulk Modulus (GPa) = 74.50905 85.63700 80.07303
# Shear Modulus (GPa) = 45.77781 54.54125 50.15953
#
# Velocity S-wave (km/s) = 4.04269 4.41271 4.23174
# Velocity P-wave (km/s) = 6.95643 7.51906 7.24321
#
# Compressibility (1/GPa) = 0.01342119
#
# Stress axis : x y z
#
# Youngs Moduli (GPa) = 95.08797 151.78406 172.28205
#
# Poissons Ratio (x) = 0.37041 0.29447
# Poissons Ratio (y) = 0.23205 0.10242
# Poissons Ratio (z) = 0.16253 0.09023
#
# Static dielectric constant tensor:
#      x y z
#    x 2.640890 0.131410 0.042710 
#    y 0.131410 2.352640 0.186760 
#    z 0.042710 0.186760 2.460200 
# 
# From -- ./inp_files/363904.got.cif
#   From: 2010.05.17/outbox.cif.g08.bks.cpg/sg2_182_cif.got.tgz:363904.got - 2010.06.03 11:33:40.
