data_PCOD9050150
_publ_section_title
;
Structure prediction by ZEFSAII (Michael W. Deem and Ramdas Pophale) SiO2 
 PCOD9050150
Probable space group: P -1
;
_chemical_formula_sum "Si O2"
_cell_formula_units_Z 14
_cell_length_a 8.944108
_cell_length_b 5.620488
_cell_length_c 22.943816
_cell_angle_alpha 63.065489
_cell_angle_beta 139.081838
_cell_angle_gamma 127.616406
_cell_volume 598.326482
_symmetry_space_group_name_H-M "P -1"
_symmetry_group_IT_number 2
_symmetry_cell_setting 'triclinic'
loop_
_space_group_symop_operation_xyz
x,y,z
-x,-y,-z
loop_
_atom_site_type_symbol
_atom_site_label
_atom_site_fract_x
_atom_site_fract_y
_atom_site_fract_z
Si Si1 0.646015 0.310708 0.141028
Si Si2 0.209647 0.642606 0.227469
Si Si3 0.833149 0.392879 0.596405
Si Si4 0.576738 0.302540 0.256235
Si Si5 0.631471 0.678836 0.610176
Si Si6 0.836616 0.500595 0.895379
Si Si7 0.303916 0.081715 0.965472
O O1 0.615690 0.245012 0.206493
O O2 0.644072 0.610763 0.083332
O O3 0.933320 0.392436 0.197603
O O4 0.392686 0.076289 0.058711
O O5 0.383884 0.484557 0.314730
O O6 0.144878 0.667542 0.138079
O O7 0.379084 0.983965 0.261125
O O8 0.766307 0.543558 0.617423
O O9 0.644948 0.405692 0.489873
O O10 0.134511 0.560178 0.650209
O O11 0.765031 0.039008 0.620501
O O12 0.448237 0.527542 0.185651
O O13 0.014677 0.852940 0.893635
O O14 0.000000 0.500000 0.000000
O O15 0.500000 0.000000 0.000000
#
# Coordination Sequence:
#
# PCOD9050150 Si02
#       7
#     2   2   2   2   2   2   2
#     4  11  24  42  66  93 135 187 244 291 364 429
#     4  12  26  44  71 106 141 193 244 299 369 446
#     4  10  24  48  79 112 147 191 239 308 375 439
#     4  12  27  43  70 107 144 188 241 312 363 435
#     4  10  24  48  80 110 146 193 245 297 373 458
#     4  12  27  42  65 102 146 188 250 307 358 431
#     4  11  22  40  63  89 130 191 236 297 357 422
#
# _framework density 23.398598
#
# number of rings (size 3 to 8) (size 9 to 14) (size 15 to 20)
#    0.000    0.857    4.286    1.714    8.000    2.857 
#    0.000    0.714    0.000    0.000    0.000    0.000 
#    0.000    0.000    0.000    0.000    0.000    0.000 
#
# Total GULP energy -77979.452590 kJ/mol
# GULP energy per Si atom -5569.960899 kJ/mol
# Density = 2.334534 g / cm^3
# Si number density = 23.398598 Si / 1000 Ang^3
#
#
#
# Elastic Constant Matrix: (Units=GPa)
#
#
# Indices 1 2 3 4 5 6 
#
# 1 39.8015 -5.6262 7.4255 6.6576 9.1666 -2.9445
# 2 -5.6262 58.3603 34.2170 13.6335 12.4746 -11.4887
# 3 7.4255 34.2170 128.7126 -0.9422 20.2866 -2.2093
# 4 6.6576 13.6335 -0.9422 44.1525 6.6842 6.0484
# 5 9.1666 12.4746 20.2866 6.6842 41.6370 -0.1941
# 6 -2.9445 -11.4887 -2.2093 6.0484 -0.1941 27.7819
#
#
#
# Elastic Compliance Matrix: (Units=1/GPa)
#
#
# Indices 1 2 3 4 5 6 
#
# 1 0.030666 0.009878 -0.003227 -0.007908 -0.006828 0.008752
# 2 0.009878 0.029322 -0.007342 -0.011960 -0.005392 0.015155
# 3 -0.003227 -0.007342 0.010310 0.003858 -0.002748 -0.003418
# 4 -0.007908 -0.011960 0.003858 0.029449 -0.001339 -0.011898
# 5 -0.006828 -0.005392 -0.002748 -0.001339 0.028677 -0.002680
# 6 0.008752 0.015155 -0.003418 -0.011898 -0.002680 0.045489
#
#
# Mechanical properties :
#
#
# Convention : Reuss Voigt Hill
#
# Bulk Modulus (GPa) = 14.51044 33.21189 23.86117
# Shear Modulus (GPa) = 25.21852 35.43816 30.32834
#
# Velocity S-wave (km/s) = 3.28652 3.89593 3.60413
# Velocity P-wave (km/s) = 4.54054 5.87048 5.24781
#
# Compressibility (1/GPa) = 0.06891588
#
# Stress axis : x y z
#
# Youngs Moduli (GPa) = 32.60956 34.10420 96.99241
#
# Poissons Ratio (x) = -0.33688 0.31295
# Poissons Ratio (y) = -0.32212 0.71216
# Poissons Ratio (z) = 0.10522 0.25041
#
# Static dielectric constant tensor:
#      x y z
#    x 2.092410 -0.050590 0.308850 
#    y -0.050590 1.991030 -0.025810 
#    z 0.308850 -0.025810 2.724080 
# 
# From -- ./inp_files/48484.got.cif
#   From: 2010.05.17/outbox.cif.g08.bks.cpg/sg2_25_cif.got.tgz:48484.got - 2010.06.03 11:33:40.
