data_PCOD9050556
_publ_section_title
;
Structure prediction by ZEFSAII (Michael W. Deem and Ramdas Pophale) SiO2 
 PCOD9050556
Probable space group: P -1
;
_chemical_formula_sum "Si O2"
_cell_formula_units_Z 16
_cell_length_a 8.702644
_cell_length_b 13.971121
_cell_length_c 8.304203
_cell_angle_alpha 104.963505
_cell_angle_beta 71.547034
_cell_angle_gamma 137.464541
_cell_volume 646.998365
_symmetry_space_group_name_H-M "P -1"
_symmetry_group_IT_number 2
_symmetry_cell_setting 'triclinic'
loop_
_space_group_symop_operation_xyz
x,y,z
-x,-y,-z
loop_
_atom_site_type_symbol
_atom_site_label
_atom_site_fract_x
_atom_site_fract_y
_atom_site_fract_z
Si Si1 0.884925 0.087914 0.678446
Si Si2 0.047622 0.817152 0.633645
Si Si3 0.247731 0.603774 0.046783
Si Si4 0.439557 0.432795 0.168593
Si Si5 0.633068 0.202478 0.370640
Si Si6 0.431389 0.640295 0.326576
Si Si7 0.706400 0.168980 0.984819
Si Si8 0.132492 0.057092 0.813476
O O1 0.031092 0.182951 0.516646
O O2 0.960510 0.022605 0.717435
O O3 0.625295 0.954557 0.639245
O O4 0.896075 0.183719 0.842369
O O5 0.208551 0.791621 0.558355
O O6 0.827192 0.710567 0.775344
O O7 0.199088 0.973147 0.722623
O O8 0.235370 0.563547 0.219566
O O9 0.404354 0.596633 0.887628
O O10 0.349587 0.759812 0.072690
O O11 0.000000 0.500000 0.000000
O O12 0.473973 0.545211 0.316185
O O13 0.500000 0.500000 0.000000
O O14 0.611612 0.303830 0.488708
O O15 0.753117 0.234753 0.172812
O O16 0.651487 0.776989 0.211750
O O17 0.500000 0.000000 0.000000
O O18 0.000000 0.000000 0.000000
#
# Coordination Sequence:
#
# PCOD9050556 Si02
#       8
#     2   2   2   2   2   2   2   2
#     4  11  25  46  75 114 153 192 261 312 387 454
#     4  12  25  45  77 105 155 204 248 321 382 444
#     4  11  26  48  75 104 149 198 254 313 374 453
#     4  10  26  49  71 106 152 200 255 306 381 455
#     4  11  25  45  76 112 154 192 256 311 381 451
#     4  11  26  48  73 106 158 194 256 317 375 454
#     4  10  25  42  75 105 146 189 250 312 379 452
#     4  12  26  43  76 108 150 200 255 322 389 445
#
# _framework density 24.729581
#
# number of rings (size 3 to 8) (size 9 to 14) (size 15 to 20)
#    0.000    1.000    1.250    3.750   15.750    0.500 
#    2.250    1.250    0.000    0.000    0.000    0.000 
#    0.000    0.000    0.000    0.000    0.000    0.000 
#
# Total GULP energy -89530.332323 kJ/mol
# GULP energy per Si atom -5595.645770 kJ/mol
# Density = 2.467330 g / cm^3
# Si number density = 24.729581 Si / 1000 Ang^3
#
#
#
# Elastic Constant Matrix: (Units=GPa)
#
#
# Indices 1 2 3 4 5 6 
#
# 1 113.3496 36.1415 22.7824 9.4315 -23.8048 -4.5062
# 2 36.1415 99.5193 17.2138 7.3235 -7.7717 -4.7761
# 3 22.7824 17.2138 131.5918 18.3054 -11.7073 -3.6628
# 4 9.4315 7.3235 18.3054 36.8605 -22.0575 -10.2659
# 5 -23.8048 -7.7717 -11.7073 -22.0575 43.1121 12.6365
# 6 -4.5062 -4.7761 -3.6628 -10.2659 12.6365 43.6019
#
#
#
# Elastic Compliance Matrix: (Units=1/GPa)
#
#
# Indices 1 2 3 4 5 6 
#
# 1 0.011404 -0.003605 -0.001236 0.002184 0.006643 -0.000731
# 2 -0.003605 0.011548 -0.000763 -0.001411 -0.001075 0.000807
# 3 -0.001236 -0.000763 0.008431 -0.004140 -0.000556 -0.000317
# 4 0.002184 -0.001411 -0.004140 0.042072 0.020250 0.003760
# 5 0.006643 -0.001075 -0.000556 0.020250 0.038609 -0.005899
# 6 -0.000731 0.000807 -0.000317 0.003760 -0.005899 0.025516
#
#
# Mechanical properties :
#
#
# Convention : Reuss Voigt Hill
#
# Bulk Modulus (GPa) = 49.56654 55.19290 52.37972
# Shear Modulus (GPa) = 32.15158 42.60311 37.37734
#
# Velocity S-wave (km/s) = 3.60964 4.15512 3.89195
# Velocity P-wave (km/s) = 6.12042 6.73699 6.43609
#
# Compressibility (1/GPa) = 0.02017490
#
# Stress axis : x y z
#
# Youngs Moduli (GPa) = 87.68482 86.59389 118.61418
#
# Poissons Ratio (x) = 0.31216 0.14660
# Poissons Ratio (y) = 0.31609 0.09055
# Poissons Ratio (z) = 0.10838 0.06610
#
# Static dielectric constant tensor:
#      x y z
#    x 2.003150 0.018190 0.031840 
#    y 0.018190 1.991620 0.002260 
#    z 0.031840 0.002260 2.005850 
# 
# From -- ./inp_files/208227.got.cif
#   From: 2010.05.17/outbox.cif.g08.bks.cpg/sg2_105_cif.got.tgz:208227.got - 2010.06.03 11:33:40.
