data_PCOD9050222
_publ_section_title
;
Structure prediction by ZEFSAII (Michael W. Deem and Ramdas Pophale) SiO2 
 PCOD9050222
Probable space group: P -1
;
_chemical_formula_sum "Si O2"
_cell_formula_units_Z 15
_cell_length_a 8.302262
_cell_length_b 15.158778
_cell_length_c 6.115019
_cell_angle_alpha 58.235640
_cell_angle_beta 116.936154
_cell_angle_gamma 103.261578
_cell_volume 583.291875
_symmetry_space_group_name_H-M "P -1"
_symmetry_group_IT_number 2
_symmetry_cell_setting 'triclinic'
loop_
_space_group_symop_operation_xyz
x,y,z
-x,-y,-z
loop_
_atom_site_type_symbol
_atom_site_label
_atom_site_fract_x
_atom_site_fract_y
_atom_site_fract_z
Si Si1 0.000000 0.000000 0.500000
Si Si2 0.233108 0.700223 0.195284
Si Si3 0.428184 0.882771 0.162594
Si Si4 0.706448 0.002424 0.695893
Si Si5 0.808349 0.504536 0.757559
Si Si6 0.146055 0.339457 0.765340
Si Si7 0.453031 0.386762 0.211957
Si Si8 0.196269 0.171981 0.664319
O O1 0.932251 0.889413 0.493276
O O2 0.164046 0.002306 0.421029
O O3 0.298092 0.815112 0.016600
O O4 0.267417 0.611728 0.151888
O O5 0.364558 0.669480 0.519545
O O6 0.025832 0.688682 0.156000
O O7 0.297481 0.900484 0.266912
O O8 0.614125 0.818401 0.359241
O O9 0.500000 0.000000 0.000000
O O10 0.500000 0.000000 0.500000
O O11 0.760730 0.905992 0.006338
O O12 0.841105 0.545298 0.478427
O O13 0.672526 0.580558 0.701580
O O14 0.000000 0.500000 0.000000
O O15 0.130060 0.272020 0.622033
O O16 0.329007 0.327555 0.035154
O O17 0.500000 0.500000 0.000000
#
# Coordination Sequence:
#
# PCOD9050222 Si02
#       8
#     1   2   2   2   2   2   2   2
#     4  12  24  46  78 102 152 196 260 318 392 452
#     4  12  25  48  78 110 155 205 258 319 395 463
#     4  10  24  49  73 109 150 202 260 322 383 462
#     4  11  24  47  73 107 146 196 256 322 383 463
#     4  12  25  49  76 114 155 199 252 318 388 471
#     4  12  27  50  72 117 157 194 263 316 389 482
#     4  12  26  45  79 112 156 203 250 322 391 467
#     4  11  26  47  74 107 150 200 255 320 392 462
#
# _framework density 25.716114999999999
#
# number of rings (size 3 to 8) (size 9 to 14) (size 15 to 20)
#    0.000    0.533    4.000    3.600    3.733    2.133 
#    4.800    0.000    0.000    0.000    0.000    0.000 
#    0.000    0.000    0.000    0.000    0.000    0.000 
#
# Total GULP energy -83685.149483 kJ/mol
# GULP energy per Si atom -5579.009966 kJ/mol
# Density = 2.565758 g / cm^3
# Si number density = 25.716115 Si / 1000 Ang^3
#
#
#
# Elastic Constant Matrix: (Units=GPa)
#
#
# Indices 1 2 3 4 5 6 
#
# 1 132.6425 19.7689 17.9923 0.0346 -16.6537 6.4131
# 2 19.7689 166.4788 10.9869 27.1554 -10.2940 5.0755
# 3 17.9923 10.9869 89.6561 -5.2715 13.7185 14.2408
# 4 0.0346 27.1554 -5.2715 37.0410 5.9907 3.4566
# 5 -16.6537 -10.2940 13.7185 5.9907 33.1293 16.9828
# 6 6.4131 5.0755 14.2408 3.4566 16.9828 42.7718
#
#
#
# Elastic Compliance Matrix: (Units=1/GPa)
#
#
# Indices 1 2 3 4 5 6 
#
# 1 0.008989 -0.000162 -0.002450 -0.001123 0.007410 -0.003365
# 2 -0.000162 0.007564 -0.001768 -0.006452 0.005080 -0.001780
# 3 -0.002450 -0.001768 0.013487 0.004556 -0.007527 -0.001293
# 4 -0.001123 -0.006452 0.004556 0.034083 -0.011185 0.001104
# 5 0.007410 0.005080 -0.007527 -0.011185 0.049919 -0.018125
# 6 -0.003365 -0.001780 -0.001293 0.001104 -0.018125 0.031633
#
#
# Mechanical properties :
#
#
# Convention : Reuss Voigt Hill
#
# Bulk Modulus (GPa) = 46.99263 54.03042 50.51153
# Shear Modulus (GPa) = 30.95459 45.25704 38.10582
#
# Velocity S-wave (km/s) = 3.47321 4.19963 3.85358
# Velocity P-wave (km/s) = 5.86494 6.67621 6.28368
#
# Compressibility (1/GPa) = 0.02127993
#
# Stress axis : x y z
#
# Youngs Moduli (GPa) = 111.24930 132.21340 74.14579
#
# Poissons Ratio (x) = 0.02139 0.18162
# Poissons Ratio (y) = 0.01800 0.13112
# Poissons Ratio (z) = 0.27251 0.23380
#
# Static dielectric constant tensor:
#      x y z
#    x 2.095930 0.082430 -0.195830 
#    y 0.082430 2.155190 -0.211500 
#    z -0.195830 -0.211500 2.441320 
# 
# From -- ./inp_files/37740.got.cif
#   From: 2010.05.17/outbox.cif.g08.bks.cpg/sg2_19_cif.got.tgz:37740.got - 2010.06.03 11:33:40.
