data_PCOD9050427
_publ_section_title
;
Structure prediction by ZEFSAII (Michael W. Deem and Ramdas Pophale) SiO2 
 PCOD9050427
Probable space group: P -1
;
_chemical_formula_sum "Si O2"
_cell_formula_units_Z 16
_cell_length_a 14.838640
_cell_length_b 8.659572
_cell_length_c 12.039262
_cell_angle_alpha 39.529533
_cell_angle_beta 51.155273
_cell_angle_gamma 73.270151
_cell_volume 704.449467
_symmetry_space_group_name_H-M "P -1"
_symmetry_group_IT_number 2
_symmetry_cell_setting 'triclinic'
loop_
_space_group_symop_operation_xyz
x,y,z
-x,-y,-z
loop_
_atom_site_type_symbol
_atom_site_label
_atom_site_fract_x
_atom_site_fract_y
_atom_site_fract_z
Si Si1 0.216119 0.669353 0.169678
Si Si2 0.146609 0.844376 0.473569
Si Si3 0.868398 0.861148 0.062539
Si Si4 0.863666 0.586957 0.848094
Si Si5 0.384633 0.497814 0.664372
Si Si6 0.629166 0.006631 0.941559
Si Si7 0.861162 0.846688 0.340010
Si Si8 0.254085 0.821948 0.645309
O O1 0.141371 0.858999 0.108754
O O2 0.228552 0.575967 0.088276
O O3 0.339313 0.853740 0.040137
O O4 0.149524 0.405386 0.440063
O O5 0.252822 0.830726 0.317575
O O6 0.189524 0.834631 0.571625
O O7 0.006254 0.630119 0.681684
O O8 0.138974 0.126055 0.301938
O O9 0.004125 0.908229 0.880655
O O10 0.746309 0.641611 0.224133
O O11 0.861031 0.808994 0.228788
O O12 0.825605 0.430963 0.078057
O O13 0.500000 0.500000 0.500000
O O14 0.381945 0.775610 0.549448
O O15 0.378383 0.291070 0.879943
O O16 0.500000 0.000000 0.000000
O O17 0.749383 0.932965 0.417382
#
# Coordination Sequence:
#
# PCOD9050427 Si02
#       8
#     2   2   2   2   2   2   2   2
#     4  11  24  42  70  96 143 176 225 280 335 409
#     4  11  25  40  69 100 141 182 221 278 340 406
#     4  10  25  41  65 100 141 175 228 274 334 411
#     4  11  24  42  64 107 140 175 224 276 348 407
#     4  11  26  45  70  96 134 184 234 282 335 403
#     4  11  26  47  70  97 132 184 237 279 335 408
#     4  11  24  39  67 105 135 181 214 278 354 397
#     4  12  24  42  70 100 145 175 225 281 342 412
#
# _framework density 22.712772999999999
#
# number of rings (size 3 to 8) (size 9 to 14) (size 15 to 20)
#    0.000    1.000    3.750    1.500   12.250    0.000 
#    0.000    1.250    5.500    0.000    0.000    0.000 
#    0.000    0.000    0.000    0.000    0.000    0.000 
#
# Total GULP energy -89488.428394 kJ/mol
# GULP energy per Si atom -5593.026775 kJ/mol
# Density = 2.266108 g / cm^3
# Si number density = 22.712773 Si / 1000 Ang^3
#
#
#
# Elastic Constant Matrix: (Units=GPa)
#
#
# Indices 1 2 3 4 5 6 
#
# 1 53.1559 -12.4534 25.4054 16.5990 8.0981 -1.9883
# 2 -12.4534 63.7624 29.2413 11.6273 -4.9053 -12.4864
# 3 25.4054 29.2413 99.2638 9.6171 29.8690 -17.5470
# 4 16.5990 11.6273 9.6171 35.4682 -10.8446 2.1147
# 5 8.0981 -4.9053 29.8690 -10.8446 45.9513 0.6519
# 6 -1.9883 -12.4864 -17.5470 2.1147 0.6519 32.0131
#
#
#
# Elastic Compliance Matrix: (Units=1/GPa)
#
#
# Indices 1 2 3 4 5 6 
#
# 1 0.033380 0.014978 -0.009676 -0.018910 -0.002513 0.003912
# 2 0.014978 0.027420 -0.010987 -0.012018 0.004503 0.006305
# 3 -0.009676 -0.010987 0.021624 -0.002525 -0.014225 0.007423
# 4 -0.018910 -0.012018 -0.002525 0.046859 0.014901 -0.010645
# 5 -0.002513 0.004503 -0.014225 0.014901 0.035561 -0.007905
# 6 0.003912 0.006305 0.007423 -0.010645 -0.007905 0.038872
#
#
# Mechanical properties :
#
#
# Convention : Reuss Voigt Hill
#
# Bulk Modulus (GPa) = 14.07369 33.39651 23.73510
# Shear Modulus (GPa) = 20.94054 34.28580 27.61317
#
# Velocity S-wave (km/s) = 3.03969 3.88949 3.49055
# Velocity P-wave (km/s) = 4.30459 5.90818 5.16895
#
# Compressibility (1/GPa) = 0.07105459
#
# Stress axis : x y z
#
# Youngs Moduli (GPa) = 29.95797 36.46993 46.24427
#
# Poissons Ratio (x) = -0.54624 0.44745
# Poissons Ratio (y) = -0.44870 0.50808
# Poissons Ratio (z) = 0.28987 0.40069
#
# Static dielectric constant tensor:
#      x y z
#    x 1.809580 -0.005760 0.004260 
#    y -0.005760 1.928310 -0.014390 
#    z 0.004260 -0.014390 1.844290 
# 
# From -- ./inp_files/272760.got.cif
#   From: 2010.05.17/outbox.cif.g08.bks.cpg/sg2_137_cif.got.tgz:272760.got - 2010.06.03 11:33:40.
