data_PCOD9050655
_publ_section_title
;
Structure prediction by ZEFSAII (Michael W. Deem and Ramdas Pophale) SiO2 
 PCOD9050655
Probable space group: P -1
;
_chemical_formula_sum "Si O2"
_cell_formula_units_Z 16
_cell_length_a 9.384807
_cell_length_b 15.520463
_cell_length_c 10.660527
_cell_angle_alpha 78.770295
_cell_angle_beta 93.366181
_cell_angle_gamma 150.885850
_cell_volume 720.560668
_symmetry_space_group_name_H-M "P -1"
_symmetry_group_IT_number 2
_symmetry_cell_setting 'triclinic'
loop_
_space_group_symop_operation_xyz
x,y,z
-x,-y,-z
loop_
_atom_site_type_symbol
_atom_site_label
_atom_site_fract_x
_atom_site_fract_y
_atom_site_fract_z
Si Si1 0.771257 0.186896 0.041794
Si Si2 0.287084 0.430274 0.805982
Si Si3 0.956571 0.741208 0.723810
Si Si4 0.050805 0.121042 0.767405
Si Si5 0.219539 0.577648 0.690001
Si Si6 0.198489 0.021370 0.476560
Si Si7 0.686266 0.410378 0.756240
Si Si8 0.556866 0.267991 0.058204
O O1 0.697653 0.248892 0.042336
O O2 0.816181 0.162979 0.182341
O O3 0.080086 0.339693 0.939514
O O4 0.500000 0.000000 0.000000
O O5 0.643303 0.613056 0.795988
O O6 0.164099 0.272109 0.792146
O O7 0.236593 0.483374 0.691605
O O8 0.851038 0.593178 0.693845
O O9 0.109478 0.894980 0.599149
O O10 0.353391 0.229090 0.733302
O O11 0.889415 0.053951 0.647594
O O12 0.802386 0.938147 0.890715
O O13 0.331008 0.644817 0.822534
O O14 0.894149 0.445045 0.707652
O O15 0.455775 0.760896 0.569377
O O16 0.000000 0.000000 0.500000
O O17 0.642784 0.375379 0.914870
#
# Coordination Sequence:
#
# PCOD9050655 Si02
#       8
#     2   2   2   2   2   2   2   2
#     4  12  23  40  68 104 139 167 218 276 335 392
#     4  11  22  42  69 103 134 171 219 275 336 386
#     4  11  25  44  68  97 131 181 224 267 334 391
#     4  10  25  43  69  98 135 177 219 272 329 392
#     4  11  22  42  70  95 132 182 220 272 329 391
#     4  11  25  50  69  90 133 183 227 268 325 398
#     4  11  22  40  69 103 131 172 220 276 330 391
#     4  11  21  41  65  98 142 174 212 271 337 397
#
# _framework density 22.204930000000001
#
# number of rings (size 3 to 8) (size 9 to 14) (size 15 to 20)
#    0.000    1.000    5.000    1.875    0.000    4.500 
#    0.000    1.875    0.000    0.000    0.000    0.000 
#    0.000    0.000    0.000    0.000    0.000    0.000 
#
# Total GULP energy -89563.800410 kJ/mol
# GULP energy per Si atom -5597.737526 kJ/mol
# Density = 2.215439 g / cm^3
# Si number density = 22.204930 Si / 1000 Ang^3
#
#
#
# Elastic Constant Matrix: (Units=GPa)
#
#
# Indices 1 2 3 4 5 6 
#
# 1 87.1954 20.0959 1.4608 -12.7287 13.2179 14.1099
# 2 20.0959 59.7202 13.3663 -19.1899 3.5331 15.3821
# 3 1.4608 13.3663 78.8190 -26.9042 20.1959 -0.9331
# 4 -12.7287 -19.1899 -26.9042 30.3753 -5.4450 0.2055
# 5 13.2179 3.5331 20.1959 -5.4450 33.4416 -4.4126
# 6 14.1099 15.3821 -0.9331 0.2055 -4.4126 36.3718
#
#
#
# Elastic Compliance Matrix: (Units=1/GPa)
#
#
# Indices 1 2 3 4 5 6 
#
# 1 0.015183 -0.001439 0.004832 0.008299 -0.008234 -0.006203
# 2 -0.001439 0.024839 0.001744 0.016382 -0.001789 -0.010211
# 3 0.004832 0.001744 0.022715 0.020961 -0.012889 -0.003711
# 4 0.008299 0.016382 0.020961 0.063823 -0.008733 -0.011030
# 5 -0.008234 -0.001789 -0.012889 -0.008733 0.040846 0.008625
# 6 -0.006203 -0.010211 -0.003711 -0.011030 0.008625 0.035232
#
#
# Mechanical properties :
#
#
# Convention : Reuss Voigt Hill
#
# Bulk Modulus (GPa) = 13.69676 32.84229 23.26953
# Shear Modulus (GPa) = 23.07319 32.75851 27.91585
#
# Velocity S-wave (km/s) = 3.22701 3.84511 3.54954
# Velocity P-wave (km/s) = 4.47957 5.87671 5.22505
#
# Compressibility (1/GPa) = 0.07300996
#
# Stress axis : x y z
#
# Youngs Moduli (GPa) = 65.86468 40.25996 44.02298
#
# Poissons Ratio (x) = 0.05793 -0.21271
# Poissons Ratio (y) = 0.09477 -0.07676
# Poissons Ratio (z) = -0.31824 -0.07020
#
# Static dielectric constant tensor:
#      x y z
#    x 1.815270 -0.001650 -0.012520 
#    y -0.001650 1.819670 -0.002220 
#    z -0.012520 -0.002220 1.816660 
# 
# From -- ./inp_files/207603.got.cif
#   From: 2010.05.17/outbox.cif.g08.bks.cpg/sg2_104_cif.got.tgz:207603.got - 2010.06.03 11:33:40.
