data_PCOD9050926
_publ_section_title
;
Structure prediction by ZEFSAII (Michael W. Deem and Ramdas Pophale) SiO2 
 PCOD9050926
Probable space group: P -1
;
_chemical_formula_sum "Si O2"
_cell_formula_units_Z 16
_cell_length_a 12.168602
_cell_length_b 20.767870
_cell_length_c 5.022455
_cell_angle_alpha 77.989255
_cell_angle_beta 74.723603
_cell_angle_gamma 32.612514
_cell_volume 659.665983
_symmetry_space_group_name_H-M "P -1"
_symmetry_group_IT_number 2
_symmetry_cell_setting 'triclinic'
loop_
_space_group_symop_operation_xyz
x,y,z
-x,-y,-z
loop_
_atom_site_type_symbol
_atom_site_label
_atom_site_fract_x
_atom_site_fract_y
_atom_site_fract_z
Si Si1 0.790015 0.087097 0.717616
Si Si2 0.755925 0.453456 0.373149
Si Si3 0.061998 0.119508 0.213797
Si Si4 0.373420 0.246555 0.636449
Si Si5 0.798666 0.339765 0.944185
Si Si6 0.325683 0.718347 0.286089
Si Si7 0.115989 0.386145 0.180032
Si Si8 0.469820 0.969209 0.301565
O O1 0.601185 0.167938 0.560886
O O2 0.723088 0.182854 0.848311
O O3 0.847897 0.988850 0.896643
O O4 0.000000 0.000000 0.500000
O O5 0.222950 0.595638 0.323842
O O6 0.553592 0.597276 0.364588
O O7 0.958980 0.400449 0.261201
O O8 0.733736 0.408232 0.197192
O O9 0.850238 0.211520 0.438153
O O10 0.238769 0.052568 0.364012
O O11 0.022513 0.200853 0.980604
O O12 0.209149 0.355561 0.439363
O O13 0.384321 0.164012 0.644890
O O14 0.309443 0.280545 0.956056
O O15 0.689532 0.326869 0.905364
O O16 0.000000 0.500000 0.000000
O O17 0.500000 0.000000 0.500000
O O18 0.500000 0.000000 0.000000
#
# Coordination Sequence:
#
# PCOD9050926 Si02
#       8
#     2   2   2   2   2   2   2   2
#     4   9  22  51  74 110 138 193 242 299 358 425
#     4  12  28  44  74 107 143 191 238 292 359 428
#     4  10  25  44  72 106 143 185 239 299 355 432
#     4  11  25  48  72 106 144 184 237 301 348 426
#     4  12  26  45  71 106 148 182 241 292 362 423
#     4  11  24  46  74 101 148 187 241 298 356 421
#     4  12  27  49  74 105 145 192 241 291 355 427
#     4  11  26  42  71 102 139 184 232 283 365 426
#
# _framework density 24.2547
#
# number of rings (size 3 to 8) (size 9 to 14) (size 15 to 20)
#    0.000    1.000    1.250    3.375    8.750    1.500 
#   13.500    0.000    0.000    0.000    0.000    0.000 
#    0.000    0.000    0.000    0.000    0.000    0.000 
#
# Total GULP energy -89494.863557 kJ/mol
# GULP energy per Si atom -5593.428972 kJ/mol
# Density = 2.419950 g / cm^3
# Si number density = 24.254700 Si / 1000 Ang^3
#
#
#
# Elastic Constant Matrix: (Units=GPa)
#
#
# Indices 1 2 3 4 5 6 
#
# 1 83.4847 35.0736 1.9126 7.1064 -1.6025 -9.3923
# 2 35.0736 135.0530 20.6498 -15.1515 -11.5183 0.5524
# 3 1.9126 20.6498 85.6920 -5.5805 7.3729 -11.7361
# 4 7.1064 -15.1515 -5.5805 27.4313 -5.3008 -1.4721
# 5 -1.6025 -11.5183 7.3729 -5.3008 16.4519 -1.9167
# 6 -9.3923 0.5524 -11.7361 -1.4721 -1.9167 43.1561
#
#
#
# Elastic Compliance Matrix: (Units=1/GPa)
#
#
# Indices 1 2 3 4 5 6 
#
# 1 0.015115 -0.005393 0.001349 -0.007395 -0.004912 0.003255
# 2 -0.005393 0.011321 -0.003197 0.009175 0.011631 -0.001359
# 3 0.001349 -0.003197 0.013549 -0.000706 -0.007982 0.003641
# 4 -0.007395 0.009175 -0.000706 0.047462 0.021387 0.000650
# 5 -0.004912 0.011631 -0.007982 0.021387 0.079015 0.000850
# 6 0.003255 -0.001359 0.003641 0.000650 0.000850 0.024948
#
#
# Mechanical properties :
#
#
# Convention : Reuss Voigt Hill
#
# Bulk Modulus (GPa) = 39.21203 46.61129 42.91166
# Shear Modulus (GPa) = 23.32167 33.84744 28.58456
#
# Velocity S-wave (km/s) = 3.10422 3.73969 3.43668
# Velocity P-wave (km/s) = 5.38982 6.15680 5.78603
#
# Compressibility (1/GPa) = 0.02550238
#
# Stress axis : x y z
#
# Youngs Moduli (GPa) = 66.16120 88.33266 73.80381
#
# Poissons Ratio (x) = 0.47642 -0.09958
# Poissons Ratio (y) = 0.35684 0.23595
# Poissons Ratio (z) = -0.08926 0.28240
#
# Static dielectric constant tensor:
#      x y z
#    x 1.941610 0.003050 -0.028030 
#    y 0.003050 1.963650 0.011510 
#    z -0.028030 0.011510 1.908550 
# 
# From -- ./inp_files/83182.got.cif
#   From: 2010.05.17/outbox.cif.g08.bks.cpg/sg2_42_cif.got.tgz:83182.got - 2010.06.03 11:33:40.
