data_PCOD9050145
_publ_section_title
;
Structure prediction by ZEFSAII (Michael W. Deem and Ramdas Pophale) SiO2 
 PCOD9050145
Probable space group: P -1
;
_chemical_formula_sum "Si O2"
_cell_formula_units_Z 14
_cell_length_a 10.997381
_cell_length_b 10.205539
_cell_length_c 9.165246
_cell_angle_alpha 131.324420
_cell_angle_beta 107.239435
_cell_angle_gamma 106.647234
_cell_volume 546.201898
_symmetry_space_group_name_H-M "P -1"
_symmetry_group_IT_number 2
_symmetry_cell_setting 'triclinic'
loop_
_space_group_symop_operation_xyz
x,y,z
-x,-y,-z
loop_
_atom_site_type_symbol
_atom_site_label
_atom_site_fract_x
_atom_site_fract_y
_atom_site_fract_z
Si Si1 0.831934 0.120428 0.269162
Si Si2 0.129675 0.282883 0.300609
Si Si3 0.870894 0.757136 0.037750
Si Si4 0.326137 0.871617 0.049792
Si Si5 0.715904 0.834535 0.547570
Si Si6 0.647422 0.996945 0.392258
Si Si7 0.162914 0.572802 0.027870
O O1 0.809418 0.141878 0.446057
O O2 0.009504 0.287598 0.363379
O O3 0.709302 0.123503 0.126855
O O4 0.791077 0.874415 0.077792
O O5 0.178111 0.394044 0.239046
O O6 0.283495 0.348236 0.501246
O O7 0.000000 0.000000 0.000000
O O8 0.817354 0.609112 0.055755
O O9 0.079431 0.957488 0.265344
O O10 0.335720 0.069487 0.278896
O O11 0.172309 0.636082 0.910940
O O12 0.487334 0.900484 0.165801
O O13 0.627304 0.805051 0.342924
O O14 0.682892 0.180964 0.657439
O O15 0.000000 0.500000 0.000000
#
# Coordination Sequence:
#
# PCOD9050145 Si02
#       7
#     2   2   2   2   2   2   2
#     4  10  19  36  57  80 109 148 184 219 269 327
#     4   8  14  29  56  77 102 136 184 219 260 313
#     4  10  17  34  62  80 104 142 187 230 266 312
#     4  11  19  37  57  77 115 151 178 212 275 342
#     4   9  15  32  55  79 102 139 188 216 259 318
#     4  11  23  32  56  86 113 141 184 220 271 332
#     4  11  20  37  58  83 109 140 186 228 272 314
#
# _framework density 25.631550000000001
#
# number of rings (size 3 to 8) (size 9 to 14) (size 15 to 20)
#    0.000    2.286    7.143    2.143    0.000    2.286 
#    0.000    4.286    0.000    0.000    0.000    0.000 
#    0.000    0.000    0.000    0.000    0.000    0.000 
#
# Total GULP energy -78165.721587 kJ/mol
# GULP energy per Si atom -5583.265828 kJ/mol
# Density = 2.557321 g / cm^3
# Si number density = 25.631550 Si / 1000 Ang^3
#
#
#
# Elastic Constant Matrix: (Units=GPa)
#
#
# Indices 1 2 3 4 5 6 
#
# 1 58.3923 27.6223 36.8224 -16.2561 17.7833 -5.1285
# 2 27.6223 93.5829 22.2843 -41.4741 7.3477 -18.3746
# 3 36.8224 22.2843 68.1263 -32.4025 -2.0839 -7.0156
# 4 -16.2561 -41.4741 -32.4025 45.1673 -3.4779 12.7819
# 5 17.7833 7.3477 -2.0839 -3.4779 36.8503 -19.6351
# 6 -5.1285 -18.3746 -7.0156 12.7819 -19.6351 41.2902
#
#
#
# Elastic Compliance Matrix: (Units=1/GPa)
#
#
# Indices 1 2 3 4 5 6 
#
# 1 0.047588 -0.014653 -0.031608 -0.016959 -0.031905 -0.015903
# 2 -0.014653 0.023307 0.012693 0.023728 0.009608 0.007932
# 3 -0.031608 0.012693 0.044030 0.030553 0.024056 0.011185
# 4 -0.016959 0.023728 0.030553 0.060556 0.010953 0.000107
# 5 -0.031905 0.009608 0.024056 0.010953 0.058330 0.028748
# 6 -0.015903 0.007932 0.011185 0.000107 0.028748 0.041311
#
#
# Mechanical properties :
#
#
# Convention : Reuss Voigt Hill
#
# Bulk Modulus (GPa) = 20.92543 43.72881 32.32712
# Shear Modulus (GPa) = 13.95911 33.55309 23.75610
#
# Velocity S-wave (km/s) = 2.33621 3.62201 3.04769
# Velocity P-wave (km/s) = 3.93177 5.88129 5.00242
#
# Compressibility (1/GPa) = 0.04778874
#
# Stress axis : x y z
#
# Youngs Moduli (GPa) = 21.01376 42.90487 22.71157
#
# Poissons Ratio (x) = 0.62868 0.71787
# Poissons Ratio (y) = 0.30791 -0.28827
# Poissons Ratio (z) = 0.66421 -0.54458
#
# Static dielectric constant tensor:
#      x y z
#    x 2.031330 -0.004630 0.023470 
#    y -0.004630 2.135080 0.035730 
#    z 0.023470 0.035730 2.071520 
# 
# From -- ./inp_files/260223.got.cif
#   From: 2010.05.17/outbox.cif.g08.bks.cpg/sg2_131_cif.got.tgz:260223.got - 2010.06.03 11:33:40.
