data_PCOD9050559
_publ_section_title
;
Structure prediction by ZEFSAII (Michael W. Deem and Ramdas Pophale) SiO2 
 PCOD9050559
Probable space group: P -1
;
_chemical_formula_sum "Si O2"
_cell_formula_units_Z 14
_cell_length_a 9.329492
_cell_length_b 17.620837
_cell_length_c 4.956628
_cell_angle_alpha 93.405172
_cell_angle_beta 80.405245
_cell_angle_gamma 50.155792
_cell_volume 601.824918
_symmetry_space_group_name_H-M "P -1"
_symmetry_group_IT_number 2
_symmetry_cell_setting 'triclinic'
loop_
_space_group_symop_operation_xyz
x,y,z
-x,-y,-z
loop_
_atom_site_type_symbol
_atom_site_label
_atom_site_fract_x
_atom_site_fract_y
_atom_site_fract_z
Si Si1 0.967440 0.251141 0.856808
Si Si2 0.565510 0.102760 0.978112
Si Si3 0.667441 0.460933 0.162917
Si Si4 0.757754 0.284366 0.419511
Si Si5 0.854413 0.551885 0.306012
Si Si6 0.508904 0.223215 0.512719
Si Si7 0.678145 0.923617 0.635116
O O1 0.811807 0.265743 0.710179
O O2 0.163064 0.171135 0.620439
O O3 0.876904 0.366287 0.939080
O O4 0.945158 0.221625 0.151371
O O5 0.528723 0.182331 0.796031
O O6 0.500000 0.000000 0.500000
O O7 0.717504 0.991991 0.773459
O O8 0.593616 0.130937 0.264431
O O9 0.341549 0.602239 0.618611
O O10 0.709930 0.529445 0.286900
O O11 0.500000 0.500000 0.000000
O O12 0.630892 0.255208 0.408681
O O13 0.713522 0.672965 0.419144
O O14 0.000000 0.500000 0.500000
O O15 0.000000 0.500000 0.000000
O O16 0.384077 0.110944 0.110562
#
# Coordination Sequence:
#
# PCOD9050559 Si02
#       7
#     2   2   2   2   2   2   2
#     4  10  25  42  76 104 139 185 256 305 352 456
#     4  11  26  42  75  99 138 190 236 301 380 447
#     4  10  26  48  78 105 148 209 253 300 376 461
#     4  10  25  45  73 101 146 194 252 298 365 452
#     4  12  30  44  70 114 155 196 251 320 379 446
#     4  12  25  47  69 103 149 192 243 310 380 438
#     4  11  25  48  74 104 140 191 245 301 393 462
#
# _framework density 23.262577
#
# number of rings (size 3 to 8) (size 9 to 14) (size 15 to 20)
#    0.857    0.286    1.429    2.571   12.000    3.429 
#    0.000    4.286    0.000    0.000    0.000    0.000 
#    0.000    0.000    0.000    0.000    0.000    0.000 
#
# Total GULP energy -78095.909914 kJ/mol
# GULP energy per Si atom -5578.279280 kJ/mol
# Density = 2.320963 g / cm^3
# Si number density = 23.262577 Si / 1000 Ang^3
#
#
#
# Elastic Constant Matrix: (Units=GPa)
#
#
# Indices 1 2 3 4 5 6 
#
# 1 75.7006 25.6951 15.0934 -0.7906 5.1096 14.7222
# 2 25.6951 80.4281 25.0453 6.9052 -12.4712 3.1914
# 3 15.0934 25.0453 126.8652 2.6327 4.2137 2.5529
# 4 -0.7906 6.9052 2.6327 53.1499 1.4940 -1.6841
# 5 5.1096 -12.4712 4.2137 1.4940 38.5960 -0.4620
# 6 14.7222 3.1914 2.5529 -1.6841 -0.4620 33.3944
#
#
#
# Elastic Compliance Matrix: (Units=1/GPa)
#
#
# Indices 1 2 3 4 5 6 
#
# 1 0.016870 -0.005632 -0.000640 0.000912 -0.004101 -0.006861
# 2 -0.005632 0.016213 -0.002719 -0.002199 0.006380 0.001119
# 3 -0.000640 -0.002719 0.008556 -0.000036 -0.001728 -0.000138
# 4 0.000912 -0.002199 -0.000036 0.019184 -0.001561 0.000757
# 5 -0.004101 0.006380 -0.001728 -0.001561 0.028783 0.001650
# 6 -0.006861 0.001119 -0.000138 0.000757 0.001650 0.032934
#
#
# Mechanical properties :
#
#
# Convention : Reuss Voigt Hill
#
# Bulk Modulus (GPa) = 42.27184 46.07351 44.17268
# Shear Modulus (GPa) = 33.69067 39.50541 36.59804
#
# Velocity S-wave (km/s) = 3.80975 4.12544 3.97073
# Velocity P-wave (km/s) = 6.12889 6.52236 6.32869
#
# Compressibility (1/GPa) = 0.02365641
#
# Stress axis : x y z
#
# Youngs Moduli (GPa) = 59.27727 61.67724 116.87296
#
# Poissons Ratio (x) = 0.34739 0.07477
# Poissons Ratio (y) = 0.33387 0.31784
# Poissons Ratio (z) = 0.03793 0.16773
#
# Static dielectric constant tensor:
#      x y z
#    x 1.908660 -0.021780 -0.029040 
#    y -0.021780 1.904830 0.086250 
#    z -0.029040 0.086250 1.919130 
# 
# From -- ./inp_files/45358.got.cif
#   From: 2010.05.17/outbox.cif.g08.bks.cpg/sg2_23_cif.got.tgz:45358.got - 2010.06.03 11:33:40.
