data_PCOD9050455
_publ_section_title
;
Structure prediction by ZEFSAII (Michael W. Deem and Ramdas Pophale) SiO2 
 PCOD9050455
Probable space group: P -1
;
_chemical_formula_sum "Si O2"
_cell_formula_units_Z 16
_cell_length_a 13.054554
_cell_length_b 10.955224
_cell_length_c 8.008726
_cell_angle_alpha 55.905934
_cell_angle_beta 57.123845
_cell_angle_gamma 49.598403
_cell_volume 692.424724
_symmetry_space_group_name_H-M "P -1"
_symmetry_group_IT_number 2
_symmetry_cell_setting 'triclinic'
loop_
_space_group_symop_operation_xyz
x,y,z
-x,-y,-z
loop_
_atom_site_type_symbol
_atom_site_label
_atom_site_fract_x
_atom_site_fract_y
_atom_site_fract_z
Si Si1 0.441630 0.496652 0.233273
Si Si2 0.385225 0.841303 0.114684
Si Si3 0.907866 0.306558 0.422386
Si Si4 0.426117 0.184416 0.340665
Si Si5 0.884510 0.797354 0.950529
Si Si6 0.140297 0.393497 0.560318
Si Si7 0.052224 0.978742 0.780760
Si Si8 0.678462 0.273363 0.422857
O O1 0.342677 0.701954 0.190181
O O2 0.435970 0.321637 0.348922
O O3 0.562795 0.441966 0.307238
O O4 0.500000 0.500000 0.000000
O O5 0.399214 0.795720 0.333490
O O6 0.507784 0.819798 0.896399
O O7 0.267066 0.038348 0.066607
O O8 0.829175 0.466390 0.490829
O O9 0.991649 0.144851 0.592153
O O10 0.788985 0.304965 0.409621
O O11 0.030355 0.314723 0.198775
O O12 0.258978 0.262117 0.432297
O O13 0.500000 0.000000 0.500000
O O14 0.877596 0.701315 0.192834
O O15 0.981689 0.877932 0.842235
O O16 0.000000 0.500000 0.500000
O O17 0.219837 0.867302 0.693543
O O18 0.000000 0.000000 0.000000
#
# Coordination Sequence:
#
# PCOD9050455 Si02
#       8
#     2   2   2   2   2   2   2   2
#     4  10  25  41  71 100 135 185 231 294 344 415
#     4  11  21  43  69  96 139 183 235 283 356 415
#     4  11  23  45  71 104 141 180 238 289 354 428
#     4  11  25  45  69 100 146 185 233 288 355 426
#     4  11  22  43  67  99 140 188 224 295 350 417
#     4  12  27  46  72 103 141 189 237 291 353 423
#     4  11  23  36  69 104 135 178 234 290 348 416
#     4  11  22  43  71 102 139 181 236 292 356 408
#
# _framework density 23.107206000000001
#
# number of rings (size 3 to 8) (size 9 to 14) (size 15 to 20)
#    0.000    1.000    3.750    3.000    3.500    6.000 
#    0.000    1.875    0.000    0.000    0.000    0.000 
#    0.000    0.000    0.000    0.000    0.000    0.000 
#
# Total GULP energy -89177.682204 kJ/mol
# GULP energy per Si atom -5573.605138 kJ/mol
# Density = 2.305461 g / cm^3
# Si number density = 23.107206 Si / 1000 Ang^3
#
#
#
# Elastic Constant Matrix: (Units=GPa)
#
#
# Indices 1 2 3 4 5 6 
#
# 1 31.5297 11.7454 11.5607 -5.5227 17.1707 -13.2560
# 2 11.7454 139.3029 67.6899 13.2423 1.1434 -31.6811
# 3 11.5607 67.6899 185.7055 14.5241 12.2754 -32.6401
# 4 -5.5227 13.2423 14.5241 65.1262 2.0630 -5.4604
# 5 17.1707 1.1434 12.2754 2.0630 30.1462 -6.5624
# 6 -13.2560 -31.6811 -32.6401 -5.4604 -6.5624 43.0287
#
#
#
# Elastic Compliance Matrix: (Units=1/GPa)
#
#
# Indices 1 2 3 4 5 6 
#
# 1 0.054553 -0.002844 0.001145 0.006882 -0.029292 0.011987
# 2 -0.002844 0.009919 -0.002734 -0.001364 0.003475 0.004710
# 3 0.001145 -0.002734 0.007103 -0.000574 -0.002696 0.003245
# 4 0.006882 -0.001364 -0.000574 0.016659 -0.004309 0.002138
# 5 -0.029292 0.003475 -0.002696 -0.004309 0.050833 -0.001304
# 6 0.011987 0.004710 0.003245 0.002138 -0.001304 0.032935
#
#
# Mechanical properties :
#
#
# Convention : Reuss Voigt Hill
#
# Bulk Modulus (GPa) = 15.94609 59.83667 37.89138
# Shear Modulus (GPa) = 24.78064 45.36304 35.07184
#
# Velocity S-wave (km/s) = 3.27834 4.43556 3.90011
# Velocity P-wave (km/s) = 4.60933 7.22383 6.05927
#
# Compressibility (1/GPa) = 0.06271130
#
# Stress axis : x y z
#
# Youngs Moduli (GPa) = 18.33080 100.81573 140.77944
#
# Poissons Ratio (x) = 0.28670 -0.16125
# Poissons Ratio (y) = 0.05213 0.38484
# Poissons Ratio (z) = -0.02100 0.27559
#
# Static dielectric constant tensor:
#      x y z
#    x 1.909350 0.051710 -0.079100 
#    y 0.051710 1.995650 0.090290 
#    z -0.079100 0.090290 1.881970 
# 
# From -- ./inp_files/306438.got.cif
#   From: 2010.05.17/outbox.cif.g08.bks.cpg/sg2_154_cif.got.tgz:306438.got - 2010.06.03 11:33:40.
