data_PCOD9050369
_publ_section_title
;
Structure prediction by ZEFSAII (Michael W. Deem and Ramdas Pophale) SiO2 
 PCOD9050369
Probable space group: P -1
;
_chemical_formula_sum "Si O2"
_cell_formula_units_Z 14
_cell_length_a 5.055402
_cell_length_b 10.696708
_cell_length_c 10.651360
_cell_angle_alpha 89.366602
_cell_angle_beta 62.511118
_cell_angle_gamma 89.295195
_cell_volume 510.908167
_symmetry_space_group_name_H-M "P -1"
_symmetry_group_IT_number 2
_symmetry_cell_setting 'triclinic'
loop_
_space_group_symop_operation_xyz
x,y,z
-x,-y,-z
loop_
_atom_site_type_symbol
_atom_site_label
_atom_site_fract_x
_atom_site_fract_y
_atom_site_fract_z
Si Si1 0.961428 0.585103 0.629103
Si Si2 0.537568 0.233424 0.236297
Si Si3 0.943399 0.573232 0.141700
Si Si4 0.088244 0.075433 0.693732
Si Si5 0.596623 0.256429 0.821658
Si Si6 0.827175 0.877259 0.910452
Si Si7 0.330732 0.837348 0.522333
O O1 0.623371 0.632486 0.726512
O O2 0.000000 0.500000 0.500000
O O3 0.064588 0.513805 0.732189
O O4 0.152975 0.709318 0.560669
O O5 0.891480 0.217704 0.140531
O O6 0.370434 0.157938 0.166371
O O7 0.487233 0.175273 0.385216
O O8 0.632400 0.648885 0.195130
O O9 0.221834 0.665477 0.111607
O O10 0.000000 0.500000 0.000000
O O11 0.963602 0.012321 0.849311
O O12 0.413955 0.133518 0.633211
O O13 0.871285 0.041722 0.406760
O O14 0.868621 0.184356 0.695709
O O15 0.390015 0.150175 0.928508
#
# Coordination Sequence:
#
# PCOD9050369 Si02
#       7
#     2   2   2   2   2   2   2
#     4  12  29  54  88 127 173 228 294 354 423 516
#     4  11  23  48  80 113 163 214 279 336 433 496
#     4  12  31  55  85 120 178 230 283 352 428 510
#     4  10  24  52  83 124 167 220 280 361 424 517
#     4  12  28  51  85 126 166 222 295 347 421 514
#     4  11  24  48  83 119 166 218 275 352 433 505
#     4  10  25  52  84 121 172 222 276 353 446 499
#
# _framework density 27.402184999999999
#
# number of rings (size 3 to 8) (size 9 to 14) (size 15 to 20)
#    0.000    0.857    2.857    2.571    6.000    4.571 
#    5.143    5.714    0.000    0.857    0.000    0.000 
#    0.000    0.000    0.000    0.000    0.000    0.000 
#
# Total GULP energy -78587.150686 kJ/mol
# GULP energy per Si atom -5613.367906 kJ/mol
# Density = 2.733982 g / cm^3
# Si number density = 27.402185 Si / 1000 Ang^3
#
#
#
# Elastic Constant Matrix: (Units=GPa)
#
#
# Indices 1 2 3 4 5 6 
#
# 1 192.3963 87.4797 63.4643 11.0789 6.2686 -15.2973
# 2 87.4797 183.8816 81.6534 11.0658 -2.3578 -12.3816
# 3 63.4643 81.6534 147.6111 -10.8670 0.4234 -6.9353
# 4 11.0789 11.0658 -10.8670 50.5495 3.0274 -4.3851
# 5 6.2686 -2.3578 0.4234 3.0274 64.5191 -3.3076
# 6 -15.2973 -12.3816 -6.9353 -4.3851 -3.3076 73.6243
#
#
#
# Elastic Compliance Matrix: (Units=1/GPa)
#
#
# Indices 1 2 3 4 5 6 
#
# 1 0.007043 -0.002468 -0.001717 -0.001265 -0.000664 0.000781
# 2 -0.002468 0.008442 -0.003745 -0.002114 0.000696 0.000460
# 3 -0.001717 -0.003745 0.009837 0.003333 -0.000184 0.000130
# 4 -0.001265 -0.002114 0.003333 0.021375 -0.000932 0.000927
# 5 -0.000664 0.000696 -0.000184 -0.000932 0.015665 0.000610
# 6 0.000781 0.000460 0.000130 0.000927 0.000610 0.013917
#
#
# Mechanical properties :
#
#
# Convention : Reuss Voigt Hill
#
# Bulk Modulus (GPa) = 105.69364 109.89821 107.79593
# Shear Modulus (GPa) = 52.46929 57.15804 54.81367
#
# Velocity S-wave (km/s) = 4.38057 4.57211 4.47737
# Velocity P-wave (km/s) = 8.01504 8.25015 8.13345
#
# Compressibility (1/GPa) = 0.00946131
#
# Stress axis : x y z
#
# Youngs Moduli (GPa) = 141.99058 118.45023 101.66005
#
# Poissons Ratio (x) = 0.29229 0.17460
# Poissons Ratio (y) = 0.35038 0.38073
# Poissons Ratio (z) = 0.24387 0.44361
#
# Static dielectric constant tensor:
#      x y z
#    x 2.111730 0.034110 0.037910 
#    y 0.034110 2.127640 -0.005730 
#    z 0.037910 -0.005730 2.205570 
# 
# From -- ./inp_files/131440.got.cif
#   From: 2010.05.17/outbox.cif.g08.bks.cpg/sg2_66_cif.got.tgz:131440.got - 2010.06.03 11:33:40.
