data_PCOD9050907
_publ_section_title
;
Structure prediction by ZEFSAII (Michael W. Deem and Ramdas Pophale) SiO2 
 PCOD9050907
Probable space group: P -1
;
_chemical_formula_sum "Si O2"
_cell_formula_units_Z 16
_cell_length_a 15.813106
_cell_length_b 15.639288
_cell_length_c 8.700828
_cell_angle_alpha 51.039984
_cell_angle_beta 130.028866
_cell_angle_gamma 152.017195
_cell_volume 761.938566
_symmetry_space_group_name_H-M "P -1"
_symmetry_group_IT_number 2
_symmetry_cell_setting 'triclinic'
loop_
_space_group_symop_operation_xyz
x,y,z
-x,-y,-z
loop_
_atom_site_type_symbol
_atom_site_label
_atom_site_fract_x
_atom_site_fract_y
_atom_site_fract_z
Si Si1 0.488875 0.591511 0.509758
Si Si2 0.318573 0.581175 0.895806
Si Si3 0.076868 0.103934 0.749804
Si Si4 0.838154 0.400705 0.543010
Si Si5 0.063063 0.718849 0.013089
Si Si6 0.698428 0.872548 0.201096
Si Si7 0.731135 0.703219 0.932885
Si Si8 0.914478 0.646543 0.602757
O O1 0.500000 0.500000 0.500000
O O2 0.625374 0.795086 0.374855
O O3 0.560440 0.611259 0.737594
O O4 0.284902 0.477618 0.419511
O O5 0.321963 0.682601 0.661960
O O6 0.137693 0.443451 0.952133
O O7 0.508866 0.727869 0.045663
O O8 0.287501 0.442245 0.927301
O O9 0.182777 0.140004 0.687892
O O10 0.008920 0.173829 0.566202
O O11 0.225288 0.221288 0.930528
O O12 0.911439 0.889953 0.840702
O O13 0.816095 0.278972 0.766275
O O14 0.895328 0.547853 0.551821
O O15 0.000000 0.500000 0.500000
O O16 0.026389 0.677754 0.835133
O O17 0.171740 0.920982 0.919755
#
# Coordination Sequence:
#
# PCOD9050907 Si02
#       8
#     2   2   2   2   2   2   2   2
#     4  12  23  37  63  99 135 169 207 257 329 399
#     4  11  21  42  66  93 131 166 220 268 320 387
#     4  11  24  36  67  99 133 174 210 261 334 397
#     4  10  25  44  71  92 123 179 226 273 323 371
#     4  11  24  44  67  92 130 172 222 270 319 381
#     4  12  24  40  67 101 130 177 208 266 333 388
#     4  11  22  39  58  99 137 169 212 263 321 403
#     4  12  22  42  68  96 131 174 214 270 328 382
#
# _framework density 20.999068000000001
#
# number of rings (size 3 to 8) (size 9 to 14) (size 15 to 20)
#    0.000    0.750    6.250    1.125    1.750    2.500 
#    0.000    0.625    5.500    0.000    0.000    0.000 
#    0.000    0.000    0.000    0.000    0.000    0.000 
#
# Total GULP energy -89379.013801 kJ/mol
# GULP energy per Si atom -5586.188363 kJ/mol
# Density = 2.095127 g / cm^3
# Si number density = 20.999068 Si / 1000 Ang^3
#
#
#
# Elastic Constant Matrix: (Units=GPa)
#
#
# Indices 1 2 3 4 5 6 
#
# 1 67.5483 20.9182 9.8931 -9.7483 3.5407 -2.4505
# 2 20.9182 62.2261 9.5677 -3.0579 -13.6861 2.6127
# 3 9.8931 9.5677 129.6587 -4.6209 2.4655 -5.8725
# 4 -9.7483 -3.0579 -4.6209 29.5880 -3.9220 -2.8945
# 5 3.5407 -13.6861 2.4655 -3.9220 18.2259 -8.1825
# 6 -2.4505 2.6127 -5.8725 -2.8945 -8.1825 21.0835
#
#
#
# Elastic Compliance Matrix: (Units=1/GPa)
#
#
# Indices 1 2 3 4 5 6 
#
# 1 0.018297 -0.007699 -0.000512 0.004087 -0.008254 0.000296
# 2 -0.007699 0.023721 -0.001252 0.003168 0.022375 0.004936
# 3 -0.000512 -0.001252 0.007995 0.001072 -0.000706 0.002196
# 4 0.004087 0.003168 0.001072 0.038744 0.014939 0.011498
# 5 -0.008254 0.022375 -0.000706 0.014939 0.091721 0.033719
# 6 0.000296 0.004936 0.002196 0.011498 0.033719 0.062130
#
#
# Mechanical properties :
#
#
# Convention : Reuss Voigt Hill
#
# Bulk Modulus (GPa) = 32.16808 37.79902 34.98355
# Shear Modulus (GPa) = 18.38946 28.38308 23.38627
#
# Velocity S-wave (km/s) = 2.96248 3.68045 3.34081
# Velocity P-wave (km/s) = 5.20133 6.00836 5.61935
#
# Compressibility (1/GPa) = 0.03108672
#
# Stress axis : x y z
#
# Youngs Moduli (GPa) = 54.65478 42.15729 125.07707
#
# Poissons Ratio (x) = 0.32457 0.06403
# Poissons Ratio (y) = 0.42079 0.15659
# Poissons Ratio (z) = 0.02798 0.05278
#
# Static dielectric constant tensor:
#      x y z
#    x 1.756690 0.007850 -0.015920 
#    y 0.007850 1.753790 0.002150 
#    z -0.015920 0.002150 1.799190 
# 
# From -- ./inp_files/272265.got.cif
#   From: 2010.05.17/outbox.cif.g08.bks.cpg/sg2_137_cif.got.tgz:272265.got - 2010.06.03 11:33:40.
