data_PCOD9050438
_publ_section_title
;
Structure prediction by ZEFSAII (Michael W. Deem and Ramdas Pophale) SiO2 
 PCOD9050438
Probable space group: P -1
;
_chemical_formula_sum "Si O2"
_cell_formula_units_Z 16
_cell_length_a 8.772612
_cell_length_b 10.192988
_cell_length_c 11.798765
_cell_angle_alpha 116.126672
_cell_angle_beta 95.613343
_cell_angle_gamma 125.686286
_cell_volume 672.224654
_symmetry_space_group_name_H-M "P -1"
_symmetry_group_IT_number 2
_symmetry_cell_setting 'triclinic'
loop_
_space_group_symop_operation_xyz
x,y,z
-x,-y,-z
loop_
_atom_site_type_symbol
_atom_site_label
_atom_site_fract_x
_atom_site_fract_y
_atom_site_fract_z
Si Si1 0.751311 0.712115 0.612766
Si Si2 0.533560 0.951535 0.644970
Si Si3 0.905881 0.058256 0.602593
Si Si4 0.215464 0.584797 0.108595
Si Si5 0.092163 0.745189 0.872101
Si Si6 0.916817 0.283868 0.405018
Si Si7 0.644845 0.825745 0.824809
Si Si8 0.271089 0.542398 0.859573
O O1 0.500000 0.500000 0.500000
O O2 0.880802 0.679935 0.538901
O O3 0.761926 0.757882 0.763187
O O4 0.876805 0.940607 0.666771
O O5 0.542060 0.846367 0.715720
O O6 0.290511 0.846913 0.581702
O O7 0.657730 0.955686 0.550963
O O8 0.660522 0.184878 0.767088
O O9 0.072867 0.302131 0.724293
O O10 0.000000 0.000000 0.500000
O O11 0.139509 0.446285 0.161135
O O12 0.323058 0.566770 0.006959
O O13 0.000000 0.500000 0.000000
O O14 0.215423 0.674747 0.879247
O O15 0.119773 0.783872 0.754260
O O16 0.202280 0.952758 0.022928
O O17 0.000000 0.500000 0.500000
O O18 0.469905 0.651208 0.833545
#
# Coordination Sequence:
#
# PCOD9050438 Si02
#       8
#     2   2   2   2   2   2   2   2
#     4  11  26  48  67  92 134 181 227 277 344 409
#     4  11  20  39  65 100 128 173 224 276 325 391
#     4  11  23  38  66  94 132 177 219 266 333 400
#     4  10  17  34  63 102 134 161 215 273 329 388
#     4  11  21  38  68 102 135 168 228 275 335 391
#     4  12  27  43  66  95 135 176 230 283 330 398
#     4  11  20  38  71 100 129 177 221 273 334 402
#     4  11  19  35  66 104 131 168 220 274 319 401
#
# _framework density 23.801566999999999
#
# number of rings (size 3 to 8) (size 9 to 14) (size 15 to 20)
#    0.000    1.000    6.250    4.125    1.750    0.500 
#    0.000    5.000    0.000    3.000    0.000    0.000 
#    0.000    0.000    0.000    0.000    0.000    0.000 
#
# Total GULP energy -89130.529704 kJ/mol
# GULP energy per Si atom -5570.658106 kJ/mol
# Density = 2.374739 g / cm^3
# Si number density = 23.801567 Si / 1000 Ang^3
#
#
#
# Elastic Constant Matrix: (Units=GPa)
#
#
# Indices 1 2 3 4 5 6 
#
# 1 97.8448 44.0229 25.7974 4.0600 -30.5371 44.4791
# 2 44.0229 132.1252 12.9207 0.5344 -9.4075 32.0123
# 3 25.7974 12.9207 79.7950 18.0307 -31.4159 12.1231
# 4 4.0600 0.5344 18.0307 60.2904 5.1255 -5.4479
# 5 -30.5371 -9.4075 -31.4159 5.1255 32.2511 -10.2100
# 6 44.4791 32.0123 12.1231 -5.4479 -10.2100 48.8785
#
#
#
# Elastic Compliance Matrix: (Units=1/GPa)
#
#
# Indices 1 2 3 4 5 6 
#
# 1 0.027752 -0.003072 0.007162 -0.008128 0.027244 -0.020234
# 2 -0.003072 0.009384 -0.000933 0.000273 -0.002251 -0.003559
# 3 0.007162 -0.000933 0.026860 -0.011899 0.032302 -0.007147
# 4 -0.008128 0.000273 -0.011899 0.023177 -0.020189 0.008535
# 5 0.027244 -0.002251 0.032302 -0.020189 0.085868 -0.015643
# 6 -0.020234 -0.003559 -0.007147 0.008535 -0.015643 0.040658
#
#
# Mechanical properties :
#
#
# Convention : Reuss Voigt Hill
#
# Bulk Modulus (GPa) = 14.22278 52.80523 33.51400
# Shear Modulus (GPa) = 21.66158 43.41894 32.54026
#
# Velocity S-wave (km/s) = 3.02004 4.27570 3.70151
# Velocity P-wave (km/s) = 4.26021 6.82710 5.69029
#
# Compressibility (1/GPa) = 0.07030975
#
# Stress axis : x y z
#
# Youngs Moduli (GPa) = 36.03317 106.56030 37.23044
#
# Poissons Ratio (x) = 0.32737 -0.26665
# Poissons Ratio (y) = 0.11070 0.03475
# Poissons Ratio (z) = -0.25808 0.09946
#
# Static dielectric constant tensor:
#      x y z
#    x 2.152310 -0.013220 0.037800 
#    y -0.013220 1.935110 -0.109550 
#    z 0.037800 -0.109550 1.864700 
# 
# From -- ./inp_files/500837.got.cif
#   From: 2010.05.17/outbox.cif.g08.bks.cpg/sg2_251_cif.got.tgz:500837.got - 2010.06.03 11:33:40.
