data_PCOD9050909
_publ_section_title
;
Structure prediction by ZEFSAII (Michael W. Deem and Ramdas Pophale) SiO2 
 PCOD9050909
Probable space group: P -1
;
_chemical_formula_sum "Si O2"
_cell_formula_units_Z 14
_cell_length_a 9.536989
_cell_length_b 14.865452
_cell_length_c 15.196707
_cell_angle_alpha 27.748733
_cell_angle_beta 138.778039
_cell_angle_gamma 140.333122
_cell_volume 621.809088
_symmetry_space_group_name_H-M "P -1"
_symmetry_group_IT_number 2
_symmetry_cell_setting 'triclinic'
loop_
_space_group_symop_operation_xyz
x,y,z
-x,-y,-z
loop_
_atom_site_type_symbol
_atom_site_label
_atom_site_fract_x
_atom_site_fract_y
_atom_site_fract_z
Si Si1 0.000179 0.422005 0.709320
Si Si2 0.008542 0.661264 0.788146
Si Si3 0.666942 0.376601 0.168652
Si Si4 0.609753 0.055725 0.602186
Si Si5 0.360256 0.948363 0.068753
Si Si6 0.118459 0.261798 0.722192
Si Si7 0.345915 0.130268 0.567269
O O1 0.210347 0.601539 0.696749
O O2 0.084124 0.317578 0.758071
O O3 0.871965 0.247594 0.869454
O O4 0.838057 0.533653 0.492607
O O5 0.773351 0.698989 0.624977
O O6 0.115533 0.576350 0.831531
O O7 0.164902 0.897297 0.678261
O O8 0.000000 0.500000 0.000000
O O9 0.499535 0.177602 0.213463
O O10 0.500000 0.500000 0.000000
O O11 0.487787 0.174222 0.504796
O O12 0.873367 0.119701 0.692398
O O13 0.500000 0.000000 0.500000
O O14 0.502695 0.886916 0.264730
O O15 0.500000 0.000000 0.000000
O O16 0.294063 0.144942 0.894828
#
# Coordination Sequence:
#
# PCOD9050909 Si02
#       7
#     2   2   2   2   2   2   2
#     4  11  25  46  70 104 139 180 241 292 341 428
#     4  10  25  44  71  94 140 181 231 287 349 418
#     4  11  25  41  70 105 134 172 235 287 342 421
#     4  11  22  44  74  97 138 181 228 296 353 406
#     4  12  28  44  72  97 148 192 231 286 356 420
#     4  11  25  46  73 102 138 186 238 292 354 416
#     4  10  25  46  64 104 137 183 235 287 350 423
#
# _framework density 22.514949999999999
#
# number of rings (size 3 to 8) (size 9 to 14) (size 15 to 20)
#    0.000    1.143    2.857    1.286   10.000    2.857 
#    0.000    0.000    0.000    0.000    0.000    0.000 
#    0.000    0.000    0.000    0.000    0.000    0.000 
#
# Total GULP energy -78051.925570 kJ/mol
# GULP energy per Si atom -5575.137541 kJ/mol
# Density = 2.246370 g / cm^3
# Si number density = 22.514950 Si / 1000 Ang^3
#
#
#
# Elastic Constant Matrix: (Units=GPa)
#
#
# Indices 1 2 3 4 5 6 
#
# 1 155.6566 31.2117 86.0714 9.3020 19.0053 -11.6275
# 2 31.2117 82.3914 17.1854 12.5536 -1.3623 -17.7421
# 3 86.0714 17.1854 139.4226 14.3939 31.5906 -4.7453
# 4 9.3020 12.5536 14.3939 37.1267 0.9656 -5.2498
# 5 19.0053 -1.3623 31.5906 0.9656 46.4686 0.4997
# 6 -11.6275 -17.7421 -4.7453 -5.2498 0.4997 21.0960
#
#
#
# Elastic Compliance Matrix: (Units=1/GPa)
#
#
# Indices 1 2 3 4 5 6 
#
# 1 0.010429 -0.002229 -0.006113 0.000903 -0.000223 0.002728
# 2 -0.002229 0.015977 -0.000210 -0.003198 0.001467 0.011330
# 3 -0.006113 -0.000210 0.012630 -0.003335 -0.006008 -0.001392
# 4 0.000903 -0.003198 -0.003335 0.029678 0.001140 0.004416
# 5 -0.000223 0.001467 -0.006008 0.001140 0.025721 -0.000566
# 6 0.002728 0.011330 -0.001392 0.004416 -0.000566 0.059234
#
#
# Mechanical properties :
#
#
# Convention : Reuss Voigt Hill
#
# Bulk Modulus (GPa) = 45.59617 71.82307 58.70962
# Shear Modulus (GPa) = 28.07667 37.13841 32.60754
#
# Velocity S-wave (km/s) = 3.53515 4.06581 3.80973
# Velocity P-wave (km/s) = 6.07935 7.34918 6.74422
#
# Compressibility (1/GPa) = 0.02193167
#
# Stress axis : x y z
#
# Youngs Moduli (GPa) = 95.88852 62.59042 79.17375
#
# Poissons Ratio (x) = 0.13953 0.48400
# Poissons Ratio (y) = 0.21377 0.01661
# Poissons Ratio (z) = 0.58618 0.01313
#
# Static dielectric constant tensor:
#      x y z
#    x 3.110420 0.349930 -0.537790 
#    y 0.349930 1.921850 -0.142690 
#    z -0.537790 -0.142690 2.080810 
# 
# From -- ./inp_files/306564.got.cif
#   From: 2010.05.17/outbox.cif.g08.bks.cpg/sg2_154_cif.got.tgz:306564.got - 2010.06.03 11:33:40.
