data_PCOD9050400
_publ_section_title
;
Structure prediction by ZEFSAII (Michael W. Deem and Ramdas Pophale) SiO2 
 PCOD9050400
Probable space group: P -1
;
_chemical_formula_sum "Si O2"
_cell_formula_units_Z 16
_cell_length_a 20.583411
_cell_length_b 8.784141
_cell_length_c 9.872617
_cell_angle_alpha 29.950881
_cell_angle_beta 125.971934
_cell_angle_gamma 127.513219
_cell_volume 698.811585
_symmetry_space_group_name_H-M "P -1"
_symmetry_group_IT_number 2
_symmetry_cell_setting 'triclinic'
loop_
_space_group_symop_operation_xyz
x,y,z
-x,-y,-z
loop_
_atom_site_type_symbol
_atom_site_label
_atom_site_fract_x
_atom_site_fract_y
_atom_site_fract_z
Si Si1 0.095715 0.367272 0.761954
Si Si2 0.002165 0.205026 0.047570
Si Si3 0.793241 0.067677 0.664810
Si Si4 0.081650 0.275496 0.355169
Si Si5 0.361477 0.987882 0.185056
Si Si6 0.388222 0.262903 0.300971
Si Si7 0.750150 0.599098 0.396069
Si Si8 0.482588 0.948135 0.859823
O O1 0.035499 0.318418 0.853653
O O2 0.139111 0.727327 0.510755
O O3 0.165574 0.180164 0.020984
O O4 0.043664 0.163196 0.734433
O O5 0.937695 0.401551 0.865519
O O6 0.078853 0.282750 0.183968
O O7 0.775017 0.338949 0.530649
O O8 0.704605 0.874276 0.653098
O O9 0.166225 0.230839 0.555089
O O10 0.000000 0.000000 0.500000
O O11 0.393879 0.083172 0.304155
O O12 0.435388 0.080105 0.097628
O O13 0.317486 0.616900 0.420252
O O14 0.292640 0.173824 0.916390
O O15 0.450583 0.206785 0.535867
O O16 0.410987 0.626753 0.008778
O O17 0.500000 0.000000 0.000000
#
# Coordination Sequence:
#
# PCOD9050400 Si02
#       8
#     2   2   2   2   2   2   2   2
#     4  11  23  42  65  96 132 174 228 278 333 385
#     4  10  25  40  64  94 128 184 228 277 332 400
#     4  11  22  41  67  98 131 168 219 284 325 385
#     4  11  24  42  65  92 136 181 226 276 337 395
#     4  11  24  44  72  98 128 177 229 271 322 404
#     4  11  23  44  73 100 129 180 225 263 328 413
#     4  11  23  42  67  98 130 174 226 278 328 387
#     4  12  25  46  69 103 140 172 209 279 342 400
#
# _framework density 22.896014000000001
#
# number of rings (size 3 to 8) (size 9 to 14) (size 15 to 20)
#    0.000    1.000    1.250    6.375    5.250    1.000 
#    6.750    0.000    0.000    0.000    0.000    0.000 
#    0.000    0.000    0.000    0.000    0.000    0.000 
#
# Total GULP energy -89566.525969 kJ/mol
# GULP energy per Si atom -5597.907873 kJ/mol
# Density = 2.284390 g / cm^3
# Si number density = 22.896014 Si / 1000 Ang^3
#
#
#
# Elastic Constant Matrix: (Units=GPa)
#
#
# Indices 1 2 3 4 5 6 
#
# 1 71.2638 38.6092 23.5499 3.6975 -7.5599 6.7868
# 2 38.6092 89.3123 16.9290 11.0177 -15.6974 8.4514
# 3 23.5499 16.9290 104.1183 9.8703 3.5842 4.6288
# 4 3.6975 11.0177 9.8703 43.1111 17.4090 -8.6913
# 5 -7.5599 -15.6974 3.5842 17.4090 41.7452 -1.1779
# 6 6.7868 8.4514 4.6288 -8.6913 -1.1779 31.4374
#
#
#
# Elastic Compliance Matrix: (Units=1/GPa)
#
#
# Indices 1 2 3 4 5 6 
#
# 1 0.019367 -0.007545 -0.003145 0.000374 0.000740 -0.001558
# 2 -0.007545 0.017517 -0.000440 -0.008171 0.008526 -0.004955
# 3 -0.003145 -0.000440 0.010666 -0.001985 -0.000861 -0.001354
# 4 0.000374 -0.008171 -0.001985 0.034900 -0.017066 0.011417
# 5 0.000740 0.008526 -0.000861 -0.017066 0.034324 -0.005757
# 6 -0.001558 -0.004955 -0.001354 0.011417 -0.005757 0.036618
#
#
# Mechanical properties :
#
#
# Convention : Reuss Voigt Hill
#
# Bulk Modulus (GPa) = 39.54337 46.98564 43.26451
# Shear Modulus (GPa) = 27.16201 35.63249 31.39725
#
# Velocity S-wave (km/s) = 3.44804 3.94924 3.70712
# Velocity P-wave (km/s) = 5.75850 6.43127 6.10416
#
# Compressibility (1/GPa) = 0.02528869
#
# Stress axis : x y z
#
# Youngs Moduli (GPa) = 51.63467 57.08755 93.76025
#
# Poissons Ratio (x) = 0.43070 0.29492
# Poissons Ratio (y) = 0.38956 0.04129
# Poissons Ratio (z) = 0.16241 0.02514
#
# Static dielectric constant tensor:
#      x y z
#    x 1.886200 0.003640 -0.023600 
#    y 0.003640 1.856240 0.008530 
#    z -0.023600 0.008530 1.861190 
# 
# From -- ./inp_files/351981.got.cif
#   From: 2010.05.17/outbox.cif.g08.bks.cpg/sg2_176_cif.got.tgz:351981.got - 2010.06.03 11:33:40.
