data_PCOD9050417
_publ_section_title
;
Structure prediction by ZEFSAII (Michael W. Deem and Ramdas Pophale) SiO2 
 PCOD9050417
Probable space group: P -1
;
_chemical_formula_sum "Si O2"
_cell_formula_units_Z 12
_cell_length_a 14.309177
_cell_length_b 6.840876
_cell_length_c 11.842771
_cell_angle_alpha 93.439104
_cell_angle_beta 29.633990
_cell_angle_gamma 80.662542
_cell_volume 515.374536
_symmetry_space_group_name_H-M "P -1"
_symmetry_group_IT_number 2
_symmetry_cell_setting 'triclinic'
loop_
_space_group_symop_operation_xyz
x,y,z
-x,-y,-z
loop_
_atom_site_type_symbol
_atom_site_label
_atom_site_fract_x
_atom_site_fract_y
_atom_site_fract_z
Si Si1 0.401700 0.954048 0.240234
Si Si2 0.007667 0.226195 0.016053
Si Si3 0.977402 0.364012 0.624152
Si Si4 0.804667 0.551982 0.047310
Si Si5 0.408905 0.753783 0.994860
Si Si6 0.622650 0.382165 0.584475
O O1 0.466050 0.779488 0.064624
O O2 0.352004 0.844887 0.396067
O O3 0.195154 0.162229 0.422480
O O4 0.581515 0.037162 0.067663
O O5 0.817702 0.359083 0.305861
O O6 0.204788 0.235970 0.871811
O O7 0.961797 0.351507 0.950517
O O8 0.000000 0.000000 0.000000
O O9 0.887389 0.522353 0.831774
O O10 0.808992 0.265377 0.776689
O O11 0.000000 0.500000 0.500000
O O12 0.583984 0.540995 0.272332
O O13 0.572595 0.550206 0.745816
#
# Coordination Sequence:
#
# PCOD9050417 Si02
#       6
#     2   2   2   2   2   2
#     4  11  24  40  65  99 136 179 218 263 333 393
#     4  11  24  45  71  92 130 173 223 273 328 391
#     4  11  25  43  70  97 138 178 217 272 329 394
#     4  10  25  44  64 100 130 170 221 273 328 384
#     4  10  25  41  62  98 139 171 222 266 322 395
#     4  11  24  42  69  95 135 171 218 277 328 391
#
# _framework density 23.284037999999999
#
# number of rings (size 3 to 8) (size 9 to 14) (size 15 to 20)
#    0.000    1.333    0.000    3.500   14.000    6.000 
#    0.000    0.000    0.000    0.000    0.000    0.000 
#    0.000    0.000    0.000    0.000    0.000    0.000 
#
# Total GULP energy -67159.619433 kJ/mol
# GULP energy per Si atom -5596.634953 kJ/mol
# Density = 2.323104 g / cm^3
# Si number density = 23.284038 Si / 1000 Ang^3
#
#
#
# Elastic Constant Matrix: (Units=GPa)
#
#
# Indices 1 2 3 4 5 6 
#
# 1 66.9128 62.9742 7.6714 -15.5450 -1.3487 5.4597
# 2 62.9742 131.6417 22.4163 -23.7454 5.5594 20.2160
# 3 7.6714 22.4163 74.9806 -17.9838 -2.1722 -0.8434
# 4 -15.5450 -23.7454 -17.9838 41.1666 -4.1211 6.3795
# 5 -1.3487 5.5594 -2.1722 -4.1211 23.7359 -11.7365
# 6 5.4597 20.2160 -0.8434 6.3795 -11.7365 38.3349
#
#
#
# Elastic Compliance Matrix: (Units=1/GPa)
#
#
# Indices 1 2 3 4 5 6 
#
# 1 0.029502 -0.015276 0.002717 0.003481 0.009140 0.006133
# 2 -0.015276 0.018435 -0.003394 0.004118 -0.010474 -0.011513
# 3 0.002717 -0.003394 0.015675 0.006037 0.004477 0.002114
# 4 0.003481 0.004118 0.006037 0.031924 0.001707 -0.007325
# 5 0.009140 -0.010474 0.004477 0.001707 0.056332 0.021283
# 6 0.006133 -0.011513 0.002114 -0.007325 0.021283 0.039065
#
#
# Mechanical properties :
#
#
# Convention : Reuss Voigt Hill
#
# Bulk Modulus (GPa) = 31.53848 51.07320 41.30584
# Shear Modulus (GPa) = 21.42168 32.67903 27.05036
#
# Velocity S-wave (km/s) = 3.03647 3.75039 3.41215
# Velocity P-wave (km/s) = 5.08606 6.38250 5.77081
#
# Compressibility (1/GPa) = 0.03170730
#
# Stress axis : x y z
#
# Youngs Moduli (GPa) = 33.89545 54.24443 63.79703
#
# Poissons Ratio (x) = 0.82863 -0.17334
# Poissons Ratio (y) = 0.51778 0.21651
# Poissons Ratio (z) = -0.09210 0.18409
#
# Static dielectric constant tensor:
#      x y z
#    x 1.881240 0.016460 -0.025140 
#    y 0.016460 1.894820 0.014900 
#    z -0.025140 0.014900 1.877590 
# 
# From -- ./inp_files/70101.got.cif
#   From: 2010.05.17/outbox.cif.g08.bks.cpg/sg2_36_cif.got.tgz:70101.got - 2010.06.03 11:33:40.
