data_PCOD9050889
_publ_section_title
;
Structure prediction by ZEFSAII (Michael W. Deem and Ramdas Pophale) SiO2 
 PCOD9050889
Probable space group: P -1
;
_chemical_formula_sum "Si O2"
_cell_formula_units_Z 14
_cell_length_a 13.244095
_cell_length_b 8.906963
_cell_length_c 11.735941
_cell_angle_alpha 55.949598
_cell_angle_beta 48.259967
_cell_angle_gamma 30.311030
_cell_volume 520.955844
_symmetry_space_group_name_H-M "P -1"
_symmetry_group_IT_number 2
_symmetry_cell_setting 'triclinic'
loop_
_space_group_symop_operation_xyz
x,y,z
-x,-y,-z
loop_
_atom_site_type_symbol
_atom_site_label
_atom_site_fract_x
_atom_site_fract_y
_atom_site_fract_z
Si Si1 0.780337 0.397862 0.882312
Si Si2 0.848568 0.865737 0.696664
Si Si3 0.364420 0.465138 0.707564
Si Si4 0.239363 0.401353 0.424505
Si Si5 0.282117 0.908371 0.071377
Si Si6 0.025783 0.632331 0.056250
Si Si7 0.560550 0.206510 0.438121
O O1 0.797501 0.516248 0.713846
O O2 0.758717 0.224967 0.916779
O O3 0.975846 0.226595 0.896895
O O4 0.538217 0.678951 0.003674
O O5 0.880124 0.643858 0.835287
O O6 0.033404 0.674714 0.542335
O O7 0.612408 0.148056 0.695291
O O8 0.844146 0.997921 0.755344
O O9 0.368070 0.415893 0.591573
O O10 0.328669 0.716351 0.655792
O O11 0.191906 0.536729 0.879306
O O12 0.445473 0.300154 0.362377
O O13 0.297785 0.126884 0.510805
O O14 0.194689 0.154650 0.943994
#
# Coordination Sequence:
#
# PCOD9050889 Si02
#       7
#     2   2   2   2   2   2   2
#     4  11  26  47  72 107 147 186 238 299 353 423
#     4  12  26  46  72 107 144 191 237 294 359 424
#     4  11  24  46  71 104 146 186 239 296 351 423
#     4  11  26  45  71 103 146 183 237 298 354 422
#     4  11  26  46  74 106 143 190 240 290 361 424
#     4  12  26  44  75 105 145 188 239 295 354 426
#     4  10  25  44  71 101 143 189 236 289 362 420
#
# _framework density 26.873678000000002
#
# number of rings (size 3 to 8) (size 9 to 14) (size 15 to 20)
#    0.000    0.857    1.429    3.857    8.000    8.000 
#    0.000    0.000    0.000    0.000    0.000    0.000 
#    0.000    0.000    0.000    0.000    0.000    0.000 
#
# Total GULP energy -78534.092255 kJ/mol
# GULP energy per Si atom -5609.578018 kJ/mol
# Density = 2.681251 g / cm^3
# Si number density = 26.873678 Si / 1000 Ang^3
#
#
#
# Elastic Constant Matrix: (Units=GPa)
#
#
# Indices 1 2 3 4 5 6 
#
# 1 80.0771 4.1161 -12.6964 17.8718 25.0190 8.8659
# 2 4.1161 86.3340 7.9852 8.3324 -1.6110 14.6722
# 3 -12.6964 7.9852 95.5454 27.3443 4.4194 10.4794
# 4 17.8718 8.3324 27.3443 43.4677 9.9476 -1.2441
# 5 25.0190 -1.6110 4.4194 9.9476 39.6251 -2.3617
# 6 8.8659 14.6722 10.4794 -1.2441 -2.3617 35.7142
#
#
#
# Elastic Compliance Matrix: (Units=1/GPa)
#
#
# Indices 1 2 3 4 5 6 
#
# 1 0.020573 0.000636 0.007233 -0.010725 -0.011593 -0.008631
# 2 0.000636 0.012797 0.000573 -0.003366 0.000562 -0.005664
# 3 0.007233 0.000573 0.015930 -0.012486 -0.003625 -0.007380
# 4 -0.010725 -0.003366 -0.012486 0.036297 -0.000552 0.008937
# 5 -0.011593 0.000562 -0.003625 -0.000552 0.033474 0.005905
# 6 -0.008631 -0.005664 -0.007380 0.008937 0.005905 0.035337
#
#
# Mechanical properties :
#
#
# Convention : Reuss Voigt Hill
#
# Bulk Modulus (GPa) = 15.10927 28.97404 22.04165
# Shear Modulus (GPa) = 31.33106 41.26485 36.29795
#
# Velocity S-wave (km/s) = 3.41818 3.92281 3.67916
# Velocity P-wave (km/s) = 4.60577 5.59669 5.12523
#
# Compressibility (1/GPa) = 0.06618455
#
# Stress axis : x y z
#
# Youngs Moduli (GPa) = 48.60706 78.14054 62.77440
#
# Poissons Ratio (x) = -0.04967 -0.45404
# Poissons Ratio (y) = -0.03090 -0.03600
# Poissons Ratio (z) = -0.35157 -0.04481
#
# Static dielectric constant tensor:
#      x y z
#    x 2.095320 0.047110 -0.011600 
#    y 0.047110 2.236610 0.028580 
#    z -0.011600 0.028580 2.038820 
# 
# From -- ./inp_files/172646.got.cif
#   From: 2010.05.17/outbox.cif.g08.bks.cpg/sg2_87_cif.got.tgz:172646.got - 2010.06.03 11:33:40.
