data_PCOD9050443
_publ_section_title
;
Structure prediction by ZEFSAII (Michael W. Deem and Ramdas Pophale) SiO2 
 PCOD9050443
Probable space group: P -1
;
_chemical_formula_sum "Si O2"
_cell_formula_units_Z 12
_cell_length_a 7.530123
_cell_length_b 12.638405
_cell_length_c 9.318843
_cell_angle_alpha 134.407406
_cell_angle_beta 130.351184
_cell_angle_gamma 75.746346
_cell_volume 446.619333
_symmetry_space_group_name_H-M "P -1"
_symmetry_group_IT_number 2
_symmetry_cell_setting 'triclinic'
loop_
_space_group_symop_operation_xyz
x,y,z
-x,-y,-z
loop_
_atom_site_type_symbol
_atom_site_label
_atom_site_fract_x
_atom_site_fract_y
_atom_site_fract_z
Si Si1 0.166532 0.672141 0.180067
Si Si2 0.984952 0.046745 0.699591
Si Si3 0.064367 0.295663 0.355055
Si Si4 0.599563 0.824054 0.768397
Si Si5 0.615944 0.358643 0.241329
Si Si6 0.611030 0.720949 0.247597
O O1 0.021832 0.776889 0.135091
O O2 0.357459 0.791177 0.511166
O O3 0.353578 0.655012 0.139291
O O4 0.000000 0.500000 0.000000
O O5 0.728599 0.913650 0.496739
O O6 0.000000 0.000000 0.500000
O O7 0.224459 0.036608 0.901421
O O8 0.185101 0.185811 0.234870
O O9 0.184563 0.461539 0.489027
O O10 0.184401 0.325981 0.604860
O O11 0.768668 0.247767 0.168248
O O12 0.491301 0.684782 0.698898
O O13 0.424071 0.336028 0.988858
#
# Coordination Sequence:
#
# PCOD9050443 Si02
#       6
#     2   2   2   2   2   2
#     4  11  29  47  77 107 142 191 247 299 362 432
#     4  12  27  46  72 107 148 190 240 297 366 433
#     4  10  25  41  68 105 142 191 242 294 364 426
#     4  11  26  45  72 102 147 188 243 297 360 427
#     4  11  23  41  72 105 144 189 240 300 356 430
#     4  11  25  47  69 103 146 188 237 298 361 432
#
# _framework density 26.868521000000001
#
# number of rings (size 3 to 8) (size 9 to 14) (size 15 to 20)
#    0.000    1.000    1.667    2.500   14.000    4.667 
#    0.000    0.000    0.000    0.000    0.000    0.000 
#    0.000    0.000    0.000    0.000    0.000    0.000 
#
# Total GULP energy -67174.208345 kJ/mol
# GULP energy per Si atom -5597.850695 kJ/mol
# Density = 2.680737 g / cm^3
# Si number density = 26.868521 Si / 1000 Ang^3
#
#
#
# Elastic Constant Matrix: (Units=GPa)
#
#
# Indices 1 2 3 4 5 6 
#
# 1 71.6808 35.0105 26.1555 -0.0350 14.7282 19.0035
# 2 35.0105 120.4099 23.4866 5.5334 14.8389 19.1568
# 3 26.1555 23.4866 107.7641 -17.3285 4.1759 9.4343
# 4 -0.0350 5.5334 -17.3285 67.6278 12.8870 0.7092
# 5 14.7282 14.8389 4.1759 12.8870 37.8337 -5.1903
# 6 19.0035 19.1568 9.4343 0.7092 -5.1903 30.4359
#
#
#
# Elastic Compliance Matrix: (Units=1/GPa)
#
#
# Indices 1 2 3 4 5 6 
#
# 1 0.021509 -0.002620 -0.002988 0.001340 -0.009180 -0.012451
# 2 -0.002620 0.010590 -0.001138 -0.000420 -0.003589 -0.005279
# 3 -0.002988 -0.001138 0.010855 0.003027 -0.000754 -0.000982
# 4 0.001340 -0.000420 0.003027 0.016942 -0.006884 -0.003079
# 5 -0.009180 -0.003589 -0.000754 -0.006884 0.035829 0.014495
# 6 -0.012451 -0.005279 -0.000982 -0.003079 0.014495 0.046800
#
#
# Mechanical properties :
#
#
# Convention : Reuss Voigt Hill
#
# Bulk Modulus (GPa) = 33.94461 52.12889 43.03675
# Shear Modulus (GPa) = 30.14973 41.52630 35.83801
#
# Velocity S-wave (km/s) = 3.35344 3.93560 3.65612
# Velocity P-wave (km/s) = 5.25881 6.33210 5.82025
#
# Compressibility (1/GPa) = 0.02945976
#
# Stress axis : x y z
#
# Youngs Moduli (GPa) = 46.49303 94.42486 92.12539
#
# Poissons Ratio (x) = 0.24744 0.27528
# Poissons Ratio (y) = 0.12183 0.10488
# Poissons Ratio (z) = 0.13893 0.10750
#
# Static dielectric constant tensor:
#      x y z
#    x 2.101370 -0.035730 0.016530 
#    y -0.035730 2.113720 0.030770 
#    z 0.016530 0.030770 2.137800 
# 
# From -- ./inp_files/182918.got.cif
#   From: 2010.05.17/outbox.cif.g08.bks.cpg/sg2_92_cif.got.tgz:182918.got - 2010.06.03 11:33:40.
