data_PCOD9050256
_publ_section_title
;
Structure prediction by ZEFSAII (Michael W. Deem and Ramdas Pophale) SiO2 
 PCOD9050256
Probable space group: P -1
;
_chemical_formula_sum "Si O2"
_cell_formula_units_Z 16
_cell_length_a 7.261862
_cell_length_b 7.373866
_cell_length_c 13.234089
_cell_angle_alpha 82.005738
_cell_angle_beta 63.166676
_cell_angle_gamma 68.116553
_cell_volume 586.423914
_symmetry_space_group_name_H-M "P -1"
_symmetry_group_IT_number 2
_symmetry_cell_setting 'triclinic'
loop_
_space_group_symop_operation_xyz
x,y,z
-x,-y,-z
loop_
_atom_site_type_symbol
_atom_site_label
_atom_site_fract_x
_atom_site_fract_y
_atom_site_fract_z
Si Si1 0.646275 0.396683 0.858817
Si Si2 0.386340 0.392518 0.741402
Si Si3 0.446725 0.071298 0.239121
Si Si4 0.204563 0.991446 0.018732
Si Si5 0.124676 0.345170 0.159113
Si Si6 0.645575 0.095222 0.390290
Si Si7 0.760956 0.372758 0.496783
Si Si8 0.038600 0.298123 0.620227
O O1 0.430846 0.448264 0.840037
O O2 0.696221 0.547531 0.910606
O O3 0.820358 0.404578 0.728206
O O4 0.724969 0.183785 0.904479
O O5 0.730471 0.232026 0.428550
O O6 0.538674 0.438499 0.614559
O O7 0.494862 0.155320 0.729323
O O8 0.595748 0.052430 0.105076
O O9 0.206160 0.203635 0.248570
O O10 0.523567 0.166616 0.309038
O O11 0.143096 0.196604 0.075080
O O12 0.000000 0.000000 0.000000
O O13 0.876264 0.502448 0.216432
O O14 0.851410 0.900779 0.331123
O O15 0.500000 0.000000 0.500000
O O16 0.813390 0.567109 0.439531
O O17 0.961934 0.259309 0.531206
#
# Coordination Sequence:
#
# PCOD9050256 Si02
#       8
#     2   2   2   2   2   2   2   2
#     4  11  27  52  83 121 166 214 282 336 407 510
#     4  11  25  55  85 122 169 216 276 344 409 503
#     4  12  28  55  78 125 169 210 285 342 408 505
#     4  12  28  53  85 123 168 217 272 350 412 488
#     4  12  29  54  85 120 165 219 273 340 425 487
#     4  12  25  47  82 115 160 221 272 339 420 484
#     4  10  24  50  80 117 169 213 277 345 407 496
#     4  10  24  49  77 122 165 215 277 340 410 492
#
# _framework density 27.284016000000001
#
# number of rings (size 3 to 8) (size 9 to 14) (size 15 to 20)
#    0.000    0.750    2.500    3.000    1.750    8.000 
#    4.500    0.625    0.000    0.000    0.000    0.000 
#    0.000    0.000    0.000    0.000    0.000    0.000 
#
# Total GULP energy -89767.189970 kJ/mol
# GULP energy per Si atom -5610.449373 kJ/mol
# Density = 2.722192 g / cm^3
# Si number density = 27.284016 Si / 1000 Ang^3
#
#
#
# Elastic Constant Matrix: (Units=GPa)
#
#
# Indices 1 2 3 4 5 6 
#
# 1 189.6433 65.0875 32.1242 -1.5439 44.6459 -6.2797
# 2 65.0875 152.0292 31.5060 -5.5601 12.1019 7.2005
# 3 32.1242 31.5060 109.1071 -4.6615 22.0134 12.7167
# 4 -1.5439 -5.5601 -4.6615 44.0633 10.7146 7.3651
# 5 44.6459 12.1019 22.0134 10.7146 56.5030 7.7203
# 6 -6.2797 7.2005 12.7167 7.3651 7.7203 58.6131
#
#
#
# Elastic Compliance Matrix: (Units=1/GPa)
#
#
# Indices 1 2 3 4 5 6 
#
# 1 0.007753 -0.002815 -0.000488 0.000948 -0.005775 0.001924
# 2 -0.002815 0.008099 -0.001571 0.000680 0.001135 -0.001191
# 3 -0.000488 -0.001571 0.010819 0.002145 -0.003626 -0.001998
# 4 0.000948 0.000680 0.002145 0.024986 -0.006088 -0.002785
# 5 -0.005775 0.001135 -0.003626 -0.006088 0.024926 -0.002490
# 6 0.001924 -0.001191 -0.001998 -0.002785 -0.002490 0.018525
#
#
# Mechanical properties :
#
#
# Convention : Reuss Voigt Hill
#
# Bulk Modulus (GPa) = 59.09313 78.69056 68.89185
# Shear Modulus (GPa) = 45.24973 53.30669 49.27821
#
# Velocity S-wave (km/s) = 4.07685 4.42494 4.25446
# Velocity P-wave (km/s) = 6.62318 7.41692 7.03126
#
# Compressibility (1/GPa) = 0.01692244
#
# Stress axis : x y z
#
# Youngs Moduli (GPa) = 128.98389 123.46808 92.42974
#
# Poissons Ratio (x) = 0.34753 0.04514
# Poissons Ratio (y) = 0.36306 0.14523
# Poissons Ratio (z) = 0.06300 0.19400
#
# Static dielectric constant tensor:
#      x y z
#    x 2.235150 -0.013580 0.000280 
#    y -0.013580 2.204680 0.047550 
#    z 0.000280 0.047550 2.236940 
# 
# From -- ./inp_files/382237.got.cif
#   From: 2010.05.17/outbox.cif.g08.bks.cpg/sg2_192_cif.got.tgz:382237.got - 2010.06.03 11:33:40.
