data_PCOD9050921
_publ_section_title
;
Structure prediction by ZEFSAII (Michael W. Deem and Ramdas Pophale) SiO2 
 PCOD9050921
Probable space group: P -1
;
_chemical_formula_sum "Si O2"
_cell_formula_units_Z 10
_cell_length_a 8.733287
_cell_length_b 10.354095
_cell_length_c 7.612730
_cell_angle_alpha 134.958383
_cell_angle_beta 55.892863
_cell_angle_gamma 107.185271
_cell_volume 397.317460
_symmetry_space_group_name_H-M "P -1"
_symmetry_group_IT_number 2
_symmetry_cell_setting 'triclinic'
loop_
_space_group_symop_operation_xyz
x,y,z
-x,-y,-z
loop_
_atom_site_type_symbol
_atom_site_label
_atom_site_fract_x
_atom_site_fract_y
_atom_site_fract_z
Si Si1 0.569133 0.763551 0.704261
Si Si2 0.220902 0.544205 0.230250
Si Si3 0.467291 0.805563 0.406752
Si Si4 0.183402 0.933171 0.197543
Si Si5 0.141915 0.561265 0.707551
O O1 0.477696 0.809579 0.615312
O O2 0.678420 0.555581 0.428406
O O3 0.733804 0.886042 0.748862
O O4 0.393779 0.815727 0.001226
O O5 0.282543 0.744014 0.383759
O O6 0.182023 0.520667 0.438302
O O7 0.041944 0.523603 0.210871
O O8 0.375389 0.369280 0.912227
O O9 0.500000 0.000000 0.500000
O O10 0.112860 0.779302 0.971859
O O11 0.000000 0.000000 0.500000
#
# Coordination Sequence:
#
# PCOD9050921 Si02
#       5
#     2   2   2   2   2
#     4  11  26  46  75 107 141 190 244 292 353 432
#     4  10  25  44  72 104 140 190 233 295 364 418
#     4  11  25  45  71 105 144 187 239 295 357 424
#     4  11  25  43  73 110 142 185 239 296 357 420
#     4  11  24  48  72 103 145 184 241 296 355 427
#
# _framework density 25.168790999999999
#
# number of rings (size 3 to 8) (size 9 to 14) (size 15 to 20)
#    0.000    1.200    2.000    1.800    5.600    8.000 
#    0.000    4.000    0.000    0.000    0.000    0.000 
#    0.000    0.000    0.000    0.000    0.000    0.000 
#
# Total GULP energy -55831.769403 kJ/mol
# GULP energy per Si atom -5583.176940 kJ/mol
# Density = 2.511151 g / cm^3
# Si number density = 25.168791 Si / 1000 Ang^3
#
#
#
# Elastic Constant Matrix: (Units=GPa)
#
#
# Indices 1 2 3 4 5 6 
#
# 1 118.0710 65.2769 34.8544 -4.1561 2.0551 41.2355
# 2 65.2769 109.9686 35.8208 7.3995 0.5501 27.3155
# 3 34.8544 35.8208 161.8656 -9.2887 6.8126 12.0323
# 4 -4.1561 7.3995 -9.2887 44.6956 8.8124 4.8737
# 5 2.0551 0.5501 6.8126 8.8124 42.0215 -4.6092
# 6 41.2355 27.3155 12.0323 4.8737 -4.6092 58.3873
#
#
#
# Elastic Compliance Matrix: (Units=1/GPa)
#
#
# Indices 1 2 3 4 5 6 
#
# 1 0.015738 -0.007317 -0.000863 0.003804 -0.002210 -0.008006
# 2 -0.007317 0.014474 -0.001818 -0.003584 0.001122 -0.000841
# 3 -0.000863 -0.001818 0.006963 0.001994 -0.001510 -0.000261
# 4 0.003804 -0.003584 0.001994 0.025404 -0.006232 -0.004033
# 5 -0.002210 0.001122 -0.001510 -0.006232 0.025871 0.003909
# 6 -0.008006 -0.000841 -0.000261 -0.004033 0.003909 0.023873
#
#
# Mechanical properties :
#
#
# Convention : Reuss Voigt Hill
#
# Bulk Modulus (GPa) = 58.21145 73.53438 65.87291
# Shear Modulus (GPa) = 36.21994 45.95110 41.08552
#
# Velocity S-wave (km/s) = 3.79764 4.27748 4.04468
# Velocity P-wave (km/s) = 6.51215 7.32637 6.93122
#
# Compressibility (1/GPa) = 0.01717875
#
# Stress axis : x y z
#
# Youngs Moduli (GPa) = 63.54063 69.09169 143.60755
#
# Poissons Ratio (x) = 0.50556 0.12396
# Poissons Ratio (y) = 0.46494 0.26104
# Poissons Ratio (z) = 0.05485 0.12559
#
# Static dielectric constant tensor:
#      x y z
#    x 2.054790 0.061650 -0.019770 
#    y 0.061650 2.050450 -0.059430 
#    z -0.019770 -0.059430 1.973300 
# 
# From -- ./inp_files/183468.got.cif
#   From: 2010.05.17/outbox.cif.g08.bks.cpg/sg2_92_cif.got.tgz:183468.got - 2010.06.03 11:33:40.
