data_PCOD9050717
_publ_section_title
;
Structure prediction by ZEFSAII (Michael W. Deem and Ramdas Pophale) SiO2 
 PCOD9050717
Probable space group: P -1
;
_chemical_formula_sum "Si O2"
_cell_formula_units_Z 16
_cell_length_a 8.631497
_cell_length_b 14.033959
_cell_length_c 11.163680
_cell_angle_alpha 55.579978
_cell_angle_beta 47.380497
_cell_angle_gamma 83.810145
_cell_volume 731.867693
_symmetry_space_group_name_H-M "P -1"
_symmetry_group_IT_number 2
_symmetry_cell_setting 'triclinic'
loop_
_space_group_symop_operation_xyz
x,y,z
-x,-y,-z
loop_
_atom_site_type_symbol
_atom_site_label
_atom_site_fract_x
_atom_site_fract_y
_atom_site_fract_z
Si Si1 0.366848 0.586077 0.978072
Si Si2 0.006680 0.036171 0.620690
Si Si3 0.990934 0.799348 0.705500
Si Si4 0.462769 0.648947 0.145366
Si Si5 0.880369 0.420484 0.239391
Si Si6 0.979917 0.108962 0.855405
Si Si7 0.414295 0.379132 0.420200
Si Si8 0.531401 0.105544 0.008201
O O1 0.481557 0.644470 0.746219
O O2 0.500000 0.500000 0.000000
O O3 0.403935 0.664649 0.025896
O O4 0.086213 0.496709 0.172914
O O5 0.006965 0.074094 0.729017
O O6 0.079643 0.163169 0.412499
O O7 0.111671 0.934288 0.619300
O O8 0.739269 0.946591 0.775179
O O9 0.143909 0.723726 0.658807
O O10 0.746554 0.700276 0.966643
O O11 0.356581 0.500015 0.344264
O O12 0.394271 0.748606 0.180389
O O13 0.624202 0.414324 0.381531
O O14 0.000000 0.500000 0.000000
O O15 0.186831 0.251322 0.668763
O O16 0.723997 0.105561 0.998628
O O17 0.000000 0.000000 0.000000
O O18 0.500000 0.000000 0.000000
#
# Coordination Sequence:
#
# PCOD9050717 Si02
#       8
#     2   2   2   2   2   2   2   2
#     4   9  16  31  55  93 117 142 179 239 305 353
#     4   9  21  37  63  84 110 161 198 245 288 356
#     4  10  17  34  64  91 118 142 195 236 309 364
#     4  10  18  35  63  90 116 144 194 249 291 360
#     4  10  18  32  54  92 128 147 171 236 318 363
#     4  11  24  42  55  79 122 162 206 248 285 335
#     4  10  21  35  57  85 123 155 187 244 299 350
#     4   9  21  42  60  80 109 163 207 236 278 344
#
# _framework density 21.861875000000001
#
# number of rings (size 3 to 8) (size 9 to 14) (size 15 to 20)
#    0.000    2.250    3.750    0.750    3.500    0.500 
#    4.500    0.625    0.000    7.500    0.000    0.000 
#    0.000    0.000    0.000    0.000    0.000    0.000 
#
# Total GULP energy -89145.686120 kJ/mol
# GULP energy per Si atom -5571.605382 kJ/mol
# Density = 2.181212 g / cm^3
# Si number density = 21.861875 Si / 1000 Ang^3
#
#
#
# Elastic Constant Matrix: (Units=GPa)
#
#
# Indices 1 2 3 4 5 6 
#
# 1 113.1808 16.0633 33.8743 -18.0058 -12.2001 -11.4210
# 2 16.0633 86.4634 14.0022 -24.4698 14.2145 -15.1119
# 3 33.8743 14.0022 90.4920 -36.7222 2.4680 -11.2571
# 4 -18.0058 -24.4698 -36.7222 28.9820 -0.6186 8.3931
# 5 -12.2001 14.2145 2.4680 -0.6186 31.6040 -9.7008
# 6 -11.4210 -15.1119 -11.2571 8.3931 -9.7008 22.1491
#
#
#
# Elastic Compliance Matrix: (Units=1/GPa)
#
#
# Indices 1 2 3 4 5 6 
#
# 1 0.011564 -0.001948 -0.003863 -0.001042 0.007582 0.006386
# 2 -0.001948 0.019641 0.008469 0.024920 -0.008702 0.003446
# 3 -0.003863 0.008469 0.027248 0.039175 -0.006706 -0.000147
# 4 -0.001042 0.024920 0.039175 0.107491 -0.016062 -0.011392
# 5 0.007582 -0.008702 -0.006706 -0.016062 0.044932 0.020330
# 6 0.006386 0.003446 -0.000147 -0.011392 0.020330 0.063939
#
#
# Mechanical properties :
#
#
# Convention : Reuss Voigt Hill
#
# Bulk Modulus (GPa) = 15.68143 46.44620 31.06382
# Shear Modulus (GPa) = 17.19662 31.62677 24.41169
#
# Velocity S-wave (km/s) = 2.80769 3.80763 3.34523
# Velocity P-wave (km/s) = 4.20706 6.37355 5.40007
#
# Compressibility (1/GPa) = 0.06376968
#
# Stress axis : x y z
#
# Youngs Moduli (GPa) = 86.47688 50.91289 36.69943
#
# Poissons Ratio (x) = 0.09918 0.14175
# Poissons Ratio (y) = 0.16846 -0.31079
# Poissons Ratio (z) = 0.33402 -0.43116
#
# Static dielectric constant tensor:
#      x y z
#    x 1.824870 -0.005740 -0.021960 
#    y -0.005740 1.931450 0.003420 
#    z -0.021960 0.003420 1.865060 
# 
# From -- ./inp_files/395433.got.cif
#   From: 2010.05.17/outbox.cif.g08.bks.cpg/sg2_198_cif.got.tgz:395433.got - 2010.06.03 11:33:40.
