data_PCOD9050201
_publ_section_title
;
Structure prediction by ZEFSAII (Michael W. Deem and Ramdas Pophale) SiO2 
 PCOD9050201
Probable space group: P -1
;
_chemical_formula_sum "Si O2"
_cell_formula_units_Z 15
_cell_length_a 7.990044
_cell_length_b 13.761299
_cell_length_c 9.996429
_cell_angle_alpha 91.746453
_cell_angle_beta 60.529787
_cell_angle_gamma 132.572304
_cell_volume 621.421486
_symmetry_space_group_name_H-M "P -1"
_symmetry_group_IT_number 2
_symmetry_cell_setting 'triclinic'
loop_
_space_group_symop_operation_xyz
x,y,z
-x,-y,-z
loop_
_atom_site_type_symbol
_atom_site_label
_atom_site_fract_x
_atom_site_fract_y
_atom_site_fract_z
Si Si1 0.977519 0.164444 0.804349
Si Si2 0.170609 0.268296 0.018128
Si Si3 0.724400 0.877643 0.499183
Si Si4 0.783277 0.218969 0.636911
Si Si5 0.259729 0.400886 0.241984
Si Si6 0.382771 0.154208 0.980051
Si Si7 0.500000 0.000000 0.500000
Si Si8 0.350152 0.641361 0.859366
O O1 0.901970 0.212289 0.722826
O O2 0.071587 0.254040 0.907704
O O3 0.198049 0.174022 0.643910
O O4 0.723615 0.993634 0.946863
O O5 0.519535 0.431583 0.889761
O O6 0.133900 0.139667 0.049172
O O7 0.052655 0.279543 0.196283
O O8 0.643006 0.946427 0.465177
O O9 0.455953 0.735325 0.688324
O O10 0.000000 0.000000 0.500000
O O11 0.581097 0.226410 0.773160
O O12 0.051133 0.352884 0.441334
O O13 0.602935 0.071713 0.615684
O O14 0.466631 0.389884 0.205334
O O15 0.545751 0.256758 0.050311
O O16 0.000000 0.500000 0.000000
#
# Coordination Sequence:
#
# PCOD9050201 Si02
#       8
#     2   2   2   2   2   2   1   2
#     4  12  24  45  75 101 147 190 240 304 368 422
#     4  10  25  44  72  99 140 189 241 295 362 435
#     4  12  23  48  72 108 147 195 240 305 364 434
#     4  12  26  43  72 107 145 187 243 301 362 441
#     4  10  24  49  71 100 145 198 235 294 372 443
#     4  11  25  44  66 111 143 182 246 304 358 433
#     4  12  26  40  74 110 142 190 244 292 364 436
#     4  11  24  45  73 103 146 191 240 299 365 436
#
# _framework density 24.138207000000001
#
# number of rings (size 3 to 8) (size 9 to 14) (size 15 to 20)
#    0.000    0.800    4.000    1.600    5.600    5.333 
#    0.000    0.000    0.000    0.000    0.000    0.000 
#    0.000    0.000    0.000    0.000    0.000    0.000 
#
# Total GULP energy -83791.855465 kJ/mol
# GULP energy per Si atom -5586.123698 kJ/mol
# Density = 2.408327 g / cm^3
# Si number density = 24.138207 Si / 1000 Ang^3
#
#
#
# Elastic Constant Matrix: (Units=GPa)
#
#
# Indices 1 2 3 4 5 6 
#
# 1 81.9563 4.6953 23.1767 4.0865 20.4964 7.6600
# 2 4.6953 40.0490 10.9739 6.8502 5.4327 -1.9917
# 3 23.1767 10.9739 176.0940 6.8398 -1.6583 1.4408
# 4 4.0865 6.8502 6.8398 40.2044 5.5846 7.2166
# 5 20.4964 5.4327 -1.6583 5.5846 43.0289 9.8046
# 6 7.6600 -1.9917 1.4408 7.2166 9.8046 31.8625
#
#
#
# Elastic Compliance Matrix: (Units=1/GPa)
#
#
# Indices 1 2 3 4 5 6 
#
# 1 0.014566 -0.000355 -0.001950 0.000089 -0.006660 -0.001407
# 2 -0.000355 0.026882 -0.001520 -0.004496 -0.003603 0.003961
# 3 -0.001950 -0.001520 0.006075 -0.000750 0.001496 -0.000191
# 4 0.000089 -0.004496 -0.000750 0.027045 -0.001674 -0.005879
# 5 -0.006660 -0.003603 0.001496 -0.001674 0.028775 -0.007167
# 6 -0.001407 0.003961 -0.000191 -0.005879 -0.007167 0.035516
#
#
# Mechanical properties :
#
#
# Convention : Reuss Voigt Hill
#
# Bulk Modulus (GPa) = 25.07972 41.75456 33.41714
# Shear Modulus (GPa) = 31.28885 40.30272 35.79579
#
# Velocity S-wave (km/s) = 3.60424 4.09059 3.85509
# Velocity P-wave (km/s) = 5.26624 6.29652 5.80429
#
# Compressibility (1/GPa) = 0.03987285
#
# Stress axis : x y z
#
# Youngs Moduli (GPa) = 68.65370 37.19912 164.61193
#
# Poissons Ratio (x) = 0.01322 0.32093
# Poissons Ratio (y) = 0.02439 0.25024
# Poissons Ratio (z) = 0.13385 0.05655
#
# Static dielectric constant tensor:
#      x y z
#    x 1.962010 0.130420 -0.014310 
#    y 0.130420 2.166420 -0.057770 
#    z -0.014310 -0.057770 2.013530 
# 
# From -- ./inp_files/207618.got.cif
#   From: 2010.05.17/outbox.cif.g08.bks.cpg/sg2_104_cif.got.tgz:207618.got - 2010.06.03 11:33:40.
