data_PCOD9050173
_publ_section_title
;
Structure prediction by ZEFSAII (Michael W. Deem and Ramdas Pophale) SiO2 
 PCOD9050173
Probable space group: P -1
;
_chemical_formula_sum "Si O2"
_cell_formula_units_Z 16
_cell_length_a 9.419864
_cell_length_b 8.259145
_cell_length_c 17.951241
_cell_angle_alpha 47.807388
_cell_angle_beta 133.340014
_cell_angle_gamma 121.188894
_cell_volume 748.346776
_symmetry_space_group_name_H-M "P -1"
_symmetry_group_IT_number 2
_symmetry_cell_setting 'triclinic'
loop_
_space_group_symop_operation_xyz
x,y,z
-x,-y,-z
loop_
_atom_site_type_symbol
_atom_site_label
_atom_site_fract_x
_atom_site_fract_y
_atom_site_fract_z
Si Si1 0.854030 0.285055 0.026709
Si Si2 0.517124 0.223613 0.343086
Si Si3 0.506171 0.740950 0.201210
Si Si4 0.897122 0.830908 0.216975
Si Si5 0.876527 0.309720 0.187370
Si Si6 0.494746 0.863003 0.809847
Si Si7 0.885807 0.773709 0.059567
Si Si8 0.173947 0.945532 0.395885
O O1 0.759626 0.295952 0.070823
O O2 0.977881 0.080978 0.146106
O O3 0.691059 0.223868 0.925698
O O4 0.000000 0.500000 0.000000
O O5 0.504101 0.476821 0.283870
O O6 0.728948 0.160324 0.466019
O O7 0.483551 0.167756 0.261180
O O8 0.351268 0.075695 0.374445
O O9 0.694264 0.817178 0.193492
O O10 0.512585 0.891349 0.231813
O O11 0.864391 0.741084 0.150693
O O12 0.057686 0.767421 0.353334
O O13 0.988011 0.554025 0.145905
O O14 0.711127 0.271082 0.201381
O O15 0.021530 0.121824 0.306041
O O16 0.675071 0.767721 0.946231
O O17 0.000000 0.000000 0.000000
#
# Coordination Sequence:
#
# PCOD9050173 Si02
#       8
#     2   2   2   2   2   2   2   2
#     4  11  20  36  63  92 132 176 205 257 336 397
#     4  11  26  46  69  92 133 179 227 277 330 393
#     4  12  22  41  69  97 133 175 218 275 332 395
#     4  11  21  40  62  96 134 168 215 273 330 395
#     4  11  23  42  65  95 136 175 215 276 337 388
#     4  12  24  44  66 104 133 171 223 273 333 404
#     4  12  24  37  65 104 135 166 222 275 331 409
#     4  10  24  49  65  91 131 179 223 275 337 393
#
# _framework density 21.380462999999999
#
# number of rings (size 3 to 8) (size 9 to 14) (size 15 to 20)
#    0.000    0.750    3.750    6.000    1.750    1.000 
#    2.250    1.250    0.000    0.000    0.000    0.000 
#    0.000    0.000    0.000    0.000    0.000    0.000 
#
# Total GULP energy -89223.397130 kJ/mol
# GULP energy per Si atom -5576.462321 kJ/mol
# Density = 2.133180 g / cm^3
# Si number density = 21.380463 Si / 1000 Ang^3
#
#
#
# Elastic Constant Matrix: (Units=GPa)
#
#
# Indices 1 2 3 4 5 6 
#
# 1 60.5994 6.7602 11.0895 8.8267 -0.5407 -5.6887
# 2 6.7602 83.0284 28.6810 12.5342 -3.4968 -20.8393
# 3 11.0895 28.6810 95.5734 29.9804 15.9252 -16.6339
# 4 8.8267 12.5342 29.9804 26.6966 -1.1035 6.6794
# 5 -0.5407 -3.4968 15.9252 -1.1035 27.4473 7.6756
# 6 -5.6887 -20.8393 -16.6339 6.6794 7.6756 39.6918
#
#
#
# Elastic Compliance Matrix: (Units=1/GPa)
#
#
# Indices 1 2 3 4 5 6 
#
# 1 0.018226 0.000864 0.003471 -0.012350 -0.004109 0.007393
# 2 0.000864 0.016259 0.001567 -0.012790 -0.002688 0.011989
# 3 0.003471 0.001567 0.037257 -0.053110 -0.032475 0.032151
# 4 -0.012350 -0.012790 -0.053110 0.124724 0.051192 -0.061630
# 5 -0.004109 -0.002688 -0.032475 0.051192 0.067326 -0.037244
# 6 0.007393 0.011989 0.032151 -0.061630 -0.037244 0.063595
#
#
# Mechanical properties :
#
#
# Convention : Reuss Voigt Hill
#
# Bulk Modulus (GPa) = 11.96928 36.91807 24.44367
# Shear Modulus (GPa) = 14.55887 31.61185 23.08536
#
# Velocity S-wave (km/s) = 2.61232 3.84935 3.28951
# Velocity P-wave (km/s) = 3.83528 6.08780 5.08776
#
# Compressibility (1/GPa) = 0.08354720
#
# Stress axis : x y z
#
# Youngs Moduli (GPa) = 54.86548 61.50378 26.84046
#
# Poissons Ratio (x) = -0.05313 -0.09317
# Poissons Ratio (y) = -0.04739 -0.04206
# Poissons Ratio (z) = -0.19046 -0.09637
#
# Static dielectric constant tensor:
#      x y z
#    x 1.822740 -0.074200 -0.023540 
#    y -0.074200 1.886490 0.004750 
#    z -0.023540 0.004750 1.790430 
# 
# From -- ./inp_files/556616.got.cif
#   From: 2010.05.17/outbox.cif.g08.bks.cpg/sg2_279_cif.got.tgz:556616.got - 2010.06.03 11:33:40.
