data_PCOD9050964
_publ_section_title
;
Structure prediction by ZEFSAII (Michael W. Deem and Ramdas Pophale) SiO2 
 PCOD9050964
Probable space group: P -1
;
_chemical_formula_sum "Si O2"
_cell_formula_units_Z 14
_cell_length_a 9.208086
_cell_length_b 18.554438
_cell_length_c 9.773985
_cell_angle_alpha 154.022526
_cell_angle_beta 59.257786
_cell_angle_gamma 122.345043
_cell_volume 615.890274
_symmetry_space_group_name_H-M "P -1"
_symmetry_group_IT_number 2
_symmetry_cell_setting 'triclinic'
loop_
_space_group_symop_operation_xyz
x,y,z
-x,-y,-z
loop_
_atom_site_type_symbol
_atom_site_label
_atom_site_fract_x
_atom_site_fract_y
_atom_site_fract_z
Si Si1 0.501536 0.444154 0.197973
Si Si2 0.148225 0.448017 0.247798
Si Si3 0.961396 0.873799 0.429635
Si Si4 0.678992 0.327550 0.684204
Si Si5 0.147073 0.944620 0.741832
Si Si6 0.387827 0.033664 0.239832
Si Si7 0.499230 0.780775 0.939517
O O1 0.298441 0.390137 0.165423
O O2 0.522413 0.620410 0.566008
O O3 0.551483 0.300472 0.026464
O O4 0.627340 0.466183 0.044684
O O5 0.253510 0.604203 0.378157
O O6 0.000000 0.500000 0.500000
O O7 0.068694 0.309517 0.936990
O O8 0.784241 0.916422 0.644387
O O9 0.093748 0.913806 0.557462
O O10 0.000000 0.000000 0.500000
O O11 0.815069 0.228828 0.513465
O O12 0.500009 0.194439 0.533930
O O13 0.321798 0.085390 0.908378
O O14 0.000000 0.000000 0.000000
O O15 0.500000 0.000000 0.000000
O O16 0.369343 0.877949 0.088585
#
# Coordination Sequence:
#
# PCOD9050964 Si02
#       7
#     2   2   2   2   2   2   2
#     4  11  24  46  75 103 138 190 241 299 346 433
#     4  12  29  47  72 106 148 185 241 305 364 421
#     4  12  28  45  74 107 147 187 237 296 366 423
#     4  11  26  46  74 100 138 192 245 287 357 426
#     4  11  27  46  71 107 149 188 232 298 361 431
#     4  11  24  45  74 102 138 190 236 289 347 436
#     4  10  25  44  75 100 144 185 243 282 364 421
#
# _framework density 22.731321999999999
#
# number of rings (size 3 to 8) (size 9 to 14) (size 15 to 20)
#    0.000    0.857    1.429    3.857   14.000    2.857 
#    0.000    0.000    0.000    0.000    0.000    0.000 
#    0.000    0.000    0.000    0.000    0.000    0.000 
#
# Total GULP energy -78389.319040 kJ/mol
# GULP energy per Si atom -5599.237074 kJ/mol
# Density = 2.267958 g / cm^3
# Si number density = 22.731322 Si / 1000 Ang^3
#
#
#
# Elastic Constant Matrix: (Units=GPa)
#
#
# Indices 1 2 3 4 5 6 
#
# 1 76.5587 -1.5259 27.7884 -5.0219 4.0128 -10.5137
# 2 -1.5259 73.0431 12.9014 -3.8552 -11.8073 -13.9736
# 3 27.7884 12.9014 95.0622 -15.3282 0.1221 8.0997
# 4 -5.0219 -3.8552 -15.3282 42.5175 6.2449 -6.7570
# 5 4.0128 -11.8073 0.1221 6.2449 39.3759 -6.2596
# 6 -10.5137 -13.9736 8.0997 -6.7570 -6.2596 34.8734
#
#
#
# Elastic Compliance Matrix: (Units=1/GPa)
#
#
# Indices 1 2 3 4 5 6 
#
# 1 0.016279 0.002905 -0.005588 0.001357 0.000234 0.007675
# 2 0.002905 0.017480 -0.003902 0.001199 0.006383 0.010164
# 3 -0.005588 -0.003902 0.013740 0.003271 -0.002146 -0.006191
# 4 0.001357 0.001199 0.003271 0.026174 -0.003205 0.004626
# 5 0.000234 0.006383 -0.002146 -0.003205 0.029028 0.007716
# 6 0.007675 0.010164 -0.006191 0.004626 0.007716 0.038781
#
#
# Mechanical properties :
#
#
# Convention : Reuss Voigt Hill
#
# Bulk Modulus (GPa) = 29.13113 35.88797 32.50955
# Shear Modulus (GPa) = 30.10303 37.05338 33.57820
#
# Velocity S-wave (km/s) = 3.64304 4.04178 3.84758
# Velocity P-wave (km/s) = 5.52620 6.13217 5.83705
#
# Compressibility (1/GPa) = 0.03432754
#
# Stress axis : x y z
#
# Youngs Moduli (GPa) = 61.42966 57.20778 72.77869
#
# Poissons Ratio (x) = -0.16618 0.40670
# Poissons Ratio (y) = -0.17844 0.28401
# Poissons Ratio (z) = 0.34328 0.22325
#
# Static dielectric constant tensor:
#      x y z
#    x 1.940870 0.065350 0.337890 
#    y 0.065350 1.925480 0.421680 
#    z 0.337890 0.421680 4.093180 
# 
# From -- ./inp_files/158484.got.cif
#   From: 2010.05.17/outbox.cif.g08.bks.cpg/sg2_80_cif.got.tgz:158484.got - 2010.06.03 11:33:40.
