data_PCOD9050594
_publ_section_title
;
Structure prediction by ZEFSAII (Michael W. Deem and Ramdas Pophale) SiO2 
 PCOD9050594
Probable space group: P -1
;
_chemical_formula_sum "Si O2"
_cell_formula_units_Z 14
_cell_length_a 13.108375
_cell_length_b 8.227708
_cell_length_c 11.371065
_cell_angle_alpha 109.896312
_cell_angle_beta 151.721241
_cell_angle_gamma 72.850179
_cell_volume 546.304024
_symmetry_space_group_name_H-M "P -1"
_symmetry_group_IT_number 2
_symmetry_cell_setting 'triclinic'
loop_
_space_group_symop_operation_xyz
x,y,z
-x,-y,-z
loop_
_atom_site_type_symbol
_atom_site_label
_atom_site_fract_x
_atom_site_fract_y
_atom_site_fract_z
Si Si1 0.711122 0.147444 0.173697
Si Si2 0.666989 0.153165 0.739074
Si Si3 0.003158 0.964916 0.767506
Si Si4 0.349526 0.632170 0.447609
Si Si5 0.272926 0.226913 0.974410
Si Si6 0.620025 0.737776 0.318075
Si Si7 0.101457 0.574233 0.402192
O O1 0.791402 0.250918 0.392583
O O2 0.903394 0.151049 0.273298
O O3 0.681056 0.938846 0.102634
O O4 0.518170 0.243252 0.935268
O O5 0.736755 0.249315 0.715405
O O6 0.537450 0.270142 0.730819
O O7 0.500000 0.000000 0.500000
O O8 0.871654 0.085157 0.000562
O O9 0.755766 0.916327 0.511583
O O10 0.092271 0.150332 0.862536
O O11 0.500000 0.500000 0.500000
O O12 0.172786 0.548119 0.333022
O O13 0.517373 0.730053 0.728217
O O14 0.153230 0.389986 0.836835
O O15 0.788425 0.582769 0.456408
#
# Coordination Sequence:
#
# PCOD9050594 Si02
#       7
#     2   2   2   2   2   2   2
#     4   9  23  46  67  99 132 174 224 264 332 403
#     4  11  22  44  64  92 129 178 226 264 316 400
#     4   9  23  41  68  92 129 168 228 266 320 397
#     4  12  26  44  64  96 143 171 216 280 331 381
#     4  10  25  43  66 101 130 173 221 269 333 392
#     4  11  23  42  69  98 127 176 222 269 335 385
#     4  12  26  41  70 101 136 172 215 280 338 382
#
# _framework density 25.626756
#
# number of rings (size 3 to 8) (size 9 to 14) (size 15 to 20)
#    0.857    0.571    2.857    0.857    6.000    4.571 
#    0.000    0.000    0.000    0.000    0.000    0.000 
#    0.000    0.000    0.000    0.000    0.000    0.000 
#
# Total GULP energy -78351.468047 kJ/mol
# GULP energy per Si atom -5596.533432 kJ/mol
# Density = 2.556843 g / cm^3
# Si number density = 25.626756 Si / 1000 Ang^3
#
#
#
# Elastic Constant Matrix: (Units=GPa)
#
#
# Indices 1 2 3 4 5 6 
#
# 1 97.8455 20.3836 18.6262 -7.0366 -12.6286 -8.9523
# 2 20.3836 91.3930 11.2815 -24.1926 -1.7504 -20.3977
# 3 18.6262 11.2815 98.1091 -15.4584 -14.4381 0.9072
# 4 -7.0366 -24.1926 -15.4584 54.6995 1.9692 0.8285
# 5 -12.6286 -1.7504 -14.4381 1.9692 28.9222 1.9659
# 6 -8.9523 -20.3977 0.9072 0.8285 1.9659 31.3732
#
#
#
# Elastic Compliance Matrix: (Units=1/GPa)
#
#
# Indices 1 2 3 4 5 6 
#
# 1 0.011586 -0.001900 -0.001378 0.000084 0.004125 0.001850
# 2 -0.001900 0.015112 -0.000684 0.006153 -0.001302 0.009222
# 3 -0.001378 -0.000684 0.011724 0.002672 0.005134 -0.001570
# 4 0.000084 0.006153 0.002672 0.021717 0.000035 0.003372
# 5 0.004125 -0.001302 0.005134 0.000035 0.039012 -0.002264
# 6 0.001850 0.009222 -0.001570 0.003372 -0.002264 0.038496
#
#
# Mechanical properties :
#
#
# Convention : Reuss Voigt Hill
#
# Bulk Modulus (GPa) = 32.78929 43.10335 37.94632
# Shear Modulus (GPa) = 32.10522 38.80275 35.45398
#
# Velocity S-wave (km/s) = 3.54333 3.89543 3.72354
# Velocity P-wave (km/s) = 5.43719 6.09005 5.77285
#
# Compressibility (1/GPa) = 0.03049776
#
# Stress axis : x y z
#
# Youngs Moduli (GPa) = 86.31148 66.17231 85.29350
#
# Poissons Ratio (x) = 0.12571 0.11754
# Poissons Ratio (y) = 0.16397 0.05838
# Poissons Ratio (z) = 0.11894 0.04529
#
# Static dielectric constant tensor:
#      x y z
#    x 1.997260 -0.019530 0.034880 
#    y -0.019530 2.098830 -0.008930 
#    z 0.034880 -0.008930 1.928950 
# 
# From -- ./inp_files/447933.got.cif
#   From: 2010.05.17/outbox.cif.g08.bks.cpg/sg2_224_cif.got.tgz:447933.got - 2010.06.03 11:33:40.
