data_PCOD9050312
_publ_section_title
;
Structure prediction by ZEFSAII (Michael W. Deem and Ramdas Pophale) SiO2 
 PCOD9050312
Probable space group: P -1
;
_chemical_formula_sum "Si O2"
_cell_formula_units_Z 14
_cell_length_a 10.697628
_cell_length_b 8.576776
_cell_length_c 7.175307
_cell_angle_alpha 87.310854
_cell_angle_beta 97.259833
_cell_angle_gamma 126.725337
_cell_volume 523.099042
_symmetry_space_group_name_H-M "P -1"
_symmetry_group_IT_number 2
_symmetry_cell_setting 'triclinic'
loop_
_space_group_symop_operation_xyz
x,y,z
-x,-y,-z
loop_
_atom_site_type_symbol
_atom_site_label
_atom_site_fract_x
_atom_site_fract_y
_atom_site_fract_z
Si Si1 0.232724 0.538922 0.307996
Si Si2 0.463528 0.355293 0.740932
Si Si3 0.325595 0.931923 0.423933
Si Si4 0.909860 0.205294 0.277805
Si Si5 0.471531 0.259074 0.144975
Si Si6 0.108375 0.137140 0.684148
Si Si7 0.827807 0.494546 0.136161
O O1 0.410097 0.616296 0.380855
O O2 0.229043 0.718001 0.334244
O O3 0.085101 0.352799 0.389835
O O4 0.204391 0.490283 0.086445
O O5 0.544141 0.571112 0.821216
O O6 0.291216 0.272360 0.649353
O O7 0.447861 0.224979 0.920063
O O8 0.228192 0.907349 0.588626
O O9 0.500000 0.000000 0.500000
O O10 0.352788 0.078139 0.260741
O O11 0.891068 0.363023 0.170496
O O12 0.906609 0.034884 0.183012
O O13 0.654766 0.353300 0.206385
O O14 0.086133 0.286725 0.776930
O O15 0.000000 0.000000 0.500000
#
# Coordination Sequence:
#
# PCOD9050312 Si02
#       7
#     2   2   2   2   2   2   2
#     4  11  26  45  75 109 152 200 246 312 375 450
#     4   9  21  46  73 109 146 191 251 315 369 444
#     4  12  25  43  73 114 150 197 248 306 377 451
#     4  12  27  48  72 108 157 197 248 308 383 445
#     4   9  20  43  78 107 147 192 252 310 368 447
#     4  11  27  46  78 109 146 199 250 320 380 441
#     4  10  24  50  75 110 149 195 257 311 372 455
#
# _framework density 26.763574999999999
#
# number of rings (size 3 to 8) (size 9 to 14) (size 15 to 20)
#    0.000    1.429    1.429    2.571    6.000    2.857 
#    0.000    2.857    0.000    0.000    0.000    0.000 
#    0.000    1.143    0.000    0.000    0.000    0.000 
#
# Total GULP energy -78312.551761 kJ/mol
# GULP energy per Si atom -5593.753697 kJ/mol
# Density = 2.670266 g / cm^3
# Si number density = 26.763575 Si / 1000 Ang^3
#
#
#
# Elastic Constant Matrix: (Units=GPa)
#
#
# Indices 1 2 3 4 5 6 
#
# 1 94.2198 -1.9852 0.3096 -8.5660 8.6378 5.9429
# 2 -1.9852 150.7817 33.9705 -13.7941 -5.8837 -17.8160
# 3 0.3096 33.9705 92.6927 -7.2585 -3.4967 0.7828
# 4 -8.5660 -13.7941 -7.2585 48.5816 1.9617 -9.6146
# 5 8.6378 -5.8837 -3.4967 1.9617 35.7399 -0.1934
# 6 5.9429 -17.8160 0.7828 -9.6146 -0.1934 59.6652
#
#
#
# Elastic Compliance Matrix: (Units=1/GPa)
#
#
# Indices 1 2 3 4 5 6 
#
# 1 0.011096 0.000134 -0.000032 0.001951 -0.002774 -0.000759
# 2 0.000134 0.007807 -0.002668 0.002347 0.000878 0.002734
# 3 -0.000032 -0.002668 0.011863 0.000821 0.000680 -0.000815
# 4 0.001951 0.002347 0.000821 0.022584 -0.001222 0.004131
# 5 -0.002774 0.000878 0.000680 -0.001222 0.028931 0.000426
# 6 -0.000759 0.002734 -0.000815 0.004131 0.000426 0.018330
#
#
# Mechanical properties :
#
#
# Convention : Reuss Voigt Hill
#
# Bulk Modulus (GPa) = 39.00935 44.69824 41.85379
# Shear Modulus (GPa) = 43.74967 49.15727 46.45347
#
# Velocity S-wave (km/s) = 4.04749 4.29035 4.17069
# Velocity P-wave (km/s) = 6.03739 6.42497 6.23419
#
# Compressibility (1/GPa) = 0.02563488
#
# Stress axis : x y z
#
# Youngs Moduli (GPa) = 90.12234 128.09144 84.29627
#
# Poissons Ratio (x) = -0.01713 0.00266
# Poissons Ratio (y) = -0.01205 0.22488
# Poissons Ratio (z) = 0.00284 0.34171
#
# Static dielectric constant tensor:
#      x y z
#    x 2.165070 -0.034700 0.083740 
#    y -0.034700 2.080530 -0.024540 
#    z 0.083740 -0.024540 2.183060 
# 
# From -- ./inp_files/243572.got.cif
#   From: 2010.05.17/outbox.cif.g08.bks.cpg/sg2_122_cif.got.tgz:243572.got - 2010.06.03 11:33:40.
