data_PCOD9050689
_publ_section_title
;
Structure prediction by ZEFSAII (Michael W. Deem and Ramdas Pophale) SiO2 
 PCOD9050689
Probable space group: P -1
;
_chemical_formula_sum "Si O2"
_cell_formula_units_Z 14
_cell_length_a 11.247492
_cell_length_b 8.611415
_cell_length_c 17.312047
_cell_angle_alpha 46.733790
_cell_angle_beta 29.696536
_cell_angle_gamma 54.037546
_cell_volume 604.737778
_symmetry_space_group_name_H-M "P -1"
_symmetry_group_IT_number 2
_symmetry_cell_setting 'triclinic'
loop_
_space_group_symop_operation_xyz
x,y,z
-x,-y,-z
loop_
_atom_site_type_symbol
_atom_site_label
_atom_site_fract_x
_atom_site_fract_y
_atom_site_fract_z
Si Si1 0.046929 0.589111 0.357722
Si Si2 0.919831 0.351295 0.216610
Si Si3 0.179447 0.201302 0.331365
Si Si4 0.575700 0.065211 0.604910
Si Si5 0.835861 0.999147 0.269567
Si Si6 0.163516 0.150391 0.912148
Si Si7 0.566142 0.795616 0.980289
O O1 0.026693 0.411349 0.362338
O O2 0.000000 0.500000 0.500000
O O3 0.878758 0.792010 0.368050
O O4 0.324788 0.657382 0.169216
O O5 0.780832 0.233560 0.405843
O O6 0.902211 0.603340 0.136973
O O7 0.198732 0.300112 0.080572
O O8 0.799301 0.220117 0.259027
O O9 0.345172 0.194746 0.163368
O O10 0.327218 0.157352 0.342269
O O11 0.000000 0.000000 0.500000
O O12 0.379388 0.038838 0.656448
O O13 0.432267 0.147167 0.732030
O O14 0.094027 0.042618 0.068380
O O15 0.000000 0.000000 0.000000
O O16 0.500000 0.000000 0.000000
#
# Coordination Sequence:
#
# PCOD9050689 Si02
#       7
#     2   2   2   2   2   2   2
#     4  12  27  49  77 111 149 198 253 308 372 446
#     4  12  24  46  73 110 146 197 243 304 375 440
#     4  12  26  47  78 110 149 197 247 309 377 444
#     4  11  25  46  75 109 147 190 246 304 371 448
#     4  11  25  49  73 107 150 192 245 306 370 443
#     4  10  25  43  71 106 147 188 243 297 367 440
#     4  12  26  48  76 108 154 194 256 307 373 444
#
# _framework density 23.150528999999999
#
# number of rings (size 3 to 8) (size 9 to 14) (size 15 to 20)
#    0.000    0.571    2.857    4.286    8.000    1.143 
#    2.571    0.000    0.000    0.000    0.000    0.000 
#    0.000    0.000    0.000    0.000    0.000    0.000 
#
# Total GULP energy -78213.084790 kJ/mol
# GULP energy per Si atom -5586.648914 kJ/mol
# Density = 2.309784 g / cm^3
# Si number density = 23.150529 Si / 1000 Ang^3
#
#
#
# Elastic Constant Matrix: (Units=GPa)
#
#
# Indices 1 2 3 4 5 6 
#
# 1 93.8344 24.7027 21.4409 -13.2893 6.5712 1.7433
# 2 24.7027 130.7387 14.4845 -22.7490 -2.4892 16.7110
# 3 21.4409 14.4845 106.4926 4.5510 4.3513 23.7160
# 4 -13.2893 -22.7490 4.5510 43.1335 0.7604 0.4479
# 5 6.5712 -2.4892 4.3513 0.7604 44.9773 4.3307
# 6 1.7433 16.7110 23.7160 0.4479 4.3307 40.9773
#
#
#
# Elastic Compliance Matrix: (Units=1/GPa)
#
#
# Indices 1 2 3 4 5 6 
#
# 1 0.012283 -0.001751 -0.002724 0.003161 -0.001867 0.001931
# 2 -0.001751 0.009273 -0.000321 0.004404 0.001080 -0.003684
# 3 -0.002724 -0.000321 0.011497 -0.002154 -0.000082 -0.006375
# 4 0.003161 0.004404 -0.002154 0.026724 -0.000371 -0.000937
# 5 -0.001867 0.001080 -0.000082 -0.000371 0.022842 -0.002724
# 6 0.001931 -0.003684 -0.006375 -0.000937 -0.002724 0.029812
#
#
# Mechanical properties :
#
#
# Convention : Reuss Voigt Hill
#
# Bulk Modulus (GPa) = 42.62139 50.25799 46.43969
# Shear Modulus (GPa) = 38.50773 43.84680 41.17727
#
# Velocity S-wave (km/s) = 4.08286 4.35672 4.22201
# Velocity P-wave (km/s) = 6.37784 6.86034 6.62349
#
# Compressibility (1/GPa) = 0.02346240
#
# Stress axis : x y z
#
# Youngs Moduli (GPa) = 81.41304 107.83901 86.97550
#
# Poissons Ratio (x) = 0.18887 0.23688
# Poissons Ratio (y) = 0.14259 0.02788
# Poissons Ratio (z) = 0.22173 0.03457
#
# Static dielectric constant tensor:
#      x y z
#    x 2.023050 0.082950 0.015830 
#    y 0.082950 1.966130 0.000930 
#    z 0.015830 0.000930 1.880600 
# 
# From -- ./inp_files/566396.got.cif
#   From: 2010.05.17/outbox.cif.g08.bks.cpg/sg2_284_cif.got.tgz:566396.got - 2010.06.03 11:33:40.
