data_PCOD9050985
_publ_section_title
;
Structure prediction by ZEFSAII (Michael W. Deem and Ramdas Pophale) SiO2 
 PCOD9050985
Probable space group: P -1
;
_chemical_formula_sum "Si O2"
_cell_formula_units_Z 16
_cell_length_a 10.349691
_cell_length_b 7.041654
_cell_length_c 9.879898
_cell_angle_alpha 63.569826
_cell_angle_beta 90.961739
_cell_angle_gamma 93.803660
_cell_volume 643.290767
_symmetry_space_group_name_H-M "P -1"
_symmetry_group_IT_number 2
_symmetry_cell_setting 'triclinic'
loop_
_space_group_symop_operation_xyz
x,y,z
-x,-y,-z
loop_
_atom_site_type_symbol
_atom_site_label
_atom_site_fract_x
_atom_site_fract_y
_atom_site_fract_z
Si Si1 0.567305 0.387931 0.368886
Si Si2 0.722351 0.657981 0.085299
Si Si3 0.740888 0.166574 0.608743
Si Si4 0.531863 0.171865 0.062672
Si Si5 0.323854 0.157107 0.694160
Si Si6 0.108242 0.247906 0.178095
Si Si7 0.886263 0.107102 0.386609
Si Si8 0.304122 0.545311 0.225580
O O1 0.607204 0.185642 0.516801
O O2 0.658482 0.442788 0.220730
O O3 0.604969 0.606652 0.387791
O O4 0.420680 0.398784 0.314700
O O5 0.604727 0.723407 0.964713
O O6 0.851290 0.672046 0.995727
O O7 0.641591 0.326222 0.946003
O O8 0.739123 0.816522 0.164677
O O9 0.833799 0.254262 0.458387
O O10 0.720613 0.300718 0.699438
O O11 0.808915 0.958357 0.724623
O O12 0.579148 0.029753 0.228809
O O13 0.500000 0.000000 0.000000
O O14 0.220901 0.073813 0.607631
O O15 0.171229 0.419974 0.227558
O O16 0.957920 0.207047 0.224543
O O17 0.000000 0.000000 0.500000
#
# Coordination Sequence:
#
# PCOD9050985 Si02
#       8
#     2   2   2   2   2   2   2   2
#     4   9  22  40  66 100 131 165 213 266 342 391
#     4   8  19  38  66  98 129 160 210 265 337 379
#     4  11  24  43  64  90 132 181 217 261 334 371
#     4   9  16  37  69  98 127 166 203 260 341 391
#     4   9  19  40  70  88 136 162 217 271 316 387
#     4  11  25  42  64  97 129 171 229 263 315 391
#     4  10  25  45  61  91 129 181 231 262 309 386
#     4  11  23  41  67 102 137 161 212 276 321 402
#
# _framework density 24.872111
#
# number of rings (size 3 to 8) (size 9 to 14) (size 15 to 20)
#    0.750    1.500    1.250    1.875    3.500    5.500 
#    2.250    2.500    0.000    0.000    0.000    0.000 
#    0.000    0.000    0.000    0.000    0.000    0.000 
#
# Total GULP energy -89292.545495 kJ/mol
# GULP energy per Si atom -5580.784093 kJ/mol
# Density = 2.481550 g / cm^3
# Si number density = 24.872111 Si / 1000 Ang^3
#
#
#
# Elastic Constant Matrix: (Units=GPa)
#
#
# Indices 1 2 3 4 5 6 
#
# 1 69.0366 19.9544 33.4088 0.5036 -28.9457 4.2979
# 2 19.9544 74.1705 27.1040 7.9315 -7.9866 2.2698
# 3 33.4088 27.1040 101.4065 9.6450 -19.5488 -15.3269
# 4 0.5036 7.9315 9.6450 31.5998 -10.8616 6.6821
# 5 -28.9457 -7.9866 -19.5488 -10.8616 61.8148 5.9461
# 6 4.2979 2.2698 -15.3269 6.6821 5.9461 31.5059
#
#
#
# Elastic Compliance Matrix: (Units=1/GPa)
#
#
# Indices 1 2 3 4 5 6 
#
# 1 0.024310 -0.003231 -0.007440 0.008798 0.011187 -0.010680
# 2 -0.003231 0.015814 -0.003284 -0.002894 -0.000871 -0.001518
# 3 -0.007440 -0.003284 0.015081 -0.006218 -0.001206 0.010135
# 4 0.008798 -0.002894 -0.006218 0.040779 0.010351 -0.014619
# 5 0.011187 -0.000871 -0.001206 0.010351 0.023577 -0.008695
# 6 -0.010680 -0.001518 0.010135 -0.014619 -0.008695 0.042978
#
#
# Mechanical properties :
#
#
# Convention : Reuss Voigt Hill
#
# Bulk Modulus (GPa) = 36.63758 45.06090 40.84924
# Shear Modulus (GPa) = 25.05652 35.92717 30.49184
#
# Velocity S-wave (km/s) = 3.17742 3.80475 3.50515
# Velocity P-wave (km/s) = 5.31260 6.12028 5.73069
#
# Compressibility (1/GPa) = 0.02729438
#
# Stress axis : x y z
#
# Youngs Moduli (GPa) = 41.13449 63.23484 66.30890
#
# Poissons Ratio (x) = 0.20431 0.49335
# Poissons Ratio (y) = 0.13290 0.21779
# Poissons Ratio (z) = 0.30605 0.20769
#
# Static dielectric constant tensor:
#      x y z
#    x 1.997700 -0.058670 -0.022310 
#    y -0.058670 2.047610 -0.087940 
#    z -0.022310 -0.087940 2.143600 
# 
# From -- ./inp_files/409349.got.cif
#   From: 2010.05.17/outbox.cif.g08.bks.cpg/sg2_205_cif.got.tgz:409349.got - 2010.06.03 11:33:40.
