data_PCOD9050453
_publ_section_title
;
Structure prediction by ZEFSAII (Michael W. Deem and Ramdas Pophale) SiO2 
 PCOD9050453
Probable space group: P -1
;
_chemical_formula_sum "Si O2"
_cell_formula_units_Z 16
_cell_length_a 9.491466
_cell_length_b 15.953424
_cell_length_c 4.794823
_cell_angle_alpha 76.064108
_cell_angle_beta 74.621646
_cell_angle_gamma 67.952640
_cell_volume 640.691604
_symmetry_space_group_name_H-M "P -1"
_symmetry_group_IT_number 2
_symmetry_cell_setting 'triclinic'
loop_
_space_group_symop_operation_xyz
x,y,z
-x,-y,-z
loop_
_atom_site_type_symbol
_atom_site_label
_atom_site_fract_x
_atom_site_fract_y
_atom_site_fract_z
Si Si1 0.755237 0.084953 0.596012
Si Si2 0.233314 0.034389 0.810255
Si Si3 0.686500 0.825609 0.021454
Si Si4 0.865008 0.458501 0.631147
Si Si5 0.544858 0.767602 0.618635
Si Si6 0.989344 0.169025 0.164297
Si Si7 0.467146 0.422899 0.269865
Si Si8 0.801418 0.363568 0.268931
O O1 0.609645 0.171073 0.509575
O O2 0.909908 0.105767 0.416774
O O3 0.757616 0.053560 0.936854
O O4 0.743590 0.999757 0.486935
O O5 0.066629 0.112032 0.893708
O O6 0.349589 0.081342 0.849427
O O7 0.676248 0.754050 0.321608
O O8 0.581262 0.820400 0.821871
O O9 0.857927 0.810283 0.824788
O O10 0.702222 0.530333 0.552545
O O11 0.890634 0.369086 0.499251
O O12 0.000000 0.500000 0.500000
O O13 0.836625 0.434295 0.980656
O O14 0.536031 0.670330 0.797808
O O15 0.858825 0.267260 0.157226
O O16 0.619191 0.389063 0.409843
O O17 0.500000 0.500000 0.000000
#
# Coordination Sequence:
#
# PCOD9050453 Si02
#       8
#     2   2   2   2   2   2   2   2
#     4  12  23  44  71  97 135 181 237 268 334 398
#     4  10  25  41  70  99 137 179 228 280 326 394
#     4  10  27  41  67  98 140 177 219 282 336 396
#     4  11  26  41  73 100 135 168 219 279 343 404
#     4  12  25  45  69 101 133 184 220 284 339 402
#     4  10  25  45  67  99 135 182 226 274 333 394
#     4  10  25  49  71 101 136 176 228 279 338 404
#     4  11  24  46  67  99 131 179 220 277 330 405
#
# _framework density 24.973013000000002
#
# number of rings (size 3 to 8) (size 9 to 14) (size 15 to 20)
#    0.750    0.500    1.250    3.000    3.500   10.000 
#    0.000    0.000    0.000    0.000    0.000    0.000 
#    0.000    0.000    0.000    0.000    0.000    0.000 
#
# Total GULP energy -89431.334811 kJ/mol
# GULP energy per Si atom -5589.458426 kJ/mol
# Density = 2.491617 g / cm^3
# Si number density = 24.973013 Si / 1000 Ang^3
#
#
#
# Elastic Constant Matrix: (Units=GPa)
#
#
# Indices 1 2 3 4 5 6 
#
# 1 127.4267 40.7482 36.7541 -0.6663 -18.4308 16.9457
# 2 40.7482 104.4816 12.0864 -10.2122 -11.2652 -2.3900
# 3 36.7541 12.0864 99.8082 -2.0134 -5.0295 11.6930
# 4 -0.6663 -10.2122 -2.0134 23.8705 10.6482 -7.0272
# 5 -18.4308 -11.2652 -5.0295 10.6482 34.2303 1.2626
# 6 16.9457 -2.3900 11.6930 -7.0272 1.2626 34.2757
#
#
#
# Elastic Compliance Matrix: (Units=1/GPa)
#
#
# Indices 1 2 3 4 5 6 
#
# 1 0.011987 -0.004431 -0.002851 -0.006971 0.007002 -0.006950
# 2 -0.004431 0.012003 -0.000250 0.006626 -0.000699 0.004497
# 3 -0.002851 -0.000250 0.011401 -0.000036 0.000161 -0.002511
# 4 -0.006971 0.006626 -0.000036 0.058540 -0.020404 0.016674
# 5 0.007002 -0.000699 0.000161 -0.020404 0.039464 -0.009203
# 6 -0.006950 0.004497 -0.002511 0.016674 -0.009203 0.037539
#
#
# Mechanical properties :
#
#
# Convention : Reuss Voigt Hill
#
# Bulk Modulus (GPa) = 49.19606 56.76598 52.98102
# Shear Modulus (GPa) = 25.93694 34.61716 30.27705
#
# Velocity S-wave (km/s) = 3.22623 3.72719 3.48572
# Velocity P-wave (km/s) = 5.79832 6.42673 6.12059
#
# Compressibility (1/GPa) = 0.02032683
#
# Stress axis : x y z
#
# Youngs Moduli (GPa) = 83.42041 83.31158 87.71104
#
# Poissons Ratio (x) = 0.36913 0.25010
# Poissons Ratio (y) = 0.36961 0.02196
# Poissons Ratio (z) = 0.23786 0.02086
#
# Static dielectric constant tensor:
#      x y z
#    x 1.997280 -0.034160 -0.006310 
#    y -0.034160 2.035990 0.003620 
#    z -0.006310 0.003620 1.932620 
# 
# From -- ./inp_files/37912.got.cif
#   From: 2010.05.17/outbox.cif.g08.bks.cpg/sg2_19_cif.got.tgz:37912.got - 2010.06.03 11:33:40.
