data_PCOD9050261
_publ_section_title
;
Structure prediction by ZEFSAII (Michael W. Deem and Ramdas Pophale) SiO2 
 PCOD9050261
Probable space group: P -1
;
_chemical_formula_sum "Si O2"
_cell_formula_units_Z 14
_cell_length_a 10.117577
_cell_length_b 13.478782
_cell_length_c 4.837841
_cell_angle_alpha 87.844948
_cell_angle_beta 106.884760
_cell_angle_gamma 61.133885
_cell_volume 540.277262
_symmetry_space_group_name_H-M "P -1"
_symmetry_group_IT_number 2
_symmetry_cell_setting 'triclinic'
loop_
_space_group_symop_operation_xyz
x,y,z
-x,-y,-z
loop_
_atom_site_type_symbol
_atom_site_label
_atom_site_fract_x
_atom_site_fract_y
_atom_site_fract_z
Si Si1 0.329434 0.735954 0.180839
Si Si2 0.727950 0.930976 0.107937
Si Si3 0.478776 0.405851 0.166034
Si Si4 0.398581 0.907151 0.469285
Si Si5 0.855270 0.502665 0.746977
Si Si6 0.254390 0.259030 0.496887
Si Si7 0.984361 0.255642 0.950935
O O1 0.415210 0.640842 0.486661
O O2 0.297182 0.854560 0.281821
O O3 0.167030 0.739892 0.998939
O O4 0.448627 0.700106 0.996333
O O5 0.673714 0.027620 0.297461
O O6 0.707782 0.826336 0.216264
O O7 0.623856 0.993965 0.769631
O O8 0.915304 0.862336 0.146783
O O9 0.296289 0.459481 0.147480
O O10 0.500000 0.500000 0.000000
O O11 0.580966 0.799326 0.574168
O O12 0.799089 0.608420 0.488701
O O13 0.917823 0.371383 0.710546
O O14 0.000000 0.500000 0.000000
O O15 0.112381 0.256777 0.240255
#
# Coordination Sequence:
#
# PCOD9050261 Si02
#       7
#     2   2   2   2   2   2   2
#     4  12  28  48  78 111 154 198 258 304 380 454
#     4  12  27  48  78 108 153 199 258 315 374 442
#     4  12  25  49  78 111 154 203 247 308 382 456
#     4  12  27  48  78 108 148 205 260 309 371 451
#     4  10  24  49  78 118 152 194 248 318 385 457
#     4  11  25  49  75 113 150 197 255 318 383 439
#     4  11  27  47  75 114 154 199 246 318 383 454
#
# _framework density 25.91262
#
# number of rings (size 3 to 8) (size 9 to 14) (size 15 to 20)
#    0.000    0.571    4.286    2.143    4.000    2.857 
#    0.000    0.000    0.000    0.000    0.000    0.000 
#    0.000    0.000    0.000    0.000    0.000    0.000 
#
# Total GULP energy -78513.704827 kJ/mol
# GULP energy per Si atom -5608.121773 kJ/mol
# Density = 2.585364 g / cm^3
# Si number density = 25.912620 Si / 1000 Ang^3
#
#
#
# Elastic Constant Matrix: (Units=GPa)
#
#
# Indices 1 2 3 4 5 6 
#
# 1 131.3095 22.2994 35.7129 -8.8782 20.5055 -16.2642
# 2 22.2994 133.3323 53.4201 -13.6402 8.7281 -14.3308
# 3 35.7129 53.4201 109.7501 -0.5132 -6.4271 -12.2712
# 4 -8.8782 -13.6402 -0.5132 47.3235 0.1622 -8.7297
# 5 20.5055 8.7281 -6.4271 0.1622 37.3902 -3.4195
# 6 -16.2642 -14.3308 -12.2712 -8.7297 -3.4195 47.8618
#
#
#
# Elastic Compliance Matrix: (Units=1/GPa)
#
#
# Indices 1 2 3 4 5 6 
#
# 1 0.009920 0.000737 -0.003624 0.002553 -0.006000 0.002699
# 2 0.000737 0.010293 -0.005170 0.003503 -0.003492 0.002396
# 3 -0.003624 -0.005170 0.013195 -0.001927 0.005530 0.000647
# 4 0.002553 0.003503 -0.001927 0.023636 -0.002141 0.005580
# 5 -0.006000 -0.003492 0.005530 -0.002141 0.031830 0.000217
# 6 0.002699 0.002396 0.000647 0.005580 0.000217 0.023728
#
#
# Mechanical properties :
#
#
# Convention : Reuss Voigt Hill
#
# Bulk Modulus (GPa) = 57.82736 66.36186 62.09461
# Shear Modulus (GPa) = 37.18062 44.04573 40.61318
#
# Velocity S-wave (km/s) = 3.79205 4.12731 3.96322
# Velocity P-wave (km/s) = 6.44496 6.95546 6.70507
#
# Compressibility (1/GPa) = 0.01729285
#
# Stress axis : x y z
#
# Youngs Moduli (GPa) = 100.80650 97.15748 75.78891
#
# Poissons Ratio (x) = -0.07161 0.27468
# Poissons Ratio (y) = -0.07430 0.39182
# Poissons Ratio (z) = 0.36535 0.50229
#
# Static dielectric constant tensor:
#      x y z
#    x 2.044250 0.022290 -0.018580 
#    y 0.022290 2.072180 -0.016320 
#    z -0.018580 -0.016320 2.033420 
# 
# From -- ./inp_files/77896.got.cif
#   From: 2010.05.17/outbox.cif.g08.bks.cpg/sg2_39_cif.got.tgz:77896.got - 2010.06.03 11:33:40.
