data_PCOD9050465
_publ_section_title
;
Structure prediction by ZEFSAII (Michael W. Deem and Ramdas Pophale) SiO2 
 PCOD9050465
Probable space group: P -1
;
_chemical_formula_sum "Si O2"
_cell_formula_units_Z 14
_cell_length_a 18.175024
_cell_length_b 8.846196
_cell_length_c 9.422346
_cell_angle_alpha 56.383141
_cell_angle_beta 130.777835
_cell_angle_gamma 83.312685
_cell_volume 623.025311
_symmetry_space_group_name_H-M "P -1"
_symmetry_group_IT_number 2
_symmetry_cell_setting 'triclinic'
loop_
_space_group_symop_operation_xyz
x,y,z
-x,-y,-z
loop_
_atom_site_type_symbol
_atom_site_label
_atom_site_fract_x
_atom_site_fract_y
_atom_site_fract_z
Si Si1 0.377661 0.785855 0.323628
Si Si2 0.068518 0.875365 0.493101
Si Si3 0.581577 0.063883 0.250838
Si Si4 0.533200 0.731443 0.316905
Si Si5 0.904660 0.784127 0.816198
Si Si6 0.405586 0.313540 0.176330
Si Si7 0.068056 0.238883 0.811081
O O1 0.385899 0.905423 0.136139
O O2 0.373007 0.583620 0.379136
O O3 0.528710 0.615069 0.686004
O O4 0.244340 0.018499 0.137147
O O5 0.971005 0.886018 0.261614
O O6 0.087691 0.041141 0.353544
O O7 0.231635 0.548985 0.866957
O O8 0.000000 0.000000 0.500000
O O9 0.611863 0.803654 0.427141
O O10 0.733416 0.958126 0.518232
O O11 0.453904 0.283464 0.091531
O O12 0.512670 0.194267 0.941990
O O13 0.968938 0.715823 0.092636
O O14 0.000000 0.500000 0.000000
O O15 0.500000 0.000000 0.500000
O O16 0.000000 0.500000 0.500000
#
# Coordination Sequence:
#
# PCOD9050465 Si02
#       7
#     2   2   2   2   2   2   2
#     4  11  24  44  74 105 148 186 252 299 375 439
#     4  12  31  50  78 112 157 202 254 315 390 453
#     4  11  25  46  73 107 144 188 256 303 376 434
#     4  10  25  41  73 107 141 187 241 320 359 441
#     4  12  29  49  75 107 157 204 256 313 384 455
#     4  12  25  47  78 107 148 196 251 308 371 453
#     4  12  28  48  74 111 153 200 249 311 386 454
#
# _framework density 22.470996
#
# number of rings (size 3 to 8) (size 9 to 14) (size 15 to 20)
#    0.000    0.571    2.857    3.000   14.000    2.286 
#    0.000    0.000    0.000    0.000    0.000    0.000 
#    0.000    0.000    0.000    0.000    0.000    0.000 
#
# Total GULP energy -78321.845684 kJ/mol
# GULP energy per Si atom -5594.417549 kJ/mol
# Density = 2.241985 g / cm^3
# Si number density = 22.470996 Si / 1000 Ang^3
#
#
#
# Elastic Constant Matrix: (Units=GPa)
#
#
# Indices 1 2 3 4 5 6 
#
# 1 161.0161 83.1446 45.7843 7.0515 -17.2331 -13.4225
# 2 83.1446 138.7970 33.0462 18.9451 -14.5230 -17.9920
# 3 45.7843 33.0462 69.6919 8.6650 4.9180 -13.3692
# 4 7.0515 18.9451 8.6650 36.9276 -3.1893 -9.1775
# 5 -17.2331 -14.5230 4.9180 -3.1893 38.4387 -0.7971
# 6 -13.4225 -17.9920 -13.3692 -9.1775 -0.7971 65.6484
#
#
#
# Elastic Compliance Matrix: (Units=1/GPa)
#
#
# Indices 1 2 3 4 5 6 
#
# 1 0.010535 -0.004998 -0.005050 0.002075 0.003655 0.000090
# 2 -0.004998 0.011501 -0.001559 -0.004094 0.001991 0.001265
# 3 -0.005050 -0.001559 0.019539 -0.002787 -0.005541 0.002062
# 4 0.002075 -0.004094 -0.002787 0.030387 0.002324 0.003011
# 5 0.003655 0.001991 -0.005541 0.002324 0.029326 0.000845
# 6 0.000090 0.001265 0.002062 0.003011 0.000845 0.016449
#
#
# Mechanical properties :
#
#
# Convention : Reuss Voigt Hill
#
# Bulk Modulus (GPa) = 54.46194 77.05056 65.75625
# Shear Modulus (GPa) = 33.99758 42.03828 38.01793
#
# Velocity S-wave (km/s) = 3.89389 4.32994 4.11769
# Velocity P-wave (km/s) = 6.67126 7.70462 7.20649
#
# Compressibility (1/GPa) = 0.01836145
#
# Stress axis : x y z
#
# Youngs Moduli (GPa) = 94.92230 86.95093 51.18032
#
# Poissons Ratio (x) = 0.43455 0.25845
# Poissons Ratio (y) = 0.47439 0.07979
# Poissons Ratio (z) = 0.47934 0.13556
#
# Static dielectric constant tensor:
#      x y z
#    x 1.884510 -0.001080 -0.015600 
#    y -0.001080 1.855700 -0.013320 
#    z -0.015600 -0.013320 1.817030 
# 
# From -- ./inp_files/328610.got.cif
#   From: 2010.05.17/outbox.cif.g08.bks.cpg/sg2_165_cif.got.tgz:328610.got - 2010.06.03 11:33:40.
