data_PCOD9050320
_publ_section_title
;
Structure prediction by ZEFSAII (Michael W. Deem and Ramdas Pophale) SiO2 
 PCOD9050320
Probable space group: P -1
;
_chemical_formula_sum "Si O2"
_cell_formula_units_Z 16
_cell_length_a 8.139514
_cell_length_b 14.241784
_cell_length_c 6.597776
_cell_angle_alpha 87.806992
_cell_angle_beta 62.539034
_cell_angle_gamma 92.209820
_cell_volume 676.785079
_symmetry_space_group_name_H-M "P -1"
_symmetry_group_IT_number 2
_symmetry_cell_setting 'triclinic'
loop_
_space_group_symop_operation_xyz
x,y,z
-x,-y,-z
loop_
_atom_site_type_symbol
_atom_site_label
_atom_site_fract_x
_atom_site_fract_y
_atom_site_fract_z
Si Si1 0.165985 0.573352 0.826654
Si Si2 0.765862 0.585985 0.495835
Si Si3 0.066240 0.283019 0.279805
Si Si4 0.911969 0.078474 0.312685
Si Si5 0.408352 0.294684 0.753747
Si Si6 0.454361 0.902957 0.262399
Si Si7 0.339389 0.568243 0.142407
Si Si8 0.216570 0.943520 0.046910
O O1 0.269107 0.499832 0.640419
O O2 0.091282 0.659459 0.741858
O O3 0.266407 0.607011 0.971757
O O4 0.000000 0.500000 0.000000
O O5 0.892855 0.669239 0.528865
O O6 0.639314 0.655855 0.433894
O O7 0.794947 0.510541 0.670115
O O8 0.002591 0.173857 0.349400
O O9 0.240160 0.292774 0.018338
O O10 0.705519 0.054249 0.515912
O O11 0.879509 0.101570 0.091898
O O12 0.052661 0.995570 0.248334
O O13 0.467700 0.190489 0.686916
O O14 0.576520 0.352607 0.764958
O O15 0.336971 0.879564 0.125091
O O16 0.628975 0.974711 0.113531
O O17 0.500000 0.500000 0.000000
#
# Coordination Sequence:
#
# PCOD9050320 Si02
#       8
#     2   2   2   2   2   2   2   2
#     4  12  24  42  66  94 137 189 236 285 342 404
#     4  12  24  42  68  92 142 192 232 282 350 400
#     4  12  26  44  65 103 140 183 237 291 341 413
#     4  11  25  46  74 107 135 184 229 286 359 425
#     4  12  26  44  65 103 140 183 237 291 341 413
#     4  11  25  46  74 107 135 184 229 286 359 425
#     4  12  24  42  66  94 137 189 236 285 342 404
#     4  10  24  50  76  98 146 174 228 292 358 426
#
# _framework density 23.641185
#
# number of rings (size 3 to 8) (size 9 to 14) (size 15 to 20)
#    0.000    0.500    6.250    1.500    3.500    2.000 
#    2.250    0.000    0.000    0.000    0.000    0.000 
#    0.000    0.000    0.000    0.000    0.000    0.000 
#
# Total GULP energy -89153.401913 kJ/mol
# GULP energy per Si atom -5572.087620 kJ/mol
# Density = 2.358738 g / cm^3
# Si number density = 23.641185 Si / 1000 Ang^3
#
#
#
# Elastic Constant Matrix: (Units=GPa)
#
#
# Indices 1 2 3 4 5 6 
#
# 1 111.0882 29.5849 39.8522 5.1950 21.8416 -12.1003
# 2 29.5849 69.5435 8.8309 1.0132 0.1371 -14.2111
# 3 39.8522 8.8309 63.2638 2.9640 0.9558 -4.2881
# 4 5.1950 1.0132 2.9640 19.6343 0.7353 9.1396
# 5 21.8416 0.1371 0.9558 0.7353 69.7515 -0.3183
# 6 -12.1003 -14.2111 -4.2881 9.1396 -0.3183 44.6106
#
#
#
# Elastic Compliance Matrix: (Units=1/GPa)
#
#
# Indices 1 2 3 4 5 6 
#
# 1 0.014352 -0.004558 -0.008030 -0.003261 -0.004330 0.002306
# 2 -0.004558 0.017210 0.000868 -0.002085 0.001425 0.004767
# 3 -0.008030 0.000868 0.020798 -0.001323 0.002243 0.000385
# 4 -0.003261 -0.002085 -0.001323 0.058440 0.000365 -0.013646
# 5 -0.004330 0.001425 0.002243 0.000365 0.015653 -0.000468
# 6 0.002306 0.004767 0.000385 -0.013646 -0.000468 0.027390
#
#
# Mechanical properties :
#
#
# Convention : Reuss Voigt Hill
#
# Bulk Modulus (GPa) = 34.57783 44.49239 39.53511
# Shear Modulus (GPa) = 26.74915 37.84111 32.29513
#
# Velocity S-wave (km/s) = 3.36737 4.00514 3.70003
# Velocity P-wave (km/s) = 5.45681 6.34421 5.91717
#
# Compressibility (1/GPa) = 0.02892027
#
# Stress axis : x y z
#
# Youngs Moduli (GPa) = 69.67903 58.10531 48.08150
#
# Poissons Ratio (x) = 0.26487 0.38608
# Poissons Ratio (y) = 0.31763 -0.04176
# Poissons Ratio (z) = 0.55950 -0.05046
#
# Static dielectric constant tensor:
#      x y z
#    x 1.909250 0.002330 -0.056910 
#    y 0.002330 1.788210 0.003750 
#    z -0.056910 0.003750 1.960370 
# 
# From -- ./inp_files/38482.got.cif
#   From: 2010.05.17/outbox.cif.g08.bks.cpg/sg2_20_cif.got.tgz:38482.got - 2010.06.03 11:33:40.
