data_PCOD9050578
_publ_section_title
;
Structure prediction by ZEFSAII (Michael W. Deem and Ramdas Pophale) SiO2 
 PCOD9050578
Probable space group: P -1
;
_chemical_formula_sum "Si O2"
_cell_formula_units_Z 16
_cell_length_a 13.973623
_cell_length_b 12.412408
_cell_length_c 9.330668
_cell_angle_alpha 43.266415
_cell_angle_beta 116.195100
_cell_angle_gamma 139.410792
_cell_volume 698.750398
_symmetry_space_group_name_H-M "P -1"
_symmetry_group_IT_number 2
_symmetry_cell_setting 'triclinic'
loop_
_space_group_symop_operation_xyz
x,y,z
-x,-y,-z
loop_
_atom_site_type_symbol
_atom_site_label
_atom_site_fract_x
_atom_site_fract_y
_atom_site_fract_z
Si Si1 0.177883 0.502327 0.115898
Si Si2 0.277178 0.290215 0.239302
Si Si3 0.826300 0.771457 0.089704
Si Si4 0.461588 0.781078 0.228311
Si Si5 0.393090 0.710322 0.579199
Si Si6 0.330843 0.999884 0.328786
Si Si7 0.156574 0.824044 0.660211
Si Si8 0.609453 0.728157 0.152430
O O1 0.190474 0.362911 0.154858
O O2 0.298404 0.587628 0.235411
O O3 0.013579 0.345431 0.230176
O O4 0.216971 0.717439 0.865917
O O5 0.450670 0.505389 0.193057
O O6 0.223264 0.071098 0.491942
O O7 0.243798 0.233712 0.101050
O O8 0.773037 0.536585 0.270371
O O9 0.734337 0.726088 0.216210
O O10 0.000000 0.000000 0.000000
O O11 0.455119 0.757458 0.415223
O O12 0.571923 0.770627 0.235743
O O13 0.500000 0.000000 0.000000
O O14 0.378471 0.875355 0.443148
O O15 0.522826 0.777426 0.704236
O O16 0.188638 0.843186 0.493119
O O17 0.316393 0.066198 0.103308
#
# Coordination Sequence:
#
# PCOD9050578 Si02
#       8
#     2   2   2   2   2   2   2   2
#     4  10  25  43  65 103 136 177 237 280 343 423
#     4  11  22  45  74  95 139 187 234 287 336 418
#     4  12  26  44  65 104 142 175 230 293 352 412
#     4  11  23  43  66  98 140 175 220 293 347 403
#     4  11  24  41  70  99 133 184 223 291 343 407
#     4  11  21  42  74  96 126 179 245 271 336 416
#     4  11  22  41  70 100 130 180 232 282 343 406
#     4  11  23  45  69 100 132 182 236 275 340 424
#
# _framework density 22.898019000000001
#
# number of rings (size 3 to 8) (size 9 to 14) (size 15 to 20)
#    0.000    1.000    3.750    3.000    5.250    0.500 
#    9.000    1.250    0.000    0.000    0.000    0.000 
#    0.000    0.000    0.000    0.000    0.000    0.000 
#
# Total GULP energy -89316.068976 kJ/mol
# GULP energy per Si atom -5582.254311 kJ/mol
# Density = 2.284590 g / cm^3
# Si number density = 22.898019 Si / 1000 Ang^3
#
#
#
# Elastic Constant Matrix: (Units=GPa)
#
#
# Indices 1 2 3 4 5 6 
#
# 1 140.0396 38.9815 31.7395 -4.3851 -14.2077 -20.5050
# 2 38.9815 81.5467 35.8827 -9.7592 -12.3787 -13.0509
# 3 31.7395 35.8827 126.0013 -17.0743 -0.4376 -11.2599
# 4 -4.3851 -9.7592 -17.0743 26.2341 0.1097 -4.9285
# 5 -14.2077 -12.3787 -0.4376 0.1097 40.6590 -5.0662
# 6 -20.5050 -13.0509 -11.2599 -4.9285 -5.0662 31.3325
#
#
#
# Elastic Compliance Matrix: (Units=1/GPa)
#
#
# Indices 1 2 3 4 5 6 
#
# 1 0.009178 -0.002539 -0.000986 0.000919 0.003074 0.005236
# 2 -0.002539 0.017131 -0.002991 0.005111 0.005032 0.006017
# 3 -0.000986 -0.002991 0.010030 0.005719 -0.000854 0.002475
# 4 0.000919 0.005111 0.005719 0.046250 0.003385 0.012607
# 5 0.003074 0.005032 -0.000854 0.003385 0.028292 0.008907
# 6 0.005236 0.006017 0.002475 0.012607 0.008907 0.042161
#
#
# Mechanical properties :
#
#
# Convention : Reuss Voigt Hill
#
# Bulk Modulus (GPa) = 42.90589 62.31055 52.60822
# Shear Modulus (GPa) = 28.76138 35.71072 32.23605
#
# Velocity S-wave (km/s) = 3.54794 3.95340 3.75615
# Velocity P-wave (km/s) = 5.96342 6.93617 6.46811
#
# Compressibility (1/GPa) = 0.02330683
#
# Stress axis : x y z
#
# Youngs Moduli (GPa) = 108.95186 58.37233 99.70356
#
# Poissons Ratio (x) = 0.14822 0.09829
# Poissons Ratio (y) = 0.27665 0.29825
# Poissons Ratio (z) = 0.10740 0.17461
#
# Static dielectric constant tensor:
#      x y z
#    x 1.965230 -0.034670 0.074110 
#    y -0.034670 1.854980 -0.014900 
#    z 0.074110 -0.014900 1.882160 
# 
# From -- ./inp_files/306546.got.cif
#   From: 2010.05.17/outbox.cif.g08.bks.cpg/sg2_154_cif.got.tgz:306546.got - 2010.06.03 11:33:40.
