data_PCOD9050968
_publ_section_title
;
Structure prediction by ZEFSAII (Michael W. Deem and Ramdas Pophale) SiO2 
 PCOD9050968
Probable space group: P -1
;
_chemical_formula_sum "Si O2"
_cell_formula_units_Z 15
_cell_length_a 12.206733
_cell_length_b 8.055110
_cell_length_c 8.824119
_cell_angle_alpha 51.577346
_cell_angle_beta 71.443003
_cell_angle_gamma 78.988724
_cell_volume 644.385949
_symmetry_space_group_name_H-M "P -1"
_symmetry_group_IT_number 2
_symmetry_cell_setting 'triclinic'
loop_
_space_group_symop_operation_xyz
x,y,z
-x,-y,-z
loop_
_atom_site_type_symbol
_atom_site_label
_atom_site_fract_x
_atom_site_fract_y
_atom_site_fract_z
Si Si1 0.715799 0.663279 0.453745
Si Si2 0.865074 0.053448 0.052185
Si Si3 0.895409 0.335660 0.139950
Si Si4 0.336782 0.466346 0.774671
Si Si5 0.000000 0.000000 0.500000
Si Si6 0.414655 0.052657 0.145241
Si Si7 0.515944 0.692559 0.764255
Si Si8 0.198186 0.793136 0.328627
O O1 0.642412 0.613882 0.360028
O O2 0.635104 0.687695 0.621601
O O3 0.793739 0.456340 0.559283
O O4 0.795374 0.866425 0.272150
O O5 0.854735 0.270596 0.027695
O O6 0.806810 0.088639 0.896343
O O7 0.000000 0.000000 0.000000
O O8 0.791864 0.444586 0.212215
O O9 0.943012 0.120177 0.310821
O O10 0.000000 0.500000 0.000000
O O11 0.419127 0.647431 0.706355
O O12 0.349911 0.265812 0.995901
O O13 0.087902 0.864190 0.429868
O O14 0.482753 0.104479 0.241154
O O15 0.316920 0.874105 0.308596
O O16 0.500000 0.000000 0.000000
O O17 0.500000 0.500000 0.000000
#
# Coordination Sequence:
#
# PCOD9050968 Si02
#       8
#     2   2   2   2   1   2   2   2
#     4  12  26  48  77 110 154 203 253 314 387 454
#     4  12  28  48  72 112 149 201 257 313 379 460
#     4  12  27  49  76 107 155 197 252 317 381 455
#     4  11  23  47  74 109 153 199 252 313 386 452
#     4  12  26  46  76 114 146 198 258 304 386 448
#     4  11  25  47  75 109 154 197 256 319 381 452
#     4  10  25  44  75 114 148 199 255 316 382 456
#     4  12  26  47  75 107 156 199 254 317 380 450
#
# _framework density 23.277975000000001
#
# number of rings (size 3 to 8) (size 9 to 14) (size 15 to 20)
#    0.000    0.533    4.000    3.600    7.467    1.600 
#    0.000    2.000    0.000    0.000    0.000    0.000 
#    0.000    0.000    0.000    0.000    0.000    0.000 
#
# Total GULP energy -83735.505347 kJ/mol
# GULP energy per Si atom -5582.367023 kJ/mol
# Density = 2.322499 g / cm^3
# Si number density = 23.277975 Si / 1000 Ang^3
#
#
#
# Elastic Constant Matrix: (Units=GPa)
#
#
# Indices 1 2 3 4 5 6 
#
# 1 91.8559 46.5580 37.3269 -0.5945 -12.3069 9.3106
# 2 46.5580 134.8255 44.1143 25.5257 -26.1891 15.2548
# 3 37.3269 44.1143 106.4614 12.1108 -18.2808 3.6845
# 4 -0.5945 25.5257 12.1108 45.4340 -5.5448 0.2806
# 5 -12.3069 -26.1891 -18.2808 -5.5448 29.9406 4.0184
# 6 9.3106 15.2548 3.6845 0.2806 4.0184 48.1574
#
#
#
# Elastic Compliance Matrix: (Units=1/GPa)
#
#
# Indices 1 2 3 4 5 6 
#
# 1 0.014827 -0.004291 -0.003625 0.003700 0.000992 -0.001334
# 2 -0.004291 0.012334 -0.001553 -0.005633 0.007510 -0.003553
# 3 -0.003625 -0.001553 0.012267 -0.001920 0.004299 -0.000093
# 4 0.003700 -0.005633 -0.001920 0.025734 0.000045 0.001062
# 5 0.000992 0.007510 0.004299 0.000045 0.043890 -0.006562
# 6 -0.001334 -0.003553 -0.000093 0.001062 -0.006562 0.022697
#
#
# Mechanical properties :
#
#
# Convention : Reuss Voigt Hill
#
# Bulk Modulus (GPa) = 48.80254 65.46013 57.13134
# Shear Modulus (GPa) = 31.74269 38.38263 35.06266
#
# Velocity S-wave (km/s) = 3.69675 4.06505 3.88527
# Velocity P-wave (km/s) = 6.26354 7.08625 6.68756
#
# Compressibility (1/GPa) = 0.02049074
#
# Stress axis : x y z
#
# Youngs Moduli (GPa) = 67.44656 81.07602 81.51779
#
# Poissons Ratio (x) = 0.34787 0.29549
# Poissons Ratio (y) = 0.28939 0.12661
# Poissons Ratio (z) = 0.24448 0.12592
#
# Static dielectric constant tensor:
#      x y z
#    x 1.848330 0.029870 0.050060 
#    y 0.029870 1.875650 0.021450 
#    z 0.050060 0.021450 1.900670 
# 
# From -- ./inp_files/236577.got.cif
#   From: 2010.05.17/outbox.cif.g08.bks.cpg/sg2_119_cif.got.tgz:236577.got - 2010.06.03 11:33:40.
