data_PCOD9050990
_publ_section_title
;
Structure prediction by ZEFSAII (Michael W. Deem and Ramdas Pophale) SiO2 
 PCOD9050990
Probable space group: P -1
;
_chemical_formula_sum "Si O2"
_cell_formula_units_Z 12
_cell_length_a 10.215119
_cell_length_b 9.536584
_cell_length_c 13.699100
_cell_angle_alpha 47.155738
_cell_angle_beta 33.878504
_cell_angle_gamma 65.389442
_cell_volume 508.366741
_symmetry_space_group_name_H-M "P -1"
_symmetry_group_IT_number 2
_symmetry_cell_setting 'triclinic'
loop_
_space_group_symop_operation_xyz
x,y,z
-x,-y,-z
loop_
_atom_site_type_symbol
_atom_site_label
_atom_site_fract_x
_atom_site_fract_y
_atom_site_fract_z
Si Si1 0.383478 0.946179 0.205241
Si Si2 0.152536 0.592975 0.641184
Si Si3 0.784508 0.338354 0.840123
Si Si4 0.776248 0.578806 0.132493
Si Si5 0.293650 0.350878 0.411428
Si Si6 0.949863 0.057937 0.337293
O O1 0.114137 0.966882 0.346616
O O2 0.332881 0.717591 0.382737
O O3 0.563246 0.118607 0.083564
O O4 0.500000 0.000000 0.000000
O O5 0.241276 0.454696 0.724822
O O6 0.889673 0.452470 0.821925
O O7 0.129241 0.780888 0.628776
O O8 0.690906 0.483511 0.760564
O O9 0.029006 0.315620 0.647202
O O10 0.529011 0.437484 0.295840
O O11 0.872527 0.809431 0.922634
O O12 0.000000 0.500000 0.000000
O O13 0.268648 0.134789 0.481778
#
# Coordination Sequence:
#
# PCOD9050990 Si02
#       6
#     2   2   2   2   2   2
#     4  12  22  42  69  99 131 172 222 271 326 388
#     4  11  26  42  64 103 133 167 224 276 322 383
#     4  11  23  39  68 102 129 170 221 274 325 384
#     4  10  25  45  64  96 139 175 211 273 335 385
#     4  11  22  42  70  95 132 177 219 265 331 392
#     4  11  23  43  70  95 131 178 218 270 325 390
#
# _framework density 23.605004999999998
#
# number of rings (size 3 to 8) (size 9 to 14) (size 15 to 20)
#    0.000    1.000    5.000    1.500    0.000    8.000 
#    0.000    1.667    0.000    0.000    0.000    0.000 
#    0.000    0.000    0.000    0.000    0.000    0.000 
#
# Total GULP energy -67198.104213 kJ/mol
# GULP energy per Si atom -5599.842018 kJ/mol
# Density = 2.355128 g / cm^3
# Si number density = 23.605005 Si / 1000 Ang^3
#
#
#
# Elastic Constant Matrix: (Units=GPa)
#
#
# Indices 1 2 3 4 5 6 
#
# 1 175.4741 15.0979 63.9604 -26.9676 -1.7313 14.4837
# 2 15.0979 81.7288 7.7795 -17.6178 -5.1484 18.3538
# 3 63.9604 7.7795 112.5947 -26.4631 4.0678 17.4818
# 4 -26.9676 -17.6178 -26.4631 44.2306 14.3593 -11.4001
# 5 -1.7313 -5.1484 4.0678 14.3593 46.8949 -9.2340
# 6 14.4837 18.3538 17.4818 -11.4001 -9.2340 30.8540
#
#
#
# Elastic Compliance Matrix: (Units=1/GPa)
#
#
# Indices 1 2 3 4 5 6 
#
# 1 0.007415 -0.000486 -0.003606 0.002126 -0.000201 -0.000423
# 2 -0.000486 0.015039 0.001820 0.005202 -0.001763 -0.008355
# 3 -0.003606 0.001820 0.013364 0.006374 -0.004199 -0.005864
# 4 0.002126 0.005202 0.006374 0.033412 -0.009798 0.001709
# 5 -0.000201 -0.001763 -0.004199 -0.009798 0.026001 0.007684
# 6 -0.000423 -0.008355 -0.005864 0.001709 0.007684 0.043833
#
#
# Mechanical properties :
#
#
# Convention : Reuss Voigt Hill
#
# Bulk Modulus (GPa) = 31.97421 60.38591 46.18006
# Shear Modulus (GPa) = 32.46121 43.25989 37.86055
#
# Velocity S-wave (km/s) = 3.71237 4.28560 4.00924
# Velocity P-wave (km/s) = 5.65248 7.07996 6.40610
#
# Compressibility (1/GPa) = 0.03127520
#
# Stress axis : x y z
#
# Youngs Moduli (GPa) = 134.86852 66.49562 74.82715
#
# Poissons Ratio (x) = 0.03230 0.26980
# Poissons Ratio (y) = 0.06552 -0.13621
# Poissons Ratio (z) = 0.48629 -0.12105
#
# Static dielectric constant tensor:
#      x y z
#    x 1.869590 0.013630 0.048740 
#    y 0.013630 1.969830 0.113410 
#    z 0.048740 0.113410 1.961800 
# 
# From -- ./inp_files/209955.got.cif
#   From: 2010.05.17/outbox.cif.g08.bks.cpg/sg2_105_cif.got.tgz:209955.got - 2010.06.03 11:33:40.
