data_PCOD9050640
_publ_section_title
;
Structure prediction by ZEFSAII (Michael W. Deem and Ramdas Pophale) SiO2 
 PCOD9050640
Probable space group: P -1
;
_chemical_formula_sum "Si O2"
_cell_formula_units_Z 16
_cell_length_a 7.199649
_cell_length_b 14.114442
_cell_length_c 8.405372
_cell_angle_alpha 96.867660
_cell_angle_beta 126.176046
_cell_angle_gamma 88.324291
_cell_volume 683.614267
_symmetry_space_group_name_H-M "P -1"
_symmetry_group_IT_number 2
_symmetry_cell_setting 'triclinic'
loop_
_space_group_symop_operation_xyz
x,y,z
-x,-y,-z
loop_
_atom_site_type_symbol
_atom_site_label
_atom_site_fract_x
_atom_site_fract_y
_atom_site_fract_z
Si Si1 0.844716 0.347194 0.518053
Si Si2 0.678580 0.888683 0.984855
Si Si3 0.417768 0.334439 0.542007
Si Si4 0.925280 0.595810 0.058128
Si Si5 0.164416 0.906724 0.799604
Si Si6 0.437548 0.529197 0.796200
Si Si7 0.038654 0.248887 0.114176
Si Si8 0.189442 0.182977 0.612805
O O1 0.623372 0.331930 0.518019
O O2 0.774503 0.407591 0.342643
O O3 0.026061 0.407264 0.731895
O O4 0.975167 0.252030 0.534116
O O5 0.726791 0.848218 0.178655
O O6 0.801972 0.993998 0.069664
O O7 0.405294 0.897722 0.826543
O O8 0.787352 0.821220 0.896987
O O9 0.434329 0.435644 0.663105
O O10 0.180628 0.318808 0.320268
O O11 0.387383 0.245999 0.632768
O O12 0.658053 0.601191 0.886945
O O13 0.057444 0.685294 0.058812
O O14 0.000000 0.500000 0.000000
O O15 0.137230 0.818128 0.889152
O O16 0.932475 0.900673 0.573743
O O17 0.500000 0.500000 0.000000
#
# Coordination Sequence:
#
# PCOD9050640 Si02
#       8
#     2   2   2   2   2   2   2   2
#     4  12  24  45  65  95 135 178 224 280 328 399
#     4  11  23  45  70 100 135 176 224 280 347 403
#     4  11  24  43  66  96 135 178 224 277 330 401
#     4  12  24  41  68  97 133 183 226 274 333 395
#     4  10  25  43  69 101 137 175 222 284 340 410
#     4  12  27  44  66  96 137 179 231 280 333 398
#     4  11  23  44  70  98 137 180 226 277 337 407
#     4  11  25  41  69 100 133 174 226 275 341 403
#
# _framework density 23.405010999999998
#
# number of rings (size 3 to 8) (size 9 to 14) (size 15 to 20)
#    0.000    0.750    3.750    3.375    1.750    4.000 
#    0.000    0.000    0.000    8.250    0.000    0.000 
#    0.000    0.000    0.000    0.000    0.000    0.000 
#
# Total GULP energy -89516.386864 kJ/mol
# GULP energy per Si atom -5594.774179 kJ/mol
# Density = 2.335174 g / cm^3
# Si number density = 23.405011 Si / 1000 Ang^3
#
#
#
# Elastic Constant Matrix: (Units=GPa)
#
#
# Indices 1 2 3 4 5 6 
#
# 1 76.5543 22.1337 12.4342 17.3084 1.3642 8.2072
# 2 22.1337 74.6086 28.1542 5.2803 3.3361 12.8616
# 3 12.4342 28.1542 121.7708 2.3655 9.5071 10.7255
# 4 17.3084 5.2803 2.3655 39.8441 6.3962 -4.0009
# 5 1.3642 3.3361 9.5071 6.3962 30.2331 1.7546
# 6 8.2072 12.8616 10.7255 -4.0009 1.7546 40.2067
#
#
#
# Elastic Compliance Matrix: (Units=1/GPa)
#
#
# Indices 1 2 3 4 5 6 
#
# 1 0.016048 -0.003665 -0.000532 -0.006965 0.001479 -0.002719
# 2 -0.003665 0.016344 -0.003038 -0.000717 -0.000315 -0.003728
# 3 -0.000532 -0.003038 0.009271 0.000370 -0.002562 -0.001244
# 4 -0.006965 -0.000717 0.000370 0.029685 -0.006280 0.004780
# 5 0.001479 -0.000315 -0.002562 -0.006280 0.035276 -0.001682
# 6 -0.002719 -0.003728 -0.001244 0.004780 -0.001682 0.027500
#
#
# Mechanical properties :
#
#
# Convention : Reuss Voigt Hill
#
# Bulk Modulus (GPa) = 36.77175 44.26420 40.51798
# Shear Modulus (GPa) = 31.71400 36.07088 33.89244
#
# Velocity S-wave (km/s) = 3.68504 3.93002 3.80950
# Velocity P-wave (km/s) = 5.81818 6.28862 6.05797
#
# Compressibility (1/GPa) = 0.02719479
#
# Stress axis : x y z
#
# Youngs Moduli (GPa) = 62.31139 61.18365 107.85963
#
# Poissons Ratio (x) = 0.22422 0.05739
# Poissons Ratio (y) = 0.22835 0.32766
# Poissons Ratio (z) = 0.03316 0.18587
#
# Static dielectric constant tensor:
#      x y z
#    x 1.935970 0.047120 0.001470 
#    y 0.047120 1.914160 0.040920 
#    z 0.001470 0.040920 1.943580 
# 
# From -- ./inp_files/188923.got.cif
#   From: 2010.05.17/outbox.cif.g08.bks.cpg/sg2_95_cif.got.tgz:188923.got - 2010.06.03 11:33:40.
