data_PCOD9050978
_publ_section_title
;
Structure prediction by ZEFSAII (Michael W. Deem and Ramdas Pophale) SiO2 
 PCOD9050978
Probable space group: P -1
;
_chemical_formula_sum "Si O2"
_cell_formula_units_Z 12
_cell_length_a 10.064928
_cell_length_b 8.428643
_cell_length_c 9.577044
_cell_angle_alpha 143.927411
_cell_angle_beta 96.914957
_cell_angle_gamma 84.053379
_cell_volume 474.874699
_symmetry_space_group_name_H-M "P -1"
_symmetry_group_IT_number 2
_symmetry_cell_setting 'triclinic'
loop_
_space_group_symop_operation_xyz
x,y,z
-x,-y,-z
loop_
_atom_site_type_symbol
_atom_site_label
_atom_site_fract_x
_atom_site_fract_y
_atom_site_fract_z
Si Si1 0.995492 0.277351 0.026496
Si Si2 0.294969 0.494714 0.855501
Si Si3 0.352869 0.985616 0.664326
Si Si4 0.258727 0.488040 0.146148
Si Si5 0.895423 0.741347 0.673249
Si Si6 0.411125 0.364212 0.511245
O O1 0.947399 0.988111 0.761082
O O2 0.855992 0.426421 0.149998
O O3 0.100189 0.454369 0.081469
O O4 0.086075 0.199558 0.117888
O O5 0.396176 0.545057 0.778303
O O6 0.308920 0.177393 0.667483
O O7 0.319128 0.607814 0.094708
O O8 0.285036 0.695885 0.421476
O O9 0.507408 0.906553 0.635116
O O10 0.312773 0.177042 0.926414
O O11 0.740917 0.688855 0.588241
O O12 0.000000 0.500000 0.500000
O O13 0.500000 0.500000 0.500000
#
# Coordination Sequence:
#
# PCOD9050978 Si02
#       6
#     2   2   2   2   2   2
#     4  11  24  45  74 110 146 204 247 315 375 449
#     4  10  25  45  74 109 152 194 253 313 370 450
#     4  10  26  47  73 113 153 192 251 307 377 444
#     4  10  25  44  78 112 151 192 250 309 379 442
#     4  11  26  45  71 105 156 192 256 304 375 445
#     4  12  26  47  77 108 151 204 250 311 377 451
#
# _framework density 25.269825000000001
#
# number of rings (size 3 to 8) (size 9 to 14) (size 15 to 20)
#    1.000    0.333    1.667    2.000    7.000    2.667 
#    0.000    2.500    0.000    0.000    0.000    0.000 
#    0.000    0.000    0.000    0.000    0.000    0.000 
#
# Total GULP energy -66951.641529 kJ/mol
# GULP energy per Si atom -5579.303461 kJ/mol
# Density = 2.521231 g / cm^3
# Si number density = 25.269825 Si / 1000 Ang^3
#
#
#
# Elastic Constant Matrix: (Units=GPa)
#
#
# Indices 1 2 3 4 5 6 
#
# 1 173.0222 51.3274 76.3539 31.3141 -11.3993 -20.0527
# 2 51.3274 72.5124 33.7448 18.1088 -0.6268 -13.4547
# 3 76.3539 33.7448 116.9910 32.9410 5.4580 -2.3285
# 4 31.3141 18.1088 32.9410 30.9809 -2.8810 -5.8953
# 5 -11.3993 -0.6268 5.4580 -2.8810 42.6810 -2.9741
# 6 -20.0527 -13.4547 -2.3285 -5.8953 -2.9741 61.5945
#
#
#
# Elastic Compliance Matrix: (Units=1/GPa)
#
#
# Indices 1 2 3 4 5 6 
#
# 1 0.009890 -0.003815 -0.004964 -0.001770 0.003253 0.002187
# 2 -0.003815 0.018883 -0.001364 -0.005369 -0.000771 0.002280
# 3 -0.004964 -0.001364 0.015626 -0.011706 -0.004319 -0.002652
# 4 -0.001770 -0.005369 -0.011706 0.050623 0.004563 0.002874
# 5 0.003253 -0.000771 -0.004319 0.004563 0.025314 0.002386
# 6 0.002187 0.002280 -0.002652 0.002874 0.002386 0.017735
#
#
# Mechanical properties :
#
#
# Convention : Reuss Voigt Hill
#
# Bulk Modulus (GPa) = 41.47125 76.15309 58.81217
# Shear Modulus (GPa) = 30.04927 40.45791 35.25359
#
# Velocity S-wave (km/s) = 3.45213 4.00564 3.73914
# Velocity P-wave (km/s) = 5.68653 7.18296 6.47810
#
# Compressibility (1/GPa) = 0.02411309
#
# Stress axis : x y z
#
# Youngs Moduli (GPa) = 101.11253 52.95809 63.99701
#
# Poissons Ratio (x) = 0.20201 0.31771
# Poissons Ratio (y) = 0.38570 0.08728
# Poissons Ratio (z) = 0.50196 0.07223
#
# Static dielectric constant tensor:
#      x y z
#    x 2.041880 0.081120 0.061330 
#    y 0.081120 2.097230 -0.036030 
#    z 0.061330 -0.036030 2.096210 
# 
# From -- ./inp_files/93151.got.cif
#   From: 2010.05.17/outbox.cif.g08.bks.cpg/sg2_47_cif.got.tgz:93151.got - 2010.06.03 11:33:40.
