data_PCOD9050598
_publ_section_title
;
Structure prediction by ZEFSAII (Michael W. Deem and Ramdas Pophale) SiO2 
 PCOD9050598
Probable space group: P -1
;
_chemical_formula_sum "Si O2"
_cell_formula_units_Z 16
_cell_length_a 5.681886
_cell_length_b 10.871539
_cell_length_c 13.796096
_cell_angle_alpha 130.705248
_cell_angle_beta 94.077919
_cell_angle_gamma 75.979302
_cell_volume 622.392998
_symmetry_space_group_name_H-M "P -1"
_symmetry_group_IT_number 2
_symmetry_cell_setting 'triclinic'
loop_
_space_group_symop_operation_xyz
x,y,z
-x,-y,-z
loop_
_atom_site_type_symbol
_atom_site_label
_atom_site_fract_x
_atom_site_fract_y
_atom_site_fract_z
Si Si1 0.451340 0.296564 0.825201
Si Si2 0.636869 0.138602 0.049610
Si Si3 0.229514 0.635214 0.306236
Si Si4 0.202804 0.371739 0.040212
Si Si5 0.739707 0.254315 0.322484
Si Si6 0.379339 0.381560 0.536942
Si Si7 0.081978 0.910829 0.153990
Si Si8 0.752033 0.853203 0.421945
O O1 0.577883 0.363196 0.773078
O O2 0.289378 0.423798 0.964238
O O3 0.281636 0.197018 0.716317
O O4 0.674099 0.168584 0.819883
O O5 0.703145 0.210440 0.188026
O O6 0.448341 0.281503 0.057891
O O7 0.846117 0.062555 0.940461
O O8 0.500000 0.000000 0.000000
O O9 0.386587 0.581542 0.379572
O O10 0.048338 0.819080 0.413749
O O11 0.082530 0.510674 0.188604
O O12 0.068224 0.229362 0.935242
O O13 0.498597 0.276415 0.392753
O O14 0.786055 0.439069 0.411326
O O15 0.938177 0.091255 0.283744
O O16 0.271095 0.276014 0.557532
O O17 0.500000 0.000000 0.500000
#
# Coordination Sequence:
#
# PCOD9050598 Si02
#       8
#     2   2   2   2   2   2   2   2
#     4  10  25  43  66 104 133 177 223 281 336 411
#     4  11  23  41  65 101 136 177 220 276 329 409
#     4  11  24  45  70  97 136 179 222 283 344 391
#     4  11  23  41  69 102 136 171 225 277 344 404
#     4  11  23  46  67  96 139 176 226 273 335 400
#     4  10  26  45  67  98 135 178 226 283 324 406
#     4  11  25  39  72 100 137 177 217 279 343 397
#     4  11  27  44  71  97 135 180 232 279 334 403
#
# _framework density 25.707227
#
# number of rings (size 3 to 8) (size 9 to 14) (size 15 to 20)
#    0.000    1.250    2.500    1.500    7.000    4.000 
#    0.000    1.250    0.000    0.000    0.000    0.000 
#    0.000    0.000    0.000    0.000    0.000    0.000 
#
# Total GULP energy -89390.541693 kJ/mol
# GULP energy per Si atom -5586.908856 kJ/mol
# Density = 2.564872 g / cm^3
# Si number density = 25.707227 Si / 1000 Ang^3
#
#
#
# Elastic Constant Matrix: (Units=GPa)
#
#
# Indices 1 2 3 4 5 6 
#
# 1 53.7522 8.6061 13.0477 2.8428 -14.0393 -5.8848
# 2 8.6061 93.9793 23.5717 7.1951 -14.6169 -0.1724
# 3 13.0477 23.5717 118.6943 4.5675 -29.6715 -7.1909
# 4 2.8428 7.1951 4.5675 59.6556 -12.5201 -13.3573
# 5 -14.0393 -14.6169 -29.6715 -12.5201 32.5266 -11.5171
# 6 -5.8848 -0.1724 -7.1909 -13.3573 -11.5171 46.0405
#
#
#
# Elastic Compliance Matrix: (Units=1/GPa)
#
#
# Indices 1 2 3 4 5 6 
#
# 1 0.023125 -0.000388 0.001925 0.004081 0.016135 0.008475
# 2 -0.000388 0.011640 -0.001165 -0.000240 0.004188 0.000790
# 3 0.001925 -0.001165 0.012801 0.004160 0.016246 0.007512
# 4 0.004081 -0.000240 0.004160 0.023022 0.018750 0.012540
# 5 0.016135 0.004188 0.016246 0.018750 0.071523 0.027947
# 6 0.008475 0.000790 0.007512 0.012540 0.027947 0.034609
#
#
# Mechanical properties :
#
#
# Convention : Reuss Voigt Hill
#
# Bulk Modulus (GPa) = 20.69992 39.65298 30.17645
# Shear Modulus (GPa) = 26.03113 42.39122 34.21118
#
# Velocity S-wave (km/s) = 3.18559 4.06519 3.65197
# Velocity P-wave (km/s) = 4.64761 6.12313 5.43567
#
# Compressibility (1/GPa) = 0.04830937
#
# Stress axis : x y z
#
# Youngs Moduli (GPa) = 43.24329 85.91423 78.11931
#
# Poissons Ratio (x) = 0.03332 -0.15036
# Poissons Ratio (y) = 0.01677 0.09100
# Poissons Ratio (z) = -0.08323 0.10009
#
# Static dielectric constant tensor:
#      x y z
#    x 2.114070 0.048100 0.051070 
#    y 0.048100 2.037560 0.097440 
#    z 0.051070 0.097440 2.098970 
# 
# From -- ./inp_files/364021.got.cif
#   From: 2010.05.17/outbox.cif.g08.bks.cpg/sg2_183_cif.got.tgz:364021.got - 2010.06.03 11:33:40.
