data_PCOD9050365
_publ_section_title
;
Structure prediction by ZEFSAII (Michael W. Deem and Ramdas Pophale) SiO2 
 PCOD9050365
Probable space group: P -1
;
_chemical_formula_sum "Si O2"
_cell_formula_units_Z 16
_cell_length_a 4.952316
_cell_length_b 12.231393
_cell_length_c 9.930693
_cell_angle_alpha 108.998833
_cell_angle_beta 90.005631
_cell_angle_gamma 92.547904
_cell_volume 568.140447
_symmetry_space_group_name_H-M "P -1"
_symmetry_group_IT_number 2
_symmetry_cell_setting 'triclinic'
loop_
_space_group_symop_operation_xyz
x,y,z
-x,-y,-z
loop_
_atom_site_type_symbol
_atom_site_label
_atom_site_fract_x
_atom_site_fract_y
_atom_site_fract_z
Si Si1 0.781848 0.102151 0.035179
Si Si2 0.139008 0.270617 0.966057
Si Si3 0.680288 0.278222 0.601599
Si Si4 0.438931 0.104709 0.760069
Si Si5 0.562818 0.532173 0.666125
Si Si6 0.672471 0.413768 0.051026
Si Si7 0.068540 0.910548 0.580133
Si Si8 0.368562 0.208050 0.294189
O O1 0.566411 0.143701 0.164070
O O2 0.392306 0.910760 0.108815
O O3 0.980719 0.214341 0.066872
O O4 0.000000 0.000000 0.000000
O O5 0.159764 0.164406 0.821945
O O6 0.446496 0.308957 0.005209
O O7 0.949077 0.374221 0.970668
O O8 0.566612 0.197466 0.691083
O O9 0.698425 0.415930 0.675727
O O10 0.951691 0.215545 0.541946
O O11 0.523887 0.246586 0.449121
O O12 0.349293 0.979345 0.651636
O O13 0.500000 0.500000 0.500000
O O14 0.316090 0.544860 0.777489
O O15 0.697295 0.661884 0.707953
O O16 0.500000 0.500000 0.000000
O O17 0.879595 0.879537 0.695187
O O18 0.000000 0.000000 0.500000
#
# Coordination Sequence:
#
# PCOD9050365 Si02
#       8
#     2   2   2   2   2   2   2   2
#     4  12  31  55  84 124 174 228 289 373 454 537
#     4  12  27  53  84 126 174 223 297 350 440 529
#     4  11  27  50  84 118 166 230 292 351 432 529
#     4  12  28  53  84 128 168 230 305 353 451 536
#     4  10  24  52  79 118 170 219 288 353 436 515
#     4  12  26  53  85 125 173 229 287 364 433 522
#     4  12  29  50  87 122 176 225 289 371 434 534
#     4  11  26  55  78 126 173 221 287 365 449 518
#
# _framework density 28.162050000000001
#
# number of rings (size 3 to 8) (size 9 to 14) (size 15 to 20)
#    0.000    0.500    3.750    1.500    3.500    4.500 
#    9.000    0.000    0.000    0.000    0.000    0.000 
#    0.000    0.000    0.000    0.000    0.000    0.000 
#
# Total GULP energy -89360.928365 kJ/mol
# GULP energy per Si atom -5585.058023 kJ/mol
# Density = 2.809795 g / cm^3
# Si number density = 28.162050 Si / 1000 Ang^3
#
#
#
# Elastic Constant Matrix: (Units=GPa)
#
#
# Indices 1 2 3 4 5 6 
#
# 1 121.2686 60.1102 56.4073 14.3765 -10.7380 -9.9686
# 2 60.1102 246.2612 71.0641 13.4854 -11.8404 -25.7435
# 3 56.4073 71.0641 170.4694 -5.5127 -9.4921 -15.8922
# 4 14.3765 13.4854 -5.5127 53.7827 -4.8446 -12.2011
# 5 -10.7380 -11.8404 -9.4921 -4.8446 67.3723 5.1151
# 6 -9.9686 -25.7435 -15.8922 -12.2011 5.1151 55.5977
#
#
#
# Elastic Compliance Matrix: (Units=1/GPa)
#
#
# Indices 1 2 3 4 5 6 
#
# 1 0.010813 -0.001624 -0.002977 -0.002793 0.000845 -0.000355
# 2 -0.001624 0.005077 -0.001446 -0.000626 0.000272 0.001484
# 3 -0.002977 -0.001446 0.007688 0.002316 0.000410 0.001465
# 4 -0.002793 -0.000626 0.002316 0.020806 0.000937 0.004351
# 5 0.000845 0.000272 0.000410 0.000937 0.015211 -0.000799
# 6 -0.000355 0.001484 0.001465 0.004351 -0.000799 0.020057
#
#
# Mechanical properties :
#
#
# Convention : Reuss Voigt Hill
#
# Bulk Modulus (GPa) = 87.07749 101.46250 94.26999
# Shear Modulus (GPa) = 52.31605 58.71170 55.51388
#
# Velocity S-wave (km/s) = 4.31476 4.57089 4.44467
# Velocity P-wave (km/s) = 7.47062 7.99773 7.73866
#
# Compressibility (1/GPa) = 0.01148402
#
# Stress axis : x y z
#
# Youngs Moduli (GPa) = 92.48524 196.97602 130.06698
#
# Poissons Ratio (x) = 0.31981 0.38725
# Poissons Ratio (y) = 0.15016 0.18806
# Poissons Ratio (z) = 0.27536 0.28480
#
# Static dielectric constant tensor:
#      x y z
#    x 2.487590 -0.061810 -0.062370 
#    y -0.061810 2.519610 -0.093110 
#    z -0.062370 -0.093110 2.320240 
# 
# From -- ./inp_files/364968.got.cif
#   From: 2010.05.17/outbox.cif.g08.bks.cpg/sg2_183_cif.got.tgz:364968.got - 2010.06.03 11:33:40.
