data_PCOD9050013
_publ_section_title
;
Structure prediction by ZEFSAII (Michael W. Deem and Ramdas Pophale) SiO2 
 PCOD9050013
Probable space group: P -1
;
_chemical_formula_sum "Si O2"
_cell_formula_units_Z 8
_cell_length_a 6.511351
_cell_length_b 7.058548
_cell_length_c 11.817980
_cell_angle_alpha 143.888052
_cell_angle_beta 109.893086
_cell_angle_gamma 85.690506
_cell_volume 280.787085
_symmetry_space_group_name_H-M "P -1"
_symmetry_group_IT_number 2
_symmetry_cell_setting 'triclinic'
loop_
_space_group_symop_operation_xyz
x,y,z
-x,-y,-z
loop_
_atom_site_type_symbol
_atom_site_label
_atom_site_fract_x
_atom_site_fract_y
_atom_site_fract_z
Si Si1 0.337856 0.758541 0.448107
Si Si2 0.509584 0.998401 0.170059
Si Si3 0.120981 0.265013 0.970363
Si Si4 0.120251 0.614278 0.741917
O O1 0.225323 0.419789 0.186405
O O2 0.085713 0.745301 0.447322
O O3 0.500000 0.000000 0.500000
O O4 0.493566 0.858122 0.637469
O O5 0.663392 0.320824 0.273495
O O6 0.661091 0.750521 0.070127
O O7 0.263493 0.780004 0.961745
O O8 0.996099 0.857842 0.776795
O O9 0.000000 0.500000 0.000000
#
# Coordination Sequence:
#
# PCOD9050013 Si02
#       4
#     2   2   2   2
#     4  12  26  44  75 113 143 197 242 301 374 438
#     4   9  23  49  78 102 147 192 251 298 365 432
#     4  10  24  48  72 109 148 191 241 309 363 435
#     4   9  22  52  76 101 149 192 244 310 356 435
#
# _framework density 28.491340000000001
#
# number of rings (size 3 to 8) (size 9 to 14) (size 15 to 20)
#    1.500    0.500    0.000    1.500    3.500    3.000 
#    9.000    0.000    0.000    0.000    0.000    1.750 
#    0.000    0.000    0.000    0.000    0.000    0.000 
#
# Total GULP energy -44630.986688 kJ/mol
# GULP energy per Si atom -5578.873336 kJ/mol
# Density = 2.842649 g / cm^3
# Si number density = 28.491340 Si / 1000 Ang^3
#
#
#
# Elastic Constant Matrix: (Units=GPa)
#
#
# Indices 1 2 3 4 5 6 
#
# 1 148.3474 88.6358 50.5859 -3.3155 36.2387 -10.4910
# 2 88.6358 166.9366 46.2072 -24.6076 16.7821 16.3681
# 3 50.5859 46.2072 174.6401 -55.5196 28.5286 13.4276
# 4 -3.3155 -24.6076 -55.5196 56.9809 20.5703 -4.6297
# 5 36.2387 16.7821 28.5286 20.5703 59.7612 12.6864
# 6 -10.4910 16.3681 13.4276 -4.6297 12.6864 93.0729
#
#
#
# Elastic Compliance Matrix: (Units=1/GPa)
#
#
# Indices 1 2 3 4 5 6 
#
# 1 0.012560 -0.006212 -0.002032 -0.001858 -0.004982 0.003388
# 2 -0.006212 0.010060 0.001119 0.005220 -0.000912 -0.002247
# 3 -0.002032 0.001119 0.013620 0.017891 -0.011764 0.000103
# 4 -0.001858 0.005220 0.017891 0.046426 -0.025295 0.002049
# 5 -0.004982 -0.000912 -0.011764 -0.025295 0.035348 -0.004780
# 6 0.003388 -0.002247 0.000103 0.002049 -0.004780 0.012260
#
#
# Mechanical properties :
#
#
# Convention : Reuss Voigt Hill
#
# Bulk Modulus (GPa) = 45.47401 95.64245 70.55823
# Shear Modulus (GPa) = 32.92623 62.26267 47.59445
#
# Velocity S-wave (km/s) = 3.40318 4.67981 4.09159
# Velocity P-wave (km/s) = 5.60692 7.92734 6.86586
#
# Compressibility (1/GPa) = 0.02199058
#
# Stress axis : x y z
#
# Youngs Moduli (GPa) = 79.61580 99.40086 73.42077
#
# Poissons Ratio (x) = 0.61746 0.14919
# Poissons Ratio (y) = 0.49456 -0.08214
# Poissons Ratio (z) = 0.16178 -0.11120
#
# Static dielectric constant tensor:
#      x y z
#    x 2.323820 0.046860 -0.034960 
#    y 0.046860 2.288170 0.058510 
#    z -0.034960 0.058510 2.123030 
# 
# From -- ./inp_files/2985.got.cif
#   From: 2010.05.17/outbox.cif.g08.bks.cpg/sg2_2_cif.got.tgz:2985.got - 2010.06.03 11:33:40.
