data_PCOD9050913
_publ_section_title
;
Structure prediction by ZEFSAII (Michael W. Deem and Ramdas Pophale) SiO2 
 PCOD9050913
Probable space group: P -1
;
_chemical_formula_sum "Si O2"
_cell_formula_units_Z 14
_cell_length_a 10.767421
_cell_length_b 9.106528
_cell_length_c 10.543526
_cell_angle_alpha 90.947806
_cell_angle_beta 120.444843
_cell_angle_gamma 54.301440
_cell_volume 663.796511
_symmetry_space_group_name_H-M "P -1"
_symmetry_group_IT_number 2
_symmetry_cell_setting 'triclinic'
loop_
_space_group_symop_operation_xyz
x,y,z
-x,-y,-z
loop_
_atom_site_type_symbol
_atom_site_label
_atom_site_fract_x
_atom_site_fract_y
_atom_site_fract_z
Si Si1 0.559660 0.204912 0.342658
Si Si2 0.152582 0.989555 0.306018
Si Si3 0.433546 0.532122 0.821728
Si Si4 0.864025 0.224598 0.978819
Si Si5 0.818455 0.528862 0.452112
Si Si6 0.542851 0.025418 0.665317
Si Si7 0.213553 0.598470 0.299618
O O1 0.759483 0.026992 0.513174
O O2 0.601207 0.281568 0.248600
O O3 0.427247 0.388117 0.376957
O O4 0.443262 0.135300 0.252143
O O5 0.274940 0.994943 0.263190
O O6 0.190343 0.788523 0.317329
O O7 0.937014 0.187107 0.161042
O O8 0.262537 0.543145 0.684679
O O9 0.500000 0.500000 0.000000
O O10 0.636989 0.343807 0.858861
O O11 0.887678 0.341025 0.891376
O O12 0.000000 0.000000 0.000000
O O13 0.636304 0.760798 0.375148
O O14 0.857057 0.435138 0.611380
O O15 0.000000 0.500000 0.500000
O O16 0.500000 0.000000 0.500000
#
# Coordination Sequence:
#
# PCOD9050913 Si02
#       7
#     2   2   2   2   2   2   2
#     4  10  19  37  68  90 123 169 214 264 316 378
#     4  10  17  34  65  94 118 158 216 264 308 377
#     4  11  25  46  63  92 134 175 212 259 322 386
#     4   9  20  35  66  94 117 154 212 272 308 367
#     4  12  24  42  65  93 132 175 213 261 319 386
#     4  10  20  36  65  98 124 155 215 273 312 372
#     4  10  18  37  63  92 117 164 218 259 317 374
#
# _framework density 21.090800999999999
#
# number of rings (size 3 to 8) (size 9 to 14) (size 15 to 20)
#    0.000    1.714    4.286    3.000    0.000    2.286 
#    7.714    3.571    0.000    0.000    0.000    0.000 
#    0.000    0.000    0.000    0.000    0.000    0.000 
#
# Total GULP energy -77935.722320 kJ/mol
# GULP energy per Si atom -5566.837309 kJ/mol
# Density = 2.104280 g / cm^3
# Si number density = 21.090801 Si / 1000 Ang^3
#
#
#
# Elastic Constant Matrix: (Units=GPa)
#
#
# Indices 1 2 3 4 5 6 
#
# 1 131.5649 30.1479 63.5165 1.6501 -7.8197 36.4941
# 2 30.1479 54.7129 13.0115 -0.0432 -3.5701 24.6705
# 3 63.5165 13.0115 119.5538 -21.8721 -20.7317 17.2240
# 4 1.6501 -0.0432 -21.8721 25.8441 -5.6975 -2.9670
# 5 -7.8197 -3.5701 -20.7317 -5.6975 36.8072 -3.1641
# 6 36.4941 24.6705 17.2240 -2.9670 -3.1641 36.4467
#
#
#
# Elastic Compliance Matrix: (Units=1/GPa)
#
#
# Indices 1 2 3 4 5 6 
#
# 1 0.015440 -0.001482 -0.009285 -0.011215 -0.004809 -0.011399
# 2 -0.001482 0.026618 0.000130 -0.001515 0.000674 -0.016660
# 3 -0.009285 0.000130 0.018318 0.019002 0.011566 0.003103
# 4 -0.011215 -0.001515 0.019002 0.060674 0.018409 0.009813
# 5 -0.004809 0.000674 0.011566 0.018409 0.035878 0.003507
# 6 -0.011399 -0.016660 0.003103 0.009813 0.003507 0.049765
#
#
# Mechanical properties :
#
#
# Convention : Reuss Voigt Hill
#
# Bulk Modulus (GPa) = 25.57415 57.68705 41.63060
# Shear Modulus (GPa) = 20.74687 33.09664 26.92175
#
# Velocity S-wave (km/s) = 3.13979 3.96567 3.57665
# Velocity P-wave (km/s) = 5.02956 6.95556 6.06944
#
# Compressibility (1/GPa) = 0.03910199
#
# Stress axis : x y z
#
# Youngs Moduli (GPa) = 64.76721 37.56905 54.59043
#
# Poissons Ratio (x) = 0.05568 0.50688
# Poissons Ratio (y) = 0.09600 -0.00712
# Poissons Ratio (z) = 0.60137 -0.00490
#
# Static dielectric constant tensor:
#      x y z
#    x 1.816430 0.011420 0.005400 
#    y 0.011420 1.789100 0.051220 
#    z 0.005400 0.051220 1.911880 
# 
# From -- ./inp_files/378848.got.cif
#   From: 2010.05.17/outbox.cif.g08.bks.cpg/sg2_190_cif.got.tgz:378848.got - 2010.06.03 11:33:40.
