data_PCOD9050063
_publ_section_title
;
Structure prediction by ZEFSAII (Michael W. Deem and Ramdas Pophale) SiO2 
 PCOD9050063
Probable space group: P -1
;
_chemical_formula_sum "Si O2"
_cell_formula_units_Z 16
_cell_length_a 6.450354
_cell_length_b 23.040958
_cell_length_c 16.191422
_cell_angle_alpha 21.776959
_cell_angle_beta 66.221450
_cell_angle_gamma 52.629894
_cell_volume 595.260036
_symmetry_space_group_name_H-M "P -1"
_symmetry_group_IT_number 2
_symmetry_cell_setting 'triclinic'
loop_
_space_group_symop_operation_xyz
x,y,z
-x,-y,-z
loop_
_atom_site_type_symbol
_atom_site_label
_atom_site_fract_x
_atom_site_fract_y
_atom_site_fract_z
Si Si1 0.949640 0.080136 0.573788
Si Si2 0.391866 0.805717 0.278131
Si Si3 0.346385 0.631848 0.172229
Si Si4 0.021634 0.329704 0.952914
Si Si5 0.653368 0.799616 0.406099
Si Si6 0.642109 0.311169 0.163032
Si Si7 0.592887 0.906050 0.516873
Si Si8 0.324175 0.842841 0.058294
O O1 0.643661 0.149415 0.571595
O O2 0.913997 0.108378 0.444344
O O3 0.067239 0.193800 0.432239
O O4 0.247751 0.834878 0.872285
O O5 0.402081 0.620257 0.552316
O O6 0.579937 0.823050 0.288785
O O7 0.500822 0.742111 0.250070
O O8 0.038092 0.028673 0.040681
O O9 0.044855 0.669623 0.135235
O O10 0.416044 0.677591 0.190108
O O11 0.948991 0.543247 0.707161
O O12 0.756807 0.356221 0.008446
O O13 0.333722 0.105429 0.234688
O O14 0.675192 0.969291 0.205478
O O15 0.412263 0.276948 0.236114
O O16 0.500000 0.500000 0.000000
O O17 0.500000 0.000000 0.500000
#
# Coordination Sequence:
#
# PCOD9050063 Si02
#       8
#     2   2   2   2   2   2   2   2
#     4  12  25  44  69 104 143 188 240 292 353 421
#     4  10  24  48  74 110 144 183 240 298 364 446
#     4  11  24  44  74 105 149 182 241 295 359 433
#     4  11  24  47  70 104 145 192 240 298 356 426
#     4  11  25  47  72 106 145 186 241 299 355 432
#     4  12  25  47  69 102 146 188 243 300 357 423
#     4  12  26  45  71  99 140 196 241 297 357 417
#     4  11  24  47  78 106 144 189 234 300 373 429
#
# _framework density 26.879009
#
# number of rings (size 3 to 8) (size 9 to 14) (size 15 to 20)
#    0.000    0.750    5.000    1.875    3.500    0.500 
#    4.500    0.625    0.000    0.000    0.000    0.000 
#    0.000    0.000    0.000    0.000    0.000    0.000 
#
# Total GULP energy -89362.412883 kJ/mol
# GULP energy per Si atom -5585.150805 kJ/mol
# Density = 2.681783 g / cm^3
# Si number density = 26.879009 Si / 1000 Ang^3
#
#
#
# Elastic Constant Matrix: (Units=GPa)
#
#
# Indices 1 2 3 4 5 6 
#
# 1 98.6096 42.9152 16.3770 -6.8375 -31.9234 8.0963
# 2 42.9152 118.3701 14.7872 8.1501 2.8414 27.0876
# 3 16.3770 14.7872 81.6342 0.5887 -12.1777 2.4893
# 4 -6.8375 8.1501 0.5887 38.0696 15.9942 -3.4409
# 5 -31.9234 2.8414 -12.1777 15.9942 54.9514 0.2554
# 6 8.0963 27.0876 2.4893 -3.4409 0.2554 50.6901
#
#
#
# Elastic Compliance Matrix: (Units=1/GPa)
#
#
# Indices 1 2 3 4 5 6 
#
# 1 0.015871 -0.006074 -0.000725 0.000331 0.009274 0.000722
# 2 -0.006074 0.012416 -0.001381 -0.002710 -0.003661 -0.005762
# 3 -0.000725 -0.001381 0.013086 -0.001251 0.002914 0.000112
# 4 0.000331 -0.002710 -0.001251 0.031031 -0.008993 0.003609
# 5 0.009274 -0.003661 0.002914 -0.008993 0.027040 -0.000415
# 6 0.000722 -0.005762 0.000112 0.003609 -0.000415 0.022933
#
#
# Mechanical properties :
#
#
# Convention : Reuss Voigt Hill
#
# Bulk Modulus (GPa) = 39.98075 49.64143 44.81109
# Shear Modulus (GPa) = 33.99639 43.71118 38.85378
#
# Velocity S-wave (km/s) = 3.56025 4.03702 3.80611
# Velocity P-wave (km/s) = 5.63978 6.34339 6.00190
#
# Compressibility (1/GPa) = 0.02501203
#
# Stress axis : x y z
#
# Youngs Moduli (GPa) = 63.00928 80.54145 76.41957
#
# Poissons Ratio (x) = 0.48922 0.05538
# Poissons Ratio (y) = 0.38273 0.10556
# Poissons Ratio (z) = 0.04566 0.11126
#
# Static dielectric constant tensor:
#      x y z
#    x 2.207910 0.012730 0.039210 
#    y 0.012730 2.165130 0.001180 
#    z 0.039210 0.001180 2.215970 
# 
# From -- ./inp_files/551195.got.cif
#   From: 2010.05.17/outbox.cif.g08.bks.cpg/sg2_276_cif.got.tgz:551195.got - 2010.06.03 11:33:40.
