data_PCOD9050414
_publ_section_title
;
Structure prediction by ZEFSAII (Michael W. Deem and Ramdas Pophale) SiO2 
 PCOD9050414
Probable space group: P -1
;
_chemical_formula_sum "Si O2"
_cell_formula_units_Z 16
_cell_length_a 9.045125
_cell_length_b 13.799283
_cell_length_c 5.131245
_cell_angle_alpha 79.077083
_cell_angle_beta 99.834276
_cell_angle_gamma 100.767799
_cell_volume 611.670387
_symmetry_space_group_name_H-M "P -1"
_symmetry_group_IT_number 2
_symmetry_cell_setting 'triclinic'
loop_
_space_group_symop_operation_xyz
x,y,z
-x,-y,-z
loop_
_atom_site_type_symbol
_atom_site_label
_atom_site_fract_x
_atom_site_fract_y
_atom_site_fract_z
Si Si1 0.148233 0.062985 0.388842
Si Si2 0.313797 0.583396 0.035307
Si Si3 0.946599 0.216499 0.299934
Si Si4 0.372630 0.417700 0.749362
Si Si5 0.446245 0.124577 0.729927
Si Si6 0.526654 0.749064 0.828543
Si Si7 0.787505 0.103292 0.815464
Si Si8 0.082382 0.438030 0.345934
O O1 0.298031 0.056066 0.606951
O O2 0.107396 0.174015 0.330658
O O3 0.165268 0.005688 0.154322
O O4 0.000000 0.000000 0.500000
O O5 0.451520 0.577344 0.287297
O O6 0.159225 0.523897 0.127495
O O7 0.353578 0.518696 0.837559
O O8 0.019697 0.663481 0.732864
O O9 0.860548 0.169807 0.557915
O O10 0.643496 0.303884 0.111323
O O11 0.852678 0.165789 0.052444
O O12 0.368574 0.331948 0.014174
O O13 0.229403 0.397047 0.531668
O O14 0.430850 0.161269 0.000255
O O15 0.605289 0.085812 0.772493
O O16 0.463975 0.217234 0.481791
O O17 0.000000 0.500000 0.500000
#
# Coordination Sequence:
#
# PCOD9050414 Si02
#       8
#     2   2   2   2   2   2   2   2
#     4  10  25  50  80 112 148 190 242 311 378 449
#     4   9  23  42  70  96 149 188 265 296 365 420
#     4  11  27  47  75 105 155 196 248 295 380 440
#     4   9  22  41  66  98 136 199 252 307 352 427
#     4  12  25  45  78 109 144 189 248 299 377 442
#     4  10  25  40  74 107 143 193 247 304 351 441
#     4  11  26  50  72 111 147 193 244 313 365 447
#     4  12  27  42  70 107 155 202 244 309 378 438
#
# _framework density 26.157878
#
# number of rings (size 3 to 8) (size 9 to 14) (size 15 to 20)
#    0.750    0.750    0.000    2.625    8.750    5.500 
#    0.000    4.375    0.000    0.000    0.000    0.000 
#    0.000    0.000    0.000    0.000    0.000    0.000 
#
# Total GULP energy -89526.789835 kJ/mol
# GULP energy per Si atom -5595.424365 kJ/mol
# Density = 2.609834 g / cm^3
# Si number density = 26.157878 Si / 1000 Ang^3
#
#
#
# Elastic Constant Matrix: (Units=GPa)
#
#
# Indices 1 2 3 4 5 6 
#
# 1 139.5914 63.2280 45.8105 18.4562 16.0307 27.6691
# 2 63.2280 167.3327 41.7357 22.2972 -14.2785 9.6665
# 3 45.8105 41.7357 102.4296 13.0948 -5.5712 4.0628
# 4 18.4562 22.2972 13.0948 45.2028 5.0303 -0.4922
# 5 16.0307 -14.2785 -5.5712 5.0303 51.4886 0.2196
# 6 27.6691 9.6665 4.0628 -0.4922 0.2196 56.8834
#
#
#
# Elastic Compliance Matrix: (Units=1/GPa)
#
#
# Indices 1 2 3 4 5 6 
#
# 1 0.011616 -0.003399 -0.003686 -0.001518 -0.004789 -0.004804
# 2 -0.003399 0.008220 -0.001313 -0.002668 0.003455 0.000314
# 3 -0.003686 -0.001313 0.012233 -0.001631 0.002262 0.001119
# 4 -0.001518 -0.002668 -0.001631 0.024868 -0.002880 0.001534
# 5 -0.004789 0.003455 0.002262 -0.002880 0.022391 0.001469
# 6 -0.004804 0.000314 0.001119 0.001534 0.001469 0.019791
#
#
# Mechanical properties :
#
#
# Convention : Reuss Voigt Hill
#
# Bulk Modulus (GPa) = 65.47046 78.98912 72.22979
# Shear Modulus (GPa) = 41.32073 47.95359 44.63716
#
# Velocity S-wave (km/s) = 3.97881 4.28628 4.13540
# Velocity P-wave (km/s) = 6.79641 7.39992 7.10458
#
# Compressibility (1/GPa) = 0.01527406
#
# Stress axis : x y z
#
# Youngs Moduli (GPa) = 86.09028 121.65601 81.74360
#
# Poissons Ratio (x) = 0.41346 0.30132
# Poissons Ratio (y) = 0.29259 0.10731
# Poissons Ratio (z) = 0.31734 0.15970
#
# Static dielectric constant tensor:
#      x y z
#    x 2.111480 0.002270 0.054990 
#    y 0.002270 2.116930 -0.082220 
#    z 0.054990 -0.082220 2.102440 
# 
# From -- ./inp_files/38242.got.cif
#   From: 2010.05.17/outbox.cif.g08.bks.cpg/sg2_20_cif.got.tgz:38242.got - 2010.06.03 11:33:40.
