data_PCOD9050742
_publ_section_title
;
Structure prediction by ZEFSAII (Michael W. Deem and Ramdas Pophale) SiO2 
 PCOD9050742
Probable space group: P -1
;
_chemical_formula_sum "Si O2"
_cell_formula_units_Z 14
_cell_length_a 19.069161
_cell_length_b 7.732264
_cell_length_c 18.692271
_cell_angle_alpha 151.360033
_cell_angle_beta 157.337890
_cell_angle_gamma 32.093332
_cell_volume 498.498530
_symmetry_space_group_name_H-M "P -1"
_symmetry_group_IT_number 2
_symmetry_cell_setting 'triclinic'
loop_
_space_group_symop_operation_xyz
x,y,z
-x,-y,-z
loop_
_atom_site_type_symbol
_atom_site_label
_atom_site_fract_x
_atom_site_fract_y
_atom_site_fract_z
Si Si1 0.515072 0.127531 0.479307
Si Si2 0.203324 0.242373 0.591091
Si Si3 0.352228 0.813139 0.843912
Si Si4 0.277839 0.254300 0.077532
Si Si5 0.737130 0.468317 0.104895
Si Si6 0.870461 0.523312 0.590038
Si Si7 0.872963 0.531365 0.768524
O O1 0.305631 0.162722 0.265655
O O2 0.500000 0.000000 0.500000
O O3 0.696270 0.847468 0.522928
O O4 0.566548 0.528569 0.672407
O O5 0.325941 0.464356 0.742294
O O6 0.279488 0.223032 0.735863
O O7 0.000000 0.500000 0.500000
O O8 0.172323 0.858777 0.393522
O O9 0.194575 0.814324 0.635725
O O10 0.309575 0.128422 0.978844
O O11 0.564622 0.661543 0.962643
O O12 0.076421 0.531376 0.989699
O O13 0.275577 0.899987 0.995950
O O14 0.936802 0.409357 0.234876
O O15 0.881765 0.514430 0.683667
#
# Coordination Sequence:
#
# PCOD9050742 Si02
#       7
#     2   2   2   2   2   2   2
#     4  10  25  44  62  90 131 172 214 255 317 381
#     4  11  18  40  67  92 131 162 208 261 314 373
#     4  11  22  40  67  96 130 163 210 265 316 372
#     4  11  22  42  69  92 120 174 219 252 315 383
#     4  11  22  39  64  96 131 164 211 263 314 375
#     4  11  25  41  60  97 136 165 206 267 316 369
#     4  11  22  41  68  91 127 172 211 259 319 376
#
# _framework density 28.084337000000001
#
# number of rings (size 3 to 8) (size 9 to 14) (size 15 to 20)
#    0.000    1.143    4.286    3.429    0.000    8.571 
#    0.000    9.286    0.000    0.000    0.000    0.000 
#    0.000    0.000    0.000    0.000    0.000    0.000 
#
# Total GULP energy -78518.695399 kJ/mol
# GULP energy per Si atom -5608.478243 kJ/mol
# Density = 2.802042 g / cm^3
# Si number density = 28.084337 Si / 1000 Ang^3
#
#
#
# Elastic Constant Matrix: (Units=GPa)
#
#
# Indices 1 2 3 4 5 6 
#
# 1 81.1969 18.0469 7.6225 -2.3330 -23.8951 -9.9058
# 2 18.0469 134.4024 34.5555 -50.1032 10.8170 -20.3403
# 3 7.6225 34.5555 130.2124 -43.9764 3.0644 -21.8465
# 4 -2.3330 -50.1032 -43.9764 66.4663 -4.5568 6.7108
# 5 -23.8951 10.8170 3.0644 -4.5568 30.8222 -16.4214
# 6 -9.9058 -20.3403 -21.8465 6.7108 -16.4214 33.1168
#
#
#
# Elastic Compliance Matrix: (Units=1/GPa)
#
#
# Indices 1 2 3 4 5 6 
#
# 1 0.025534 -0.003099 0.002626 0.000165 0.033441 0.024015
# 2 -0.003099 0.011624 0.000551 0.008459 -0.003664 0.003045
# 3 0.002626 0.000551 0.011627 0.007611 0.007712 0.011076
# 4 0.000165 0.008459 0.007611 0.026033 0.003955 0.006952
# 5 0.033441 -0.003664 0.007712 0.003955 0.089543 0.056440
# 6 0.024015 0.003045 0.011076 0.006952 0.056440 0.073134
#
#
# Mechanical properties :
#
#
# Convention : Reuss Voigt Hill
#
# Bulk Modulus (GPa) = 20.43339 51.80683 36.12011
# Shear Modulus (GPa) = 19.71202 45.12019 32.41611
#
# Velocity S-wave (km/s) = 2.65219 4.01259 3.40110
# Velocity P-wave (km/s) = 4.08293 6.32097 5.32095
#
# Compressibility (1/GPa) = 0.04893951
#
# Stress axis : x y z
#
# Youngs Moduli (GPa) = 39.16409 86.02844 86.00684
#
# Poissons Ratio (x) = 0.26660 -0.22583
# Poissons Ratio (y) = 0.12137 -0.04736
# Poissons Ratio (z) = -0.10283 -0.04737
#
# Static dielectric constant tensor:
#      x y z
#    x 2.210380 0.005050 0.058610 
#    y 0.005050 2.233880 0.039250 
#    z 0.058610 0.039250 2.248140 
# 
# From -- ./inp_files/389924.got.cif
#   From: 2010.05.17/outbox.cif.g08.bks.cpg/sg2_195_cif.got.tgz:389924.got - 2010.06.03 11:33:40.
