data_PCOD9050479
_publ_section_title
;
Structure prediction by ZEFSAII (Michael W. Deem and Ramdas Pophale) SiO2 
 PCOD9050479
Probable space group: P -1
;
_chemical_formula_sum "Si O2"
_cell_formula_units_Z 16
_cell_length_a 8.581387
_cell_length_b 12.275728
_cell_length_c 11.571851
_cell_angle_alpha 48.348251
_cell_angle_beta 85.197860
_cell_angle_gamma 60.713363
_cell_volume 737.913254
_symmetry_space_group_name_H-M "P -1"
_symmetry_group_IT_number 2
_symmetry_cell_setting 'triclinic'
loop_
_space_group_symop_operation_xyz
x,y,z
-x,-y,-z
loop_
_atom_site_type_symbol
_atom_site_label
_atom_site_fract_x
_atom_site_fract_y
_atom_site_fract_z
Si Si1 0.157554 0.554055 0.375499
Si Si2 0.537444 0.849832 0.967838
Si Si3 0.211006 0.457948 0.014170
Si Si4 0.279437 0.247780 0.730178
Si Si5 0.817937 0.169032 0.957264
Si Si6 0.302522 0.283902 0.363651
Si Si7 0.259718 0.988593 0.476376
Si Si8 0.888057 0.165437 0.229208
O O1 0.275921 0.417724 0.569223
O O2 0.230379 0.657717 0.232995
O O3 0.169045 0.416828 0.378293
O O4 0.934583 0.696002 0.321325
O O5 0.652412 0.710209 0.957459
O O6 0.679029 0.790184 0.109762
O O7 0.361848 0.842457 0.023438
O O8 0.439873 0.057364 0.796953
O O9 0.194636 0.636086 0.859360
O O10 0.292764 0.402943 0.176224
O O11 0.000000 0.500000 0.000000
O O12 0.868508 0.169438 0.089144
O O13 0.000000 0.000000 0.000000
O O14 0.523284 0.150591 0.480462
O O15 0.238665 0.164301 0.400240
O O16 0.217829 0.906804 0.645792
O O17 0.107816 0.040707 0.347955
#
# Coordination Sequence:
#
# PCOD9050479 Si02
#       8
#     2   2   2   2   2   2   2   2
#     4  11  24  44  70  99 132 178 224 279 329 402
#     4  11  26  45  70  99 135 179 223 278 340 394
#     4  12  24  42  71 100 133 178 223 277 337 402
#     4  10  25  46  68  98 135 177 230 272 327 406
#     4  12  26  45  68  98 138 181 220 276 339 397
#     4  11  23  41  69  99 132 171 227 274 338 397
#     4  10  25  42  64 102 132 177 217 286 337 393
#     4  11  25  45  65  97 136 174 224 276 339 401
#
# _framework density 21.682765
#
# number of rings (size 3 to 8) (size 9 to 14) (size 15 to 20)
#    0.000    1.000    3.750    1.500    7.000    2.500 
#    2.250    0.000    0.000    0.000    0.000    0.000 
#    0.000    0.000    0.000    0.000    0.000    0.000 
#
# Total GULP energy -89488.130156 kJ/mol
# GULP energy per Si atom -5593.008135 kJ/mol
# Density = 2.163341 g / cm^3
# Si number density = 21.682765 Si / 1000 Ang^3
#
#
#
# Elastic Constant Matrix: (Units=GPa)
#
#
# Indices 1 2 3 4 5 6 
#
# 1 60.4923 -3.5642 21.6847 -3.6241 -7.9931 -4.3658
# 2 -3.5642 87.5564 24.3275 -8.4730 9.1065 -16.9498
# 3 21.6847 24.3275 131.5817 -10.7308 -13.4486 -0.8438
# 4 -3.6241 -8.4730 -10.7308 27.0817 -0.3802 -2.0716
# 5 -7.9931 9.1065 -13.4486 -0.3802 31.1878 -0.8826
# 6 -4.3658 -16.9498 -0.8438 -2.0716 -0.8826 18.1775
#
#
#
# Elastic Compliance Matrix: (Units=1/GPa)
#
#
# Indices 1 2 3 4 5 6 
#
# 1 0.018950 0.003135 -0.003123 0.002916 0.002851 0.007800
# 2 0.003135 0.016836 -0.003601 0.005462 -0.005127 0.016658
# 3 -0.003123 -0.003601 0.009351 0.001972 0.004216 -0.003245
# 4 0.002916 0.005462 0.001972 0.040624 0.000796 0.010554
# 5 0.002851 -0.005127 0.004216 0.000796 0.036061 -0.002059
# 6 0.007800 0.016658 -0.003245 0.010554 -0.002059 0.073372
#
#
# Mechanical properties :
#
#
# Convention : Reuss Voigt Hill
#
# Bulk Modulus (GPa) = 26.34504 40.50292 33.42398
# Shear Modulus (GPa) = 23.25302 31.10155 27.17728
#
# Velocity S-wave (km/s) = 3.27833 3.79144 3.54419
# Velocity P-wave (km/s) = 5.14845 6.15525 5.67422
#
# Compressibility (1/GPa) = 0.03795781
#
# Stress axis : x y z
#
# Youngs Moduli (GPa) = 52.77137 59.39610 106.93792
#
# Poissons Ratio (x) = -0.18620 0.33400
# Poissons Ratio (y) = -0.16543 0.38510
# Poissons Ratio (z) = 0.16482 0.21389
#
# Static dielectric constant tensor:
#      x y z
#    x 1.796790 -0.021600 0.009310 
#    y -0.021600 1.767750 -0.015810 
#    z 0.009310 -0.015810 1.826060 
# 
# From -- ./inp_files/392086.got.cif
#   From: 2010.05.17/outbox.cif.g08.bks.cpg/sg2_197_cif.got.tgz:392086.got - 2010.06.03 11:33:40.
