data_PCOD9050707
_publ_section_title
;
Structure prediction by ZEFSAII (Michael W. Deem and Ramdas Pophale) SiO2 
 PCOD9050707
Probable space group: P -1
;
_chemical_formula_sum "Si O2"
_cell_formula_units_Z 16
_cell_length_a 8.914997
_cell_length_b 11.085648
_cell_length_c 9.366316
_cell_angle_alpha 83.910114
_cell_angle_beta 61.855956
_cell_angle_gamma 66.641744
_cell_volume 745.565738
_symmetry_space_group_name_H-M "P -1"
_symmetry_group_IT_number 2
_symmetry_cell_setting 'triclinic'
loop_
_space_group_symop_operation_xyz
x,y,z
-x,-y,-z
loop_
_atom_site_type_symbol
_atom_site_label
_atom_site_fract_x
_atom_site_fract_y
_atom_site_fract_z
Si Si1 0.758386 0.846581 0.930602
Si Si2 0.777483 0.068437 0.098696
Si Si3 0.597640 0.225856 0.915343
Si Si4 0.491633 0.501375 0.831143
Si Si5 0.100017 0.576200 0.854713
Si Si6 0.638256 0.567828 0.490861
Si Si7 0.189264 0.981971 0.347099
Si Si8 0.568113 0.118549 0.477856
O O1 0.949269 0.724337 0.892043
O O2 0.784478 0.896499 0.755054
O O3 0.718709 0.960784 0.054339
O O4 0.584094 0.806134 0.008853
O O5 0.715707 0.094065 0.287075
O O6 0.660826 0.210017 0.054567
O O7 0.000000 0.000000 0.000000
O O8 0.560057 0.344047 0.807872
O O9 0.782103 0.113493 0.786575
O O10 0.283639 0.565600 0.857896
O O11 0.628124 0.544045 0.668518
O O12 0.500000 0.500000 0.000000
O O13 0.175690 0.507335 0.675435
O O14 0.000000 0.500000 0.000000
O O15 0.500000 0.500000 0.500000
O O16 0.567700 0.726125 0.483218
O O17 0.342628 0.911351 0.403369
O O18 0.000000 0.000000 0.500000
O O19 0.500000 0.000000 0.500000
#
# Coordination Sequence:
#
# PCOD9050707 Si02
#       8
#     2   2   2   2   2   2   2   2
#     4  11  24  43  68  92 136 179 226 273 334 418
#     4  11  25  40  67 100 131 171 221 285 338 394
#     4  11  22  44  65  92 130 178 225 263 341 408
#     4  11  24  42  70  98 134 174 220 286 342 399
#     4  11  24  45  70  98 132 181 236 272 338 413
#     4  10  25  43  72  99 136 183 230 277 337 419
#     4  11  24  39  65  96 127 177 227 278 326 404
#     4  12  24  43  68  97 137 170 222 283 348 388
#
# _framework density 21.460213
#
# number of rings (size 3 to 8) (size 9 to 14) (size 15 to 20)
#    0.000    1.000    1.250    6.750   12.250    0.000 
#    0.000    0.625    0.000    0.000    0.000    0.000 
#    0.000    0.000    0.000    0.000    0.000    0.000 
#
# Total GULP energy -89203.243134 kJ/mol
# GULP energy per Si atom -5575.202696 kJ/mol
# Density = 2.141137 g / cm^3
# Si number density = 21.460213 Si / 1000 Ang^3
#
#
#
# Elastic Constant Matrix: (Units=GPa)
#
#
# Indices 1 2 3 4 5 6 
#
# 1 41.2067 18.9010 8.5854 -7.9885 3.8152 -12.0179
# 2 18.9010 134.1796 31.4767 -14.5358 -1.0429 -14.1277
# 3 8.5854 31.4767 144.4194 -7.4006 -0.0918 -7.2511
# 4 -7.9885 -14.5358 -7.4006 45.3405 -5.1343 2.7869
# 5 3.8152 -1.0429 -0.0918 -5.1343 37.4152 -2.5474
# 6 -12.0179 -14.1277 -7.2511 2.7869 -2.5474 34.5982
#
#
#
# Elastic Compliance Matrix: (Units=1/GPa)
#
#
# Indices 1 2 3 4 5 6 
#
# 1 0.028916 -0.002711 -0.000533 0.003397 -0.001987 0.008406
# 2 -0.002711 0.008644 -0.001509 0.002020 0.000939 0.002178
# 3 -0.000533 -0.001509 0.007351 0.000597 0.000160 0.000703
# 4 0.003397 0.002020 0.000597 0.023711 0.002995 0.000440
# 5 -0.001987 0.000939 0.000160 0.002995 0.027470 0.001508
# 6 0.008406 0.002178 0.000703 0.000440 0.001508 0.032935
#
#
# Mechanical properties :
#
#
# Convention : Reuss Voigt Hill
#
# Bulk Modulus (GPa) = 28.24480 48.63690 38.44085
# Shear Modulus (GPa) = 33.25885 40.86027 37.05956
#
# Velocity S-wave (km/s) = 3.94101 4.36822 4.16010
# Velocity P-wave (km/s) = 5.82227 6.93936 6.40521
#
# Compressibility (1/GPa) = 0.03540474
#
# Stress axis : x y z
#
# Youngs Moduli (GPa) = 34.58240 115.68662 136.03705
#
# Poissons Ratio (x) = 0.31357 0.07256
# Poissons Ratio (y) = 0.09374 0.20533
# Poissons Ratio (z) = 0.01845 0.17462
#
# Static dielectric constant tensor:
#      x y z
#    x 1.495220 -0.519940 -0.089410 
#    y -0.519940 0.633970 -0.238810 
#    z -0.089410 -0.238810 1.743030 
# 
# From -- ./inp_files/186501.got.cif
#   From: 2010.05.17/outbox.cif.g08.bks.cpg/sg2_94_cif.got.tgz:186501.got - 2010.06.03 11:33:40.
