data_PCOD9050043
_publ_section_title
;
Structure prediction by ZEFSAII (Michael W. Deem and Ramdas Pophale) SiO2 
 PCOD9050043
Probable space group: P -1
;
_chemical_formula_sum "Si O2"
_cell_formula_units_Z 16
_cell_length_a 8.652353
_cell_length_b 16.365517
_cell_length_c 11.897014
_cell_angle_alpha 41.445202
_cell_angle_beta 96.965532
_cell_angle_gamma 64.728396
_cell_volume 681.264512
_symmetry_space_group_name_H-M "P -1"
_symmetry_group_IT_number 2
_symmetry_cell_setting 'triclinic'
loop_
_space_group_symop_operation_xyz
x,y,z
-x,-y,-z
loop_
_atom_site_type_symbol
_atom_site_label
_atom_site_fract_x
_atom_site_fract_y
_atom_site_fract_z
Si Si1 0.756460 0.905556 0.194602
Si Si2 0.117797 0.049934 0.079019
Si Si3 0.570142 0.274623 0.837171
Si Si4 0.273712 0.556920 0.733104
Si Si5 0.724246 0.668103 0.860792
Si Si6 0.044091 0.306035 0.989838
Si Si7 0.494763 0.670374 0.650792
Si Si8 0.797067 0.607306 0.468956
O O1 0.662901 0.823302 0.254193
O O2 0.998185 0.738049 0.468173
O O3 0.849749 0.907987 0.082895
O O4 0.585835 0.116407 0.021589
O O5 0.345844 0.816947 0.377961
O O6 0.847503 0.150012 0.959250
O O7 0.114599 0.156606 0.063646
O O8 0.458173 0.413008 0.791980
O O9 0.377975 0.394499 0.590865
O O10 0.339902 0.647824 0.698372
O O11 0.292611 0.436812 0.948349
O O12 0.524144 0.761396 0.650141
O O13 0.000000 0.500000 0.000000
O O14 0.733731 0.785687 0.815257
O O15 0.780110 0.443365 0.888359
O O16 0.949364 0.478344 0.726129
O O17 0.000000 0.500000 0.500000
#
# Coordination Sequence:
#
# PCOD9050043 Si02
#       8
#     2   2   2   2   2   2   2   2
#     4  12  25  42  67 102 139 174 221 262 332 405
#     4  12  25  41  66 104 140 175 217 264 331 401
#     4  12  25  40  66 101 138 177 212 268 330 399
#     4  12  23  45  71  97 133 173 224 275 331 390
#     4  10  24  48  73  94 126 177 228 277 335 383
#     4  11  22  43  67  96 133 175 222 272 328 385
#     4  11  25  44  69  96 130 178 223 277 326 389
#     4  12  22  41  64  96 136 180 214 269 327 394
#
# _framework density 23.485737
#
# number of rings (size 3 to 8) (size 9 to 14) (size 15 to 20)
#    0.000    0.500    6.250    1.875    1.750    1.500 
#    0.000    3.125    0.000    0.000    0.000    0.000 
#    0.000    0.000    0.000    0.000    0.000    0.000 
#
# Total GULP energy -89514.045131 kJ/mol
# GULP energy per Si atom -5594.627821 kJ/mol
# Density = 2.343228 g / cm^3
# Si number density = 23.485737 Si / 1000 Ang^3
#
#
#
# Elastic Constant Matrix: (Units=GPa)
#
#
# Indices 1 2 3 4 5 6 
#
# 1 94.9511 13.8897 7.6565 17.4379 13.6887 25.6991
# 2 13.8897 67.2317 -1.7631 3.5280 10.4837 26.0601
# 3 7.6565 -1.7631 67.5521 11.2358 11.9402 -1.4155
# 4 17.4379 3.5280 11.2358 38.9909 10.5759 -2.2029
# 5 13.6887 10.4837 11.9402 10.5759 31.4154 5.0775
# 6 25.6991 26.0601 -1.4155 -2.2029 5.0775 42.4139
#
#
#
# Elastic Compliance Matrix: (Units=1/GPa)
#
#
# Indices 1 2 3 4 5 6 
#
# 1 0.014564 0.001582 -0.000219 -0.006307 -0.003090 -0.009761
# 2 0.001582 0.020573 0.001385 -0.002295 -0.005199 -0.013049
# 3 -0.000219 0.001385 0.016391 -0.003223 -0.005565 0.000327
# 4 -0.006307 -0.002295 -0.003223 0.032010 -0.007275 0.007657
# 5 -0.003090 -0.005199 -0.005565 -0.007275 0.039514 -0.000227
# 6 -0.009761 -0.013049 0.000327 0.007657 -0.000227 0.037945
#
#
# Mechanical properties :
#
#
# Convention : Reuss Voigt Hill
#
# Bulk Modulus (GPa) = 17.53672 29.92235 23.72954
# Shear Modulus (GPa) = 28.65205 36.56081 32.60643
#
# Velocity S-wave (km/s) = 3.49661 3.94981 3.73010
# Velocity P-wave (km/s) = 4.87697 5.79394 5.35512
#
# Compressibility (1/GPa) = 0.05702319
#
# Stress axis : x y z
#
# Youngs Moduli (GPa) = 68.66447 48.60781 61.00979
#
# Poissons Ratio (x) = -0.07689 0.01335
# Poissons Ratio (y) = -0.10862 -0.08450
# Poissons Ratio (z) = 0.01502 -0.06732
#
# Static dielectric constant tensor:
#      x y z
#    x 1.909230 0.014790 0.042040 
#    y 0.014790 1.893170 -0.008890 
#    z 0.042040 -0.008890 1.912810 
# 
# From -- ./inp_files/272599.got.cif
#   From: 2010.05.17/outbox.cif.g08.bks.cpg/sg2_137_cif.got.tgz:272599.got - 2010.06.03 11:33:40.
