data_PCOD9050706
_publ_section_title
;
Structure prediction by ZEFSAII (Michael W. Deem and Ramdas Pophale) SiO2 
 PCOD9050706
Probable space group: P -1
;
_chemical_formula_sum "Si O2"
_cell_formula_units_Z 14
_cell_length_a 9.602003
_cell_length_b 11.468378
_cell_length_c 12.419962
_cell_angle_alpha 55.169930
_cell_angle_beta 52.135549
_cell_angle_gamma 38.070339
_cell_volume 654.843599
_symmetry_space_group_name_H-M "P -1"
_symmetry_group_IT_number 2
_symmetry_cell_setting 'triclinic'
loop_
_space_group_symop_operation_xyz
x,y,z
-x,-y,-z
loop_
_atom_site_type_symbol
_atom_site_label
_atom_site_fract_x
_atom_site_fract_y
_atom_site_fract_z
Si Si1 0.027332 0.419568 0.410240
Si Si2 0.562167 0.088418 0.336733
Si Si3 0.210317 0.006520 0.294749
Si Si4 0.667527 0.377693 0.589310
Si Si5 0.095036 0.292895 0.030487
Si Si6 0.738152 0.264083 0.279982
Si Si7 0.679360 0.821396 0.248439
O O1 0.922579 0.317864 0.500429
O O2 0.850081 0.607008 0.323611
O O3 0.000000 0.500000 0.500000
O O4 0.301997 0.282340 0.319636
O O5 0.702097 0.136958 0.304045
O O6 0.500000 0.000000 0.500000
O O7 0.706980 0.943632 0.245367
O O8 0.298539 0.808079 0.310011
O O9 0.401242 0.928155 0.338967
O O10 0.235247 0.135527 0.142430
O O11 0.921745 0.149705 0.355940
O O12 0.500000 0.500000 0.500000
O O13 0.513594 0.536976 0.670595
O O14 0.869431 0.308980 0.119520
O O15 0.248657 0.207130 0.894958
O O16 0.000000 0.500000 0.000000
#
# Coordination Sequence:
#
# PCOD9050706 Si02
#       7
#     2   2   2   2   2   2   2
#     4  12  25  43  68 102 146 183 225 289 347 419
#     4  12  25  45  68 102 146 185 231 280 351 421
#     4  10  25  43  72  99 136 177 234 293 346 401
#     4  12  23  42  69 105 138 176 237 285 351 414
#     4  10  25  48  73 100 140 179 242 296 341 405
#     4  10  25  44  66 102 138 180 233 289 339 405
#     4  12  25  44  71 102 135 194 226 281 357 407
#
# _framework density 21.379151
#
# number of rings (size 3 to 8) (size 9 to 14) (size 15 to 20)
#    0.857    0.000    4.286    2.143    4.000    1.143 
#    0.000    0.714    0.000    0.000    0.000    0.000 
#    0.000    0.000    0.000    0.000    0.000    0.000 
#
# Total GULP energy -78131.052875 kJ/mol
# GULP energy per Si atom -5580.789491 kJ/mol
# Density = 2.133049 g / cm^3
# Si number density = 21.379151 Si / 1000 Ang^3
#
#
#
# Elastic Constant Matrix: (Units=GPa)
#
#
# Indices 1 2 3 4 5 6 
#
# 1 121.4048 28.3077 26.4130 -6.7216 -23.2472 11.6931
# 2 28.3077 117.3567 36.5608 -14.9423 -2.2337 11.5661
# 3 26.4130 36.5608 41.1245 -5.9564 -12.3904 0.3853
# 4 -6.7216 -14.9423 -5.9564 39.9810 1.7519 1.2365
# 5 -23.2472 -2.2337 -12.3904 1.7519 25.9660 -3.5913
# 6 11.6931 11.5661 0.3853 1.2365 -3.5913 52.2757
#
#
#
# Elastic Compliance Matrix: (Units=1/GPa)
#
#
# Indices 1 2 3 4 5 6 
#
# 1 0.010956 -0.001136 -0.003598 0.000594 0.007725 -0.001656
# 2 -0.001136 0.013313 -0.012564 0.003295 -0.006522 -0.003125
# 3 -0.003598 -0.012564 0.042827 0.000210 0.016730 0.004413
# 4 0.000594 0.003295 0.000210 0.026471 -0.001087 -0.001564
# 5 0.007725 -0.006522 0.016730 -0.001087 0.053378 0.003284
# 6 -0.001656 -0.003125 0.004413 -0.001564 0.003284 0.020421
#
#
# Mechanical properties :
#
#
# Convention : Reuss Voigt Hill
#
# Bulk Modulus (GPa) = 30.76923 51.38322 41.07623
# Shear Modulus (GPa) = 23.49686 36.21818 29.85752
#
# Velocity S-wave (km/s) = 3.31880 4.12040 3.74113
# Velocity P-wave (km/s) = 5.39530 6.83545 6.15762
#
# Compressibility (1/GPa) = 0.03250000
#
# Stress axis : x y z
#
# Youngs Moduli (GPa) = 91.27231 75.11713 23.34991
#
# Poissons Ratio (x) = 0.08534 0.08401
# Poissons Ratio (y) = 0.10369 0.29337
# Poissons Ratio (z) = 0.32837 0.94377
#
# Static dielectric constant tensor:
#      x y z
#    x 1.846390 -0.026660 0.014720 
#    y -0.026660 1.790490 0.018380 
#    z 0.014720 0.018380 1.831830 
# 
# From -- ./inp_files/389308.got.cif
#   From: 2010.05.17/outbox.cif.g08.bks.cpg/sg2_195_cif.got.tgz:389308.got - 2010.06.03 11:33:40.
