data_PCOD9050694
_publ_section_title
;
Structure prediction by ZEFSAII (Michael W. Deem and Ramdas Pophale) SiO2 
 PCOD9050694
Probable space group: P -1
;
_chemical_formula_sum "Si O2"
_cell_formula_units_Z 16
_cell_length_a 8.384625
_cell_length_b 20.116169
_cell_length_c 8.197343
_cell_angle_alpha 146.411443
_cell_angle_beta 54.730653
_cell_angle_gamma 127.691081
_cell_volume 597.910024
_symmetry_space_group_name_H-M "P -1"
_symmetry_group_IT_number 2
_symmetry_cell_setting 'triclinic'
loop_
_space_group_symop_operation_xyz
x,y,z
-x,-y,-z
loop_
_atom_site_type_symbol
_atom_site_label
_atom_site_fract_x
_atom_site_fract_y
_atom_site_fract_z
Si Si1 0.129919 0.091038 0.243344
Si Si2 0.785618 0.786466 0.251055
Si Si3 0.532675 0.076811 0.888967
Si Si4 0.404788 0.169745 0.817770
Si Si5 0.273411 0.572808 0.810262
Si Si6 0.227349 0.497343 0.326570
Si Si7 0.676924 0.264459 0.456324
Si Si8 0.956279 0.670633 0.365543
O O1 0.065142 0.115775 0.515380
O O2 0.145530 0.226945 0.431722
O O3 0.324517 0.038869 0.037395
O O4 0.000000 0.000000 0.000000
O O5 0.805365 0.820209 0.116690
O O6 0.554309 0.785048 0.439510
O O7 0.782675 0.644786 0.989910
O O8 0.462507 0.146319 0.919645
O O9 0.572994 0.954918 0.540343
O O10 0.690793 0.175901 0.112046
O O11 0.549860 0.310332 0.989976
O O12 0.329121 0.541950 0.532998
O O13 0.208784 0.446686 0.696818
O O14 0.072778 0.622054 0.050526
O O15 0.310746 0.598301 0.343075
O O16 0.000000 0.500000 0.500000
O O17 0.860507 0.278061 0.504494
#
# Coordination Sequence:
#
# PCOD9050694 Si02
#       8
#     2   2   2   2   2   2   2   2
#     4  11  26  46  68  99 137 180 225 280 341 409
#     4  11  27  43  70  98 138 179 229 279 341 410
#     4  10  25  43  71  96 136 177 232 279 337 410
#     4  11  23  45  67 101 133 183 228 282 336 400
#     4  11  23  41  68  96 143 178 221 282 336 397
#     4  12  24  42  66 102 140 179 226 281 342 398
#     4  11  23  44  69 101 138 178 229 282 339 405
#     4  11  24  42  68 105 135 181 227 278 340 408
#
# _framework density 26.759879999999999
#
# number of rings (size 3 to 8) (size 9 to 14) (size 15 to 20)
#    0.000    1.000    3.750    1.875    5.250    3.500 
#    0.000    0.625    0.000    0.000    0.000    0.000 
#    0.000    0.000    0.000    0.000    0.000    0.000 
#
# Total GULP energy -89478.498926 kJ/mol
# GULP energy per Si atom -5592.406183 kJ/mol
# Density = 2.669897 g / cm^3
# Si number density = 26.759880 Si / 1000 Ang^3
#
#
#
# Elastic Constant Matrix: (Units=GPa)
#
#
# Indices 1 2 3 4 5 6 
#
# 1 98.5365 27.6574 62.5196 -4.4300 21.7634 -14.1084
# 2 27.6574 53.9860 14.1858 18.5816 3.8105 -14.2925
# 3 62.5196 14.1858 133.7734 6.8168 32.0900 1.7194
# 4 -4.4300 18.5816 6.8168 37.8749 -5.0408 1.7720
# 5 21.7634 3.8105 32.0900 -5.0408 59.7284 -5.7040
# 6 -14.1084 -14.2925 1.7194 1.7720 -5.7040 40.1247
#
#
#
# Elastic Compliance Matrix: (Units=1/GPa)
#
#
# Indices 1 2 3 4 5 6 
#
# 1 0.018947 -0.009445 -0.008065 0.008023 -0.000990 0.003148
# 2 -0.009445 0.030945 0.001948 -0.017057 -0.000222 0.008340
# 3 -0.008065 0.001948 0.012399 -0.004588 -0.004532 -0.003115
# 4 0.008023 -0.017057 -0.004588 0.037180 0.003365 -0.004222
# 5 -0.000990 -0.000222 -0.004532 0.003365 0.020072 0.002472
# 6 0.003148 0.008340 -0.003115 -0.004222 0.002472 0.029671
#
#
# Mechanical properties :
#
#
# Convention : Reuss Voigt Hill
#
# Bulk Modulus (GPa) = 32.08610 55.00238 43.54424
# Shear Modulus (GPa) = 26.21544 39.67449 32.94496
#
# Velocity S-wave (km/s) = 3.13334 3.85465 3.51256
# Velocity P-wave (km/s) = 5.01067 6.35686 5.72348
#
# Compressibility (1/GPa) = 0.03116614
#
# Stress axis : x y z
#
# Youngs Moduli (GPa) = 52.77904 32.31565 80.65248
#
# Poissons Ratio (x) = 0.30523 0.65046
# Poissons Ratio (y) = 0.49852 -0.15713
# Poissons Ratio (z) = 0.42566 -0.06296
#
# Static dielectric constant tensor:
#      x y z
#    x 2.198290 -0.070160 0.066930 
#    y -0.070160 2.260830 -0.107420 
#    z 0.066930 -0.107420 2.082400 
# 
# From -- ./inp_files/224349.got.cif
#   From: 2010.05.17/outbox.cif.g08.bks.cpg/sg2_113_cif.got.tgz:224349.got - 2010.06.03 11:33:40.
