data_PCOD9050338
_publ_section_title
;
Structure prediction by ZEFSAII (Michael W. Deem and Ramdas Pophale) SiO2 
 PCOD9050338
Probable space group: P -1
;
_chemical_formula_sum "Si O2"
_cell_formula_units_Z 16
_cell_length_a 5.221150
_cell_length_b 15.179335
_cell_length_c 16.162766
_cell_angle_alpha 38.515913
_cell_angle_beta 118.243988
_cell_angle_gamma 114.221917
_cell_volume 700.849261
_symmetry_space_group_name_H-M "P -1"
_symmetry_group_IT_number 2
_symmetry_cell_setting 'triclinic'
loop_
_space_group_symop_operation_xyz
x,y,z
-x,-y,-z
loop_
_atom_site_type_symbol
_atom_site_label
_atom_site_fract_x
_atom_site_fract_y
_atom_site_fract_z
Si Si1 0.678798 0.120473 0.212388
Si Si2 0.038983 0.641747 0.617775
Si Si3 0.723388 0.169861 0.857944
Si Si4 0.435677 0.174691 0.528706
Si Si5 0.604513 0.855485 0.015272
Si Si6 0.741888 0.885685 0.624299
Si Si7 0.390549 0.639035 0.837072
Si Si8 0.183739 0.555269 0.409899
O O1 0.676377 0.244498 0.189141
O O2 0.001746 0.068310 0.307980
O O3 0.485973 0.974757 0.310586
O O4 0.592791 0.180263 0.067700
O O5 0.289698 0.740981 0.535714
O O6 0.143503 0.607165 0.752435
O O7 0.742579 0.723154 0.516868
O O8 0.978860 0.501919 0.656142
O O9 0.522998 0.220856 0.864832
O O10 0.763828 0.277056 0.709959
O O11 0.057804 0.156872 0.946415
O O12 0.585605 0.020740 0.913457
O O13 0.199936 0.132464 0.450395
O O14 0.634582 0.729892 0.754747
O O15 0.500000 0.000000 0.500000
O O16 0.500000 0.500000 0.000000
O O17 0.500000 0.500000 0.500000
O O18 0.000000 0.500000 0.500000
#
# Coordination Sequence:
#
# PCOD9050338 Si02
#       8
#     2   2   2   2   2   2   2   2
#     4  12  24  40  73 104 133 186 244 284 352 432
#     4  11  26  45  70 101 144 183 232 295 361 414
#     4  10  24  51  64 102 139 178 234 293 366 411
#     4  11  23  43  68 101 138 182 231 292 343 416
#     4  10  25  42  76  97 137 183 230 299 346 421
#     4  11  22  43  66  97 144 187 236 291 351 417
#     4  11  26  44  65 104 146 189 230 287 356 444
#     4  12  27  47  75 104 138 189 238 298 361 432
#
# _framework density 22.829445
#
# number of rings (size 3 to 8) (size 9 to 14) (size 15 to 20)
#    0.000    1.000    2.500    3.375    7.000    0.500 
#    2.250    0.000    0.000    0.000    0.000    0.000 
#    0.000    0.000    0.000    0.000    0.000    0.000 
#
# Total GULP energy -89388.373177 kJ/mol
# GULP energy per Si atom -5586.773324 kJ/mol
# Density = 2.277748 g / cm^3
# Si number density = 22.829445 Si / 1000 Ang^3
#
#
#
# Elastic Constant Matrix: (Units=GPa)
#
#
# Indices 1 2 3 4 5 6 
#
# 1 73.1405 14.5336 5.1284 4.5452 -11.5070 -9.6009
# 2 14.5336 72.8438 18.1566 11.9977 0.1211 -5.9180
# 3 5.1284 18.1566 95.9934 -11.9301 -15.4386 1.2379
# 4 4.5452 11.9977 -11.9301 43.3274 4.4577 0.0642
# 5 -11.5070 0.1211 -15.4386 4.4577 32.3936 -1.0994
# 6 -9.6009 -5.9180 1.2379 0.0642 -1.0994 26.8522
#
#
#
# Elastic Compliance Matrix: (Units=1/GPa)
#
#
# Indices 1 2 3 4 5 6 
#
# 1 0.015943 -0.002607 0.000391 -0.001494 0.006247 0.005367
# 2 -0.002607 0.016304 -0.003950 -0.005120 -0.002071 0.002771
# 3 0.000391 -0.003950 0.012540 0.003936 0.005551 -0.001091
# 4 -0.001494 -0.005120 0.003936 0.025976 -0.002278 -0.001999
# 5 0.006247 -0.002071 0.005551 -0.002278 0.036158 0.003007
# 6 0.005367 0.002771 -0.001091 -0.001999 0.003007 0.039949
#
#
# Mechanical properties :
#
#
# Convention : Reuss Voigt Hill
#
# Bulk Modulus (GPa) = 30.81039 35.29054 33.05046
# Shear Modulus (GPa) = 29.40841 34.12525 31.76683
#
# Velocity S-wave (km/s) = 3.59301 3.87045 3.73431
# Velocity P-wave (km/s) = 5.54420 5.95531 5.75343
#
# Compressibility (1/GPa) = 0.03245659
#
# Stress axis : x y z
#
# Youngs Moduli (GPa) = 62.72309 61.33309 79.74744
#
# Poissons Ratio (x) = 0.15988 -0.03120
# Poissons Ratio (y) = 0.16350 0.31498
# Poissons Ratio (z) = -0.02454 0.24225
#
# Static dielectric constant tensor:
#      x y z
#    x 1.940990 0.022070 0.004910 
#    y 0.022070 1.899210 -0.004030 
#    z 0.004910 -0.004030 1.860970 
# 
# From -- ./inp_files/135643.got.cif
#   From: 2010.05.17/outbox.cif.g08.bks.cpg/sg2_68_cif.got.tgz:135643.got - 2010.06.03 11:33:40.
