data_PCOD9050239
_publ_section_title
;
Structure prediction by ZEFSAII (Michael W. Deem and Ramdas Pophale) SiO2 
 PCOD9050239
Probable space group: P -1
;
_chemical_formula_sum "Si O2"
_cell_formula_units_Z 14
_cell_length_a 11.914547
_cell_length_b 11.091370
_cell_length_c 10.970257
_cell_angle_alpha 39.390847
_cell_angle_beta 53.269614
_cell_angle_gamma 39.423116
_cell_volume 584.232280
_symmetry_space_group_name_H-M "P -1"
_symmetry_group_IT_number 2
_symmetry_cell_setting 'triclinic'
loop_
_space_group_symop_operation_xyz
x,y,z
-x,-y,-z
loop_
_atom_site_type_symbol
_atom_site_label
_atom_site_fract_x
_atom_site_fract_y
_atom_site_fract_z
Si Si1 0.227547 0.720564 0.757946
Si Si2 0.392677 0.882656 0.221901
Si Si3 0.076161 0.040536 0.035193
Si Si4 0.455683 0.817402 0.963348
Si Si5 0.346508 0.042551 0.376026
Si Si6 0.764028 0.392214 0.433878
Si Si7 0.000812 0.522728 0.626959
O O1 0.367204 0.455222 0.930361
O O2 0.171425 0.691475 0.682609
O O3 0.056953 0.890841 0.820301
O O4 0.334623 0.831243 0.585467
O O5 0.421511 0.936455 0.026404
O O6 0.577784 0.655689 0.334651
O O7 0.281513 0.781002 0.356662
O O8 0.296840 0.081458 0.233223
O O9 0.285239 0.826461 0.055284
O O10 0.064980 0.276015 0.839610
O O11 0.000000 0.000000 0.000000
O O12 0.480865 0.965244 0.733281
O O13 0.199923 0.269828 0.369424
O O14 0.885806 0.404248 0.439444
O O15 0.000000 0.500000 0.500000
#
# Coordination Sequence:
#
# PCOD9050239 Si02
#       7
#     2   2   2   2   2   2   2
#     4  10  24  49  75 111 145 189 243 305 369 429
#     4   9  20  40  73 109 143 185 240 302 373 422
#     4  12  28  49  72 107 147 199 250 298 367 438
#     4  11  24  46  75 108 151 189 240 309 358 440
#     4  11  23  45  71 111 146 187 242 295 373 434
#     4   9  21  42  72 109 143 188 245 299 361 440
#     4  12  27  46  71 106 152 195 250 298 361 442
#
# _framework density 23.963073000000001
#
# number of rings (size 3 to 8) (size 9 to 14) (size 15 to 20)
#    0.000    1.429    1.429    3.000    6.000    3.429 
#    0.000    3.571    0.000    0.000    0.000    0.000 
#    0.000    0.000    0.000    0.000    0.000    0.000 
#
# Total GULP energy -78258.152585 kJ/mol
# GULP energy per Si atom -5589.868042 kJ/mol
# Density = 2.390853 g / cm^3
# Si number density = 23.963073 Si / 1000 Ang^3
#
#
#
# Elastic Constant Matrix: (Units=GPa)
#
#
# Indices 1 2 3 4 5 6 
#
# 1 122.8846 64.0772 26.4642 33.1401 -4.6208 -10.3707
# 2 64.0772 136.7697 50.3952 34.6034 -1.7764 16.9255
# 3 26.4642 50.3952 123.0925 23.7866 -22.4199 0.4474
# 4 33.1401 34.6034 23.7866 46.4483 -0.1007 0.2501
# 5 -4.6208 -1.7764 -22.4199 -0.1007 26.3517 4.3359
# 6 -10.3707 16.9255 0.4474 0.2501 4.3359 27.3555
#
#
#
# Elastic Compliance Matrix: (Units=1/GPa)
#
#
# Indices 1 2 3 4 5 6 
#
# 1 0.013539 -0.006416 0.000961 -0.005418 0.001269 0.008935
# 2 -0.006416 0.014029 -0.003906 -0.003819 -0.001751 -0.010736
# 3 0.000961 -0.003906 0.012102 -0.003957 0.010016 0.001032
# 4 -0.005418 -0.003819 -0.003957 0.030253 -0.004595 0.000826
# 5 0.001269 -0.001751 0.010016 -0.004595 0.047560 -0.006096
# 6 0.008935 -0.010736 0.001032 0.000826 -0.006096 0.047527
#
#
# Mechanical properties :
#
#
# Convention : Reuss Voigt Hill
#
# Bulk Modulus (GPa) = 47.73500 73.84668 60.79084
# Shear Modulus (GPa) = 26.21735 36.15177 31.18456
#
# Velocity S-wave (km/s) = 3.31127 3.88834 3.61135
# Velocity P-wave (km/s) = 5.88071 7.14442 6.54314
#
# Compressibility (1/GPa) = 0.02094899
#
# Stress axis : x y z
#
# Youngs Moduli (GPa) = 73.86032 71.28192 82.63273
#
# Poissons Ratio (x) = 0.45734 -0.07945
# Poissons Ratio (y) = 0.47388 0.32276
# Poissons Ratio (z) = -0.07101 0.27842
#
# Static dielectric constant tensor:
#      x y z
#    x 2.014800 -0.016020 -0.085110 
#    y -0.016020 1.898430 -0.009470 
#    z -0.085110 -0.009470 2.012390 
# 
# From -- ./inp_files/424887.got.cif
#   From: 2010.05.17/outbox.cif.g08.bks.cpg/sg2_213_cif.got.tgz:424887.got - 2010.06.03 11:33:40.
