data_PCOD9050720
_publ_section_title
;
Structure prediction by ZEFSAII (Michael W. Deem and Ramdas Pophale) SiO2 
 PCOD9050720
Probable space group: P -1
;
_chemical_formula_sum "Si O2"
_cell_formula_units_Z 12
_cell_length_a 13.688863
_cell_length_b 9.804861
_cell_length_c 4.980083
_cell_angle_alpha 107.273580
_cell_angle_beta 108.863446
_cell_angle_gamma 44.905167
_cell_volume 444.199182
_symmetry_space_group_name_H-M "P -1"
_symmetry_group_IT_number 2
_symmetry_cell_setting 'triclinic'
loop_
_space_group_symop_operation_xyz
x,y,z
-x,-y,-z
loop_
_atom_site_type_symbol
_atom_site_label
_atom_site_fract_x
_atom_site_fract_y
_atom_site_fract_z
Si Si1 0.144484 0.144324 0.741222
Si Si2 0.804650 0.660680 0.501087
Si Si3 0.565065 0.051461 0.295900
Si Si4 0.135399 0.885962 0.243151
Si Si5 0.123267 0.580522 0.062213
Si Si6 0.450205 0.641073 0.288722
O O1 0.110076 0.301184 0.582579
O O2 0.046696 0.260339 0.977787
O O3 0.311726 0.991483 0.806980
O O4 0.100872 0.032030 0.525620
O O5 0.652612 0.876035 0.484791
O O6 0.814470 0.516286 0.225757
O O7 0.831750 0.578828 0.773635
O O8 0.498873 0.246555 0.514040
O O9 0.500000 0.000000 0.000000
O O10 0.171310 0.692407 0.253165
O O11 0.280469 0.809687 0.204027
O O12 0.000000 0.000000 0.000000
O O13 0.500000 0.500000 0.500000
O O14 0.500000 0.500000 0.000000
#
# Coordination Sequence:
#
# PCOD9050720 Si02
#       6
#     2   2   2   2   2   2
#     4   9  22  44  72 109 153 199 253 323 388 455
#     4  10  25  43  74 104 154 192 251 314 387 452
#     4   9  23  50  76 110 152 208 261 318 391 465
#     4  11  26  49  79 115 156 208 261 329 396 468
#     4  12  23  44  73 114 147 193 256 314 394 459
#     4  11  28  54  82 114 159 208 269 326 394 480
#
# _framework density 27.014907999999998
#
# number of rings (size 3 to 8) (size 9 to 14) (size 15 to 20)
#    1.000    0.667    0.000    2.500    2.333    8.000 
#    0.000    1.667    0.000    0.000    0.000    0.000 
#    0.000    0.000    0.000    0.000    0.000    0.000 
#
# Total GULP energy -67150.739044 kJ/mol
# GULP energy per Si atom -5595.894920 kJ/mol
# Density = 2.695342 g / cm^3
# Si number density = 27.014908 Si / 1000 Ang^3
#
#
#
# Elastic Constant Matrix: (Units=GPa)
#
#
# Indices 1 2 3 4 5 6 
#
# 1 81.8292 21.7732 47.7212 8.2377 22.3247 15.5157
# 2 21.7732 113.6271 58.8350 25.9829 2.9549 7.1748
# 3 47.7212 58.8350 200.5912 33.2456 -0.9347 3.8589
# 4 8.2377 25.9829 33.2456 56.4652 6.9059 6.1349
# 5 22.3247 2.9549 -0.9347 6.9059 58.7349 17.4457
# 6 15.5157 7.1748 3.8589 6.1349 17.4457 52.6643
#
#
#
# Elastic Compliance Matrix: (Units=1/GPa)
#
#
# Indices 1 2 3 4 5 6 
#
# 1 0.016708 -0.001215 -0.003818 0.001365 -0.005694 -0.002750
# 2 -0.001215 0.011096 -0.002366 -0.003517 0.000498 -0.000736
# 3 -0.003818 -0.002366 0.007047 -0.002797 0.001817 0.000655
# 4 0.001365 -0.003517 -0.002797 0.021227 -0.002475 -0.001371
# 5 -0.005694 0.000498 0.001817 -0.002475 0.021030 -0.005201
# 6 -0.002750 -0.000736 0.000655 -0.001371 -0.005201 0.021733
#
#
# Mechanical properties :
#
#
# Convention : Reuss Voigt Hill
#
# Bulk Modulus (GPa) = 49.86939 72.52292 61.19616
# Shear Modulus (GPa) = 41.55401 51.42076 46.48739
#
# Velocity S-wave (km/s) = 3.92623 4.36756 4.15276
# Velocity P-wave (km/s) = 6.24930 7.23449 6.75987
#
# Compressibility (1/GPa) = 0.02005238
#
# Stress axis : x y z
#
# Youngs Moduli (GPa) = 59.85128 90.11926 141.90208
#
# Poissons Ratio (x) = 0.10948 0.54184
# Poissons Ratio (y) = 0.07271 0.33579
# Poissons Ratio (z) = 0.22854 0.21325
#
# Static dielectric constant tensor:
#      x y z
#    x 2.244340 -0.078090 0.088940 
#    y -0.078090 2.147310 -0.036830 
#    z 0.088940 -0.036830 2.062360 
# 
# From -- ./inp_files/108384.got.cif
#   From: 2010.05.17/outbox.cif.g08.bks.cpg/sg2_55_cif.got.tgz:108384.got - 2010.06.03 11:33:40.
