data_PCOD9050098
_publ_section_title
;
Structure prediction by ZEFSAII (Michael W. Deem and Ramdas Pophale) SiO2 
 PCOD9050098
Probable space group: P -1
;
_chemical_formula_sum "Si O2"
_cell_formula_units_Z 16
_cell_length_a 5.609629
_cell_length_b 27.814628
_cell_length_c 11.501325
_cell_angle_alpha 152.848858
_cell_angle_beta 53.724377
_cell_angle_gamma 121.819555
_cell_volume 660.198104
_symmetry_space_group_name_H-M "P -1"
_symmetry_group_IT_number 2
_symmetry_cell_setting 'triclinic'
loop_
_space_group_symop_operation_xyz
x,y,z
-x,-y,-z
loop_
_atom_site_type_symbol
_atom_site_label
_atom_site_fract_x
_atom_site_fract_y
_atom_site_fract_z
Si Si1 0.939281 0.124478 0.282785
Si Si2 0.310901 0.574511 0.797551
Si Si3 0.991476 0.729952 0.631394
Si Si4 0.691417 0.443196 0.977553
Si Si5 0.820821 0.050584 0.552648
Si Si6 0.332493 0.708125 0.868271
Si Si7 0.184576 0.593805 0.460350
Si Si8 0.316968 0.094261 0.317560
O O1 0.582313 0.142997 0.425925
O O2 0.040575 0.170515 0.228096
O O3 0.150430 0.162401 0.410739
O O4 0.000000 0.000000 0.000000
O O5 0.500000 0.500000 0.500000
O O6 0.305927 0.680650 0.952852
O O7 0.024435 0.500116 0.725475
O O8 0.404412 0.589852 0.935966
O O9 0.658187 0.695090 0.687984
O O10 0.227488 0.659561 0.339741
O O11 0.138795 0.711102 0.673641
O O12 0.484102 0.541193 0.219400
O O13 0.000000 0.500000 0.000000
O O14 0.052050 0.050088 0.377811
O O15 0.500000 0.000000 0.500000
O O16 0.761640 0.172423 0.861764
O O17 0.000000 0.000000 0.500000
O O18 0.149685 0.618550 0.659499
O O19 0.500000 0.000000 0.000000
#
# Coordination Sequence:
#
# PCOD9050098 Si02
#       8
#     2   2   2   2   2   2   2   2
#     4  10  25  45  76 108 150 197 256 320 383 452
#     4  12  24  47  69 109 152 197 246 319 387 471
#     4  12  27  44  76 110 147 205 256 319 388 472
#     4  12  24  45  70 109 149 187 253 312 384 459
#     4  12  31  53  81 116 160 207 267 334 396 473
#     4  12  29  46  76 109 153 204 260 310 402 474
#     4  12  24  46  77 104 152 199 251 317 393 459
#     4  10  24  48  76 106 147 197 254 317 397 449
#
# _framework density 24.235147000000001
#
# number of rings (size 3 to 8) (size 9 to 14) (size 15 to 20)
#    0.000    0.500    5.000    1.500   12.250    1.000 
#    0.000    0.000    0.000    0.000    0.000    0.000 
#    0.000    0.000    0.000    0.000    0.000    0.000 
#
# Total GULP energy -89118.442558 kJ/mol
# GULP energy per Si atom -5569.902660 kJ/mol
# Density = 2.417999 g / cm^3
# Si number density = 24.235147 Si / 1000 Ang^3
#
#
#
# Elastic Constant Matrix: (Units=GPa)
#
#
# Indices 1 2 3 4 5 6 
#
# 1 126.3098 48.9354 32.7807 1.8684 -30.4501 -5.6601
# 2 48.9354 152.6008 27.7548 3.8151 -21.6488 -22.8948
# 3 32.7807 27.7548 109.5111 -2.4888 -8.6263 -8.7293
# 4 1.8684 3.8151 -2.4888 53.3397 -6.6033 -13.3237
# 5 -30.4501 -21.6488 -8.6263 -6.6033 34.9251 -3.7479
# 6 -5.6601 -22.8948 -8.7293 -13.3237 -3.7479 43.8449
#
#
#
# Elastic Compliance Matrix: (Units=1/GPa)
#
#
# Indices 1 2 3 4 5 6 
#
# 1 0.011264 -0.001900 -0.002123 0.000944 0.008410 0.001045
# 2 -0.001900 0.008603 -0.000876 0.001120 0.004183 0.004770
# 3 -0.002123 -0.000876 0.010187 0.001093 0.000508 0.001672
# 4 0.000944 0.001120 0.001093 0.021526 0.006720 0.008040
# 5 0.008410 0.004183 0.000508 0.006720 0.040910 0.008910
# 6 0.001045 0.004770 0.001672 0.008040 0.008910 0.028971
#
#
# Mechanical properties :
#
#
# Convention : Reuss Voigt Hill
#
# Bulk Modulus (GPa) = 49.36848 67.48483 58.42666
# Shear Modulus (GPa) = 36.22859 45.01865 40.62362
#
# Velocity S-wave (km/s) = 3.87056 4.31464 4.09862
# Velocity P-wave (km/s) = 6.35530 7.26139 6.82340
#
# Compressibility (1/GPa) = 0.02025584
#
# Stress axis : x y z
#
# Youngs Moduli (GPa) = 88.77591 116.24056 98.16167
#
# Poissons Ratio (x) = 0.22083 0.20841
# Poissons Ratio (y) = 0.16865 0.08603
# Poissons Ratio (z) = 0.18848 0.10188
#
# Static dielectric constant tensor:
#      x y z
#    x 2.539040 0.462500 0.750680 
#    y 0.462500 2.604870 0.994880 
#    z 0.750680 0.994880 3.201980 
# 
# From -- ./inp_files/371444.got.cif
#   From: 2010.05.17/outbox.cif.g08.bks.cpg/sg2_186_cif.got.tgz:371444.got - 2010.06.03 11:33:40.
