data_PCOD9050557
_publ_section_title
;
Structure prediction by ZEFSAII (Michael W. Deem and Ramdas Pophale) SiO2 
 PCOD9050557
Probable space group: P -1
;
_chemical_formula_sum "Si O2"
_cell_formula_units_Z 14
_cell_length_a 19.323663
_cell_length_b 9.393711
_cell_length_c 8.856516
_cell_angle_alpha 69.138480
_cell_angle_beta 57.221665
_cell_angle_gamma 28.067238
_cell_volume 605.169673
_symmetry_space_group_name_H-M "P -1"
_symmetry_group_IT_number 2
_symmetry_cell_setting 'triclinic'
loop_
_space_group_symop_operation_xyz
x,y,z
-x,-y,-z
loop_
_atom_site_type_symbol
_atom_site_label
_atom_site_fract_x
_atom_site_fract_y
_atom_site_fract_z
Si Si1 0.166970 0.293388 0.967936
Si Si2 0.492769 0.292762 0.715135
Si Si3 0.800553 0.302526 0.564696
Si Si4 0.844101 0.661819 0.692392
Si Si5 0.749235 0.474435 0.867484
Si Si6 0.504932 0.615733 0.668155
Si Si7 0.951463 0.177367 0.138049
O O1 0.122441 0.543210 0.926196
O O2 0.343566 0.962806 0.802870
O O3 0.183529 0.227066 0.149727
O O4 0.000000 0.500000 0.000000
O O5 0.455377 0.519646 0.744522
O O6 0.469435 0.355656 0.541028
O O7 0.688053 0.942877 0.657741
O O8 0.389203 0.328337 0.912620
O O9 0.694140 0.561434 0.724458
O O10 0.682051 0.347014 0.655711
O O11 0.819791 0.333738 0.360954
O O12 0.000000 0.000000 0.500000
O O13 0.856651 0.456406 0.765234
O O14 0.000000 0.500000 0.500000
O O15 0.865498 0.132870 0.876641
O O16 0.000000 0.000000 0.000000
#
# Coordination Sequence:
#
# PCOD9050557 Si02
#       7
#     2   2   2   2   2   2   2
#     4  12  27  46  74 112 147 200 256 310 373 451
#     4  11  26  48  77 104 154 197 250 314 381 449
#     4  10  25  42  75 106 146 192 249 304 371 448
#     4  12  28  45  73 105 154 196 253 312 378 450
#     4  11  24  47  71 109 143 200 249 306 382 443
#     4  11  26  48  75 110 148 199 252 312 379 445
#     4  11  23  45  72 102 149 191 244 303 371 441
#
# _framework density 23.134008000000001
#
# number of rings (size 3 to 8) (size 9 to 14) (size 15 to 20)
#    0.000    0.857    1.429    3.857    8.000    6.286 
#    0.000    0.000    0.000    0.000    0.000    0.000 
#    0.000    0.000    0.000    0.000    0.000    0.000 
#
# Total GULP energy -78036.859216 kJ/mol
# GULP energy per Si atom -5574.061373 kJ/mol
# Density = 2.308135 g / cm^3
# Si number density = 23.134008 Si / 1000 Ang^3
#
#
#
# Elastic Constant Matrix: (Units=GPa)
#
#
# Indices 1 2 3 4 5 6 
#
# 1 131.3448 40.7737 84.3873 0.4455 0.8662 -9.7412
# 2 40.7737 103.4360 19.5434 0.6649 -15.4004 4.8987
# 3 84.3873 19.5434 159.8848 1.9771 -9.3237 15.0373
# 4 0.4455 0.6649 1.9771 25.6715 -5.9502 0.6240
# 5 0.8662 -15.4004 -9.3237 -5.9502 42.4788 9.5000
# 6 -9.7412 4.8987 15.0373 0.6240 9.5000 40.8789
#
#
#
# Elastic Compliance Matrix: (Units=1/GPa)
#
#
# Indices 1 2 3 4 5 6 
#
# 1 0.016014 -0.006065 -0.008979 -0.001230 -0.006780 0.009440
# 2 -0.006065 0.012837 0.002526 0.001274 0.006740 -0.005499
# 3 -0.008979 0.002526 0.011761 0.000674 0.005581 -0.008076
# 4 -0.001230 0.001274 0.000674 0.040578 0.006975 -0.002934
# 5 -0.006780 0.006740 0.005581 0.006975 0.030959 -0.011777
# 6 0.009440 -0.005499 -0.008076 -0.002934 -0.011777 0.033124
#
#
# Mechanical properties :
#
#
# Convention : Reuss Voigt Hill
#
# Bulk Modulus (GPa) = 64.19367 76.00827 70.10097
# Shear Modulus (GPa) = 28.48995 38.46992 33.47993
#
# Velocity S-wave (km/s) = 3.51311 4.08231 3.80836
# Velocity P-wave (km/s) = 6.65318 7.42612 7.05025
#
# Compressibility (1/GPa) = 0.01557786
#
# Stress axis : x y z
#
# Youngs Moduli (GPa) = 62.44517 77.90027 85.02345
#
# Poissons Ratio (x) = 0.47244 0.76342
# Poissons Ratio (y) = 0.37871 -0.21479
# Poissons Ratio (z) = 0.56069 -0.19680
#
# Static dielectric constant tensor:
#      x y z
#    x 0.595500 0.388780 -0.056260 
#    y 0.388780 1.796190 -0.012800 
#    z -0.056260 -0.012800 1.936980 
# 
# From -- ./inp_files/328701.got.cif
#   From: 2010.05.17/outbox.cif.g08.bks.cpg/sg2_165_cif.got.tgz:328701.got - 2010.06.03 11:33:40.
