data_PCOD9050585
_publ_section_title
;
Structure prediction by ZEFSAII (Michael W. Deem and Ramdas Pophale) SiO2 
 PCOD9050585
Probable space group: P -1
;
_chemical_formula_sum "Si O2"
_cell_formula_units_Z 16
_cell_length_a 6.588064
_cell_length_b 11.984117
_cell_length_c 10.500706
_cell_angle_alpha 117.115357
_cell_angle_beta 108.424848
_cell_angle_gamma 77.065291
_cell_volume 696.973527
_symmetry_space_group_name_H-M "P -1"
_symmetry_group_IT_number 2
_symmetry_cell_setting 'triclinic'
loop_
_space_group_symop_operation_xyz
x,y,z
-x,-y,-z
loop_
_atom_site_type_symbol
_atom_site_label
_atom_site_fract_x
_atom_site_fract_y
_atom_site_fract_z
Si Si1 0.756499 0.466862 0.396376
Si Si2 0.208553 0.122781 0.369425
Si Si3 0.023147 0.242195 0.649186
Si Si4 0.076398 0.474397 0.185833
Si Si5 0.674709 0.419356 0.914025
Si Si6 0.852738 0.163219 0.828419
Si Si7 0.444227 0.702230 0.514195
Si Si8 0.036778 0.739960 0.827521
O O1 0.613645 0.598733 0.425896
O O2 0.654055 0.381384 0.438188
O O3 0.000000 0.500000 0.500000
O O4 0.779288 0.372533 0.230716
O O5 0.415113 0.180405 0.380916
O O6 0.017450 0.181237 0.268578
O O7 0.161112 0.168307 0.528829
O O8 0.215191 0.973692 0.283849
O O9 0.043378 0.392722 0.722666
O O10 0.031096 0.194664 0.772954
O O11 0.771912 0.237352 0.564235
O O12 0.281811 0.515136 0.175566
O O13 0.145416 0.355437 0.226492
O O14 0.907801 0.420971 0.028537
O O15 0.654148 0.271683 0.827540
O O16 0.500000 0.500000 0.000000
O O17 0.925133 0.177194 0.997923
#
# Coordination Sequence:
#
# PCOD9050585 Si02
#       8
#     2   2   2   2   2   2   2   2
#     4  11  21  41  68 104 131 167 218 277 336 386
#     4  12  24  44  66  91 136 182 225 266 324 401
#     4  11  23  43  67  95 132 177 223 276 331 391
#     4   9  20  35  62  99 123 157 217 272 329 381
#     4   9  19  41  64  89 129 168 211 268 334 388
#     4  10  25  43  65  95 134 181 221 268 333 397
#     4  11  23  38  70 101 128 169 227 273 325 395
#     4  11  21  42  68  94 132 175 211 279 334 384
#
# _framework density 22.956392000000001
#
# number of rings (size 3 to 8) (size 9 to 14) (size 15 to 20)
#    0.000    1.500    2.500    3.000    1.750    6.500 
#    0.000    5.625    0.000    0.000    0.000    0.000 
#    0.000    0.000    0.000    0.000    0.000    0.000 
#
# Total GULP energy -89249.374663 kJ/mol
# GULP energy per Si atom -5578.085916 kJ/mol
# Density = 2.290414 g / cm^3
# Si number density = 22.956392 Si / 1000 Ang^3
#
#
#
# Elastic Constant Matrix: (Units=GPa)
#
#
# Indices 1 2 3 4 5 6 
#
# 1 82.0638 27.9280 30.5211 11.2795 -10.0546 13.1397
# 2 27.9280 116.5851 40.1606 36.1352 -12.4410 22.1185
# 3 30.5211 40.1606 123.1457 21.0710 -20.1713 19.7656
# 4 11.2795 36.1352 21.0710 50.0002 1.3227 2.5666
# 5 -10.0546 -12.4410 -20.1713 1.3227 38.5035 -4.8847
# 6 13.1397 22.1185 19.7656 2.5666 -4.8847 25.1762
#
#
#
# Elastic Compliance Matrix: (Units=1/GPa)
#
#
# Indices 1 2 3 4 5 6 
#
# 1 0.014465 -0.001393 -0.001920 -0.001273 0.001815 -0.004337
# 2 -0.001393 0.014142 -0.000655 -0.009212 0.002952 -0.009671
# 3 -0.001920 -0.000655 0.011106 -0.003589 0.004479 -0.005907
# 4 -0.001273 -0.009212 -0.003589 0.028199 -0.005182 0.007695
# 5 0.001815 0.002952 0.004479 -0.005182 0.029830 -0.000742
# 6 -0.004337 -0.009671 -0.005907 0.007695 -0.000742 0.054189
#
#
# Mechanical properties :
#
#
# Convention : Reuss Voigt Hill
#
# Bulk Modulus (GPa) = 31.46796 57.66822 44.56809
# Shear Modulus (GPa) = 29.33268 37.61496 33.47382
#
# Velocity S-wave (km/s) = 3.57845 4.05228 3.82271
# Velocity P-wave (km/s) = 5.55078 6.86075 6.24024
#
# Compressibility (1/GPa) = 0.03177836
#
# Stress axis : x y z
#
# Youngs Moduli (GPa) = 69.13048 70.71328 90.04406
#
# Poissons Ratio (x) = 0.09849 0.17286
# Poissons Ratio (y) = 0.09629 0.05894
# Poissons Ratio (z) = 0.13271 0.04629
#
# Static dielectric constant tensor:
#      x y z
#    x 1.902120 0.043280 -0.023180 
#    y 0.043280 1.930580 -0.092220 
#    z -0.023180 -0.092220 1.989220 
# 
# From -- ./inp_files/365288.got.cif
#   From: 2010.05.17/outbox.cif.g08.bks.cpg/sg2_183_cif.got.tgz:365288.got - 2010.06.03 11:33:40.
