data_PCOD9050545
_publ_section_title
;
Structure prediction by ZEFSAII (Michael W. Deem and Ramdas Pophale) SiO2 
 PCOD9050545
Probable space group: P -1
;
_chemical_formula_sum "Si O2"
_cell_formula_units_Z 14
_cell_length_a 13.639430
_cell_length_b 8.566151
_cell_length_c 11.323519
_cell_angle_alpha 116.685210
_cell_angle_beta 31.953396
_cell_angle_gamma 105.195851
_cell_volume 605.490513
_symmetry_space_group_name_H-M "P -1"
_symmetry_group_IT_number 2
_symmetry_cell_setting 'triclinic'
loop_
_space_group_symop_operation_xyz
x,y,z
-x,-y,-z
loop_
_atom_site_type_symbol
_atom_site_label
_atom_site_fract_x
_atom_site_fract_y
_atom_site_fract_z
Si Si1 0.364743 0.691271 0.239910
Si Si2 0.808498 0.556536 0.028029
Si Si3 0.011252 0.660911 0.454142
Si Si4 0.611764 0.948193 0.989842
Si Si5 0.902884 0.887346 0.151519
Si Si6 0.257479 0.773950 0.883185
Si Si7 0.403469 0.790596 0.472822
O O1 0.185484 0.734653 0.351092
O O2 0.306296 0.691550 0.437463
O O3 0.500000 0.500000 0.000000
O O4 0.488107 0.836106 0.149230
O O5 0.917706 0.684257 0.027411
O O6 0.730155 0.425053 0.149350
O O7 0.627286 0.695752 0.200323
O O8 0.934402 0.429354 0.758805
O O9 0.000000 0.500000 0.500000
O O10 0.816795 0.813868 0.707668
O O11 0.500000 0.000000 0.000000
O O12 0.644436 0.115085 0.089419
O O13 0.682457 0.000306 0.405720
O O14 0.030471 0.874529 0.133903
O O15 0.000000 0.000000 0.000000
O O16 0.344392 0.768357 0.660665
#
# Coordination Sequence:
#
# PCOD9050545 Si02
#       7
#     2   2   2   2   2   2   2
#     4  12  25  46  77 112 146 199 249 301 373 438
#     4  12  25  47  72 109 147 197 243 303 381 430
#     4  12  27  47  80 108 150 194 256 305 363 453
#     4  12  29  50  75 112 150 196 251 310 376 439
#     4  10  25  42  72 108 142 189 244 303 364 437
#     4  11  27  48  71 107 151 190 246 309 375 441
#     4  11  25  44  76 105 148 187 252 301 367 441
#
# _framework density 23.121748
#
# number of rings (size 3 to 8) (size 9 to 14) (size 15 to 20)
#    0.000    0.571    2.857    3.000   14.000    3.429 
#    2.571    0.000    0.000    0.000    0.000    0.000 
#    0.000    0.000    0.000    0.000    0.000    0.000 
#
# Total GULP energy -78346.081020 kJ/mol
# GULP energy per Si atom -5596.148644 kJ/mol
# Density = 2.306912 g / cm^3
# Si number density = 23.121748 Si / 1000 Ang^3
#
#
#
# Elastic Constant Matrix: (Units=GPa)
#
#
# Indices 1 2 3 4 5 6 
#
# 1 165.9516 76.3472 50.6380 6.7775 6.3985 12.3365
# 2 76.3472 125.8025 38.8644 2.3119 5.2971 26.8787
# 3 50.6380 38.8644 116.0482 12.3596 7.7154 4.0637
# 4 6.7775 2.3119 12.3596 28.1173 -0.8830 -5.3253
# 5 6.3985 5.2971 7.7154 -0.8830 59.3078 8.1117
# 6 12.3365 26.8787 4.0637 -5.3253 8.1117 42.0781
#
#
#
# Elastic Compliance Matrix: (Units=1/GPa)
#
#
# Indices 1 2 3 4 5 6 
#
# 1 0.008918 -0.004852 -0.002196 -0.000668 -0.000346 0.000679
# 2 -0.004852 0.012941 -0.001984 -0.000292 0.000551 -0.006795
# 3 -0.002196 -0.001984 0.010713 -0.003939 -0.001119 0.000594
# 4 -0.000668 -0.000292 -0.003939 0.038548 0.000424 0.005559
# 5 -0.000346 0.000551 -0.001119 0.000424 0.017474 -0.003457
# 6 0.000679 -0.006795 0.000594 0.005559 -0.003457 0.029220
#
#
# Mechanical properties :
#
#
# Convention : Reuss Voigt Hill
#
# Bulk Modulus (GPa) = 68.93208 82.16683 75.54945
# Shear Modulus (GPa) = 35.53286 42.03080 38.78183
#
# Velocity S-wave (km/s) = 3.92442 4.26820 4.09991
# Velocity P-wave (km/s) = 7.10015 7.73975 7.42684
#
# Compressibility (1/GPa) = 0.01450703
#
# Stress axis : x y z
#
# Youngs Moduli (GPa) = 112.12748 77.27589 93.34357
#
# Poissons Ratio (x) = 0.37496 0.20501
# Poissons Ratio (y) = 0.54406 0.18520
# Poissons Ratio (z) = 0.24626 0.15332
#
# Static dielectric constant tensor:
#      x y z
#    x 1.903070 0.018220 -0.005870 
#    y 0.018220 1.866800 -0.004730 
#    z -0.005870 -0.004730 1.934150 
# 
# From -- ./inp_files/447725.got.cif
#   From: 2010.05.17/outbox.cif.g08.bks.cpg/sg2_224_cif.got.tgz:447725.got - 2010.06.03 11:33:40.
