data_PCOD9050880
_publ_section_title
;
Structure prediction by ZEFSAII (Michael W. Deem and Ramdas Pophale) SiO2 
 PCOD9050880
Probable space group: P -1
;
_chemical_formula_sum "Si O2"
_cell_formula_units_Z 16
_cell_length_a 12.799326
_cell_length_b 8.401836
_cell_length_c 15.356957
_cell_angle_alpha 115.639421
_cell_angle_beta 116.583619
_cell_angle_gamma 118.145228
_cell_volume 751.941038
_symmetry_space_group_name_H-M "P -1"
_symmetry_group_IT_number 2
_symmetry_cell_setting 'triclinic'
loop_
_space_group_symop_operation_xyz
x,y,z
-x,-y,-z
loop_
_atom_site_type_symbol
_atom_site_label
_atom_site_fract_x
_atom_site_fract_y
_atom_site_fract_z
Si Si1 0.672766 0.068258 0.857128
Si Si2 0.445239 0.129216 0.539289
Si Si3 0.966126 0.226110 0.779839
Si Si4 0.299147 0.263021 0.307552
Si Si5 0.882529 0.828304 0.324524
Si Si6 0.858611 0.151648 0.286990
Si Si7 0.448802 0.138501 0.040741
Si Si8 0.684310 0.121949 0.378568
O O1 0.727621 0.955757 0.803323
O O2 0.596016 0.921032 0.888895
O O3 0.482137 0.929126 0.706079
O O4 0.864803 0.440716 0.031283
O O5 0.637912 0.497724 0.674929
O O6 0.500000 0.000000 0.500000
O O7 0.242625 0.930994 0.361185
O O8 0.384414 0.063678 0.603238
O O9 0.048717 0.253475 0.726033
O O10 0.897223 0.978728 0.758718
O O11 0.500000 0.500000 0.500000
O O12 0.644767 0.502991 0.180350
O O13 0.911728 0.032229 0.321906
O O14 0.000000 0.000000 0.500000
O O15 0.700402 0.040173 0.272981
O O16 0.077324 0.520447 0.440550
O O17 0.739569 0.016875 0.120570
O O18 0.500000 0.000000 0.000000
#
# Coordination Sequence:
#
# PCOD9050880 Si02
#       8
#     2   2   2   2   2   2   2   2
#     4  12  24  45  73  98 140 184 227 287 344 417
#     4  11  25  44  69  99 135 175 233 290 341 414
#     4  11  24  47  69  99 141 181 231 283 348 406
#     4  10  25  44  70  98 128 181 232 279 343 410
#     4  12  26  41  72 104 141 184 231 281 344 417
#     4  11  25  41  67 102 143 180 227 281 339 421
#     4  12  24  45  65 103 143 180 226 281 349 404
#     4  11  23  41  68 101 137 179 228 277 350 402
#
# _framework density 21.278265000000001
#
# number of rings (size 3 to 8) (size 9 to 14) (size 15 to 20)
#    0.000    0.750    2.500    4.500   12.250    0.000 
#    0.000    1.250    0.000    0.000    0.000    0.000 
#    0.000    0.000    0.000    0.000    0.000    0.000 
#
# Total GULP energy -89427.668003 kJ/mol
# GULP energy per Si atom -5589.229250 kJ/mol
# Density = 2.122984 g / cm^3
# Si number density = 21.278265 Si / 1000 Ang^3
#
#
#
# Elastic Constant Matrix: (Units=GPa)
#
#
# Indices 1 2 3 4 5 6 
#
# 1 53.1706 21.6790 17.1980 2.2674 -2.9307 3.8499
# 2 21.6790 140.5208 19.1737 4.2847 -3.0559 19.3245
# 3 17.1980 19.1737 63.3207 -3.9152 -7.0866 7.9296
# 4 2.2674 4.2847 -3.9152 39.0858 -3.5692 5.9749
# 5 -2.9307 -3.0559 -7.0866 -3.5692 29.6454 -2.6909
# 6 3.8499 19.3245 7.9296 5.9749 -2.6909 34.4752
#
#
#
# Elastic Compliance Matrix: (Units=1/GPa)
#
#
# Indices 1 2 3 4 5 6 
#
# 1 0.021613 -0.002648 -0.005178 -0.001523 0.000494 0.000564
# 2 -0.002648 0.008259 -0.001313 -0.000284 -0.000121 -0.003992
# 3 -0.005178 -0.001313 0.018630 0.003157 0.003895 -0.003214
# 4 -0.001523 -0.000284 0.003157 0.027068 0.003396 -0.004823
# 5 0.000494 -0.000121 0.003895 0.003396 0.035224 0.001278
# 6 0.000564 -0.003992 -0.003214 -0.004823 0.001278 0.032856
#
#
# Mechanical properties :
#
#
# Convention : Reuss Voigt Hill
#
# Bulk Modulus (GPa) = 33.08573 41.45706 37.27139
# Shear Modulus (GPa) = 29.06921 33.90536 31.48728
#
# Velocity S-wave (km/s) = 3.70015 3.99611 3.85097
# Velocity P-wave (km/s) = 5.81701 6.38885 6.10963
#
# Compressibility (1/GPa) = 0.03022451
#
# Stress axis : x y z
#
# Youngs Moduli (GPa) = 46.26787 121.07850 53.67670
#
# Poissons Ratio (x) = 0.32066 0.27793
# Poissons Ratio (y) = 0.12253 0.07046
# Poissons Ratio (z) = 0.23957 0.15895
#
# Static dielectric constant tensor:
#      x y z
#    x 1.838190 0.027640 -0.031480 
#    y 0.027640 1.761720 0.004860 
#    z -0.031480 0.004860 1.728780 
# 
# From -- ./inp_files/333067.got.cif
#   From: 2010.05.17/outbox.cif.g08.bks.cpg/sg2_167_cif.got.tgz:333067.got - 2010.06.03 11:33:40.
