data_PCOD9050089
_publ_section_title
;
Structure prediction by ZEFSAII (Michael W. Deem and Ramdas Pophale) SiO2 
 PCOD9050089
Probable space group: P -1
;
_chemical_formula_sum "Si O2"
_cell_formula_units_Z 12
_cell_length_a 10.361569
_cell_length_b 5.001470
_cell_length_c 9.828281
_cell_angle_alpha 77.717041
_cell_angle_beta 62.264510
_cell_angle_gamma 103.158609
_cell_volume 407.864013
_symmetry_space_group_name_H-M "P -1"
_symmetry_group_IT_number 2
_symmetry_cell_setting 'triclinic'
loop_
_space_group_symop_operation_xyz
x,y,z
-x,-y,-z
loop_
_atom_site_type_symbol
_atom_site_label
_atom_site_fract_x
_atom_site_fract_y
_atom_site_fract_z
Si Si1 0.234370 0.638147 0.392471
Si Si2 0.448758 0.097761 0.656101
Si Si3 0.973215 0.704538 0.700948
Si Si4 0.244924 0.519607 0.931931
Si Si5 0.881753 0.819762 0.199332
Si Si6 0.384415 0.164334 0.067639
O O1 0.149315 0.372735 0.357666
O O2 0.399082 0.655205 0.374500
O O3 0.115623 0.637389 0.570896
O O4 0.270460 0.941745 0.257457
O O5 0.500000 0.000000 0.500000
O O6 0.293514 0.170044 0.706485
O O7 0.397567 0.811691 0.809111
O O8 0.038360 0.014035 0.718159
O O9 0.868984 0.471797 0.890957
O O10 0.286642 0.238226 0.985797
O O11 0.168102 0.492376 0.823731
O O12 0.000000 0.000000 0.000000
O O13 0.500000 0.500000 0.000000
O O14 0.500000 0.000000 0.000000
#
# Coordination Sequence:
#
# PCOD9050089 Si02
#       6
#     2   2   2   2   2   2
#     4  11  24  47  79 119 162 212 279 340 411 499
#     4  12  25  49  82 116 158 213 279 339 407 499
#     4  10  24  49  74 120 165 214 265 345 421 494
#     4  11  26  46  79 116 157 214 273 341 416 501
#     4  10  24  48  75 114 158 208 267 338 416 494
#     4  12  25  47  82 120 164 214 276 353 418 499
#
# _framework density 29.421572000000001
#
# number of rings (size 3 to 8) (size 9 to 14) (size 15 to 20)
#    0.000    1.000    3.333    2.000    2.333    4.000 
#    3.000    2.500    0.000    0.000    0.000    0.000 
#    0.000    0.000    0.000    0.000    0.000    0.000 
#
# Total GULP energy -67176.219866 kJ/mol
# GULP energy per Si atom -5598.018322 kJ/mol
# Density = 2.935461 g / cm^3
# Si number density = 29.421572 Si / 1000 Ang^3
#
#
#
# Elastic Constant Matrix: (Units=GPa)
#
#
# Indices 1 2 3 4 5 6 
#
# 1 229.0570 64.1167 73.4825 19.6218 -17.5860 49.3588
# 2 64.1167 142.1333 71.8557 19.9494 7.4921 35.9231
# 3 73.4825 71.8557 226.6614 33.5032 11.5378 4.6135
# 4 19.6218 19.9494 33.5032 55.8295 -4.3948 12.3446
# 5 -17.5860 7.4921 11.5378 -4.3948 64.8956 9.5420
# 6 49.3588 35.9231 4.6135 12.3446 9.5420 86.7122
#
#
#
# Elastic Compliance Matrix: (Units=1/GPa)
#
#
# Indices 1 2 3 4 5 6 
#
# 1 0.006130 -0.001277 -0.001682 0.000220 0.002591 -0.003187
# 2 -0.001277 0.009773 -0.002446 -0.000969 -0.000667 -0.002981
# 3 -0.001682 -0.002446 0.006207 -0.002900 -0.001804 0.002252
# 4 0.000220 -0.000969 -0.002900 0.020736 0.002503 -0.002797
# 5 0.002591 -0.000667 -0.001804 0.002503 0.017171 -0.003348
# 6 -0.003187 -0.002981 0.002252 -0.002797 -0.003348 0.015228
#
#
# Mechanical properties :
#
#
# Convention : Reuss Voigt Hill
#
# Bulk Modulus (GPa) = 88.49963 112.97350 100.73657
# Shear Modulus (GPa) = 55.66584 67.38059 61.52321
#
# Velocity S-wave (km/s) = 4.35444 4.79077 4.57781
# Velocity P-wave (km/s) = 7.44491 8.31165 7.89019
#
# Compressibility (1/GPa) = 0.01129948
#
# Stress axis : x y z
#
# Youngs Moduli (GPa) = 163.14457 102.32507 161.09933
#
# Poissons Ratio (x) = 0.13063 0.27096
# Poissons Ratio (y) = 0.20828 0.39413
# Poissons Ratio (z) = 0.27440 0.25034
#
# Static dielectric constant tensor:
#      x y z
#    x 2.549670 0.033420 0.064180 
#    y 0.033420 2.295080 -0.016300 
#    z 0.064180 -0.016300 2.207400 
# 
# From -- ./inp_files/23411.got.cif
#   From: 2010.05.17/outbox.cif.g08.bks.cpg/sg2_12_cif.got.tgz:23411.got - 2010.06.03 11:33:40.
