data_PCOD9050730
_publ_section_title
;
Structure prediction by ZEFSAII (Michael W. Deem and Ramdas Pophale) SiO2 
 PCOD9050730
Probable space group: P -1
;
_chemical_formula_sum "Si O2"
_cell_formula_units_Z 16
_cell_length_a 9.066198
_cell_length_b 20.313899
_cell_length_c 11.607647
_cell_angle_alpha 27.814830
_cell_angle_beta 47.693299
_cell_angle_gamma 38.671774
_cell_volume 622.193777
_symmetry_space_group_name_H-M "P -1"
_symmetry_group_IT_number 2
_symmetry_cell_setting 'triclinic'
loop_
_space_group_symop_operation_xyz
x,y,z
-x,-y,-z
loop_
_atom_site_type_symbol
_atom_site_label
_atom_site_fract_x
_atom_site_fract_y
_atom_site_fract_z
Si Si1 0.866249 0.912510 0.244866
Si Si2 0.024709 0.536612 0.229572
Si Si3 0.289784 0.522027 0.649424
Si Si4 0.090045 0.183446 0.400746
Si Si5 0.389437 0.950505 0.411776
Si Si6 0.704877 0.105454 0.706133
Si Si7 0.687802 0.626047 0.898122
Si Si8 0.162167 0.248793 0.790050
O O1 0.776758 0.960784 0.349221
O O2 0.626311 0.948269 0.258613
O O3 0.069644 0.714539 0.451991
O O4 0.000000 0.000000 0.000000
O O5 0.084415 0.378078 0.525359
O O6 0.786543 0.588714 0.207599
O O7 0.989110 0.666478 0.145619
O O8 0.200326 0.484003 0.108167
O O9 0.500000 0.500000 0.500000
O O10 0.365737 0.457883 0.839216
O O11 0.834873 0.203350 0.506690
O O12 0.142905 0.321144 0.207576
O O13 0.200667 0.114439 0.325596
O O14 0.298066 0.919248 0.390919
O O15 0.474910 0.796219 0.692963
O O16 0.434449 0.194206 0.753340
O O17 0.842194 0.916456 0.975854
#
# Coordination Sequence:
#
# PCOD9050730 Si02
#       8
#     2   2   2   2   2   2   2   2
#     4  11  26  44  72 106 144 186 247 305 366 437
#     4  11  23  47  72 104 149 202 235 308 382 431
#     4  12  28  42  75 109 144 189 246 310 379 438
#     4  11  26  41  74 108 148 192 249 304 370 434
#     4  11  24  46  71 105 153 201 241 309 367 439
#     4  11  24  44  72 113 148 199 256 298 364 442
#     4  11  24  48  72 107 154 190 250 306 375 445
#     4  10  25  43  76 105 154 198 251 302 367 446
#
# _framework density 25.715461999999999
#
# number of rings (size 3 to 8) (size 9 to 14) (size 15 to 20)
#    0.000    1.000    3.750    2.250   12.250    0.000 
#    0.000    0.000    5.500    4.500    0.000    0.000 
#    0.000    0.000    0.000    0.000    0.000    0.000 
#
# Total GULP energy -89431.321530 kJ/mol
# GULP energy per Si atom -5589.457596 kJ/mol
# Density = 2.565693 g / cm^3
# Si number density = 25.715462 Si / 1000 Ang^3
#
#
#
# Elastic Constant Matrix: (Units=GPa)
#
#
# Indices 1 2 3 4 5 6 
#
# 1 93.9540 18.4294 34.9913 2.0963 2.3670 30.7671
# 2 18.4294 121.4865 42.0522 18.5050 -4.7847 33.6172
# 3 34.9913 42.0522 159.5826 18.7718 10.1588 15.8128
# 4 2.0963 18.5050 18.7718 36.3200 10.9303 6.4427
# 5 2.3670 -4.7847 10.1588 10.9303 41.1181 10.7614
# 6 30.7671 33.6172 15.8128 6.4427 10.7614 42.5602
#
#
#
# Elastic Compliance Matrix: (Units=1/GPa)
#
#
# Indices 1 2 3 4 5 6 
#
# 1 0.015385 0.002222 -0.003001 0.000814 0.003222 -0.012700
# 2 0.002222 0.013148 -0.002560 -0.005373 0.006575 -0.011889
# 3 -0.003001 -0.002560 0.007786 -0.002329 -0.001994 0.002156
# 4 0.000814 -0.005373 -0.002329 0.033999 -0.009606 0.001803
# 5 0.003222 0.006575 -0.001994 -0.009606 0.031420 -0.013272
# 6 -0.012700 -0.011889 0.002156 0.001803 -0.013272 0.044350
#
#
# Mechanical properties :
#
#
# Convention : Reuss Voigt Hill
#
# Bulk Modulus (GPa) = 33.73806 62.88542 48.31174
# Shear Modulus (GPa) = 30.74155 42.63635 36.68895
#
# Velocity S-wave (km/s) = 3.46128 4.07628 3.78130
# Velocity P-wave (km/s) = 5.39650 6.83097 6.15566
#
# Compressibility (1/GPa) = 0.02964012
#
# Stress axis : x y z
#
# Youngs Moduli (GPa) = 64.99866 76.05787 128.42884
#
# Poissons Ratio (x) = -0.16901 0.38547
# Poissons Ratio (y) = -0.14444 0.32881
# Poissons Ratio (z) = 0.19509 0.19473
#
# Static dielectric constant tensor:
#      x y z
#    x 2.016720 0.026360 0.031760 
#    y 0.026360 2.098180 -0.037480 
#    z 0.031760 -0.037480 2.106980 
# 
# From -- ./inp_files/405249.got.cif
#   From: 2010.05.17/outbox.cif.g08.bks.cpg/sg2_203_cif.got.tgz:405249.got - 2010.06.03 11:33:40.
