data_PCOD9050842
_publ_section_title
;
Structure prediction by ZEFSAII (Michael W. Deem and Ramdas Pophale) SiO2 
 PCOD9050842
Probable space group: P -1
;
_chemical_formula_sum "Si O2"
_cell_formula_units_Z 11
_cell_length_a 16.654321
_cell_length_b 4.745448
_cell_length_c 6.359432
_cell_angle_alpha 77.725754
_cell_angle_beta 125.110093
_cell_angle_gamma 110.208464
_cell_volume 385.778113
_symmetry_space_group_name_H-M "P -1"
_symmetry_group_IT_number 2
_symmetry_cell_setting 'triclinic'
loop_
_space_group_symop_operation_xyz
x,y,z
-x,-y,-z
loop_
_atom_site_type_symbol
_atom_site_label
_atom_site_fract_x
_atom_site_fract_y
_atom_site_fract_z
Si Si1 0.551214 0.677250 0.752328
Si Si2 0.500000 0.000000 0.000000
Si Si3 0.312365 0.679865 0.798538
Si Si4 0.953280 0.299130 0.262650
Si Si5 0.229425 0.176652 0.047421
Si Si6 0.859393 0.662707 0.724526
O O1 0.500000 0.500000 0.500000
O O2 0.489484 0.865725 0.753032
O O3 0.576125 0.403166 0.976526
O O4 0.662208 0.879860 0.816071
O O5 0.374276 0.022360 0.810182
O O6 0.253810 0.519038 0.942411
O O7 0.235021 0.537123 0.521108
O O8 0.000000 0.500000 0.500000
O O9 0.043244 0.197074 0.297599
O O10 0.856343 0.019614 0.202218
O O11 0.908422 0.487011 0.996793
O O12 0.186335 0.132681 0.223960
#
# Coordination Sequence:
#
# PCOD9050842 Si02
#       6
#     2   1   2   2   2   2
#     4  10  25  46  70 108 141 187 244 293 360 431
#     4  12  24  46  78 102 146 194 236 306 362 424
#     4  10  26  43  71 108 141 186 243 295 358 428
#     4  11  26  44  71 106 139 189 241 284 360 436
#     4  10  25  44  69 103 146 182 236 301 349 429
#     4  11  24  45  70 101 144 185 235 293 361 421
#
# _framework density 28.513802999999999
#
# number of rings (size 3 to 8) (size 9 to 14) (size 15 to 20)
#    1.091    0.364    0.000    3.273    5.091    9.455 
#    0.000    0.000    0.000    0.000    0.000    0.000 
#    0.000    0.000    0.000    0.000    0.000    0.000 
#
# Total GULP energy -61410.175591 kJ/mol
# GULP energy per Si atom -5582.743236 kJ/mol
# Density = 2.844890 g / cm^3
# Si number density = 28.513803 Si / 1000 Ang^3
#
#
#
# Elastic Constant Matrix: (Units=GPa)
#
#
# Indices 1 2 3 4 5 6 
#
# 1 222.7599 49.6173 69.1995 37.7049 -3.6646 17.4456
# 2 49.6173 117.5519 54.5759 24.7661 9.4549 5.2277
# 3 69.1995 54.5759 192.1697 28.9889 28.3571 1.4839
# 4 37.7049 24.7661 28.9889 57.9776 -3.1657 22.7781
# 5 -3.6646 9.4549 28.3571 -3.1657 51.9318 27.9684
# 6 17.4456 5.2277 1.4839 22.7781 27.9684 49.1791
#
#
#
# Elastic Compliance Matrix: (Units=1/GPa)
#
#
# Indices 1 2 3 4 5 6 
#
# 1 0.005970 -0.001577 -0.002246 -0.000238 0.004144 -0.004129
# 2 -0.001577 0.010881 -0.001335 -0.004559 -0.003572 0.003586
# 3 -0.002246 -0.001335 0.008886 -0.006821 -0.010445 0.009770
# 4 -0.000238 -0.004559 -0.006821 0.034756 0.021492 -0.027545
# 5 0.004144 -0.003572 -0.010445 0.021492 0.047557 -0.037775
# 6 -0.004129 0.003586 0.009770 -0.027545 -0.037775 0.055363
#
#
# Mechanical properties :
#
#
# Convention : Reuss Voigt Hill
#
# Bulk Modulus (GPa) = 64.84326 97.69633 81.26980
# Shear Modulus (GPa) = 27.95361 55.75695 41.85528
#
# Velocity S-wave (km/s) = 3.13446 4.42683 3.83547
# Velocity P-wave (km/s) = 5.99084 7.77601 6.94105
#
# Compressibility (1/GPa) = 0.01542180
#
# Stress axis : x y z
#
# Youngs Moduli (GPa) = 167.51402 91.90677 112.53113
#
# Poissons Ratio (x) = 0.14492 0.25269
# Poissons Ratio (y) = 0.26413 0.15024
# Poissons Ratio (z) = 0.37616 0.12271
#
# Static dielectric constant tensor:
#      x y z
#    x 2.283510 0.078410 -0.015300 
#    y 0.078410 2.539960 -0.067270 
#    z -0.015300 -0.067270 2.252720 
# 
# From -- ./inp_files/102224.got.cif
#   From: 2010.05.17/outbox.cif.g08.bks.cpg/sg2_52_cif.got.tgz:102224.got - 2010.06.03 11:33:40.
