data_PCOD9050461
_publ_section_title
;
Structure prediction by ZEFSAII (Michael W. Deem and Ramdas Pophale) SiO2 
 PCOD9050461
Probable space group: P -1
;
_chemical_formula_sum "Si O2"
_cell_formula_units_Z 15
_cell_length_a 8.548146
_cell_length_b 9.398030
_cell_length_c 7.932757
_cell_angle_alpha 101.155707
_cell_angle_beta 114.899473
_cell_angle_gamma 90.166363
_cell_volume 564.570707
_symmetry_space_group_name_H-M "P -1"
_symmetry_group_IT_number 2
_symmetry_cell_setting 'triclinic'
loop_
_space_group_symop_operation_xyz
x,y,z
-x,-y,-z
loop_
_atom_site_type_symbol
_atom_site_label
_atom_site_fract_x
_atom_site_fract_y
_atom_site_fract_z
Si Si1 0.152801 0.414434 0.476522
Si Si2 0.681271 0.118447 0.263440
Si Si3 0.369180 0.215208 0.937688
Si Si4 0.955833 0.888041 0.609303
Si Si5 0.433960 0.657949 0.242659
Si Si6 0.852249 0.604359 0.910878
Si Si7 0.500000 0.500000 0.500000
Si Si8 0.691258 0.082287 0.630565
O O1 0.144947 0.261847 0.537861
O O2 0.112192 0.356205 0.255440
O O3 0.327018 0.522017 0.554068
O O4 0.000000 0.500000 0.500000
O O5 0.514964 0.188173 0.136475
O O6 0.731754 0.156683 0.485875
O O7 0.858142 0.148629 0.246315
O O8 0.647754 0.941445 0.197749
O O9 0.198085 0.269134 0.959550
O O10 0.454474 0.334417 0.871619
O O11 0.832944 0.969879 0.695541
O O12 0.000000 0.000000 0.500000
O O13 0.332603 0.500202 0.205043
O O14 0.523498 0.668968 0.469542
O O15 0.313878 0.788934 0.208230
O O16 0.000000 0.500000 0.000000
O O17 0.500000 0.000000 0.500000
#
# Coordination Sequence:
#
# PCOD9050461 Si02
#       8
#     2   2   2   2   2   2   1   2
#     4  11  27  47  75 108 145 194 249 310 371 434
#     4  10  25  43  72 103 138 192 237 311 362 447
#     4  11  25  48  69 101 150 190 244 295 389 446
#     4  10  25  41  72 109 140 188 243 313 368 431
#     4  11  25  44  72 102 137 199 237 310 367 439
#     4  11  29  45  69 104 145 192 242 299 376 455
#     4  10  26  44  74 104 142 190 252 302 364 438
#     4  11  22  42  72 103 142 177 252 300 365 429
#
# _framework density 26.568857999999999
#
# number of rings (size 3 to 8) (size 9 to 14) (size 15 to 20)
#    0.000    1.333    1.333    1.200   20.533    0.000 
#    0.000    1.333    0.000    0.000    0.000    0.000 
#    0.000    0.000    0.000    0.000    0.000    0.000 
#
# Total GULP energy -83584.745015 kJ/mol
# GULP energy per Si atom -5572.316334 kJ/mol
# Density = 2.650839 g / cm^3
# Si number density = 26.568858 Si / 1000 Ang^3
#
#
#
# Elastic Constant Matrix: (Units=GPa)
#
#
# Indices 1 2 3 4 5 6 
#
# 1 176.7865 46.7108 20.0043 -11.4840 -23.3347 -21.2130
# 2 46.7108 129.4631 16.3457 -4.6055 -20.4413 -1.3269
# 3 20.0043 16.3457 63.4159 -8.9236 -21.7092 -9.3171
# 4 -11.4840 -4.6055 -8.9236 33.3830 -5.1379 -4.0899
# 5 -23.3347 -20.4413 -21.7092 -5.1379 41.7401 1.9503
# 6 -21.2130 -1.3269 -9.3171 -4.0899 1.9503 69.4510
#
#
#
# Elastic Compliance Matrix: (Units=1/GPa)
#
#
# Indices 1 2 3 4 5 6 
#
# 1 0.007045 -0.001903 0.000165 0.002993 0.003357 0.002219
# 2 -0.001903 0.009011 -0.000595 0.000853 0.003169 -0.000528
# 3 0.000165 -0.000595 0.021470 0.007903 0.011797 0.003053
# 4 0.002993 0.000853 0.007903 0.035274 0.010367 0.003777
# 5 0.003357 0.003169 0.011797 0.010367 0.034691 0.002305
# 6 0.002219 -0.000528 0.003053 0.003777 0.002305 0.015634
#
#
# Mechanical properties :
#
#
# Convention : Reuss Voigt Hill
#
# Bulk Modulus (GPa) = 30.43344 59.53189 44.98267
# Shear Modulus (GPa) = 36.03769 48.02181 42.02975
#
# Velocity S-wave (km/s) = 3.68691 4.25602 3.98165
# Velocity P-wave (km/s) = 5.44094 6.82692 6.17296
#
# Compressibility (1/GPa) = 0.03285859
#
# Stress axis : x y z
#
# Youngs Moduli (GPa) = 141.95245 110.97092 46.57743
#
# Poissons Ratio (x) = 0.21121 -0.00767
# Poissons Ratio (y) = 0.27018 0.02771
# Poissons Ratio (z) = -0.02339 0.06602
#
# Static dielectric constant tensor:
#      x y z
#    x 2.285760 -0.075030 0.018080 
#    y -0.075030 2.196870 0.005860 
#    z 0.018080 0.005860 1.782730 
# 
# From -- ./inp_files/155575.got.cif
#   From: 2010.05.17/outbox.cif.g08.bks.cpg/sg2_78_cif.got.tgz:155575.got - 2010.06.03 11:33:40.
