data_PCOD9050675
_publ_section_title
;
Structure prediction by ZEFSAII (Michael W. Deem and Ramdas Pophale) SiO2 
 PCOD9050675
Probable space group: P -1
;
_chemical_formula_sum "Si O2"
_cell_formula_units_Z 16
_cell_length_a 6.227727
_cell_length_b 11.482911
_cell_length_c 13.454376
_cell_angle_alpha 53.631387
_cell_angle_beta 91.558548
_cell_angle_gamma 68.062335
_cell_volume 677.627443
_symmetry_space_group_name_H-M "P -1"
_symmetry_group_IT_number 2
_symmetry_cell_setting 'triclinic'
loop_
_space_group_symop_operation_xyz
x,y,z
-x,-y,-z
loop_
_atom_site_type_symbol
_atom_site_label
_atom_site_fract_x
_atom_site_fract_y
_atom_site_fract_z
Si Si1 0.852102 0.947765 0.099726
Si Si2 0.398084 0.509882 0.740744
Si Si3 0.720744 0.467561 0.594111
Si Si4 0.838184 0.046924 0.264064
Si Si5 0.614245 0.616783 0.867357
Si Si6 0.709485 0.768145 0.045322
Si Si7 0.067129 0.294501 0.507005
Si Si8 0.990615 0.711173 0.870678
O O1 0.848914 0.789785 0.131507
O O2 0.942859 0.962509 0.201983
O O3 0.562857 0.077871 0.037881
O O4 0.000000 0.000000 0.000000
O O5 0.629170 0.413198 0.718313
O O6 0.484938 0.598438 0.777236
O O7 0.330107 0.387057 0.859212
O O8 0.161295 0.625851 0.612456
O O9 0.500000 0.500000 0.500000
O O10 0.752022 0.627091 0.542943
O O11 0.957291 0.353746 0.587513
O O12 0.576046 0.212316 0.168738
O O13 0.999902 0.132512 0.254587
O O14 0.822415 0.903137 0.396959
O O15 0.844684 0.647105 0.832892
O O16 0.746214 0.446580 0.018711
O O17 0.858778 0.757997 0.953157
#
# Coordination Sequence:
#
# PCOD9050675 Si02
#       8
#     2   2   2   2   2   2   2   2
#     4  11  24  41  65 105 140 173 217 289 354 414
#     4  11  26  43  70  98 137 182 236 279 335 418
#     4   9  22  45  66 101 130 180 229 280 334 405
#     4  12  25  44  69 101 145 178 226 288 349 414
#     4  11  27  44  71  99 136 187 237 285 343 414
#     4  11  25  41  69 104 133 174 231 282 350 417
#     4  10  25  43  71 100 138 180 231 277 350 408
#     4  11  25  45  70 102 136 184 233 288 349 401
#
# _framework density 23.611795999999998
#
# number of rings (size 3 to 8) (size 9 to 14) (size 15 to 20)
#    0.000    1.250    2.500    1.125   12.250    2.500 
#    0.000    1.250    0.000    0.000    0.000    0.000 
#    0.000    0.000    0.000    0.000    0.000    0.000 
#
# Total GULP energy -89362.423350 kJ/mol
# GULP energy per Si atom -5585.151459 kJ/mol
# Density = 2.355805 g / cm^3
# Si number density = 23.611796 Si / 1000 Ang^3
#
#
#
# Elastic Constant Matrix: (Units=GPa)
#
#
# Indices 1 2 3 4 5 6 
#
# 1 122.3281 45.9727 29.3739 -10.8730 -6.7682 28.0667
# 2 45.9727 100.9376 30.3284 0.5575 -0.0476 20.5236
# 3 29.3739 30.3284 64.2023 -20.2785 -5.9455 16.4314
# 4 -10.8730 0.5575 -20.2785 47.0744 10.0568 -6.5057
# 5 -6.7682 -0.0476 -5.9455 10.0568 29.6793 7.5990
# 6 28.0667 20.5236 16.4314 -6.5057 7.5990 66.7658
#
#
#
# Elastic Compliance Matrix: (Units=1/GPa)
#
#
# Indices 1 2 3 4 5 6 
#
# 1 0.011017 -0.003779 -0.001951 0.000728 0.002695 -0.003226
# 2 -0.003779 0.013598 -0.005439 -0.003520 -0.000338 -0.001558
# 3 -0.001951 -0.005439 0.022540 0.008613 0.001762 -0.002416
# 4 0.000728 -0.003520 0.008613 0.027150 -0.007877 0.002198
# 5 0.002695 -0.000338 0.001762 -0.007877 0.039038 -0.006673
# 6 -0.003226 -0.001558 -0.002416 0.002198 -0.006673 0.018381
#
#
# Mechanical properties :
#
#
# Convention : Reuss Voigt Hill
#
# Bulk Modulus (GPa) = 40.29351 55.42421 47.85886
# Shear Modulus (GPa) = 30.80073 40.82344 35.81209
#
# Velocity S-wave (km/s) = 3.61565 4.16257 3.89871
# Velocity P-wave (km/s) = 5.87645 6.82837 6.37022
#
# Compressibility (1/GPa) = 0.02481789
#
# Stress axis : x y z
#
# Youngs Moduli (GPa) = 90.76872 73.53792 44.36591
#
# Poissons Ratio (x) = 0.27787 0.08654
# Poissons Ratio (y) = 0.34298 0.24133
# Poissons Ratio (z) = 0.17706 0.40001
#
# Static dielectric constant tensor:
#      x y z
#    x 1.939660 -0.008380 0.003140 
#    y -0.008380 1.946250 -0.015600 
#    z 0.003140 -0.015600 1.925020 
# 
# From -- ./inp_files/482639.got.cif
#   From: 2010.05.17/outbox.cif.g08.bks.cpg/sg2_242_cif.got.tgz:482639.got - 2010.06.03 11:33:40.
