data_PCOD9050253
_publ_section_title
;
Structure prediction by ZEFSAII (Michael W. Deem and Ramdas Pophale) SiO2 
 PCOD9050253
Probable space group: P -1
;
_chemical_formula_sum "Si O2"
_cell_formula_units_Z 14
_cell_length_a 9.866043
_cell_length_b 10.001490
_cell_length_c 8.528117
_cell_angle_alpha 82.407631
_cell_angle_beta 44.917886
_cell_angle_gamma 100.001019
_cell_volume 544.358108
_symmetry_space_group_name_H-M "P -1"
_symmetry_group_IT_number 2
_symmetry_cell_setting 'triclinic'
loop_
_space_group_symop_operation_xyz
x,y,z
-x,-y,-z
loop_
_atom_site_type_symbol
_atom_site_label
_atom_site_fract_x
_atom_site_fract_y
_atom_site_fract_z
Si Si1 0.362397 0.335223 0.985715
Si Si2 0.487126 0.351445 0.326360
Si Si3 0.093923 0.202944 0.536020
Si Si4 0.164910 0.642432 0.767024
Si Si5 0.172250 0.652024 0.395082
Si Si6 0.369972 0.896431 0.760441
Si Si7 0.116744 0.056729 0.059721
O O1 0.696049 0.002356 0.088981
O O2 0.233834 0.269714 0.258653
O O3 0.226121 0.225972 0.980839
O O4 0.391701 0.633356 0.611521
O O5 0.240982 0.306044 0.535888
O O6 0.600462 0.498300 0.112896
O O7 0.885216 0.230554 0.672868
O O8 0.035237 0.036832 0.663190
O O9 0.133553 0.664158 0.609310
O O10 0.481691 0.791806 0.747843
O O11 0.176768 0.777797 0.844446
O O12 0.000000 0.500000 0.000000
O O13 0.000000 0.500000 0.500000
O O14 0.406885 0.664115 0.187212
O O15 0.500000 0.000000 0.500000
O O16 0.000000 0.000000 0.000000
#
# Coordination Sequence:
#
# PCOD9050253 Si02
#       7
#     2   2   2   2   2   2   2
#     4  12  28  52  78 118 164 206 268 332 400 470
#     4  10  25  48  83 107 155 211 264 328 388 462
#     4  12  28  50  79 117 163 207 264 332 405 470
#     4  10  25  44  80 112 153 206 267 325 386 462
#     4  12  28  46  81 120 162 207 264 330 407 472
#     4  10  24  49  77 111 152 203 261 324 392 452
#     4  12  30  50  81 117 160 211 272 322 401 485
#
# _framework density 25.718364000000001
#
# number of rings (size 3 to 8) (size 9 to 14) (size 15 to 20)
#    0.857    0.000    1.429    3.429   12.000    1.143 
#    5.143    0.000    0.000    0.000    0.000    0.000 
#    0.000    0.000    0.000    0.000    0.000    0.000 
#
# Total GULP energy -78365.595709 kJ/mol
# GULP energy per Si atom -5597.542551 kJ/mol
# Density = 2.565983 g / cm^3
# Si number density = 25.718364 Si / 1000 Ang^3
#
#
#
# Elastic Constant Matrix: (Units=GPa)
#
#
# Indices 1 2 3 4 5 6 
#
# 1 161.3210 18.2677 22.1023 -5.7804 -5.9760 6.0359
# 2 18.2677 89.2108 24.6302 -26.3934 1.9135 -6.5734
# 3 22.1023 24.6302 112.4538 -22.5072 -1.0067 -17.9467
# 4 -5.7804 -26.3934 -22.5072 39.1537 -1.4478 1.5664
# 5 -5.9760 1.9135 -1.0067 -1.4478 38.0278 -5.2337
# 6 6.0359 -6.5734 -17.9467 1.5664 -5.2337 43.2047
#
#
#
# Elastic Compliance Matrix: (Units=1/GPa)
#
#
# Indices 1 2 3 4 5 6 
#
# 1 0.006601 -0.001278 -0.001377 -0.000585 0.000827 -0.001567
# 2 -0.001278 0.014506 -0.000861 0.009014 -0.000383 0.001655
# 3 -0.001377 -0.000861 0.011202 0.005506 0.000971 0.004632
# 4 -0.000585 0.009014 0.005506 0.034637 0.001282 0.002640
# 5 0.000827 -0.000383 0.000971 0.001282 0.026996 0.003453
# 6 -0.001567 0.001655 0.004632 0.002640 0.003453 0.025863
#
#
# Mechanical properties :
#
#
# Convention : Reuss Voigt Hill
#
# Bulk Modulus (GPa) = 39.56354 54.77622 47.16988
# Shear Modulus (GPa) = 36.96531 43.94294 40.45413
#
# Velocity S-wave (km/s) = 3.79530 4.13803 3.97037
# Velocity P-wave (km/s) = 5.88409 6.64649 6.27688
#
# Compressibility (1/GPa) = 0.02527579
#
# Stress axis : x y z
#
# Youngs Moduli (GPa) = 151.50336 68.93768 89.27093
#
# Poissons Ratio (x) = 0.08808 0.12295
# Poissons Ratio (y) = 0.19358 0.07688
# Poissons Ratio (z) = 0.20867 0.05937
#
# Static dielectric constant tensor:
#      x y z
#    x 2.058840 0.009740 -0.049960 
#    y 0.009740 1.985330 0.040660 
#    z -0.049960 0.040660 1.995900 
# 
# From -- ./inp_files/262516.got.cif
#   From: 2010.05.17/outbox.cif.g08.bks.cpg/sg2_132_cif.got.tgz:262516.got - 2010.06.03 11:33:40.
