data_PCOD9050727
_publ_section_title
;
Structure prediction by ZEFSAII (Michael W. Deem and Ramdas Pophale) SiO2 
 PCOD9050727
Probable space group: P -1
;
_chemical_formula_sum "Si O2"
_cell_formula_units_Z 14
_cell_length_a 13.885720
_cell_length_b 9.447177
_cell_length_c 18.210908
_cell_angle_alpha 151.996329
_cell_angle_beta 146.171259
_cell_angle_gamma 45.387129
_cell_volume 620.001041
_symmetry_space_group_name_H-M "P -1"
_symmetry_group_IT_number 2
_symmetry_cell_setting 'triclinic'
loop_
_space_group_symop_operation_xyz
x,y,z
-x,-y,-z
loop_
_atom_site_type_symbol
_atom_site_label
_atom_site_fract_x
_atom_site_fract_y
_atom_site_fract_z
Si Si1 0.434233 0.601090 0.425891
Si Si2 0.747562 0.787435 0.143662
Si Si3 0.312874 0.555072 0.599384
Si Si4 0.996332 0.168605 0.152193
Si Si5 0.582937 0.724543 0.316128
Si Si6 0.293309 0.410788 0.817703
Si Si7 0.972549 0.542486 0.917032
O O1 0.500000 0.500000 0.500000
O O2 0.513733 0.411516 0.325142
O O3 0.227212 0.550257 0.272470
O O4 0.486643 0.953026 0.596556
O O5 0.768016 0.815832 0.258331
O O6 0.905266 0.642145 0.139827
O O7 0.722951 0.113852 0.244902
O O8 0.576849 0.544498 0.912805
O O9 0.156037 0.423193 0.386089
O O10 0.334371 0.327334 0.576136
O O11 0.816622 0.309696 0.112469
O O12 0.000000 0.000000 0.000000
O O13 0.014290 0.899669 0.095829
O O14 0.719789 0.697103 0.323974
O O15 0.500000 0.500000 0.000000
O O16 0.000000 0.500000 0.000000
#
# Coordination Sequence:
#
# PCOD9050727 Si02
#       7
#     2   2   2   2   2   2   2
#     4  12  27  45  74 106 141 190 245 289 362 434
#     4  11  25  47  72 106 146 188 241 296 359 429
#     4  12  27  45  75 108 144 188 242 297 362 428
#     4  12  26  48  73 101 145 195 239 297 359 427
#     4  11  25  48  75 104 147 186 238 303 360 426
#     4  10  25  43  74  99 140 186 245 284 361 416
#     4  12  27  45  72 104 149 189 241 298 362 425
#
# _framework density 22.580608000000002
#
# number of rings (size 3 to 8) (size 9 to 14) (size 15 to 20)
#    0.000    0.571    1.429    5.143   14.000    1.143 
#    0.000    0.000    0.000    0.000    0.000    0.000 
#    0.000    0.000    0.000    0.000    0.000    0.000 
#
# Total GULP energy -78366.323878 kJ/mol
# GULP energy per Si atom -5597.594563 kJ/mol
# Density = 2.252921 g / cm^3
# Si number density = 22.580608 Si / 1000 Ang^3
#
#
#
# Elastic Constant Matrix: (Units=GPa)
#
#
# Indices 1 2 3 4 5 6 
#
# 1 129.7198 62.1006 4.9836 -26.8354 -4.3357 -3.1197
# 2 62.1006 149.2890 33.2515 6.6661 -1.6910 -0.8339
# 3 4.9836 33.2515 99.3236 -4.6365 10.1508 -9.0768
# 4 -26.8354 6.6661 -4.6365 40.9955 6.1196 -1.6161
# 5 -4.3357 -1.6910 10.1508 6.1196 21.5828 0.6704
# 6 -3.1197 -0.8339 -9.0768 -1.6161 0.6704 55.9070
#
#
#
# Elastic Compliance Matrix: (Units=1/GPa)
#
#
# Indices 1 2 3 4 5 6 
#
# 1 0.012578 -0.006172 0.002194 0.009805 -0.001808 0.001271
# 2 -0.006172 0.010480 -0.003957 -0.006739 0.003386 -0.001066
# 3 0.002194 -0.003957 0.012436 0.004637 -0.007104 0.002302
# 4 0.009805 -0.006739 0.004637 0.034086 -0.010476 0.002310
# 5 -0.001808 0.003386 -0.007104 -0.010476 0.052613 -0.002138
# 6 0.001271 -0.001066 0.002302 0.002310 -0.002138 0.018408
#
#
# Mechanical properties :
#
#
# Convention : Reuss Voigt Hill
#
# Bulk Modulus (GPa) = 50.95900 64.33376 57.64638
# Shear Modulus (GPa) = 30.67234 42.23015 36.45124
#
# Velocity S-wave (km/s) = 3.68958 4.32927 4.02216
# Velocity P-wave (km/s) = 6.38492 7.31728 6.86694
#
# Compressibility (1/GPa) = 0.01962362
#
# Stress axis : x y z
#
# Youngs Moduli (GPa) = 79.50495 95.41557 80.41399
#
# Poissons Ratio (x) = 0.58890 -0.17641
# Poissons Ratio (y) = 0.49070 0.31820
# Poissons Ratio (z) = -0.17442 0.37757
#
# Static dielectric constant tensor:
#      x y z
#    x 1.790030 -0.009380 -0.027080 
#    y -0.009380 1.808220 -0.022130 
#    z -0.027080 -0.022130 1.853170 
# 
# From -- ./inp_files/294413.got.cif
#   From: 2010.05.17/outbox.cif.g08.bks.cpg/sg2_148_cif.got.tgz:294413.got - 2010.06.03 11:33:40.
