data_PCOD9050906
_publ_section_title
;
Structure prediction by ZEFSAII (Michael W. Deem and Ramdas Pophale) SiO2 
 PCOD9050906
Probable space group: P -1
;
_chemical_formula_sum "Si O2"
_cell_formula_units_Z 15
_cell_length_a 4.909464
_cell_length_b 19.381157
_cell_length_c 11.452999
_cell_angle_alpha 141.119755
_cell_angle_beta 112.320848
_cell_angle_gamma 57.814901
_cell_volume 577.677024
_symmetry_space_group_name_H-M "P -1"
_symmetry_group_IT_number 2
_symmetry_cell_setting 'triclinic'
loop_
_space_group_symop_operation_xyz
x,y,z
-x,-y,-z
loop_
_atom_site_type_symbol
_atom_site_label
_atom_site_fract_x
_atom_site_fract_y
_atom_site_fract_z
Si Si1 0.500000 0.000000 0.500000
Si Si2 0.363940 0.398017 0.425836
Si Si3 0.622044 0.427495 0.041440
Si Si4 0.706643 0.776761 0.622297
Si Si5 0.577618 0.984307 0.716268
Si Si6 0.889883 0.464945 0.711180
Si Si7 0.784559 0.189572 0.077544
Si Si8 0.897246 0.163886 0.791172
O O1 0.780125 0.927058 0.559410
O O2 0.648955 0.105369 0.655959
O O3 0.413593 0.298413 0.406330
O O4 0.376174 0.545840 0.433521
O O5 0.471933 0.310400 0.215563
O O6 0.000000 0.500000 0.500000
O O7 0.312391 0.460436 0.115730
O O8 0.866872 0.475690 0.205061
O O9 0.500000 0.500000 0.000000
O O10 0.801017 0.286232 0.868337
O O11 0.887542 0.676530 0.421671
O O12 0.951129 0.810485 0.787154
O O13 0.506050 0.899260 0.682704
O O14 0.262975 0.069526 0.697565
O O15 0.702935 0.073167 0.918937
O O16 0.898081 0.192222 0.967174
#
# Coordination Sequence:
#
# PCOD9050906 Si02
#       8
#     1   2   2   2   2   2   2   2
#     4  10  26  48  72 106 144 202 252 326 376 454
#     4  11  26  44  76 111 161 203 254 317 394 472
#     4  12  29  51  79 111 154 204 264 328 388 463
#     4  11  25  44  74 111 156 203 252 317 380 474
#     4  11  25  46  73 108 149 198 262 317 388 455
#     4  11  27  49  73 113 151 203 254 319 392 462
#     4  10  25  44  71 112 151 201 251 317 388 466
#     4  11  27  46  77 108 151 198 260 319 391 458
#
# _framework density 25.966069999999998
#
# number of rings (size 3 to 8) (size 9 to 14) (size 15 to 20)
#    0.000    1.067    1.333    2.000   11.200    8.533 
#    0.000    2.000    0.000    0.000    0.000    0.000 
#    0.000    0.000    0.000    0.000    0.000    0.000 
#
# Total GULP energy -83827.694380 kJ/mol
# GULP energy per Si atom -5588.512959 kJ/mol
# Density = 2.590697 g / cm^3
# Si number density = 25.966070 Si / 1000 Ang^3
#
#
#
# Elastic Constant Matrix: (Units=GPa)
#
#
# Indices 1 2 3 4 5 6 
#
# 1 115.6770 32.9186 46.3020 16.4962 18.8189 -0.8841
# 2 32.9186 151.1180 48.9620 23.7731 12.1344 15.0833
# 3 46.3020 48.9620 124.9819 8.6559 18.4611 4.1866
# 4 16.4962 23.7731 8.6559 31.9923 10.4780 9.6122
# 5 18.8189 12.1344 18.4611 10.4780 63.9100 -1.8975
# 6 -0.8841 15.0833 4.1866 9.6122 -1.8975 25.7305
#
#
#
# Elastic Compliance Matrix: (Units=1/GPa)
#
#
# Indices 1 2 3 4 5 6 
#
# 1 0.011139 -0.000780 -0.003406 -0.004747 -0.001278 0.003073
# 2 -0.000780 0.008653 -0.002695 -0.004389 -0.000005 -0.003021
# 3 -0.003406 -0.002695 0.010501 0.001847 -0.001853 -0.001073
# 4 -0.004747 -0.004389 0.001847 0.042613 -0.005711 -0.014231
# 5 -0.001278 -0.000005 -0.001853 -0.005711 0.017606 0.003692
# 6 0.003073 -0.003021 -0.001073 -0.014231 0.003692 0.046504
#
#
# Mechanical properties :
#
#
# Convention : Reuss Voigt Hill
#
# Bulk Modulus (GPa) = 60.49799 72.01580 66.25689
# Shear Modulus (GPa) = 31.99236 41.89951 36.94594
#
# Velocity S-wave (km/s) = 3.51391 4.02135 3.77617
# Velocity P-wave (km/s) = 6.30975 7.02542 6.67718
#
# Compressibility (1/GPa) = 0.01652948
#
# Stress axis : x y z
#
# Youngs Moduli (GPa) = 89.77822 115.56916 95.23319
#
# Poissons Ratio (x) = 0.09015 0.32439
# Poissons Ratio (y) = 0.07003 0.25664
# Poissons Ratio (z) = 0.30581 0.31144
#
# Static dielectric constant tensor:
#      x y z
#    x 2.166210 0.056850 -0.180160 
#    y 0.056850 2.133880 -0.090780 
#    z -0.180160 -0.090780 2.141780 
# 
# From -- ./inp_files/369197.got.cif
#   From: 2010.05.17/outbox.cif.g08.bks.cpg/sg2_185_cif.got.tgz:369197.got - 2010.06.03 11:33:40.
