data_PCOD9050807
_publ_section_title
;
Structure prediction by ZEFSAII (Michael W. Deem and Ramdas Pophale) SiO2 
 PCOD9050807
Probable space group: P -1
;
_chemical_formula_sum "Si O2"
_cell_formula_units_Z 16
_cell_length_a 9.253622
_cell_length_b 13.300126
_cell_length_c 9.411010
_cell_angle_alpha 92.957085
_cell_angle_beta 71.425012
_cell_angle_gamma 49.191553
_cell_volume 774.631943
_symmetry_space_group_name_H-M "P -1"
_symmetry_group_IT_number 2
_symmetry_cell_setting 'triclinic'
loop_
_space_group_symop_operation_xyz
x,y,z
-x,-y,-z
loop_
_atom_site_type_symbol
_atom_site_label
_atom_site_fract_x
_atom_site_fract_y
_atom_site_fract_z
Si Si1 0.029927 0.223225 0.734618
Si Si2 0.867879 0.988313 0.932391
Si Si3 0.179410 0.871803 0.330133
Si Si4 0.853334 0.635250 0.451425
Si Si5 0.340904 0.589154 0.922866
Si Si6 0.301416 0.737261 0.698443
Si Si7 0.573489 0.621281 0.346077
Si Si8 0.402399 0.920111 0.716714
O O1 0.028928 0.332114 0.670485
O O2 0.898086 0.205897 0.678667
O O3 0.268157 0.066711 0.681968
O O4 0.895267 0.287698 0.927441
O O5 0.800351 0.084838 0.825327
O O6 0.676212 0.034441 0.091698
O O7 0.049542 0.828522 0.800238
O O8 0.000000 0.000000 0.000000
O O9 0.409014 0.769834 0.325147
O O10 0.000000 0.000000 0.500000
O O11 0.749171 0.604697 0.371524
O O12 0.657007 0.787074 0.603310
O O13 0.000000 0.500000 0.500000
O O14 0.404173 0.654768 0.809313
O O15 0.344864 0.496121 0.803206
O O16 0.500000 0.500000 0.000000
O O17 0.424717 0.639801 0.516094
O O18 0.316268 0.850922 0.686452
#
# Coordination Sequence:
#
# PCOD9050807 Si02
#       8
#     2   2   2   2   2   2   2   2
#     4  12  23  43  70 100 136 180 226 273 346 407
#     4  10  17  34  64  99 134 163 211 272 342 392
#     4  12  21  38  69 110 133 165 223 289 339 400
#     4  11  28  48  68  91 138 193 229 278 340 409
#     4  12  25  37  68 108 138 175 223 286 345 402
#     4  10  19  38  63  98 140 165 219 279 339 394
#     4  11  25  42  65 100 139 181 227 277 338 402
#     4  10  20  40  68  96 129 177 226 273 337 407
#
# _framework density 20.654969999999999
#
# number of rings (size 3 to 8) (size 9 to 14) (size 15 to 20)
#    0.000    1.000    6.250    2.250    3.500    1.500 
#    0.000    0.000    0.000    2.250    0.000    0.000 
#    0.000    0.000    0.000    0.000    0.000    0.000 
#
# Total GULP energy -89277.686953 kJ/mol
# GULP energy per Si atom -5579.855435 kJ/mol
# Density = 2.060796 g / cm^3
# Si number density = 20.654970 Si / 1000 Ang^3
#
#
#
# Elastic Constant Matrix: (Units=GPa)
#
#
# Indices 1 2 3 4 5 6 
#
# 1 57.0628 38.3280 41.2572 -6.4097 15.4638 -1.9376
# 2 38.3280 130.7620 33.3562 -31.1934 13.8631 -3.4672
# 3 41.2572 33.3562 121.7572 -10.9585 16.2226 3.4585
# 4 -6.4097 -31.1934 -10.9585 50.0955 4.7330 3.9636
# 5 15.4638 13.8631 16.2226 4.7330 24.9166 -2.0561
# 6 -1.9376 -3.4672 3.4585 3.9636 -2.0561 28.9287
#
#
#
# Elastic Compliance Matrix: (Units=1/GPa)
#
#
# Indices 1 2 3 4 5 6 
#
# 1 0.029254 -0.005799 -0.007073 -0.000578 -0.010093 0.001472
# 2 -0.005799 0.011377 -0.000001 0.006741 -0.004030 -0.000235
# 3 -0.007073 -0.000001 0.011345 0.002103 -0.003592 -0.002374
# 4 -0.000578 0.006741 0.002103 0.025782 -0.009966 -0.003723
# 5 -0.010093 -0.004030 -0.003592 -0.009966 0.053236 0.004420
# 6 0.001472 -0.000235 -0.002374 -0.003723 0.004420 0.035746
#
#
# Mechanical properties :
#
#
# Convention : Reuss Voigt Hill
#
# Bulk Modulus (GPa) = 38.12634 59.49609 48.81121
# Shear Modulus (GPa) = 24.84723 33.89753 29.37238
#
# Velocity S-wave (km/s) = 3.47214 4.05548 3.77510
# Velocity P-wave (km/s) = 5.87989 7.12717 6.53336
#
# Compressibility (1/GPa) = 0.02622858
#
# Stress axis : x y z
#
# Youngs Moduli (GPa) = 34.18353 87.89856 88.14174
#
# Poissons Ratio (x) = 0.50975 0.62342
# Poissons Ratio (y) = 0.19824 0.00012
# Poissons Ratio (z) = 0.24178 0.00012
#
# Static dielectric constant tensor:
#      x y z
#    x 1.725920 -0.002250 -0.013410 
#    y -0.002250 1.829240 0.037920 
#    z -0.013410 0.037920 1.780790 
# 
# From -- ./inp_files/207325.got.cif
#   From: 2010.05.17/outbox.cif.g08.bks.cpg/sg2_104_cif.got.tgz:207325.got - 2010.06.03 11:33:40.
