data_PCOD9050100
_publ_section_title
;
Structure prediction by ZEFSAII (Michael W. Deem and Ramdas Pophale) SiO2 
 PCOD9050100
Probable space group: P -1
;
_chemical_formula_sum "Si O2"
_cell_formula_units_Z 14
_cell_length_a 9.547936
_cell_length_b 11.530449
_cell_length_c 9.859228
_cell_angle_alpha 106.355765
_cell_angle_beta 43.700108
_cell_angle_gamma 83.450539
_cell_volume 631.570822
_symmetry_space_group_name_H-M "P -1"
_symmetry_group_IT_number 2
_symmetry_cell_setting 'triclinic'
loop_
_space_group_symop_operation_xyz
x,y,z
-x,-y,-z
loop_
_atom_site_type_symbol
_atom_site_label
_atom_site_fract_x
_atom_site_fract_y
_atom_site_fract_z
Si Si1 0.506313 0.937287 0.327604
Si Si2 0.712200 0.648399 0.100771
Si Si3 0.048942 0.645037 0.098476
Si Si4 0.065763 0.355536 0.334993
Si Si5 0.291038 0.193673 0.383849
Si Si6 0.804383 0.138464 0.011826
Si Si7 0.975649 0.159339 0.188114
O O1 0.492409 0.797835 0.319092
O O2 0.500000 0.000000 0.500000
O O3 0.336615 0.051889 0.378997
O O4 0.763703 0.887661 0.069700
O O5 0.912714 0.648385 0.057837
O O6 0.731849 0.504012 0.081527
O O7 0.773064 0.644144 0.899359
O O8 0.865787 0.684444 0.361893
O O9 0.123199 0.761768 0.081679
O O10 0.177192 0.236330 0.331023
O O11 0.897477 0.306084 0.362247
O O12 0.000000 0.500000 0.500000
O O13 0.542535 0.178417 0.183604
O O14 0.827317 0.163599 0.163781
O O15 0.972695 0.977830 0.810038
#
# Coordination Sequence:
#
# PCOD9050100 Si02
#       7
#     2   2   2   2   2   2   2
#     4  10  17  34  61  93 117 157 218 255 300 376
#     4  10  21  36  65  87 130 171 204 259 327 367
#     4  11  20  41  64  93 127 170 211 268 311 377
#     4  11  21  41  63  94 132 175 204 257 336 384
#     4  11  23  36  72  93 121 170 219 257 320 386
#     4  10  20  39  66  96 127 157 227 265 308 375
#     4   9  20  37  62  91 133 170 197 276 323 360
#
# _framework density 22.166951000000001
#
# number of rings (size 3 to 8) (size 9 to 14) (size 15 to 20)
#    0.000    1.714    5.714    0.000    0.000    5.143 
#    0.000    7.857    3.143    0.000    0.000    0.000 
#    0.000    0.000    0.000    0.000    0.000    0.000 
#
# Total GULP energy -78068.394932 kJ/mol
# GULP energy per Si atom -5576.313924 kJ/mol
# Density = 2.211650 g / cm^3
# Si number density = 22.166951 Si / 1000 Ang^3
#
#
#
# Elastic Constant Matrix: (Units=GPa)
#
#
# Indices 1 2 3 4 5 6 
#
# 1 31.7545 4.7625 11.1985 3.3496 13.4321 -13.7019
# 2 4.7625 152.2689 21.8227 21.0883 7.4920 -10.3088
# 3 11.1985 21.8227 78.4401 11.5102 15.8912 -3.5326
# 4 3.3496 21.0883 11.5102 37.1056 1.2554 11.3850
# 5 13.4321 7.4920 15.8912 1.2554 28.0661 0.0731
# 6 -13.7019 -10.3088 -3.5326 11.3850 0.0731 41.4458
#
#
#
# Elastic Compliance Matrix: (Units=1/GPa)
#
#
# Indices 1 2 3 4 5 6 
#
# 1 0.052181 0.002726 -0.000472 -0.011762 -0.024963 0.021164
# 2 0.002726 0.007824 -0.001028 -0.005607 -0.002571 0.004304
# 3 -0.000472 -0.001028 0.015510 -0.004581 -0.008082 0.002183
# 4 -0.011762 -0.005607 -0.004581 0.037229 0.008096 -0.015915
# 5 -0.024963 -0.002571 -0.008082 0.008096 0.052509 -0.011898
# 6 0.021164 0.004304 0.002183 -0.015915 -0.011898 0.036774
#
#
# Mechanical properties :
#
#
# Convention : Reuss Voigt Hill
#
# Bulk Modulus (GPa) = 12.82605 37.55899 25.19252
# Shear Modulus (GPa) = 22.16672 36.30218 29.23445
#
# Velocity S-wave (km/s) = 3.16569 4.05121 3.63551
# Velocity P-wave (km/s) = 4.37731 6.23406 5.38629
#
# Compressibility (1/GPa) = 0.07796636
#
# Stress axis : x y z
#
# Youngs Moduli (GPa) = 19.16403 127.81267 64.47530
#
# Poissons Ratio (x) = -0.34836 0.03041
# Poissons Ratio (y) = -0.05223 0.06630
# Poissons Ratio (z) = 0.00904 0.13142
#
# Static dielectric constant tensor:
#      x y z
#    x 1.796960 0.019280 -0.011320 
#    y 0.019280 1.921390 0.028720 
#    z -0.011320 0.028720 1.847750 
# 
# From -- ./inp_files/181137.got.cif
#   From: 2010.05.17/outbox.cif.g08.bks.cpg/sg2_91_cif.got.tgz:181137.got - 2010.06.03 11:33:40.
