data_PCOD9050517
_publ_section_title
;
Structure prediction by ZEFSAII (Michael W. Deem and Ramdas Pophale) SiO2 
 PCOD9050517
Probable space group: P -1
;
_chemical_formula_sum "Si O2"
_cell_formula_units_Z 10
_cell_length_a 6.891611
_cell_length_b 7.303873
_cell_length_c 13.723980
_cell_angle_alpha 41.856384
_cell_angle_beta 124.471184
_cell_angle_gamma 124.162474
_cell_volume 367.502498
_symmetry_space_group_name_H-M "P -1"
_symmetry_group_IT_number 2
_symmetry_cell_setting 'triclinic'
loop_
_space_group_symop_operation_xyz
x,y,z
-x,-y,-z
loop_
_atom_site_type_symbol
_atom_site_label
_atom_site_fract_x
_atom_site_fract_y
_atom_site_fract_z
Si Si1 0.293585 0.814172 0.086560
Si Si2 0.688064 0.697675 0.365305
Si Si3 0.219351 0.352488 0.954753
Si Si4 0.187458 0.887888 0.374571
Si Si5 0.679167 0.155315 0.346753
O O1 0.436872 0.628159 0.262857
O O2 0.016751 0.655421 0.042473
O O3 0.500000 0.000000 0.000000
O O4 0.238798 0.041210 0.057007
O O5 0.754308 0.406171 0.525735
O O6 0.905588 0.862391 0.290419
O O7 0.693150 0.909226 0.372349
O O8 0.181063 0.542931 0.775596
O O9 0.500000 0.500000 0.000000
O O10 0.228583 0.898282 0.499031
O O11 0.391526 0.135177 0.286619
#
# Coordination Sequence:
#
# PCOD9050517 Si02
#       5
#     2   2   2   2   2
#     4  11  26  44  71 103 139 184 234 289 352 414
#     4  11  23  43  68 100 140 184 229 292 345 413
#     4  11  25  46  69 103 138 181 234 293 344 418
#     4  10  25  42  68 104 137 186 234 281 346 431
#     4  11  23  44  69  98 142 184 231 286 352 411
#
# _framework density 27.210702000000001
#
# number of rings (size 3 to 8) (size 9 to 14) (size 15 to 20)
#    0.000    1.200    2.000    2.400    2.800   10.400 
#    0.000    0.000    0.000    0.000    0.000    0.000 
#    0.000    0.000    0.000    0.000    0.000    0.000 
#
# Total GULP energy -55981.075978 kJ/mol
# GULP energy per Si atom -5598.107598 kJ/mol
# Density = 2.714877 g / cm^3
# Si number density = 27.210702 Si / 1000 Ang^3
#
#
#
# Elastic Constant Matrix: (Units=GPa)
#
#
# Indices 1 2 3 4 5 6 
#
# 1 178.7712 55.6300 51.9247 12.4812 16.8247 49.9786
# 2 55.6300 92.0189 24.9060 6.1122 14.4640 0.3568
# 3 51.9247 24.9060 85.7179 2.2418 -8.8904 7.9330
# 4 12.4812 6.1122 2.2418 35.0293 21.3607 4.7025
# 5 16.8247 14.4640 -8.8904 21.3607 41.5860 -0.4220
# 6 49.9786 0.3568 7.9330 4.7025 -0.4220 80.3524
#
#
#
# Elastic Compliance Matrix: (Units=1/GPa)
#
#
# Indices 1 2 3 4 5 6 
#
# 1 0.010402 -0.004315 -0.004945 0.000736 -0.004204 -0.006028
# 2 -0.004315 0.014767 -0.002464 0.001634 -0.004728 0.002741
# 3 -0.004945 -0.002464 0.016212 -0.004298 0.008549 0.001783
# 4 0.000736 0.001634 -0.004298 0.043308 -0.024058 -0.002701
# 5 -0.004204 -0.004728 0.008549 -0.024058 0.041612 0.003418
# 6 -0.006028 0.002741 0.001783 -0.002701 0.003418 0.016182
#
#
# Mechanical properties :
#
#
# Convention : Reuss Voigt Hill
#
# Bulk Modulus (GPa) = 55.76113 69.04770 62.40442
# Shear Modulus (GPa) = 29.08538 46.33003 37.70771
#
# Velocity S-wave (km/s) = 3.27294 4.13078 3.72663
# Velocity P-wave (km/s) = 5.90082 6.94129 6.44209
#
# Compressibility (1/GPa) = 0.01793364
#
# Stress axis : x y z
#
# Youngs Moduli (GPa) = 96.13326 67.71937 61.68423
#
# Poissons Ratio (x) = 0.29221 0.30502
# Poissons Ratio (y) = 0.41481 0.15197
# Poissons Ratio (z) = 0.47537 0.16683
#
# Static dielectric constant tensor:
#      x y z
#    x 2.245970 0.242480 -0.115060 
#    y 0.242480 2.396710 -0.107780 
#    z -0.115060 -0.107780 2.229480 
# 
# From -- ./inp_files/103694.got.cif
#   From: 2010.05.17/outbox.cif.g08.bks.cpg/sg2_52_cif.got.tgz:103694.got - 2010.06.03 11:33:40.
