data_PCOD9050541
_publ_section_title
;
Structure prediction by ZEFSAII (Michael W. Deem and Ramdas Pophale) SiO2 
 PCOD9050541
Probable space group: P -1
;
_chemical_formula_sum "Si O2"
_cell_formula_units_Z 16
_cell_length_a 12.126183
_cell_length_b 6.372923
_cell_length_c 11.165236
_cell_angle_alpha 122.772778
_cell_angle_beta 76.469281
_cell_angle_gamma 103.846933
_cell_volume 698.627927
_symmetry_space_group_name_H-M "P -1"
_symmetry_group_IT_number 2
_symmetry_cell_setting 'triclinic'
loop_
_space_group_symop_operation_xyz
x,y,z
-x,-y,-z
loop_
_atom_site_type_symbol
_atom_site_label
_atom_site_fract_x
_atom_site_fract_y
_atom_site_fract_z
Si Si1 0.808796 0.005105 0.075723
Si Si2 0.362356 0.476994 0.021463
Si Si3 0.005018 0.805422 0.110354
Si Si4 0.928173 0.736461 0.600353
Si Si5 0.755071 0.859328 0.493909
Si Si6 0.438595 0.358825 0.359344
Si Si7 0.670330 0.415718 0.209863
Si Si8 0.264073 0.598916 0.325182
O O1 0.761520 0.261154 0.200481
O O2 0.888045 0.881892 0.109924
O O3 0.889888 0.080272 0.965352
O O4 0.695159 0.808267 0.025872
O O5 0.302423 0.618338 0.184239
O O6 0.500000 0.500000 0.000000
O O7 0.324891 0.562767 0.927273
O O8 0.021523 0.978304 0.280654
O O9 0.000000 0.500000 0.000000
O O10 0.862917 0.762631 0.499694
O O11 0.833077 0.631049 0.691551
O O12 0.000000 0.500000 0.500000
O O13 0.658618 0.838076 0.617051
O O14 0.699511 0.690379 0.346851
O O15 0.780244 0.148393 0.542060
O O16 0.500000 0.500000 0.500000
O O17 0.542562 0.283274 0.233137
O O18 0.374759 0.546910 0.355323
#
# Coordination Sequence:
#
# PCOD9050541 Si02
#       8
#     2   2   2   2   2   2   2   2
#     4  11  26  44  71 102 147 182 243 296 364 429
#     4  12  26  44  71 107 149 194 236 295 358 440
#     4  11  25  47  74 105 144 189 242 307 374 422
#     4  11  25  47  77 104 143 186 247 307 365 431
#     4  10  25  42  72 101 144 184 240 297 364 428
#     4   9  21  41  63 100 143 189 232 296 354 428
#     4  11  24  42  67 106 142 194 241 286 361 435
#     4  11  24  45  69 108 142 185 242 294 367 427
#
# _framework density 22.902034
#
# number of rings (size 3 to 8) (size 9 to 14) (size 15 to 20)
#    0.000    1.250    2.500    1.500    5.250    8.000 
#    0.000    0.000    0.000    0.000    0.000    0.000 
#    0.000    0.000    0.000    0.000    0.000    0.000 
#
# Total GULP energy -89318.651209 kJ/mol
# GULP energy per Si atom -5582.415701 kJ/mol
# Density = 2.284991 g / cm^3
# Si number density = 22.902034 Si / 1000 Ang^3
#
#
#
# Elastic Constant Matrix: (Units=GPa)
#
#
# Indices 1 2 3 4 5 6 
#
# 1 114.8290 50.7454 45.7781 4.2967 -4.4884 -0.5566
# 2 50.7454 87.4962 41.8183 11.6755 8.7274 -3.1706
# 3 45.7781 41.8183 91.0028 4.0555 13.1417 -13.7263
# 4 4.2967 11.6755 4.0555 43.5551 3.8094 -3.7045
# 5 -4.4884 8.7274 13.1417 3.8094 30.1667 5.0464
# 6 -0.5566 -3.1706 -13.7263 -3.7045 5.0464 37.0553
#
#
#
# Elastic Compliance Matrix: (Units=1/GPa)
#
#
# Indices 1 2 3 4 5 6 
#
# 1 0.013966 -0.006182 -0.005690 -0.000083 0.006921 -0.003378
# 2 -0.006182 0.017984 -0.004468 -0.003473 -0.003729 -0.000048
# 3 -0.005690 -0.004468 0.018296 0.001496 -0.008999 0.007685
# 4 -0.000083 -0.003473 0.001496 0.024310 -0.003253 0.003129
# 5 0.006921 -0.003729 -0.008999 -0.003253 0.041175 -0.009481
# 6 -0.003378 -0.000048 0.007685 0.003129 -0.009481 0.031382
#
#
# Mechanical properties :
#
#
# Convention : Reuss Voigt Hill
#
# Bulk Modulus (GPa) = 56.92918 63.33462 60.13190
# Shear Modulus (GPa) = 26.93257 32.48784 29.71021
#
# Velocity S-wave (km/s) = 3.43299 3.77046 3.60568
# Velocity P-wave (km/s) = 6.37382 6.83153 6.60664
#
# Compressibility (1/GPa) = 0.01756569
#
# Stress axis : x y z
#
# Youngs Moduli (GPa) = 71.60113 55.60577 54.65649
#
# Poissons Ratio (x) = 0.34377 0.31099
# Poissons Ratio (y) = 0.44265 0.24421
# Poissons Ratio (z) = 0.40740 0.24845
#
# Static dielectric constant tensor:
#      x y z
#    x 1.859120 0.042130 -0.018090 
#    y 0.042130 1.841440 -0.001030 
#    z -0.018090 -0.001030 1.882240 
# 
# From -- ./inp_files/411249.got.cif
#   From: 2010.05.17/outbox.cif.g08.bks.cpg/sg2_206_cif.got.tgz:411249.got - 2010.06.03 11:33:40.
