data_PCOD9050649
_publ_section_title
;
Structure prediction by ZEFSAII (Michael W. Deem and Ramdas Pophale) SiO2 
 PCOD9050649
Probable space group: P -1
;
_chemical_formula_sum "Si O2"
_cell_formula_units_Z 16
_cell_length_a 7.301542
_cell_length_b 11.405637
_cell_length_c 15.823471
_cell_angle_alpha 54.926970
_cell_angle_beta 48.552045
_cell_angle_gamma 56.230086
_cell_volume 774.597573
_symmetry_space_group_name_H-M "P -1"
_symmetry_group_IT_number 2
_symmetry_cell_setting 'triclinic'
loop_
_space_group_symop_operation_xyz
x,y,z
-x,-y,-z
loop_
_atom_site_type_symbol
_atom_site_label
_atom_site_fract_x
_atom_site_fract_y
_atom_site_fract_z
Si Si1 0.864694 0.839144 0.693967
Si Si2 0.387322 0.827415 0.948801
Si Si3 0.728893 0.616484 0.056555
Si Si4 0.816929 0.664229 0.467217
Si Si5 0.974283 0.142832 0.550049
Si Si6 0.665388 0.426545 0.307718
Si Si7 0.379664 0.304909 0.669385
Si Si8 0.829875 0.854290 0.048297
O O1 0.587163 0.861356 0.807840
O O2 0.875597 0.841960 0.587663
O O3 0.052239 0.684599 0.733828
O O4 0.979151 0.972231 0.632748
O O5 0.295577 0.967702 0.983349
O O6 0.534421 0.676222 0.015104
O O7 0.131656 0.819125 0.984597
O O8 0.611897 0.534742 0.198558
O O9 0.777625 0.765067 0.020401
O O10 0.000000 0.500000 0.000000
O O11 0.538925 0.665049 0.585135
O O12 0.786081 0.687605 0.366877
O O13 0.000000 0.500000 0.500000
O O14 0.923025 0.784091 0.433252
O O15 0.676274 0.228360 0.591038
O O16 0.643292 0.532510 0.352219
O O17 0.284522 0.213207 0.808927
#
# Coordination Sequence:
#
# PCOD9050649 Si02
#       8
#     2   2   2   2   2   2   2   2
#     4  11  23  45  65  94 139 169 205 279 331 369
#     4  11  23  46  67  94 130 176 221 261 326 389
#     4  11  24  43  66  98 131 167 215 272 322 385
#     4  12  24  39  68  98 125 172 219 260 323 392
#     4  11  24  43  68  95 131 169 214 270 322 387
#     4  11  23  42  65  96 135 170 212 269 328 381
#     4  11  22  44  65  95 132 167 219 265 320 389
#     4  10  25  43  69  95 127 177 220 268 319 387
#
# _framework density 20.655887
#
# number of rings (size 3 to 8) (size 9 to 14) (size 15 to 20)
#    0.000    1.000    5.000    1.500    1.750    2.000 
#    4.500    0.000    0.000    0.000    0.000    0.000 
#    0.000    0.000    0.000    0.000    0.000    0.000 
#
# Total GULP energy -89496.431863 kJ/mol
# GULP energy per Si atom -5593.526991 kJ/mol
# Density = 2.060887 g / cm^3
# Si number density = 20.655887 Si / 1000 Ang^3
#
#
#
# Elastic Constant Matrix: (Units=GPa)
#
#
# Indices 1 2 3 4 5 6 
#
# 1 86.3438 27.5780 22.6243 5.4332 10.7124 -1.5514
# 2 27.5780 87.2468 7.0274 4.7582 5.7787 -11.8369
# 3 22.6243 7.0274 67.9118 6.5499 0.2566 -5.3669
# 4 5.4332 4.7582 6.5499 30.6987 -5.8842 -3.6938
# 5 10.7124 5.7787 0.2566 -5.8842 22.3452 6.8283
# 6 -1.5514 -11.8369 -5.3669 -3.6938 6.8283 31.3917
#
#
#
# Elastic Compliance Matrix: (Units=1/GPa)
#
#
# Indices 1 2 3 4 5 6 
#
# 1 0.014916 -0.003830 -0.004335 -0.002433 -0.006664 -0.000285
# 2 -0.003830 0.013760 0.000476 -0.001615 -0.003907 0.005740
# 3 -0.004335 0.000476 0.016549 -0.002474 0.000373 0.002422
# 4 -0.002433 -0.001615 -0.002474 0.035951 0.010861 0.000716
# 5 -0.006664 -0.003907 0.000373 0.010861 0.055653 -0.012566
# 6 -0.000285 0.005740 0.002422 0.000716 -0.012566 0.037238
#
#
# Mechanical properties :
#
#
# Convention : Reuss Voigt Hill
#
# Bulk Modulus (GPa) = 33.50589 39.55131 36.52860
# Shear Modulus (GPa) = 25.07605 29.17195 27.12400
#
# Velocity S-wave (km/s) = 3.48802 3.76211 3.62765
# Velocity P-wave (km/s) = 5.69894 6.16933 5.93879
#
# Compressibility (1/GPa) = 0.02984550
#
# Stress axis : x y z
#
# Youngs Moduli (GPa) = 67.04366 72.67602 60.42785
#
# Poissons Ratio (x) = 0.27836 0.26198
# Poissons Ratio (y) = 0.25679 -0.02878
# Poissons Ratio (z) = 0.29066 -0.03461
#
# Static dielectric constant tensor:
#      x y z
#    x 1.698010 -0.003310 0.007070 
#    y -0.003310 1.747140 0.000190 
#    z 0.007070 0.000190 1.741820 
# 
# From -- ./inp_files/446686.got.cif
#   From: 2010.05.17/outbox.cif.g08.bks.cpg/sg2_224_cif.got.tgz:446686.got - 2010.06.03 11:33:40.
