data_PCOD9050976
_publ_section_title
;
Structure prediction by ZEFSAII (Michael W. Deem and Ramdas Pophale) SiO2 
 PCOD9050976
Probable space group: P -1
;
_chemical_formula_sum "Si O2"
_cell_formula_units_Z 16
_cell_length_a 7.432960
_cell_length_b 19.205216
_cell_length_c 13.875114
_cell_angle_alpha 157.932285
_cell_angle_beta 88.865601
_cell_angle_gamma 97.427465
_cell_volume 710.825827
_symmetry_space_group_name_H-M "P -1"
_symmetry_group_IT_number 2
_symmetry_cell_setting 'triclinic'
loop_
_space_group_symop_operation_xyz
x,y,z
-x,-y,-z
loop_
_atom_site_type_symbol
_atom_site_label
_atom_site_fract_x
_atom_site_fract_y
_atom_site_fract_z
Si Si1 0.329355 0.402454 0.654242
Si Si2 0.640658 0.898427 0.093727
Si Si3 0.741075 0.256406 0.191991
Si Si4 0.885469 0.634481 0.798877
Si Si5 0.387135 0.691580 0.320318
Si Si6 0.608676 0.223696 0.778187
Si Si7 0.001048 0.538989 0.887251
Si Si8 0.774603 0.929551 0.913635
O O1 0.458542 0.321479 0.619869
O O2 0.121275 0.383689 0.676413
O O3 0.301685 0.286951 0.406911
O O4 0.417774 0.636169 0.955489
O O5 0.427249 0.770483 0.914932
O O6 0.769599 0.787295 0.000871
O O7 0.714541 0.941602 0.038639
O O8 0.643620 0.097924 0.398906
O O9 0.766343 0.441976 0.497492
O O10 0.930407 0.281804 0.161747
O O11 0.707554 0.071378 0.024846
O O12 0.942020 0.578321 0.830878
O O13 0.450087 0.686616 0.203239
O O14 0.186205 0.535688 0.144186
O O15 0.500000 0.000000 0.500000
O O16 0.836457 0.272950 0.835102
O O17 0.000000 0.000000 0.000000
#
# Coordination Sequence:
#
# PCOD9050976 Si02
#       8
#     2   2   2   2   2   2   2   2
#     4  10  25  44  77  97 142 183 233 289 340 416
#     4  12  26  39  71 103 147 181 231 283 343 426
#     4  11  24  41  63  97 148 191 228 277 341 423
#     4  11  25  42  62 102 145 186 229 283 348 408
#     4  12  24  48  73 107 133 186 236 285 348 415
#     4  10  26  50  73 103 138 179 235 295 353 406
#     4  10  26  45  73  99 134 183 230 290 344 413
#     4  12  22  44  67 105 140 187 228 278 349 411
#
# _framework density 22.509032000000001
#
# number of rings (size 3 to 8) (size 9 to 14) (size 15 to 20)
#    0.750    0.250    2.500    3.750    5.250    2.000 
#    0.000    1.250    0.000    0.000    0.000    0.000 
#    0.000    0.000    0.000    0.000    0.000    0.000 
#
# Total GULP energy -89517.243219 kJ/mol
# GULP energy per Si atom -5594.827701 kJ/mol
# Density = 2.245780 g / cm^3
# Si number density = 22.509032 Si / 1000 Ang^3
#
#
#
# Elastic Constant Matrix: (Units=GPa)
#
#
# Indices 1 2 3 4 5 6 
#
# 1 105.7337 20.5477 22.8701 15.3410 2.3720 -24.2870
# 2 20.5477 79.1408 20.7261 1.4660 8.1478 -2.8448
# 3 22.8701 20.7261 104.5929 3.3309 9.5882 -5.4189
# 4 15.3410 1.4660 3.3309 26.6306 -4.3398 -2.9111
# 5 2.3720 8.1478 9.5882 -4.3398 35.0557 -2.9827
# 6 -24.2870 -2.8448 -5.4189 -2.9111 -2.9827 28.6327
#
#
#
# Elastic Compliance Matrix: (Units=1/GPa)
#
#
# Indices 1 2 3 4 5 6 
#
# 1 0.013635 -0.002620 -0.001749 -0.006316 0.000264 0.010360
# 2 -0.002620 0.014064 -0.002064 0.000412 -0.002599 -0.001445
# 3 -0.001749 -0.002064 0.010589 -0.000589 -0.002370 0.000009
# 4 -0.006316 0.000412 -0.000589 0.042101 0.005657 -0.000558
# 5 0.000264 -0.002599 -0.002370 0.005657 0.030741 0.003295
# 6 0.010360 -0.001445 0.000009 -0.000558 0.003295 0.043857
#
#
# Mechanical properties :
#
#
# Convention : Reuss Voigt Hill
#
# Bulk Modulus (GPa) = 39.33362 46.41727 42.87545
# Shear Modulus (GPa) = 28.35629 33.08536 30.72083
#
# Velocity S-wave (km/s) = 3.55318 3.83805 3.69836
# Velocity P-wave (km/s) = 5.86054 6.34880 6.10955
#
# Compressibility (1/GPa) = 0.02542354
#
# Stress axis : x y z
#
# Youngs Moduli (GPa) = 73.33903 71.10106 94.44034
#
# Poissons Ratio (x) = 0.18629 0.16514
# Poissons Ratio (y) = 0.19215 0.19491
# Poissons Ratio (z) = 0.12824 0.14674
#
# Static dielectric constant tensor:
#      x y z
#    x 1.847810 0.016130 -0.002930 
#    y 0.016130 1.819170 0.015620 
#    z -0.002930 0.015620 1.829900 
# 
# From -- ./inp_files/508012.got.cif
#   From: 2010.05.17/outbox.cif.g08.bks.cpg/sg2_255_cif.got.tgz:508012.got - 2010.06.03 11:33:40.
