data_PCOD9050702
_publ_section_title
;
Structure prediction by ZEFSAII (Michael W. Deem and Ramdas Pophale) SiO2 
 PCOD9050702
Probable space group: P -1
;
_chemical_formula_sum "Si O2"
_cell_formula_units_Z 14
_cell_length_a 9.512501
_cell_length_b 11.026482
_cell_length_c 10.039422
_cell_angle_alpha 125.190091
_cell_angle_beta 130.838747
_cell_angle_gamma 81.517551
_cell_volume 604.625989
_symmetry_space_group_name_H-M "P -1"
_symmetry_group_IT_number 2
_symmetry_cell_setting 'triclinic'
loop_
_space_group_symop_operation_xyz
x,y,z
-x,-y,-z
loop_
_atom_site_type_symbol
_atom_site_label
_atom_site_fract_x
_atom_site_fract_y
_atom_site_fract_z
Si Si1 0.078880 0.658344 0.744711
Si Si2 0.530061 0.339041 0.463675
Si Si3 0.264682 0.445340 0.840891
Si Si4 0.573248 0.014433 0.903597
Si Si5 0.312212 0.981753 0.464316
Si Si6 0.245037 0.250049 0.447873
Si Si7 0.942996 0.343798 0.779953
O O1 0.200506 0.598141 0.889403
O O2 0.000000 0.500000 0.500000
O O3 0.899299 0.708453 0.718722
O O4 0.232856 0.823158 0.883660
O O5 0.500000 0.500000 0.500000
O O6 0.401569 0.155149 0.221362
O O7 0.467972 0.326271 0.573868
O O8 0.755025 0.348796 0.578620
O O9 0.198668 0.332276 0.600962
O O10 0.137356 0.346731 0.822688
O O11 0.500000 0.500000 0.000000
O O12 0.414339 0.033154 0.707358
O O13 0.500000 0.000000 0.000000
O O14 0.208421 0.077964 0.373574
O O15 0.500000 0.000000 0.500000
O O16 0.151916 0.808856 0.283598
O O17 0.000000 0.500000 0.000000
#
# Coordination Sequence:
#
# PCOD9050702 Si02
#       7
#     2   2   2   2   2   2   2
#     4  10  25  43  72 103 148 188 250 302 376 439
#     4  11  25  45  72 107 153 190 247 308 374 443
#     4  11  24  42  71 105 143 192 248 304 376 443
#     4  11  26  45  75 105 148 198 250 307 375 442
#     4  11  24  49  73 104 151 194 244 309 370 449
#     4  11  23  44  72 102 146 192 243 306 377 431
#     4  11  25  43  72 104 144 189 248 303 371 442
#
# _framework density 23.154807999999999
#
# number of rings (size 3 to 8) (size 9 to 14) (size 15 to 20)
#    0.000    1.143    2.857    2.571   14.000    2.286 
#    5.143    0.000    0.000    0.000    0.000    0.000 
#    0.000    0.000    0.000    0.000    0.000    0.000 
#
# Total GULP energy -77987.111557 kJ/mol
# GULP energy per Si atom -5570.507968 kJ/mol
# Density = 2.310211 g / cm^3
# Si number density = 23.154808 Si / 1000 Ang^3
#
#
#
# Elastic Constant Matrix: (Units=GPa)
#
#
# Indices 1 2 3 4 5 6 
#
# 1 135.2616 37.2890 33.2769 11.0477 16.0177 14.6561
# 2 37.2890 169.4677 39.9153 30.4736 23.2119 -9.5025
# 3 33.2769 39.9153 101.4978 32.3437 17.5009 4.9901
# 4 11.0477 30.4736 32.3437 40.0269 4.0450 7.2228
# 5 16.0177 23.2119 17.5009 4.0450 40.9195 -1.2552
# 6 14.6561 -9.5025 4.9901 7.2228 -1.2552 45.1930
#
#
#
# Elastic Compliance Matrix: (Units=1/GPa)
#
#
# Indices 1 2 3 4 5 6 
#
# 1 0.008835 -0.001589 -0.002221 0.001333 -0.001837 -0.003218
# 2 -0.001589 0.007929 -0.000488 -0.005442 -0.003037 0.003022
# 3 -0.002221 -0.000488 0.014874 -0.010719 -0.004138 0.000574
# 4 0.001333 -0.005442 -0.010719 0.038259 0.003171 -0.006419
# 5 -0.001837 -0.003037 -0.004138 0.003171 0.028357 0.000695
# 6 -0.003218 0.003022 0.000574 -0.006419 0.000695 0.024788
#
#
# Mechanical properties :
#
#
# Convention : Reuss Voigt Hill
#
# Bulk Modulus (GPa) = 43.40063 69.68770 56.54417
# Shear Modulus (GPa) = 35.88852 44.94429 40.41640
#
# Velocity S-wave (km/s) = 3.94120 4.41050 4.18243
# Velocity P-wave (km/s) = 6.28451 7.48989 6.91352
#
# Compressibility (1/GPa) = 0.02304114
#
# Stress axis : x y z
#
# Youngs Moduli (GPa) = 113.18444 126.11162 67.23231
#
# Poissons Ratio (x) = 0.20043 0.14935
# Poissons Ratio (y) = 0.17988 0.03281
# Poissons Ratio (z) = 0.25142 0.06154
#
# Static dielectric constant tensor:
#      x y z
#    x 1.915410 0.004770 0.014590 
#    y 0.004770 2.195990 -0.193500 
#    z 0.014590 -0.193500 2.042950 
# 
# From -- ./inp_files/391485.got.cif
#   From: 2010.05.17/outbox.cif.g08.bks.cpg/sg2_196_cif.got.tgz:391485.got - 2010.06.03 11:33:40.
