data_PCOD9050327
_publ_section_title
;
Structure prediction by ZEFSAII (Michael W. Deem and Ramdas Pophale) SiO2 
 PCOD9050327
Probable space group: P -1
;
_chemical_formula_sum "Si O2"
_cell_formula_units_Z 12
_cell_length_a 5.042835
_cell_length_b 12.145011
_cell_length_c 11.975334
_cell_angle_alpha 40.819896
_cell_angle_beta 93.934815
_cell_angle_gamma 91.079949
_cell_volume 477.686856
_symmetry_space_group_name_H-M "P -1"
_symmetry_group_IT_number 2
_symmetry_cell_setting 'triclinic'
loop_
_space_group_symop_operation_xyz
x,y,z
-x,-y,-z
loop_
_atom_site_type_symbol
_atom_site_label
_atom_site_fract_x
_atom_site_fract_y
_atom_site_fract_z
Si Si1 0.406436 0.837174 0.688242
Si Si2 0.130805 0.677141 0.387946
Si Si3 0.269485 0.738937 0.096990
Si Si4 0.078981 0.096552 0.627846
Si Si5 0.717111 0.851458 0.882623
Si Si6 0.523381 0.637526 0.640961
O O1 0.619374 0.754641 0.844902
O O2 0.353308 0.703970 0.692476
O O3 0.500000 0.000000 0.500000
O O4 0.188206 0.927032 0.695750
O O5 0.258107 0.735873 0.232110
O O6 0.339797 0.643748 0.520392
O O7 0.000000 0.500000 0.500000
O O8 0.905359 0.816420 0.315806
O O9 0.367615 0.553923 0.199717
O O10 0.478535 0.862298 0.955687
O O11 0.976993 0.781823 0.007098
O O12 0.224607 0.242965 0.453099
O O13 0.781044 0.031498 0.692331
#
# Coordination Sequence:
#
# PCOD9050327 Si02
#       6
#     2   2   2   2   2   2
#     4  10  24  50  79 114 151 203 266 312 382 463
#     4  12  26  48  80 114 152 206 267 310 380 467
#     4  12  28  49  75 117 162 201 249 324 386 454
#     4  11  24  49  78 111 148 206 258 312 378 462
#     4  12  27  52  74 119 160 198 253 322 399 440
#     4  11  26  48  81 110 152 210 263 314 374 466
#
# _framework density 25.12106
#
# number of rings (size 3 to 8) (size 9 to 14) (size 15 to 20)
#    0.000    0.667    3.333    3.500    2.333    8.667 
#    0.000    0.000    0.000    0.000    0.000    0.000 
#    0.000    0.000    0.000    0.000    0.000    0.000 
#
# Total GULP energy -66907.595158 kJ/mol
# GULP energy per Si atom -5575.632930 kJ/mol
# Density = 2.506388 g / cm^3
# Si number density = 25.121060 Si / 1000 Ang^3
#
#
#
# Elastic Constant Matrix: (Units=GPa)
#
#
# Indices 1 2 3 4 5 6 
#
# 1 140.0171 66.8030 63.7997 13.3253 -0.2912 0.5622
# 2 66.8030 166.9285 48.6920 22.1278 1.2896 -21.4049
# 3 63.7997 48.6920 88.9909 21.2009 -6.2878 6.3773
# 4 13.3253 22.1278 21.2009 39.2281 -1.0478 6.0481
# 5 -0.2912 1.2896 -6.2878 -1.0478 55.3576 12.3337
# 6 0.5622 -21.4049 6.3773 6.0481 12.3337 49.5063
#
#
#
# Elastic Compliance Matrix: (Units=1/GPa)
#
#
# Indices 1 2 3 4 5 6 
#
# 1 0.011597 -0.002823 -0.007149 0.001577 -0.000547 -0.000488
# 2 -0.002823 0.009006 -0.002538 -0.003585 -0.001721 0.005120
# 3 -0.007149 -0.002538 0.019676 -0.006152 0.002926 -0.003528
# 4 0.001577 -0.003585 -0.006152 0.031077 0.001059 -0.004836
# 5 -0.000547 -0.001721 0.002926 0.001059 0.019832 -0.006185
# 6 -0.000488 0.005120 -0.003528 -0.004836 -0.006185 0.025005
#
#
# Mechanical properties :
#
#
# Convention : Reuss Voigt Hill
#
# Bulk Modulus (GPa) = 65.53663 83.83621 74.68642
# Shear Modulus (GPa) = 34.17657 43.26120 38.71889
#
# Velocity S-wave (km/s) = 3.69246 4.15433 3.93019
# Velocity P-wave (km/s) = 6.65763 7.51376 7.09861
#
# Compressibility (1/GPa) = 0.01525864
#
# Stress axis : x y z
#
# Youngs Moduli (GPa) = 86.22823 111.04149 50.82260
#
# Poissons Ratio (x) = 0.31349 0.36333
# Poissons Ratio (y) = 0.24344 0.12899
# Poissons Ratio (z) = 0.61645 0.28183
#
# Static dielectric constant tensor:
#      x y z
#    x 2.194350 0.004940 0.064300 
#    y 0.004940 2.021750 -0.030110 
#    z 0.064300 -0.030110 2.011480 
# 
# From -- ./inp_files/361735.got.cif
#   From: 2010.05.17/outbox.cif.g08.bks.cpg/sg2_181_cif.got.tgz:361735.got - 2010.06.03 11:33:40.
