data_PCOD9050606
_publ_section_title
;
Structure prediction by ZEFSAII (Michael W. Deem and Ramdas Pophale) SiO2 
 PCOD9050606
Probable space group: P -1
;
_chemical_formula_sum "Si O2"
_cell_formula_units_Z 12
_cell_length_a 7.693929
_cell_length_b 14.995775
_cell_length_c 9.678163
_cell_angle_alpha 145.874149
_cell_angle_beta 90.103294
_cell_angle_gamma 67.926738
_cell_volume 466.631860
_symmetry_space_group_name_H-M "P -1"
_symmetry_group_IT_number 2
_symmetry_cell_setting 'triclinic'
loop_
_space_group_symop_operation_xyz
x,y,z
-x,-y,-z
loop_
_atom_site_type_symbol
_atom_site_label
_atom_site_fract_x
_atom_site_fract_y
_atom_site_fract_z
Si Si1 0.322151 0.434499 0.801866
Si Si2 0.283271 0.599547 0.726424
Si Si3 0.197612 0.033690 0.757989
Si Si4 0.030038 0.636532 0.308426
Si Si5 0.246388 0.384934 0.237488
Si Si6 0.334504 0.968424 0.380006
O O1 0.317660 0.559832 0.838551
O O2 0.091157 0.464467 0.822838
O O3 0.564630 0.191271 0.477387
O O4 0.266638 0.519131 0.068079
O O5 0.500000 0.500000 0.500000
O O6 0.234773 0.448283 0.475344
O O7 0.053742 0.848651 0.025210
O O8 0.195964 0.990848 0.540769
O O9 0.212822 0.215650 0.008709
O O10 0.092385 0.602977 0.426529
O O11 0.837394 0.854661 0.507498
O O12 0.495664 0.246006 0.981779
O O13 0.500000 0.000000 0.500000
#
# Coordination Sequence:
#
# PCOD9050606 Si02
#       6
#     2   2   2   2   2   2
#     4  11  20  36  68  93 124 156 202 253 317 357
#     4  12  28  44  56  85 136 173 198 248 311 369
#     4  11  20  38  68  93 119 157 207 259 304 358
#     4  11  18  34  68 103 116 151 200 269 306 350
#     4  11  22  38  64 100 119 152 212 261 306 360
#     4  10  17  34  64 102 121 144 198 266 313 349
#
# _framework density 25.716203
#
# number of rings (size 3 to 8) (size 9 to 14) (size 15 to 20)
#    0.000    1.000    8.333    2.500    0.000    2.667 
#    0.000    1.667    0.000    0.000    0.000    0.000 
#    0.000    0.000    0.000    0.000    0.000    0.000 
#
# Total GULP energy -66965.785166 kJ/mol
# GULP energy per Si atom -5580.482097 kJ/mol
# Density = 2.565767 g / cm^3
# Si number density = 25.716203 Si / 1000 Ang^3
#
#
#
# Elastic Constant Matrix: (Units=GPa)
#
#
# Indices 1 2 3 4 5 6 
#
# 1 70.9672 17.8881 39.5596 -5.1488 -15.8974 5.5856
# 2 17.8881 100.2596 44.6526 17.9199 -14.2549 0.4785
# 3 39.5596 44.6526 160.6689 1.3381 -39.7966 1.1196
# 4 -5.1488 17.9199 1.3381 48.7379 -1.2224 -12.7393
# 5 -15.8974 -14.2549 -39.7966 -1.2224 47.2092 -6.0093
# 6 5.5856 0.4785 1.1196 -12.7393 -6.0093 16.4644
#
#
#
# Elastic Compliance Matrix: (Units=1/GPa)
#
#
# Indices 1 2 3 4 5 6 
#
# 1 0.017177 -0.001587 -0.003240 0.001623 0.002168 -0.003514
# 2 -0.001587 0.012679 -0.003042 -0.005817 0.000057 -0.004104
# 3 -0.003240 -0.003042 0.009445 0.001816 0.006552 0.004342
# 4 0.001623 -0.005817 0.001816 0.029000 0.004052 0.023412
# 5 0.002168 0.000057 0.006552 0.004052 0.029161 0.012596
# 6 -0.003514 -0.004104 0.004342 0.023412 0.012596 0.084466
#
#
# Mechanical properties :
#
#
# Convention : Reuss Voigt Hill
#
# Bulk Modulus (GPa) = 42.43856 59.56628 51.00242
# Shear Modulus (GPa) = 24.32855 37.80200 31.06527
#
# Velocity S-wave (km/s) = 3.07911 3.83818 3.47941
# Velocity P-wave (km/s) = 5.40183 6.54640 6.00146
#
# Compressibility (1/GPa) = 0.02356348
#
# Stress axis : x y z
#
# Youngs Moduli (GPa) = 58.21647 78.86775 105.87974
#
# Poissons Ratio (x) = 0.12513 0.34309
# Poissons Ratio (y) = 0.09236 0.32209
# Poissons Ratio (z) = 0.18864 0.23992
#
# Static dielectric constant tensor:
#      x y z
#    x 2.346900 -0.072780 -0.049340 
#    y -0.072780 1.975800 0.019270 
#    z -0.049340 0.019270 2.018280 
# 
# From -- ./inp_files/198325.got.cif
#   From: 2010.05.17/outbox.cif.g08.bks.cpg/sg2_100_cif.got.tgz:198325.got - 2010.06.03 11:33:40.
