data_PCOD9050351
_publ_section_title
;
Structure prediction by ZEFSAII (Michael W. Deem and Ramdas Pophale) SiO2 
 PCOD9050351
Probable space group: P -1
;
_chemical_formula_sum "Si O2"
_cell_formula_units_Z 12
_cell_length_a 6.782512
_cell_length_b 6.691518
_cell_length_c 12.157597
_cell_angle_alpha 52.438542
_cell_angle_beta 65.980373
_cell_angle_gamma 65.122366
_cell_volume 388.008365
_symmetry_space_group_name_H-M "P -1"
_symmetry_group_IT_number 2
_symmetry_cell_setting 'triclinic'
loop_
_space_group_symop_operation_xyz
x,y,z
-x,-y,-z
loop_
_atom_site_type_symbol
_atom_site_label
_atom_site_fract_x
_atom_site_fract_y
_atom_site_fract_z
Si Si1 0.768942 0.718430 0.990224
Si Si2 0.867286 0.056866 0.677637
Si Si3 0.931984 0.761306 0.154328
Si Si4 0.673975 0.604089 0.457732
Si Si5 0.394105 0.333953 0.176601
Si Si6 0.368568 0.824625 0.603302
O O1 0.827750 0.974256 0.838598
O O2 0.582034 0.670060 0.963628
O O3 0.000000 0.500000 0.000000
O O4 0.736383 0.739483 0.118680
O O5 0.675716 0.945776 0.697975
O O6 0.100319 0.893375 0.636088
O O7 0.827717 0.356538 0.566555
O O8 0.811716 0.756711 0.297339
O O9 0.159073 0.538031 0.178685
O O10 0.000000 0.000000 0.000000
O O11 0.411299 0.588685 0.566951
O O12 0.623124 0.845133 0.487324
O O13 0.565711 0.312541 0.244603
#
# Coordination Sequence:
#
# PCOD9050351 Si02
#       6
#     2   2   2   2   2   2
#     4   8  20  46  76 101 150 208 240 307 393 440
#     4  10  24  51  79 105 158 197 254 325 374 444
#     4  11  24  45  76 113 159 199 252 324 380 455
#     4  12  28  47  80 117 149 204 260 311 385 459
#     4   9  22  45  76 109 143 204 252 309 380 451
#     4  12  26  43  75 117 144 196 256 312 379 452
#
# _framework density 30.927171000000001
#
# number of rings (size 3 to 8) (size 9 to 14) (size 15 to 20)
#    1.000    0.667    0.000    3.000    4.667    3.333 
#    0.000    7.500    0.000    0.000    0.000    0.000 
#    0.000    0.000    0.000    0.000    0.000    0.000 
#
# Total GULP energy -67198.141209 kJ/mol
# GULP energy per Si atom -5599.845101 kJ/mol
# Density = 3.085678 g / cm^3
# Si number density = 30.927171 Si / 1000 Ang^3
#
#
#
# Elastic Constant Matrix: (Units=GPa)
#
#
# Indices 1 2 3 4 5 6 
#
# 1 135.3091 33.3970 -51.1112 -9.5186 82.8801 -26.9206
# 2 33.3970 206.8368 57.4601 4.6370 44.8333 -33.3498
# 3 -51.1112 57.4601 42.4378 2.8597 172.8381 -70.9753
# 4 -9.5186 4.6370 2.8597 73.5681 1.9101 -18.8215
# 5 82.8801 44.8333 172.8381 1.9101 -19.3512 23.3044
# 6 -26.9206 -33.3498 -70.9753 -18.8215 23.3044 49.1735
#
#
#
# Elastic Compliance Matrix: (Units=1/GPa)
#
#
# Indices 1 2 3 4 5 6 
#
# 1 0.005485 -0.000956 -0.002004 0.000476 0.001907 -0.001260
# 2 -0.000956 0.005948 -0.001471 0.000084 -0.001103 0.001943
# 3 -0.002004 -0.001471 0.002070 -0.000763 0.004548 -0.001555
# 4 0.000476 0.000084 -0.000763 0.014663 0.001708 0.004019
# 5 0.001907 -0.001103 0.004548 0.001708 0.002403 0.006375
# 6 -0.001260 0.001943 -0.001555 0.004019 0.006375 0.017237
#
#
# Mechanical properties :
#
#
# Convention : Reuss Voigt Hill
#
# Bulk Modulus (GPa) = 215.47441 51.56392 133.51917
# Shear Modulus (GPa) = 85.89027 43.66727 64.77877
#
# Velocity S-wave (km/s) = 5.27561 3.76165 4.58160
# Velocity P-wave (km/s) = 10.34080 5.96453 8.44120
#
# Compressibility (1/GPa) = 0.00464092
#
# Stress axis : x y z
#
# Youngs Moduli (GPa) = 182.33190 168.12395 483.15134
#
# Poissons Ratio (x) = 0.16070 0.96822
# Poissons Ratio (y) = 0.17429 0.71063
# Poissons Ratio (z) = 0.36539 0.24728
#
# Static dielectric constant tensor:
#      x y z
#    x 2.558180 0.422520 0.015310 
#    y 0.422520 2.600160 -0.027140 
#    z 0.015310 -0.027140 2.314700 
# 
# From -- ./inp_files/512711.got.cif
#   From: 2010.05.17/outbox.cif.g08.bks.cpg/sg2_257_cif.got.tgz:512711.got - 2010.06.03 11:33:40.
