data_PCOD9050040
_publ_section_title
;
Structure prediction by ZEFSAII (Michael W. Deem and Ramdas Pophale) SiO2 
 PCOD9050040
Probable space group: P -1
;
_chemical_formula_sum "Si O2"
_cell_formula_units_Z 10
_cell_length_a 10.605021
_cell_length_b 7.849708
_cell_length_c 8.517704
_cell_angle_alpha 104.131454
_cell_angle_beta 127.799710
_cell_angle_gamma 46.554231
_cell_volume 386.853621
_symmetry_space_group_name_H-M "P -1"
_symmetry_group_IT_number 2
_symmetry_cell_setting 'triclinic'
loop_
_space_group_symop_operation_xyz
x,y,z
-x,-y,-z
loop_
_atom_site_type_symbol
_atom_site_label
_atom_site_fract_x
_atom_site_fract_y
_atom_site_fract_z
Si Si1 0.147330 0.073268 0.473235
Si Si2 0.974581 0.744422 0.916155
Si Si3 0.555293 0.825852 0.335817
Si Si4 0.265493 0.611137 0.408701
Si Si5 0.250991 0.262916 0.834138
O O1 0.352415 0.044871 0.564951
O O2 0.104009 0.223325 0.630495
O O3 0.012560 0.171171 0.227274
O O4 0.193033 0.839238 0.503295
O O5 0.106392 0.462737 0.904422
O O6 0.110219 0.708909 0.160088
O O7 0.712802 0.959465 0.814891
O O8 0.666482 0.620443 0.505920
O O9 0.674429 0.661874 0.230779
O O10 0.500000 0.500000 0.500000
O O11 0.500000 0.000000 0.000000
#
# Coordination Sequence:
#
# PCOD9050040 Si02
#       5
#     2   2   2   2   2
#     4  10  24  48  73 111 151 191 251 307 365 450
#     4  12  24  48  82 103 150 206 240 308 382 432
#     4  10  27  48  78 107 151 197 249 302 379 444
#     4  12  25  46  77 112 151 191 254 311 362 451
#     4  10  25  48  75 110 152 191 252 309 364 450
#
# _framework density 25.849571999999998
#
# number of rings (size 3 to 8) (size 9 to 14) (size 15 to 20)
#    1.200    0.000    2.000    3.000    0.000    3.200 
#    0.000    5.000    8.800    0.000    0.000    0.000 
#    0.000    0.000    0.000    0.000    0.000    0.000 
#
# Total GULP energy -55735.857005 kJ/mol
# GULP energy per Si atom -5573.585701 kJ/mol
# Density = 2.579074 g / cm^3
# Si number density = 25.849572 Si / 1000 Ang^3
#
#
#
# Elastic Constant Matrix: (Units=GPa)
#
#
# Indices 1 2 3 4 5 6 
#
# 1 63.6561 73.8985 40.9795 -2.5422 17.7622 -12.1126
# 2 73.8985 216.1671 82.4301 8.8923 16.9594 -23.6648
# 3 40.9795 82.4301 173.7022 -17.6462 12.8471 -2.9462
# 4 -2.5422 8.8923 -17.6462 47.3273 -6.7369 -7.4679
# 5 17.7622 16.9594 12.8471 -6.7369 30.0664 -8.9797
# 6 -12.1126 -23.6648 -2.9462 -7.4679 -8.9797 39.2572
#
#
#
# Elastic Compliance Matrix: (Units=1/GPa)
#
#
# Indices 1 2 3 4 5 6 
#
# 1 0.030716 -0.008630 -0.002154 0.001076 -0.011621 0.001660
# 2 -0.008630 0.008746 -0.002424 -0.002466 0.001324 0.002261
# 3 -0.002154 -0.002424 0.007726 0.003014 -0.000297 -0.001041
# 4 0.001076 -0.002466 0.003014 0.024529 0.006525 0.005231
# 5 -0.011621 0.001324 -0.000297 0.006525 0.043468 0.008375
# 6 0.001660 0.002261 -0.001041 0.005231 0.008375 0.030181
#
#
# Mechanical properties :
#
#
# Convention : Reuss Voigt Hill
#
# Bulk Modulus (GPa) = 48.14390 94.23795 71.19093
# Shear Modulus (GPa) = 27.97880 40.41133 34.19507
#
# Velocity S-wave (km/s) = 3.29351 3.95818 3.64104
# Velocity P-wave (km/s) = 5.75569 7.57793 6.72878
#
# Compressibility (1/GPa) = 0.02077106
#
# Stress axis : x y z
#
# Youngs Moduli (GPa) = 32.55615 114.33983 129.42994
#
# Poissons Ratio (x) = 0.98674 0.27882
# Poissons Ratio (y) = 0.28096 0.31379
# Poissons Ratio (z) = 0.07013 0.27721
#
# Static dielectric constant tensor:
#      x y z
#    x 2.237150 -0.115740 -0.159190 
#    y -0.115740 2.339380 0.106960 
#    z -0.159190 0.106960 2.166360 
# 
# From -- ./inp_files/240725.got.cif
#   From: 2010.05.17/outbox.cif.g08.bks.cpg/sg2_121_cif.got.tgz:240725.got - 2010.06.03 11:33:40.
