data_PCOD9050096
_publ_section_title
;
Structure prediction by ZEFSAII (Michael W. Deem and Ramdas Pophale) SiO2 
 PCOD9050096
Probable space group: P -1
;
_chemical_formula_sum "Si O2"
_cell_formula_units_Z 16
_cell_length_a 12.092834
_cell_length_b 8.897087
_cell_length_c 14.899605
_cell_angle_alpha 72.914714
_cell_angle_beta 111.437878
_cell_angle_gamma 151.579284
_cell_volume 708.795029
_symmetry_space_group_name_H-M "P -1"
_symmetry_group_IT_number 2
_symmetry_cell_setting 'triclinic'
loop_
_space_group_symop_operation_xyz
x,y,z
-x,-y,-z
loop_
_atom_site_type_symbol
_atom_site_label
_atom_site_fract_x
_atom_site_fract_y
_atom_site_fract_z
Si Si1 0.072589 0.548191 0.114770
Si Si2 0.103116 0.814925 0.228834
Si Si3 0.519656 0.894410 0.103199
Si Si4 0.130416 0.040182 0.459419
Si Si5 0.394030 0.913317 0.385452
Si Si6 0.755914 0.554954 0.278454
Si Si7 0.505094 0.712633 0.370770
Si Si8 0.464595 0.516131 0.200879
O O1 0.149543 0.788565 0.152311
O O2 0.314126 0.719084 0.144800
O O3 0.813435 0.207803 0.145646
O O4 0.000000 0.500000 0.000000
O O5 0.832860 0.555790 0.211494
O O6 0.151606 0.734888 0.332989
O O7 0.249852 0.147211 0.220743
O O8 0.427928 0.612558 0.102143
O O9 0.500000 0.000000 0.000000
O O10 0.332173 0.380605 0.416660
O O11 0.246313 0.027176 0.548379
O O12 0.000000 0.000000 0.500000
O O13 0.963287 0.799022 0.371134
O O14 0.557989 0.227327 0.327695
O O15 0.500000 0.000000 0.500000
O O16 0.396267 0.753859 0.359721
O O17 0.677176 0.641184 0.220336
O O18 0.529865 0.690505 0.279062
#
# Coordination Sequence:
#
# PCOD9050096 Si02
#       8
#     2   2   2   2   2   2   2   2
#     4  10  24  48  77 105 139 181 233 294 364 434
#     4  11  25  43  67  99 143 180 235 297 354 429
#     4  10  24  48  76 106 139 177 231 291 359 438
#     4  11  21  38  59  87 131 179 229 283 337 400
#     4  11  25  41  61  95 139 187 238 293 344 415
#     4  11  24  41  61  96 136 181 236 283 355 412
#     4  11  23  37  61  90 129 177 235 282 342 410
#     4  11  24  41  67 100 135 178 231 288 355 428
#
# _framework density 22.573521
#
# number of rings (size 3 to 8) (size 9 to 14) (size 15 to 20)
#    0.000    1.250    2.500    2.250   10.500    4.000 
#    0.000    5.000    0.000    0.000    0.000    0.000 
#    0.000    0.000    0.000    0.000    0.000    0.000 
#
# Total GULP energy -89156.634684 kJ/mol
# GULP energy per Si atom -5572.289668 kJ/mol
# Density = 2.252214 g / cm^3
# Si number density = 22.573521 Si / 1000 Ang^3
#
#
#
# Elastic Constant Matrix: (Units=GPa)
#
#
# Indices 1 2 3 4 5 6 
#
# 1 165.4631 24.9908 33.7548 -12.7026 -1.1198 2.2577
# 2 24.9908 54.5161 7.8797 -6.3042 5.0536 3.3107
# 3 33.7548 7.8797 80.7448 -5.9992 1.4722 -10.9227
# 4 -12.7026 -6.3042 -5.9992 21.7926 -7.9953 1.2067
# 5 -1.1198 5.0536 1.4722 -7.9953 34.9073 -8.4749
# 6 2.2577 3.3107 -10.9227 1.2067 -8.4749 44.4803
#
#
#
# Elastic Compliance Matrix: (Units=1/GPa)
#
#
# Indices 1 2 3 4 5 6 
#
# 1 0.007250 -0.002647 -0.002644 0.003250 0.001312 -0.000658
# 2 -0.002647 0.020455 -0.000901 0.003218 -0.002813 -0.002233
# 3 -0.002644 -0.000901 0.014243 0.002231 0.000880 0.003806
# 4 0.003250 0.003218 0.002231 0.053706 0.012086 0.000989
# 5 0.001312 -0.002813 0.000880 0.012086 0.033379 0.006391
# 6 -0.000658 -0.002233 0.003806 0.000989 0.006391 0.024807
#
#
# Mechanical properties :
#
#
# Convention : Reuss Voigt Hill
#
# Bulk Modulus (GPa) = 33.82585 48.21939 41.02262
# Shear Modulus (GPa) = 28.39626 35.84264 32.11945
#
# Velocity S-wave (km/s) = 3.55060 3.98907 3.77620
# Velocity P-wave (km/s) = 5.64148 6.52873 6.10125
#
# Compressibility (1/GPa) = 0.02956318
#
# Stress axis : x y z
#
# Youngs Moduli (GPa) = 137.92638 48.88675 70.21229
#
# Poissons Ratio (x) = 0.12941 0.18565
# Poissons Ratio (y) = 0.36512 0.06328
# Poissons Ratio (z) = 0.36469 0.04406
#
# Static dielectric constant tensor:
#      x y z
#    x 1.942920 0.161710 0.058900 
#    y 0.161710 1.954610 0.025340 
#    z 0.058900 0.025340 1.876420 
# 
# From -- ./inp_files/106217.got.cif
#   From: 2010.05.17/outbox.cif.g08.bks.cpg/sg2_54_cif.got.tgz:106217.got - 2010.06.03 11:33:40.
