data_PCOD9050137
_publ_section_title
;
Structure prediction by ZEFSAII (Michael W. Deem and Ramdas Pophale) SiO2 
 PCOD9050137
Probable space group: P -1
;
_chemical_formula_sum "Si O2"
_cell_formula_units_Z 14
_cell_length_a 9.261550
_cell_length_b 24.099896
_cell_length_c 20.879730
_cell_angle_alpha 16.684121
_cell_angle_beta 142.098022
_cell_angle_gamma 151.385623
_cell_volume 593.477260
_symmetry_space_group_name_H-M "P -1"
_symmetry_group_IT_number 2
_symmetry_cell_setting 'triclinic'
loop_
_space_group_symop_operation_xyz
x,y,z
-x,-y,-z
loop_
_atom_site_type_symbol
_atom_site_label
_atom_site_fract_x
_atom_site_fract_y
_atom_site_fract_z
Si Si1 0.667382 0.340544 0.848964
Si Si2 0.191214 0.862946 0.118246
Si Si3 0.755633 0.831946 0.540939
Si Si4 0.694885 0.763679 0.955394
Si Si5 0.835845 0.703568 0.930200
Si Si6 0.304183 0.498713 0.536821
Si Si7 0.281420 0.903720 0.311038
O O1 0.617546 0.542009 0.607424
O O2 0.005912 0.420488 0.875289
O O3 0.464663 0.150344 0.927293
O O4 0.480340 0.149149 0.057861
O O5 0.351092 0.753522 0.273210
O O6 0.978570 0.836501 0.018148
O O7 0.935096 0.678452 0.290567
O O8 0.636176 0.546364 0.804949
O O9 0.435870 0.779625 0.499929
O O10 0.000000 0.000000 0.500000
O O11 0.918848 0.019751 0.328719
O O12 0.775675 0.764844 0.909610
O O13 0.668704 0.966804 0.746618
O O14 0.500000 0.500000 0.000000
O O15 0.085660 0.317326 0.599385
#
# Coordination Sequence:
#
# PCOD9050137 Si02
#       7
#     2   2   2   2   2   2   2
#     4  10  20  38  64  94 137 171 216 266 326 392
#     4  10  19  33  68 101 129 172 212 268 332 388
#     4  11  24  46  71  91 129 181 221 266 337 388
#     4  12  22  43  72  96 135 169 218 277 331 381
#     4  11  26  46  66  97 133 176 222 275 322 391
#     4  10  17  34  62 103 132 167 220 259 327 402
#     4  10  20  37  67 102 128 172 219 269 330 394
#
# _framework density 23.589783000000001
#
# number of rings (size 3 to 8) (size 9 to 14) (size 15 to 20)
#    0.000    1.429    5.714    0.857    2.000    1.143 
#    0.000    5.714    0.000    0.000    0.000    0.000 
#    0.000    0.000    0.000    0.000    0.000    0.000 
#
# Total GULP energy -78453.407828 kJ/mol
# GULP energy per Si atom -5603.814845 kJ/mol
# Density = 2.353609 g / cm^3
# Si number density = 23.589783 Si / 1000 Ang^3
#
#
#
# Elastic Constant Matrix: (Units=GPa)
#
#
# Indices 1 2 3 4 5 6 
#
# 1 113.4339 28.2610 36.1016 -11.1509 9.7097 -11.7519
# 2 28.2610 108.2319 -4.3936 -5.1038 1.1881 -8.5371
# 3 36.1016 -4.3936 58.1701 -9.8587 1.5910 0.3722
# 4 -11.1509 -5.1038 -9.8587 15.5691 -0.6821 -4.9976
# 5 9.7097 1.1881 1.5910 -0.6821 40.2239 -2.3236
# 6 -11.7519 -8.5371 0.3722 -4.9976 -2.3236 33.9674
#
#
#
# Elastic Compliance Matrix: (Units=1/GPa)
#
#
# Indices 1 2 3 4 5 6 
#
# 1 0.013136 -0.003129 -0.007515 0.004929 -0.002444 0.004399
# 2 -0.003129 0.010553 0.003405 0.004093 0.000504 0.002169
# 3 -0.007515 0.003405 0.023921 0.010809 0.000930 -0.000352
# 4 0.004929 0.004093 0.010809 0.080624 0.000467 0.014510
# 5 -0.002444 0.000504 0.000930 0.000467 0.025469 0.001082
# 6 0.004399 0.002169 -0.000352 0.014510 0.001082 0.033720
#
#
# Mechanical properties :
#
#
# Convention : Reuss Voigt Hill
#
# Bulk Modulus (GPa) = 30.18176 44.41930 37.30053
# Shear Modulus (GPa) = 23.48016 32.60990 28.04503
#
# Velocity S-wave (km/s) = 3.15834 3.72206 3.45173
# Velocity P-wave (km/s) = 5.11101 6.11085 5.63315
#
# Compressibility (1/GPa) = 0.03313260
#
# Stress axis : x y z
#
# Youngs Moduli (GPa) = 76.12414 94.75764 41.80469
#
# Poissons Ratio (x) = 0.29649 0.31416
# Poissons Ratio (y) = 0.23819 -0.14235
# Poissons Ratio (z) = 0.57207 -0.32265
#
# Static dielectric constant tensor:
#      x y z
#    x 1.909230 0.021730 -0.045940 
#    y 0.021730 1.823310 0.007880 
#    z -0.045940 0.007880 1.932000 
# 
# From -- ./inp_files/492620.got.cif
#   From: 2010.05.17/outbox.cif.g08.bks.cpg/sg2_247_cif.got.tgz:492620.got - 2010.06.03 11:33:40.
