data_PCOD9050533
_publ_section_title
;
Structure prediction by ZEFSAII (Michael W. Deem and Ramdas Pophale) SiO2 
 PCOD9050533
Probable space group: P -1
;
_chemical_formula_sum "Si O2"
_cell_formula_units_Z 16
_cell_length_a 9.382986
_cell_length_b 7.935594
_cell_length_c 9.515124
_cell_angle_alpha 79.215959
_cell_angle_beta 108.161156
_cell_angle_gamma 92.191087
_cell_volume 661.155259
_symmetry_space_group_name_H-M "P -1"
_symmetry_group_IT_number 2
_symmetry_cell_setting 'triclinic'
loop_
_space_group_symop_operation_xyz
x,y,z
-x,-y,-z
loop_
_atom_site_type_symbol
_atom_site_label
_atom_site_fract_x
_atom_site_fract_y
_atom_site_fract_z
Si Si1 0.390751 0.084614 0.567806
Si Si2 0.132334 0.673936 0.285525
Si Si3 0.123059 0.360393 0.002950
Si Si4 0.862558 0.674448 0.494417
Si Si5 0.056600 0.033216 0.171891
Si Si6 0.453735 0.599504 0.322860
Si Si7 0.701952 0.537508 0.198421
Si Si8 0.152622 0.835718 0.671184
O O1 0.263542 0.228109 0.465651
O O2 0.496948 0.202735 0.677527
O O3 0.500000 0.000000 0.500000
O O4 0.286839 0.945021 0.632559
O O5 0.978821 0.691529 0.153062
O O6 0.275312 0.606158 0.251988
O O7 0.114822 0.521574 0.415958
O O8 0.155705 0.875885 0.291053
O O9 0.277472 0.398254 0.964169
O O10 0.000000 0.500000 0.000000
O O11 0.140723 0.211305 0.144802
O O12 0.788881 0.654234 0.322181
O O13 0.009029 0.789809 0.535955
O O14 0.919078 0.075186 0.227420
O O15 0.000000 0.000000 0.000000
O O16 0.500000 0.500000 0.500000
O O17 0.542844 0.523672 0.229569
O O18 0.780585 0.351369 0.245247
#
# Coordination Sequence:
#
# PCOD9050533 Si02
#       8
#     2   2   2   2   2   2   2   2
#     4  11  26  39  61 100 147 174 213 277 346 423
#     4  11  23  43  73  96 136 177 230 274 348 407
#     4  11  22  46  70  99 133 178 241 283 331 386
#     4  11  24  40  67 105 135 177 224 281 363 406
#     4  10  25  42  70  97 133 181 235 288 321 389
#     4  11  23  45  66  97 144 183 214 268 361 427
#     4  11  23  40  72  99 141 178 217 285 349 412
#     4  12  24  41  67 103 135 175 234 289 337 403
#
# _framework density 24.200064000000001
#
# number of rings (size 3 to 8) (size 9 to 14) (size 15 to 20)
#    0.000    1.000    5.000    1.500    8.750    0.000 
#    0.000    1.250    0.000    0.000    0.000    0.000 
#    0.000    0.000    0.000    0.000    0.000    0.000 
#
# Total GULP energy -89272.408392 kJ/mol
# GULP energy per Si atom -5579.525524 kJ/mol
# Density = 2.414498 g / cm^3
# Si number density = 24.200064 Si / 1000 Ang^3
#
#
#
# Elastic Constant Matrix: (Units=GPa)
#
#
# Indices 1 2 3 4 5 6 
#
# 1 157.9898 37.1926 56.3453 4.0463 -47.7440 -14.2549
# 2 37.1926 133.3186 47.2982 -8.3354 -32.3885 -19.3735
# 3 56.3453 47.2982 98.9677 0.8292 -38.2992 -1.1127
# 4 4.0463 -8.3354 0.8292 33.2451 4.7246 -7.4379
# 5 -47.7440 -32.3885 -38.2992 4.7246 52.2511 11.6860
# 6 -14.2549 -19.3735 -1.1127 -7.4379 11.6860 54.5444
#
#
#
# Elastic Compliance Matrix: (Units=1/GPa)
#
#
# Indices 1 2 3 4 5 6 
#
# 1 0.009426 -0.000065 -0.002781 -0.001860 0.006540 0.000729
# 2 -0.000065 0.010163 -0.003906 0.003091 0.002330 0.003436
# 3 -0.002781 -0.003906 0.016859 -0.003187 0.008588 -0.004045
# 4 -0.001860 0.003091 -0.003187 0.033564 -0.006618 0.006541
# 5 0.006540 0.002330 0.008588 -0.006618 0.034710 -0.005627
# 6 0.000729 0.003436 -0.004045 0.006541 -0.005627 0.021760
#
#
# Mechanical properties :
#
#
# Convention : Reuss Voigt Hill
#
# Bulk Modulus (GPa) = 43.58290 74.66093 59.12192
# Shear Modulus (GPa) = 33.86753 44.63746 39.25249
#
# Velocity S-wave (km/s) = 3.74502 4.29944 4.03177
# Velocity P-wave (km/s) = 6.06208 7.45423 6.79390
#
# Compressibility (1/GPa) = 0.02294478
#
# Stress axis : x y z
#
# Youngs Moduli (GPa) = 106.08565 98.39496 59.31554
#
# Poissons Ratio (x) = 0.00636 0.16497
# Poissons Ratio (y) = 0.00685 0.23169
# Poissons Ratio (z) = 0.29505 0.38433
#
# Static dielectric constant tensor:
#      x y z
#    x 2.468790 0.697490 0.189040 
#    y 0.697490 2.856330 0.323910 
#    z 0.189040 0.323910 2.078080 
# 
# From -- ./inp_files/376127.got.cif
#   From: 2010.05.17/outbox.cif.g08.bks.cpg/sg2_189_cif.got.tgz:376127.got - 2010.06.03 11:33:40.
