data_PCOD9050197
_publ_section_title
;
Structure prediction by ZEFSAII (Michael W. Deem and Ramdas Pophale) SiO2 
 PCOD9050197
Probable space group: P -1
;
_chemical_formula_sum "Si O2"
_cell_formula_units_Z 16
_cell_length_a 16.769684
_cell_length_b 8.493360
_cell_length_c 8.040796
_cell_angle_alpha 129.693121
_cell_angle_beta 54.752722
_cell_angle_gamma 132.816226
_cell_volume 625.330076
_symmetry_space_group_name_H-M "P -1"
_symmetry_group_IT_number 2
_symmetry_cell_setting 'triclinic'
loop_
_space_group_symop_operation_xyz
x,y,z
-x,-y,-z
loop_
_atom_site_type_symbol
_atom_site_label
_atom_site_fract_x
_atom_site_fract_y
_atom_site_fract_z
Si Si1 0.113565 0.403328 0.883474
Si Si2 0.301222 0.926424 0.953496
Si Si3 0.880041 0.259297 0.485143
Si Si4 0.758952 0.800700 0.543180
Si Si5 0.128191 0.927811 0.972552
Si Si6 0.544570 0.507700 0.146564
Si Si7 0.205614 0.406782 0.137139
Si Si8 0.552173 0.309818 0.347152
O O1 0.194521 0.681822 0.975377
O O2 0.153095 0.294031 0.614700
O O3 0.146880 0.348862 0.987847
O O4 0.980148 0.283757 0.955383
O O5 0.249330 0.944203 0.854674
O O6 0.404360 0.877397 0.805018
O O7 0.301705 0.142153 0.195914
O O8 0.893526 0.120173 0.225074
O O9 0.795648 0.363767 0.641764
O O10 0.000000 0.500000 0.500000
O O11 0.828769 0.056535 0.547971
O O12 0.660165 0.574780 0.414052
O O13 0.137182 0.174163 0.173319
O O14 0.510054 0.307713 0.207335
O O15 0.524520 0.693458 0.407347
O O16 0.500000 0.500000 0.000000
O O17 0.670358 0.556176 0.999982
#
# Coordination Sequence:
#
# PCOD9050197 Si02
#       8
#     2   2   2   2   2   2   2   2
#     4  11  21  42  67  95 141 179 217 276 340 411
#     4  11  24  42  66  99 137 179 222 277 344 406
#     4  12  22  38  69 100 133 181 222 275 343 409
#     4  11  21  41  70  92 135 184 221 270 356 401
#     4  12  25  38  66 104 135 174 232 270 331 425
#     4  11  24  45  77  99 131 183 234 287 357 403
#     4  12  23  43  66  98 138 174 224 289 340 403
#     4  10  24  49  70  98 142 178 225 300 347 400
#
# _framework density 25.586487999999999
#
# number of rings (size 3 to 8) (size 9 to 14) (size 15 to 20)
#    0.000    0.750    6.250    1.500    3.500    1.500 
#    0.000    7.500    0.000    0.000    0.000    0.000 
#    0.000    0.000    0.000    0.000    0.000    0.000 
#
# Total GULP energy -89075.258332 kJ/mol
# GULP energy per Si atom -5567.203646 kJ/mol
# Density = 2.552825 g / cm^3
# Si number density = 25.586488 Si / 1000 Ang^3
#
#
#
# Elastic Constant Matrix: (Units=GPa)
#
#
# Indices 1 2 3 4 5 6 
#
# 1 109.5880 -6.0969 30.6746 -13.0652 -9.6431 5.7621
# 2 -6.0969 53.7867 23.3520 -3.0642 16.0204 -2.3144
# 3 30.6746 23.3520 144.5578 8.4370 -18.9867 7.9305
# 4 -13.0652 -3.0642 8.4370 39.6879 4.9329 -14.9912
# 5 -9.6431 16.0204 -18.9867 4.9329 31.1669 -4.7692
# 6 5.7621 -2.3144 7.9305 -14.9912 -4.7692 20.8319
#
#
#
# Elastic Compliance Matrix: (Units=1/GPa)
#
#
# Indices 1 2 3 4 5 6 
#
# 1 0.010722 0.003448 -0.003436 0.005609 -0.001050 0.002522
# 2 0.003448 0.030454 -0.009615 0.011835 -0.020812 0.009842
# 3 -0.003436 -0.009615 0.011638 -0.008906 0.011091 -0.008418
# 4 0.005609 0.011835 -0.008906 0.043241 -0.011786 0.031573
# 5 -0.001050 -0.020812 0.011091 -0.011786 0.050599 -0.003141
# 6 0.002522 0.009842 -0.008418 0.031573 -0.003141 0.073606
#
#
# Mechanical properties :
#
#
# Convention : Reuss Voigt Hill
#
# Bulk Modulus (GPa) = 29.75484 44.86580 37.31032
# Shear Modulus (GPa) = 19.94652 35.67085 27.80869
#
# Velocity S-wave (km/s) = 2.79511 3.73785 3.30032
# Velocity P-wave (km/s) = 4.69800 6.01679 5.39782
#
# Compressibility (1/GPa) = 0.03360798
#
# Stress axis : x y z
#
# Youngs Moduli (GPa) = 93.26261 32.83651 85.92313
#
# Poissons Ratio (x) = -0.11322 0.29522
# Poissons Ratio (y) = -0.32155 0.82618
# Poissons Ratio (z) = 0.32043 0.31573
#
# Static dielectric constant tensor:
#      x y z
#    x 2.402050 -0.262260 -0.074650 
#    y -0.262260 2.549980 0.143490 
#    z -0.074650 0.143490 2.061210 
# 
# From -- ./inp_files/329551.got.cif
#   From: 2010.05.17/outbox.cif.g08.bks.cpg/sg2_165_cif.got.tgz:329551.got - 2010.06.03 11:33:40.
