data_PCOD9050525
_publ_section_title
;
Structure prediction by ZEFSAII (Michael W. Deem and Ramdas Pophale) SiO2 
 PCOD9050525
Probable space group: P -1
;
_chemical_formula_sum "Si O2"
_cell_formula_units_Z 14
_cell_length_a 5.144670
_cell_length_b 23.775809
_cell_length_c 9.901416
_cell_angle_alpha 36.236252
_cell_angle_beta 96.230689
_cell_angle_gamma 81.622744
_cell_volume 653.230413
_symmetry_space_group_name_H-M "P -1"
_symmetry_group_IT_number 2
_symmetry_cell_setting 'triclinic'
loop_
_space_group_symop_operation_xyz
x,y,z
-x,-y,-z
loop_
_atom_site_type_symbol
_atom_site_label
_atom_site_fract_x
_atom_site_fract_y
_atom_site_fract_z
Si Si1 0.776391 0.007258 0.089491
Si Si2 0.037865 0.410513 0.065568
Si Si3 0.206795 0.246602 0.833742
Si Si4 0.609963 0.347852 0.723410
Si Si5 0.295788 0.193867 0.648766
Si Si6 0.302029 0.966935 0.651759
Si Si7 0.529102 0.564252 0.166515
O O1 0.780127 0.988254 0.287652
O O2 0.706937 0.908565 0.226395
O O3 0.616351 0.134175 0.834487
O O4 0.000000 0.000000 0.000000
O O5 0.212489 0.295741 0.358499
O O6 0.213648 0.426460 0.918736
O O7 0.000000 0.500000 0.000000
O O8 0.733027 0.416538 0.986564
O O9 0.332692 0.335205 0.670835
O O10 0.127793 0.226512 0.716425
O O11 0.927808 0.265447 0.869031
O O12 0.487046 0.152489 0.085192
O O13 0.614793 0.451634 0.455767
O O14 0.565181 0.359034 0.859805
O O15 0.500000 0.000000 0.500000
O O16 0.000000 0.000000 0.500000
#
# Coordination Sequence:
#
# PCOD9050525 Si02
#       7
#     2   2   2   2   2   2   2
#     4  10  25  46  72  97 138 190 231 284 352 418
#     4  12  25  43  67 104 135 176 225 287 338 405
#     4  11  24  42  70  95 130 180 228 271 349 411
#     4  11  23  44  65  94 132 181 223 276 334 423
#     4  10  25  42  69  97 135 179 231 276 344 417
#     4  11  26  45  68 102 139 172 229 295 349 410
#     4  11  25  42  65  95 138 175 224 277 345 397
#
# _framework density 21.431947000000001
#
# number of rings (size 3 to 8) (size 9 to 14) (size 15 to 20)
#    0.000    1.143    0.000    4.714   12.000    5.714 
#    0.000    0.000    0.000    0.000    0.000    0.000 
#    0.000    0.000    0.000    0.000    0.000    0.000 
#
# Total GULP energy -77934.662254 kJ/mol
# GULP energy per Si atom -5566.761590 kJ/mol
# Density = 2.138317 g / cm^3
# Si number density = 21.431947 Si / 1000 Ang^3
#
#
#
# Elastic Constant Matrix: (Units=GPa)
#
#
# Indices 1 2 3 4 5 6 
#
# 1 91.9222 13.0405 3.7525 -7.8538 -3.3214 -20.2522
# 2 13.0405 91.9053 12.4677 -19.9458 10.3411 -25.2632
# 3 3.7525 12.4677 90.4646 -11.3843 -7.2338 -8.5344
# 4 -7.8538 -19.9458 -11.3843 8.9049 4.6740 -11.6839
# 5 -3.3214 10.3411 -7.2338 4.6740 24.7810 9.2169
# 6 -20.2522 -25.2632 -8.5344 -11.6839 9.2169 38.7413
#
#
#
# Elastic Compliance Matrix: (Units=1/GPa)
#
#
# Indices 1 2 3 4 5 6 
#
# 1 0.010334 -0.005172 -0.000815 -0.010635 0.006381 -0.002876
# 2 -0.005172 0.001270 -0.004249 -0.029069 0.008037 -0.013491
# 3 -0.000815 -0.004249 0.011329 -0.004499 0.007224 -0.003777
# 4 -0.010635 -0.029069 -0.004499 -0.057139 0.039566 -0.052152
# 5 0.006381 0.008037 0.007224 0.039566 0.026638 0.015763
# 6 -0.002876 -0.013491 -0.003777 -0.052152 0.015763 -0.004799
#
#
# Mechanical properties :
#
#
# Convention : Reuss Voigt Hill
#
# Bulk Modulus (GPa) = 406.44380 36.97928 221.71154
# Shear Modulus (GPa) = 560.26038 30.82087 295.54062
#
# Velocity S-wave (km/s) = 16.18583 3.79632 11.75570
# Velocity P-wave (km/s) = 23.22421 6.04217 16.96867
#
# Compressibility (1/GPa) = 0.00246036
#
# Stress axis : x y z
#
# Youngs Moduli (GPa) = 96.76626 787.66073 88.27271
#
# Poissons Ratio (x) = 4.07391 0.07196
# Poissons Ratio (y) = 0.50049 0.37503
# Poissons Ratio (z) = 0.07889 3.34644
#
# Static dielectric constant tensor:
#      x y z
#    x 1.010870 -0.141540 0.045060 
#    y -0.141540 1.752410 -0.051500 
#    z 0.045060 -0.051500 1.769220 
# 
# From -- ./inp_files/119445.got.cif
#   From: 2010.05.17/outbox.cif.g08.bks.cpg/sg2_60_cif.got.tgz:119445.got - 2010.06.03 11:33:40.
