data_PCOD9050644
_publ_section_title
;
Structure prediction by ZEFSAII (Michael W. Deem and Ramdas Pophale) SiO2 
 PCOD9050644
Probable space group: P -1
;
_chemical_formula_sum "Si O2"
_cell_formula_units_Z 16
_cell_length_a 9.157205
_cell_length_b 17.656531
_cell_length_c 15.213137
_cell_angle_alpha 150.561654
_cell_angle_beta 40.735453
_cell_angle_gamma 140.284849
_cell_volume 741.650220
_symmetry_space_group_name_H-M "P -1"
_symmetry_group_IT_number 2
_symmetry_cell_setting 'triclinic'
loop_
_space_group_symop_operation_xyz
x,y,z
-x,-y,-z
loop_
_atom_site_type_symbol
_atom_site_label
_atom_site_fract_x
_atom_site_fract_y
_atom_site_fract_z
Si Si1 0.525562 0.394545 0.246818
Si Si2 0.697372 0.972152 0.941724
Si Si3 0.165505 0.886764 0.807175
Si Si4 0.938115 0.551690 0.484827
Si Si5 0.847460 0.049991 0.383735
Si Si6 0.745063 0.409870 0.982883
Si Si7 0.574055 0.036233 0.648957
Si Si8 0.054144 0.559401 0.252937
O O1 0.418804 0.202773 0.130656
O O2 0.339095 0.485182 0.447917
O O3 0.554246 0.416562 0.149601
O O4 0.785205 0.475538 0.253863
O O5 0.913423 0.967581 0.777979
O O6 0.500000 0.000000 0.000000
O O7 0.794984 0.124952 0.119321
O O8 0.033651 0.745683 0.656863
O O9 0.431815 0.946440 0.707157
O O10 0.000000 0.000000 0.000000
O O11 0.000000 0.500000 0.500000
O O12 0.061508 0.507550 0.298502
O O13 0.750743 0.975130 0.447928
O O14 0.888302 0.244039 0.568639
O O15 0.637938 0.968686 0.327281
O O16 0.710555 0.219375 0.800955
O O17 0.767613 0.468806 0.930494
O O18 0.000000 0.500000 0.000000
#
# Coordination Sequence:
#
# PCOD9050644 Si02
#       8
#     2   2   2   2   2   2   2   2
#     4  11  21  40  62  84 122 167 202 256 311 363
#     4  12  25  38  61  93 125 161 211 257 312 374
#     4  12  20  41  65  90 123 163 214 255 307 374
#     4  12  25  38  61  94 125 161 208 256 310 368
#     4  10  20  35  60  91 115 159 205 250 314 364
#     4   9  19  34  62  91 114 162 205 249 315 373
#     4  10  17  34  64  86 118 158 203 257 305 367
#     4  10  20  38  62  85 121 159 206 249 316 374
#
# _framework density 21.573512000000001
#
# number of rings (size 3 to 8) (size 9 to 14) (size 15 to 20)
#    0.000    1.250    6.250    0.375    1.750    0.000 
#    0.000    1.250    8.250    0.000    0.000    0.000 
#    0.000    0.000    0.000    0.000    0.000    0.000 
#
# Total GULP energy -89116.191983 kJ/mol
# GULP energy per Si atom -5569.761999 kJ/mol
# Density = 2.152441 g / cm^3
# Si number density = 21.573512 Si / 1000 Ang^3
#
#
#
# Elastic Constant Matrix: (Units=GPa)
#
#
# Indices 1 2 3 4 5 6 
#
# 1 78.7853 22.3684 18.5850 -9.9445 17.2735 -3.2744
# 2 22.3684 93.2696 39.0312 -30.8918 2.1120 -0.0083
# 3 18.5850 39.0312 63.7253 -36.2430 27.9740 -8.4652
# 4 -9.9445 -30.8918 -36.2430 46.0418 -2.9676 20.9831
# 5 17.2735 2.1120 27.9740 -2.9676 27.3941 -3.9903
# 6 -3.2744 -0.0083 -8.4652 20.9831 -3.9903 40.0953
#
#
#
# Elastic Compliance Matrix: (Units=1/GPa)
#
#
# Indices 1 2 3 4 5 6 
#
# 1 0.019128 -0.007936 0.025822 0.020009 -0.036687 -0.007110
# 2 -0.007936 0.022082 -0.035458 -0.013619 0.038447 0.002823
# 3 0.025822 -0.035458 0.203234 0.153898 -0.212672 -0.056695
# 4 0.020009 -0.013619 0.153898 0.156825 -0.161053 -0.063976
# 5 -0.036687 0.038447 -0.212672 -0.161053 0.265551 0.062823
# 6 -0.007110 0.002823 -0.056695 -0.063976 0.062823 0.052123
#
#
# Mechanical properties :
#
#
# Convention : Reuss Voigt Hill
#
# Bulk Modulus (GPa) = 4.77782 43.97215 24.37499
# Shear Modulus (GPa) = 6.06904 33.09262 19.58083
#
# Velocity S-wave (km/s) = 1.67908 3.92081 3.01596
# Velocity P-wave (km/s) = 2.44510 6.39717 4.84264
#
# Compressibility (1/GPa) = 0.20930044
#
# Stress axis : x y z
#
# Youngs Moduli (GPa) = 52.27894 45.28485 4.92044
#
# Poissons Ratio (x) = 0.35939 -0.12706
# Poissons Ratio (y) = 0.41489 0.17447
# Poissons Ratio (z) = -1.34997 1.60573
#
# Static dielectric constant tensor:
#      x y z
#    x 1.814770 -0.083110 0.017310 
#    y -0.083110 2.024750 0.021690 
#    z 0.017310 0.021690 1.826360 
# 
# From -- ./inp_files/298406.got.cif
#   From: 2010.05.17/outbox.cif.g08.bks.cpg/sg2_150_cif.got.tgz:298406.got - 2010.06.03 11:33:40.
