data_PCOD9050528
_publ_section_title
;
Structure prediction by ZEFSAII (Michael W. Deem and Ramdas Pophale) SiO2 
 PCOD9050528
Probable space group: P -1
;
_chemical_formula_sum "Si O2"
_cell_formula_units_Z 14
_cell_length_a 16.659077
_cell_length_b 20.310040
_cell_length_c 7.873614
_cell_angle_alpha 123.651045
_cell_angle_beta 44.147405
_cell_angle_gamma 159.989846
_cell_volume 548.422254
_symmetry_space_group_name_H-M "P -1"
_symmetry_group_IT_number 2
_symmetry_cell_setting 'triclinic'
loop_
_space_group_symop_operation_xyz
x,y,z
-x,-y,-z
loop_
_atom_site_type_symbol
_atom_site_label
_atom_site_fract_x
_atom_site_fract_y
_atom_site_fract_z
Si Si1 0.745157 0.959169 0.070125
Si Si2 0.341095 0.035804 0.441050
Si Si3 0.044547 0.082528 0.323988
Si Si4 0.902610 0.608577 0.538814
Si Si5 0.656894 0.428769 0.283800
Si Si6 0.325696 0.445480 0.857189
Si Si7 0.735114 0.316735 0.904087
O O1 0.569014 0.887943 0.394007
O O2 0.773623 0.883070 0.942445
O O3 0.538950 0.851444 0.064669
O O4 0.111323 0.229700 0.892199
O O5 0.079902 0.939625 0.667288
O O6 0.191899 0.853154 0.396863
O O7 0.584430 0.199777 0.150033
O O8 0.284360 0.296094 0.363643
O O9 0.714960 0.838906 0.564415
O O10 0.688626 0.464494 0.486973
O O11 0.760574 0.560619 0.850620
O O12 0.026109 0.600812 0.385784
O O13 0.760558 0.566797 0.204794
O O14 0.867144 0.489366 0.985265
#
# Coordination Sequence:
#
# PCOD9050528 Si02
#       7
#     2   2   2   2   2   2   2
#     4  11  25  44  71 104 134 181 220 281 342 396
#     4  10  25  42  70 100 135 181 219 285 336 394
#     4  11  25  45  70 103 139 173 228 278 343 401
#     4  11  26  44  68 104 134 181 231 272 338 403
#     4  11  25  43  68 102 137 181 221 283 337 395
#     4  11  26  43  69 105 135 178 223 279 341 401
#     4  11  24  45  69  99 140 178 228 277 334 403
#
# _framework density 25.527774999999998
#
# number of rings (size 3 to 8) (size 9 to 14) (size 15 to 20)
#    0.000    1.143    1.429    2.571   10.000    5.714 
#    0.000    0.000    0.000    0.000    0.000    0.000 
#    0.000    0.000    0.000    0.000    0.000    0.000 
#
# Total GULP energy -78344.267010 kJ/mol
# GULP energy per Si atom -5596.019072 kJ/mol
# Density = 2.546967 g / cm^3
# Si number density = 25.527775 Si / 1000 Ang^3
#
#
#
# Elastic Constant Matrix: (Units=GPa)
#
#
# Indices 1 2 3 4 5 6 
#
# 1 24.6177 -70.4744 146.2491 41.2741 -84.2566 74.0239
# 2 -70.4744 -126.2470 303.3390 73.1541 -203.3983 121.0035
# 3 146.2491 303.3390 -205.6692 -34.6473 232.7260 -120.7914
# 4 41.2741 73.1541 -34.6473 15.5629 51.9033 -20.8922
# 5 -84.2566 -203.3983 232.7260 51.9033 -128.8069 114.3150
# 6 74.0239 121.0035 -120.7914 -20.8922 114.3150 -16.6240
#
#
#
# Elastic Compliance Matrix: (Units=1/GPa)
#
#
# Indices 1 2 3 4 5 6 
#
# 1 0.018777 -0.007286 0.001781 -0.004730 -0.004206 -0.005342
# 2 -0.007286 0.009575 0.000391 -0.001481 -0.004300 0.006696
# 3 0.001781 0.000391 0.011576 -0.014026 0.007047 -0.007250
# 4 -0.004730 -0.001481 -0.014026 0.052443 -0.000964 -0.002464
# 5 -0.004206 -0.004300 0.007047 -0.000964 0.014629 0.000570
# 6 -0.005342 0.006696 -0.007250 -0.002464 0.000570 0.024498
#
#
# Mechanical properties :
#
#
# Convention : Reuss Voigt Hill
#
# Bulk Modulus (GPa) = 33.66698 50.10321 41.88510
# Shear Modulus (GPa) = 32.97620 -71.73440 -19.37910
#
# Velocity S-wave (km/s) = 3.59803 -5.30674 -2.75823
# Velocity P-wave (km/s) = 5.52070 4.22838 2.50987
#
# Compressibility (1/GPa) = 0.02970269
#
# Stress axis : x y z
#
# Youngs Moduli (GPa) = 53.25573 104.44377 86.38195
#
# Poissons Ratio (x) = 0.76093 -0.15388
# Poissons Ratio (y) = 0.38800 -0.03380
# Poissons Ratio (z) = -0.09487 -0.04087
#
# Static dielectric constant tensor:
#      x y z
#    x 1.999640 0.048020 -0.051770 
#    y 0.048020 1.997300 -0.034490 
#    z -0.051770 -0.034490 2.063520 
# 
# From -- ./inp_files/337782.got.cif
#   From: 2010.05.17/outbox.cif.g08.bks.cpg/sg2_169_cif.got.tgz:337782.got - 2010.06.03 11:33:40.
