data_PCOD9050158
_publ_section_title
;
Structure prediction by ZEFSAII (Michael W. Deem and Ramdas Pophale) SiO2 
 PCOD9050158
Probable space group: P -1
;
_chemical_formula_sum "Si O2"
_cell_formula_units_Z 16
_cell_length_a 13.295105
_cell_length_b 7.185710
_cell_length_c 10.482749
_cell_angle_alpha 68.832291
_cell_angle_beta 99.299450
_cell_angle_gamma 49.778936
_cell_volume 593.454246
_symmetry_space_group_name_H-M "P -1"
_symmetry_group_IT_number 2
_symmetry_cell_setting 'triclinic'
loop_
_space_group_symop_operation_xyz
x,y,z
-x,-y,-z
loop_
_atom_site_type_symbol
_atom_site_label
_atom_site_fract_x
_atom_site_fract_y
_atom_site_fract_z
Si Si1 0.423105 0.977920 0.092297
Si Si2 0.065915 0.369805 0.900505
Si Si3 0.344477 0.295411 0.245515
Si Si4 0.114004 0.870202 0.910095
Si Si5 0.628718 0.354379 0.172889
Si Si6 0.850451 0.295185 0.554649
Si Si7 0.094142 0.172597 0.485517
Si Si8 0.474030 0.321286 0.479778
O O1 0.437585 0.087832 0.192752
O O2 0.527024 0.622803 0.192248
O O3 0.239166 0.211884 0.974558
O O4 0.500000 0.000000 0.000000
O O5 0.629592 0.947276 0.610453
O O6 0.104419 0.088715 0.931918
O O7 0.000000 0.500000 0.000000
O O8 0.415877 0.379526 0.309023
O O9 0.173981 0.611611 0.082311
O O10 0.244243 0.702213 0.866221
O O11 0.954133 0.068555 0.752984
O O12 0.748748 0.018008 0.349871
O O13 0.500000 0.500000 0.000000
O O14 0.859907 0.111072 0.495455
O O15 0.673902 0.561416 0.506335
O O16 0.943202 0.349449 0.503576
O O17 0.038881 0.382628 0.299347
O O18 0.500000 0.500000 0.500000
#
# Coordination Sequence:
#
# PCOD9050158 Si02
#       8
#     2   2   2   2   2   2   2   2
#     4  12  26  49  82 115 170 226 287 360 428 507
#     4  12  30  50  79 127 176 230 290 351 438 531
#     4  11  27  49  80 119 166 219 285 357 431 505
#     4  11  25  49  77 120 166 220 284 358 427 511
#     4  11  23  48  80 123 158 214 295 353 413 511
#     4  10  24  48  80 113 162 212 283 351 421 509
#     4  10  25  48  79 115 163 225 275 352 433 501
#     4  11  28  52  81 119 167 228 284 353 434 519
#
# _framework density 26.960798
#
# number of rings (size 3 to 8) (size 9 to 14) (size 15 to 20)
#    0.000    1.000    2.500    1.500   10.500    3.500 
#    4.500    1.250    0.000    0.000    0.000    0.000 
#    0.000    0.000    0.000    0.000    0.000    0.000 
#
# Total GULP energy -89553.066313 kJ/mol
# GULP energy per Si atom -5597.066645 kJ/mol
# Density = 2.689943 g / cm^3
# Si number density = 26.960798 Si / 1000 Ang^3
#
#
#
# Elastic Constant Matrix: (Units=GPa)
#
#
# Indices 1 2 3 4 5 6 
#
# 1 97.3802 76.4412 67.8530 -20.7262 18.8204 -8.9612
# 2 76.4412 154.9651 82.6273 7.9379 10.9510 -4.4157
# 3 67.8530 82.6273 240.7899 -22.6766 5.8611 3.1409
# 4 -20.7262 7.9379 -22.6766 65.1658 9.6734 4.9068
# 5 18.8204 10.9510 5.8611 9.6734 39.3093 -0.5925
# 6 -8.9612 -4.4157 3.1409 4.9068 -0.5925 64.9735
#
#
#
# Elastic Compliance Matrix: (Units=1/GPa)
#
#
# Indices 1 2 3 4 5 6 
#
# 1 0.024381 -0.010607 -0.002072 0.009784 -0.010788 0.001905
# 2 -0.010607 0.012883 -0.002093 -0.006164 0.003318 0.000010
# 3 -0.002072 -0.002093 0.005604 0.001556 0.000344 -0.000813
# 4 0.009784 -0.006164 0.001556 0.021057 -0.008393 -0.000812
# 5 -0.010788 0.003318 0.000344 -0.008393 0.031689 -0.000356
# 6 0.001905 0.000010 -0.000813 -0.000812 -0.000356 0.015752
#
#
# Mechanical properties :
#
#
# Convention : Reuss Voigt Hill
#
# Bulk Modulus (GPa) = 75.04898 105.21980 90.13439
# Shear Modulus (GPa) = 34.39996 51.63728 43.01862
#
# Velocity S-wave (km/s) = 3.57588 4.38113 3.99883
# Velocity P-wave (km/s) = 6.70418 8.04389 7.40439
#
# Compressibility (1/GPa) = 0.01332463
#
# Stress axis : x y z
#
# Youngs Moduli (GPa) = 41.01555 77.62307 178.44746
#
# Poissons Ratio (x) = 0.82331 0.36968
# Poissons Ratio (y) = 0.43503 0.37355
# Poissons Ratio (z) = 0.08497 0.16249
#
# Static dielectric constant tensor:
#      x y z
#    x 2.145920 0.020820 -0.030950 
#    y 0.020820 2.113900 0.035070 
#    z -0.030950 0.035070 2.120760 
# 
# From -- ./inp_files/447534.got.cif
#   From: 2010.05.17/outbox.cif.g08.bks.cpg/sg2_224_cif.got.tgz:447534.got - 2010.06.03 11:33:40.
