data_PCOD9050641
_publ_section_title
;
Structure prediction by ZEFSAII (Michael W. Deem and Ramdas Pophale) SiO2 
 PCOD9050641
Probable space group: P -1
;
_chemical_formula_sum "Si O2"
_cell_formula_units_Z 16
_cell_length_a 19.355031
_cell_length_b 11.256876
_cell_length_c 7.851593
_cell_angle_alpha 43.604711
_cell_angle_beta 53.514375
_cell_angle_gamma 33.803191
_cell_volume 656.272648
_symmetry_space_group_name_H-M "P -1"
_symmetry_group_IT_number 2
_symmetry_cell_setting 'triclinic'
loop_
_space_group_symop_operation_xyz
x,y,z
-x,-y,-z
loop_
_atom_site_type_symbol
_atom_site_label
_atom_site_fract_x
_atom_site_fract_y
_atom_site_fract_z
Si Si1 0.776594 0.262141 0.517222
Si Si2 0.951239 0.615443 0.636044
Si Si3 0.722525 0.469047 0.766273
Si Si4 0.273593 0.058563 0.165500
Si Si5 0.487250 0.214745 0.732476
Si Si6 0.213853 0.257677 0.715544
Si Si7 0.539155 0.247149 0.240778
Si Si8 0.106704 0.903400 0.814234
O O1 0.769986 0.323291 0.664054
O O2 0.651206 0.514329 0.351473
O O3 0.879513 0.183620 0.311272
O O4 0.773270 0.057717 0.718950
O O5 0.072586 0.401080 0.793054
O O6 0.000000 0.500000 0.500000
O O7 0.819439 0.737000 0.765409
O O8 0.923583 0.855749 0.421532
O O9 0.777909 0.581092 0.572520
O O10 0.572451 0.693351 0.752577
O O11 0.771487 0.298734 0.036967
O O12 0.414017 0.826728 0.254523
O O13 0.266055 0.215704 0.870222
O O14 0.531473 0.187068 0.504587
O O15 0.500000 0.000000 0.000000
O O16 0.317261 0.979120 0.783497
O O17 0.500000 0.500000 0.000000
O O18 0.000000 0.000000 0.000000
#
# Coordination Sequence:
#
# PCOD9050641 Si02
#       8
#     2   2   2   2   2   2   2   2
#     4  10  25  43  69 101 139 181 229 290 347 411
#     4  11  26  44  68  99 136 183 230 282 345 422
#     4  11  25  45  70 104 139 180 234 287 352 410
#     4  11  24  43  68 100 138 179 230 286 351 418
#     4  11  24  43  70 104 137 181 233 288 357 411
#     4  12  24  44  69 102 140 178 231 287 351 417
#     4  11  26  43  73 105 138 183 233 291 353 414
#     4  11  25  46  70 101 136 185 232 281 348 420
#
# _framework density 24.380110999999999
#
# number of rings (size 3 to 8) (size 9 to 14) (size 15 to 20)
#    0.000    1.000    1.250    4.875   10.500    2.500 
#    0.000    0.000    0.000    0.000    0.000    0.000 
#    0.000    0.000    0.000    0.000    0.000    0.000 
#
# Total GULP energy -89338.473803 kJ/mol
# GULP energy per Si atom -5583.654613 kJ/mol
# Density = 2.432462 g / cm^3
# Si number density = 24.380111 Si / 1000 Ang^3
#
#
#
# Elastic Constant Matrix: (Units=GPa)
#
#
# Indices 1 2 3 4 5 6 
#
# 1 38.3107 -6.0657 10.3215 -10.4052 15.2683 2.1907
# 2 -6.0657 88.6259 58.7855 4.1928 13.3660 22.2098
# 3 10.3215 58.7855 108.8999 -3.5889 13.2956 0.8504
# 4 -10.4052 4.1928 -3.5889 44.2760 -5.0800 5.7688
# 5 15.2683 13.3660 13.2956 -5.0800 36.3346 -5.1319
# 6 2.1907 22.2098 0.8504 5.7688 -5.1319 29.0381
#
#
#
# Elastic Compliance Matrix: (Units=1/GPa)
#
#
# Indices 1 2 3 4 5 6 
#
# 1 0.046507 0.021060 -0.012222 0.008356 -0.025234 -0.025378
# 2 0.021060 0.036291 -0.018869 0.001986 -0.019630 -0.032657
# 3 -0.012222 -0.018869 0.019505 -0.000799 0.007116 0.016199
# 4 0.008356 0.001986 -0.000799 0.025087 -0.001483 -0.007372
# 5 -0.025234 -0.019630 0.007116 -0.001483 0.046087 0.025149
# 6 -0.025378 -0.032657 0.016199 -0.007372 0.025149 0.066765
#
#
# Mechanical properties :
#
#
# Convention : Reuss Voigt Hill
#
# Bulk Modulus (GPa) = 12.15949 40.21320 26.18635
# Shear Modulus (GPa) = 17.37808 33.44942 25.41375
#
# Velocity S-wave (km/s) = 2.67272 3.70807 3.23212
# Velocity P-wave (km/s) = 3.81089 5.90450 4.96920
#
# Compressibility (1/GPa) = 0.08224027
#
# Stress axis : x y z
#
# Youngs Moduli (GPa) = 21.50229 27.55484 51.26770
#
# Poissons Ratio (x) = -0.58030 0.62658
# Poissons Ratio (y) = -0.45283 0.96739
# Poissons Ratio (z) = 0.26280 0.51994
#
# Static dielectric constant tensor:
#      x y z
#    x 2.044330 -0.056640 -0.038790 
#    y -0.056640 2.209500 0.138040 
#    z -0.038790 0.138040 1.881950 
# 
# From -- ./inp_files/345842.got.cif
#   From: 2010.05.17/outbox.cif.g08.bks.cpg/sg2_173_cif.got.tgz:345842.got - 2010.06.03 11:33:40.
