data_PCOD9050774
_publ_section_title
;
Structure prediction by ZEFSAII (Michael W. Deem and Ramdas Pophale) SiO2 
 PCOD9050774
Probable space group: P -1
;
_chemical_formula_sum "Si O2"
_cell_formula_units_Z 12
_cell_length_a 12.204074
_cell_length_b 5.653926
_cell_length_c 8.284066
_cell_angle_alpha 65.072155
_cell_angle_beta 67.445854
_cell_angle_gamma 83.454239
_cell_volume 477.935683
_symmetry_space_group_name_H-M "P -1"
_symmetry_group_IT_number 2
_symmetry_cell_setting 'triclinic'
loop_
_space_group_symop_operation_xyz
x,y,z
-x,-y,-z
loop_
_atom_site_type_symbol
_atom_site_label
_atom_site_fract_x
_atom_site_fract_y
_atom_site_fract_z
Si Si1 0.665739 0.530531 0.240532
Si Si2 0.012296 0.627051 0.630375
Si Si3 0.538421 0.307145 0.881191
Si Si4 0.770138 0.060471 0.495414
Si Si5 0.738386 0.560469 0.835959
Si Si6 0.874759 0.846557 0.163019
O O1 0.529333 0.592182 0.267148
O O2 0.692433 0.299100 0.415149
O O3 0.752804 0.791281 0.147001
O O4 0.702944 0.451137 0.062190
O O5 0.108899 0.863578 0.497617
O O6 0.079713 0.442391 0.765601
O O7 0.000000 0.500000 0.500000
O O8 0.877806 0.616942 0.762477
O O9 0.680980 0.355821 0.797042
O O10 0.500000 0.500000 0.000000
O O11 0.500000 0.000000 0.000000
O O12 0.700183 0.835834 0.702536
O O13 0.825847 0.942624 0.334116
O O14 0.000000 0.000000 0.000000
#
# Coordination Sequence:
#
# PCOD9050774 Si02
#       6
#     2   2   2   2   2   2
#     4  10  25  44  66  97 139 175 235 289 340 419
#     4  11  23  38  63 101 135 173 228 286 339 422
#     4  10  25  46  72 105 135 186 241 287 349 416
#     4  11  24  43  64 103 136 175 236 277 353 416
#     4  11  23  44  73  95 136 188 226 290 347 412
#     4  11  23  38  66  95 136 181 218 287 354 405
#
# _framework density 25.107980000000001
#
# number of rings (size 3 to 8) (size 9 to 14) (size 15 to 20)
#    0.000    1.333    1.667    2.500    9.333    4.667 
#    0.000    0.833    0.000    0.000    0.000    0.000 
#    0.000    0.000    0.000    0.000    0.000    0.000 
#
# Total GULP energy -66862.993989 kJ/mol
# GULP energy per Si atom -5571.916166 kJ/mol
# Density = 2.505083 g / cm^3
# Si number density = 25.107980 Si / 1000 Ang^3
#
#
#
# Elastic Constant Matrix: (Units=GPa)
#
#
# Indices 1 2 3 4 5 6 
#
# 1 161.4671 47.8800 25.7388 -10.9534 5.2923 29.4108
# 2 47.8800 76.5514 18.3326 -15.5668 -6.6308 19.2779
# 3 25.7388 18.3326 69.2856 -13.9160 1.7465 -8.8590
# 4 -10.9534 -15.5668 -13.9160 39.7478 1.9046 -6.6498
# 5 5.2923 -6.6308 1.7465 1.9046 38.0058 -1.5716
# 6 29.4108 19.2779 -8.8590 -6.6498 -1.5716 52.8295
#
#
#
# Elastic Compliance Matrix: (Units=1/GPa)
#
#
# Indices 1 2 3 4 5 6 
#
# 1 0.008538 -0.004027 -0.002702 -0.000730 -0.001891 -0.003885
# 2 -0.004027 0.018643 -0.003272 0.004125 0.003572 -0.004484
# 3 -0.002702 -0.003272 0.018252 0.005488 -0.001043 0.006418
# 4 -0.000730 0.004125 0.005488 0.029110 -0.000747 0.003463
# 5 -0.001891 0.003572 -0.001043 -0.000747 0.027296 0.000293
# 6 -0.003885 -0.004484 0.006418 0.003463 0.000293 0.024249
#
#
# Mechanical properties :
#
#
# Convention : Reuss Voigt Hill
#
# Bulk Modulus (GPa) = 39.32174 54.57856 46.95015
# Shear Modulus (GPa) = 32.34879 40.47346 36.41112
#
# Velocity S-wave (km/s) = 3.59330 4.01930 3.81226
# Velocity P-wave (km/s) = 5.73680 6.58213 6.17395
#
# Compressibility (1/GPa) = 0.02543122
#
# Stress axis : x y z
#
# Youngs Moduli (GPa) = 117.12035 53.63997 54.78965
#
# Poissons Ratio (x) = 0.21601 0.14804
# Poissons Ratio (y) = 0.47166 0.17926
# Poissons Ratio (z) = 0.31645 0.17549
#
# Static dielectric constant tensor:
#      x y z
#    x 1.993670 -0.123090 0.037590 
#    y -0.123090 2.128250 0.024780 
#    z 0.037590 0.024780 1.936900 
# 
# From -- ./inp_files/24009.got.cif
#   From: 2010.05.17/outbox.cif.g08.bks.cpg/sg2_13_cif.got.tgz:24009.got - 2010.06.03 11:33:40.
