data_PCOD9050747
_publ_section_title
;
Structure prediction by ZEFSAII (Michael W. Deem and Ramdas Pophale) SiO2 
 PCOD9050747
Probable space group: P -1
;
_chemical_formula_sum "Si O2"
_cell_formula_units_Z 16
_cell_length_a 9.637963
_cell_length_b 9.760759
_cell_length_c 19.236819
_cell_angle_alpha 45.846417
_cell_angle_beta 142.824989
_cell_angle_gamma 105.506830
_cell_volume 586.942569
_symmetry_space_group_name_H-M "P -1"
_symmetry_group_IT_number 2
_symmetry_cell_setting 'triclinic'
loop_
_space_group_symop_operation_xyz
x,y,z
-x,-y,-z
loop_
_atom_site_type_symbol
_atom_site_label
_atom_site_fract_x
_atom_site_fract_y
_atom_site_fract_z
Si Si1 0.972529 0.877936 0.436358
Si Si2 0.482999 0.672820 0.098114
Si Si3 0.823564 0.810298 0.611754
Si Si4 0.912520 0.712258 0.836419
Si Si5 0.603260 0.044683 0.802509
Si Si6 0.184159 0.641839 0.452776
Si Si7 0.521631 0.277300 0.556294
Si Si8 0.267190 0.120024 0.944138
O O1 0.247205 0.628921 0.677717
O O2 0.033389 0.759683 0.425079
O O3 0.640294 0.992884 0.288814
O O4 0.012005 0.083692 0.377902
O O5 0.468105 0.824226 0.104748
O O6 0.551850 0.779782 0.024530
O O7 0.159541 0.744561 0.936620
O O8 0.946331 0.658930 0.786362
O O9 0.800501 0.655827 0.600244
O O10 0.455350 0.057190 0.382443
O O11 0.000000 0.500000 0.000000
O O12 0.395414 0.339489 0.639365
O O13 0.722064 0.045513 0.774009
O O14 0.824971 0.874695 0.015172
O O15 0.376693 0.725452 0.480249
O O16 0.956714 0.753902 0.256478
O O17 0.500000 0.500000 0.500000
#
# Coordination Sequence:
#
# PCOD9050747 Si02
#       8
#     2   2   2   2   2   2   2   2
#     4  12  21  39  68  92 128 160 211 266 316 367
#     4  11  21  35  59  99 124 160 200 266 317 364
#     4  11  23  41  63  91 129 167 204 266 316 369
#     4  11  22  38  65  99 129 159 207 260 324 373
#     4  11  23  40  61  93 126 172 208 251 312 373
#     4  11  21  40  63  97 125 160 208 265 315 370
#     4  10  25  44  64  89 129 170 211 251 317 382
#     4  11  21  35  63  89 128 158 210 259 309 365
#
# _framework density 27.259906999999998
#
# number of rings (size 3 to 8) (size 9 to 14) (size 15 to 20)
#    0.000    1.000    3.750    5.625    0.000    1.000 
#    0.000    2.500    0.000    1.500    0.000    0.000 
#    0.000    0.000    0.000    0.000    0.000    0.000 
#
# Total GULP energy -89553.355111 kJ/mol
# GULP energy per Si atom -5597.084694 kJ/mol
# Density = 2.719786 g / cm^3
# Si number density = 27.259907 Si / 1000 Ang^3
#
#
#
# Elastic Constant Matrix: (Units=GPa)
#
#
# Indices 1 2 3 4 5 6 
#
# 1 100.1860 34.9224 32.3334 16.8147 -18.1537 22.8256
# 2 34.9224 149.4069 46.0643 19.4492 -14.1045 39.0045
# 3 32.3334 46.0643 145.1367 -0.0984 -31.3734 10.9515
# 4 16.8147 19.4492 -0.0984 36.6609 7.3398 6.2454
# 5 -18.1537 -14.1045 -31.3734 7.3398 55.6681 0.1958
# 6 22.8256 39.0045 10.9515 6.2454 0.1958 52.6523
#
#
#
# Elastic Compliance Matrix: (Units=1/GPa)
#
#
# Indices 1 2 3 4 5 6 
#
# 1 0.013433 -0.000236 -0.001667 -0.006099 0.004202 -0.004594
# 2 -0.000236 0.009775 -0.002208 -0.004385 0.001755 -0.006166
# 3 -0.001667 -0.002208 0.008725 0.001160 0.003660 0.000393
# 4 -0.006099 -0.004385 0.001160 0.033488 -0.006868 0.001704
# 5 0.004202 0.001755 0.003660 -0.006868 0.022757 -0.003153
# 6 -0.004594 -0.006166 0.000393 0.001704 -0.003153 0.025280
#
#
# Mechanical properties :
#
#
# Convention : Reuss Voigt Hill
#
# Bulk Modulus (GPa) = 42.17486 69.04108 55.60797
# Shear Modulus (GPa) = 38.58464 47.75690 43.17077
#
# Velocity S-wave (km/s) = 3.76631 4.19012 3.98386
# Velocity P-wave (km/s) = 5.86672 6.98509 6.45019
#
# Compressibility (1/GPa) = 0.02371081
#
# Stress axis : x y z
#
# Youngs Moduli (GPa) = 74.44137 102.29763 114.61950
#
# Poissons Ratio (x) = 0.02414 0.19107
# Poissons Ratio (y) = 0.01757 0.25311
# Poissons Ratio (z) = 0.12409 0.22590
#
# Static dielectric constant tensor:
#      x y z
#    x 2.268130 -0.098710 0.103960 
#    y -0.098710 2.335330 -0.039180 
#    z 0.103960 -0.039180 2.138220 
# 
# From -- ./inp_files/457628.got.cif
#   From: 2010.05.17/outbox.cif.g08.bks.cpg/sg2_229_cif.got.tgz:457628.got - 2010.06.03 11:33:40.
