data_PCOD9050432
_publ_section_title
;
Structure prediction by ZEFSAII (Michael W. Deem and Ramdas Pophale) SiO2 
 PCOD9050432
Probable space group: P -1
;
_chemical_formula_sum "Si O2"
_cell_formula_units_Z 16
_cell_length_a 8.899057
_cell_length_b 11.791021
_cell_length_c 9.485755
_cell_angle_alpha 92.476364
_cell_angle_beta 76.085281
_cell_angle_gamma 129.221430
_cell_volume 740.579626
_symmetry_space_group_name_H-M "P -1"
_symmetry_group_IT_number 2
_symmetry_cell_setting 'triclinic'
loop_
_space_group_symop_operation_xyz
x,y,z
-x,-y,-z
loop_
_atom_site_type_symbol
_atom_site_label
_atom_site_fract_x
_atom_site_fract_y
_atom_site_fract_z
Si Si1 0.731380 0.820711 0.651681
Si Si2 0.730944 0.605860 0.504719
Si Si3 0.178527 0.635019 0.064986
Si Si4 0.794286 0.415534 0.624717
Si Si5 0.572583 0.904290 0.440375
Si Si6 0.566706 0.433026 0.088981
Si Si7 0.064970 0.030482 0.819516
Si Si8 0.070913 0.296061 0.816286
O O1 0.833882 0.774676 0.526713
O O2 0.643488 0.875240 0.569519
O O3 0.568037 0.660072 0.751238
O O4 0.874674 0.922970 0.752617
O O5 0.500000 0.500000 0.500000
O O6 0.732439 0.516764 0.624428
O O7 0.864141 0.624580 0.345075
O O8 0.159154 0.583911 0.224815
O O9 0.145229 0.755349 0.089698
O O10 0.388323 0.674474 0.979558
O O11 0.000000 0.500000 0.000000
O O12 0.619678 0.253553 0.589797
O O13 0.000000 0.500000 0.500000
O O14 0.755712 0.966369 0.286705
O O15 0.500000 0.000000 0.500000
O O16 0.776002 0.581147 0.100752
O O17 0.500000 0.500000 0.000000
O O18 0.118893 0.186871 0.795291
O O19 0.000000 0.000000 0.000000
#
# Coordination Sequence:
#
# PCOD9050432 Si02
#       8
#     2   2   2   2   2   2   2   2
#     4  12  26  45  78 101 146 193 245 296 370 431
#     4  12  21  42  72 105 133 177 243 304 352 423
#     4  10  25  41  66 104 148 178 229 290 372 419
#     4  12  25  43  77 106 141 185 241 301 367 429
#     4  12  30  50  72 110 150 194 253 304 362 443
#     4  11  23  42  71 107 143 185 239 306 367 430
#     4  12  29  50  72 105 147 203 245 295 371 440
#     4  11  22  44  67  97 144 182 236 299 353 430
#
# _framework density 21.604700999999999
#
# number of rings (size 3 to 8) (size 9 to 14) (size 15 to 20)
#    0.000    0.500    5.000    1.875    8.750    2.000 
#    0.000    1.250    0.000    0.000    0.000    0.000 
#    0.000    0.000    0.000    0.000    0.000    0.000 
#
# Total GULP energy -89070.634354 kJ/mol
# GULP energy per Si atom -5566.914647 kJ/mol
# Density = 2.155553 g / cm^3
# Si number density = 21.604701 Si / 1000 Ang^3
#
#
#
# Elastic Constant Matrix: (Units=GPa)
#
#
# Indices 1 2 3 4 5 6 
#
# 1 134.9410 47.0931 67.1838 10.7756 -2.0345 -22.4347
# 2 47.0931 71.9100 27.7779 16.0729 6.1588 -5.8670
# 3 67.1838 27.7779 131.6443 13.2044 15.9783 5.2799
# 4 10.7756 16.0729 13.2044 32.1780 -0.2450 0.6716
# 5 -2.0345 6.1588 15.9783 -0.2450 44.1119 7.9147
# 6 -22.4347 -5.8670 5.2799 0.6716 7.9147 40.7659
#
#
#
# Elastic Compliance Matrix: (Units=1/GPa)
#
#
# Indices 1 2 3 4 5 6 
#
# 1 0.014099 -0.006614 -0.006522 0.001131 0.002666 0.007116
# 2 -0.006614 0.020189 0.000319 -0.008025 -0.003283 -0.000006
# 3 -0.006522 0.000319 0.011773 -0.002746 -0.003858 -0.004274
# 4 0.001131 -0.008025 -0.002746 0.035880 0.002595 -0.001272
# 5 0.002666 -0.003283 -0.003858 0.002595 0.025283 -0.003457
# 6 0.007116 -0.000006 -0.004274 -0.001272 -0.003457 0.029691
#
#
# Mechanical properties :
#
#
# Convention : Reuss Voigt Hill
#
# Bulk Modulus (GPa) = 48.95653 69.17833 59.06743
# Shear Modulus (GPa) = 29.52314 36.50719 33.01516
#
# Velocity S-wave (km/s) = 3.70065 4.11515 3.91339
# Velocity P-wave (km/s) = 6.40071 7.39384 6.91513
#
# Compressibility (1/GPa) = 0.02042628
#
# Stress axis : x y z
#
# Youngs Moduli (GPa) = 70.92632 49.53176 84.94356
#
# Poissons Ratio (x) = 0.32762 0.55401
# Poissons Ratio (y) = 0.46914 -0.02712
# Poissons Ratio (z) = 0.46259 -0.01581
#
# Static dielectric constant tensor:
#      x y z
#    x 1.711530 -0.032020 0.217200 
#    y -0.032020 1.853790 -0.068860 
#    z 0.217200 -0.068860 1.490940 
# 
# From -- ./inp_files/187548.got.cif
#   From: 2010.05.17/outbox.cif.g08.bks.cpg/sg2_94_cif.got.tgz:187548.got - 2010.06.03 11:33:40.
