data_PCOD9050494
_publ_section_title
;
Structure prediction by ZEFSAII (Michael W. Deem and Ramdas Pophale) SiO2 
 PCOD9050494
Probable space group: P -1
;
_chemical_formula_sum "Si O2"
_cell_formula_units_Z 12
_cell_length_a 20.179816
_cell_length_b 5.354992
_cell_length_c 15.986252
_cell_angle_alpha 79.914009
_cell_angle_beta 19.470714
_cell_angle_gamma 73.338766
_cell_volume 526.570506
_symmetry_space_group_name_H-M "P -1"
_symmetry_group_IT_number 2
_symmetry_cell_setting 'triclinic'
loop_
_space_group_symop_operation_xyz
x,y,z
-x,-y,-z
loop_
_atom_site_type_symbol
_atom_site_label
_atom_site_fract_x
_atom_site_fract_y
_atom_site_fract_z
Si Si1 0.368948 0.278271 0.589763
Si Si2 0.021826 0.229291 0.899314
Si Si3 0.762927 0.340818 0.046138
Si Si4 0.061630 0.426827 0.308590
Si Si5 0.763157 0.163995 0.874567
Si Si6 0.570442 0.742961 0.869058
O O1 0.540849 0.412644 0.354750
O O2 0.253064 0.232539 0.646045
O O3 0.500000 0.000000 0.500000
O O4 0.166809 0.480863 0.870255
O O5 0.959300 0.183084 0.882762
O O6 0.000000 0.000000 0.000000
O O7 0.807630 0.584751 0.932537
O O8 0.752349 0.167518 0.987577
O O9 0.069325 0.128115 0.335926
O O10 0.823564 0.632748 0.565070
O O11 0.170700 0.572791 0.235202
O O12 0.549039 0.183599 0.081731
O O13 0.500000 0.500000 0.000000
O O14 0.500000 0.000000 0.000000
#
# Coordination Sequence:
#
# PCOD9050494 Si02
#       6
#     2   2   2   2   2   2
#     4  11  24  41  65  97 134 181 235 280 345 391
#     4  11  24  41  64  98 130 182 233 279 336 397
#     4  10  25  42  65  95 141 178 223 290 325 415
#     4  10  25  45  67 102 136 179 225 272 354 394
#     4  10  25  45  68 102 135 180 221 278 350 396
#     4  12  26  46  74 103 135 175 226 278 337 423
#
# _framework density 22.788972000000001
#
# number of rings (size 3 to 8) (size 9 to 14) (size 15 to 20)
#    1.000    0.333    1.667    2.500    4.667    4.000 
#    0.000    0.000    0.000    0.000    0.000    0.000 
#    0.000    0.000    0.000    0.000    0.000    0.000 
#
# Total GULP energy -66993.758576 kJ/mol
# GULP energy per Si atom -5582.813215 kJ/mol
# Density = 2.273710 g / cm^3
# Si number density = 22.788972 Si / 1000 Ang^3
#
#
#
# Elastic Constant Matrix: (Units=GPa)
#
#
# Indices 1 2 3 4 5 6 
#
# 1 150.7007 29.1689 37.7721 -1.3804 -37.1953 2.5421
# 2 29.1689 109.7005 20.1135 10.6269 5.1673 7.0257
# 3 37.7721 20.1135 101.6178 2.0825 -25.2321 3.6634
# 4 -1.3804 10.6269 2.0825 40.2063 1.1559 -2.0386
# 5 -37.1953 5.1673 -25.2321 1.1559 45.2281 -6.1355
# 6 2.5421 7.0257 3.6634 -2.0386 -6.1355 30.3147
#
#
#
# Elastic Compliance Matrix: (Units=1/GPa)
#
#
# Indices 1 2 3 4 5 6 
#
# 1 0.009305 -0.002826 -0.001102 0.000988 0.007553 0.001603
# 2 -0.002826 0.011017 -0.002245 -0.002910 -0.005208 -0.003295
# 3 -0.001102 -0.002245 0.012234 -0.000238 0.006233 0.000380
# 4 0.000988 -0.002910 -0.000238 0.025794 0.000691 0.002495
# 5 0.007553 -0.005208 0.006233 0.000691 0.033271 0.006601
# 6 0.001603 -0.003295 0.000380 0.002495 0.006601 0.035074
#
#
# Mechanical properties :
#
#
# Convention : Reuss Voigt Hill
#
# Bulk Modulus (GPa) = 49.48175 59.56980 54.52578
# Shear Modulus (GPa) = 34.29880 41.48078 37.88979
#
# Velocity S-wave (km/s) = 3.88372 4.27102 4.08197
# Velocity P-wave (km/s) = 6.47080 7.10765 6.79669
#
# Compressibility (1/GPa) = 0.02020947
#
# Stress axis : x y z
#
# Youngs Moduli (GPa) = 107.46855 90.76867 81.74249
#
# Poissons Ratio (x) = 0.25653 0.09008
# Poissons Ratio (y) = 0.30373 0.18350
# Poissons Ratio (z) = 0.11843 0.20376
#
# Static dielectric constant tensor:
#      x y z
#    x 1.934110 -0.014730 0.013540 
#    y -0.014730 2.177550 0.045210 
#    z 0.013540 0.045210 1.849640 
# 
# From -- ./inp_files/576559.got.cif
#   From: 2010.05.17/outbox.cif.g08.bks.cpg/sg2_289_cif.got.tgz:576559.got - 2010.06.03 11:33:40.
