data_PCOD9050688
_publ_section_title
;
Structure prediction by ZEFSAII (Michael W. Deem and Ramdas Pophale) SiO2 
 PCOD9050688
Probable space group: P -1
;
_chemical_formula_sum "Si O2"
_cell_formula_units_Z 16
_cell_length_a 13.953771
_cell_length_b 5.091315
_cell_length_c 19.507356
_cell_angle_alpha 69.362508
_cell_angle_beta 30.015131
_cell_angle_gamma 77.779939
_cell_volume 635.683623
_symmetry_space_group_name_H-M "P -1"
_symmetry_group_IT_number 2
_symmetry_cell_setting 'triclinic'
loop_
_space_group_symop_operation_xyz
x,y,z
-x,-y,-z
loop_
_atom_site_type_symbol
_atom_site_label
_atom_site_fract_x
_atom_site_fract_y
_atom_site_fract_z
Si Si1 0.197386 0.889381 0.368125
Si Si2 0.935626 0.698233 0.429523
Si Si3 0.006869 0.688220 0.230858
Si Si4 0.552225 0.401005 0.052913
Si Si5 0.569748 0.859370 0.621640
Si Si6 0.593934 0.454203 0.517330
Si Si7 0.073246 0.882716 0.035375
Si Si8 0.704782 0.601017 0.076181
O O1 0.194709 0.619020 0.445297
O O2 0.128283 0.736711 0.351994
O O3 0.382790 0.143127 0.212103
O O4 0.000000 0.000000 0.500000
O O5 0.780966 0.896124 0.523177
O O6 0.000263 0.779902 0.304894
O O7 0.820526 0.428326 0.368377
O O8 0.229762 0.662646 0.085041
O O9 0.952953 0.871708 0.182809
O O10 0.601479 0.630742 0.064297
O O11 0.500000 0.500000 0.000000
O O12 0.583697 0.708499 0.553276
O O13 0.430868 0.640664 0.774667
O O14 0.493128 0.148988 0.636756
O O15 0.500000 0.500000 0.500000
O O16 0.109979 0.558802 0.033488
O O17 0.256270 0.119154 0.927047
O O18 0.000000 0.000000 0.000000
#
# Coordination Sequence:
#
# PCOD9050688 Si02
#       8
#     2   2   2   2   2   2   2   2
#     4  11  24  44  74 105 151 200 266 303 392 451
#     4  10  25  43  71 106 146 203 251 327 364 475
#     4  10  26  45  72 109 152 194 257 314 390 456
#     4  11  26  44  75 109 157 204 250 320 384 467
#     4  11  25  43  78 103 150 191 254 314 385 449
#     4  11  26  47  74 110 146 198 257 321 389 453
#     4  11  26  48  74 106 149 199 250 323 386 462
#     4  11  26  46  74 109 147 197 257 306 388 461
#
# _framework density 25.169754999999999
#
# number of rings (size 3 to 8) (size 9 to 14) (size 15 to 20)
#    0.000    1.250    0.000    3.000   17.500    4.500 
#    0.000    0.000    0.000    0.000    0.000    0.000 
#    0.000    0.000    0.000    0.000    0.000    0.000 
#
# Total GULP energy -89257.182206 kJ/mol
# GULP energy per Si atom -5578.573888 kJ/mol
# Density = 2.511247 g / cm^3
# Si number density = 25.169755 Si / 1000 Ang^3
#
#
#
# Elastic Constant Matrix: (Units=GPa)
#
#
# Indices 1 2 3 4 5 6 
#
# 1 154.5460 27.5944 13.8113 -14.9610 20.2454 11.7469
# 2 27.5944 85.6028 3.5964 -10.8444 -4.4256 6.1470
# 3 13.8113 3.5964 114.3547 -12.6216 8.4608 6.8562
# 4 -14.9610 -10.8444 -12.6216 21.8010 -3.9004 3.3135
# 5 20.2454 -4.4256 8.4608 -3.9004 41.0216 -5.4073
# 6 11.7469 6.1470 6.8562 3.3135 -5.4073 35.9443
#
#
#
# Elastic Compliance Matrix: (Units=1/GPa)
#
#
# Indices 1 2 3 4 5 6 
#
# 1 0.008052 -0.002033 0.000081 0.004310 -0.004240 -0.003334
# 2 -0.002033 0.013390 0.000430 0.006285 0.002709 -0.001880
# 3 0.000081 0.000430 0.009679 0.005974 -0.001786 -0.002766
# 4 0.004310 0.006285 0.005974 0.057011 0.001601 -0.008637
# 5 -0.004240 0.002709 -0.001786 0.001601 0.027985 0.005325
# 6 -0.003334 -0.001880 -0.002766 -0.008637 0.005325 0.031357
#
#
# Mechanical properties :
#
#
# Convention : Reuss Voigt Hill
#
# Bulk Modulus (GPa) = 35.61539 49.38976 42.50257
# Shear Modulus (GPa) = 31.27401 40.38679 35.83040
#
# Velocity S-wave (km/s) = 3.52877 4.01006 3.77709
# Velocity P-wave (km/s) = 5.54831 6.41140 5.99541
#
# Compressibility (1/GPa) = 0.02807775
#
# Stress axis : x y z
#
# Youngs Moduli (GPa) = 124.18649 74.68078 103.31925
#
# Poissons Ratio (x) = 0.15182 -0.00834
# Poissons Ratio (y) = 0.25246 -0.04446
# Poissons Ratio (z) = -0.01002 -0.03214
#
# Static dielectric constant tensor:
#      x y z
#    x 2.064990 0.056400 0.019120 
#    y 0.056400 2.162070 0.027530 
#    z 0.019120 0.027530 2.102240 
# 
# From -- ./inp_files/596705.got.cif
#   From: 2010.05.17/outbox.cif.g08.bks.cpg/sg2_299_cif.got.tgz:596705.got - 2010.06.03 11:33:40.
