data_PCOD9050555
_publ_section_title
;
Structure prediction by ZEFSAII (Michael W. Deem and Ramdas Pophale) SiO2 
 PCOD9050555
Probable space group: P -1
;
_chemical_formula_sum "Si O2"
_cell_formula_units_Z 14
_cell_length_a 7.946324
_cell_length_b 17.914943
_cell_length_c 4.875841
_cell_angle_alpha 82.012400
_cell_angle_beta 78.682672
_cell_angle_gamma 51.452613
_cell_volume 532.180754
_symmetry_space_group_name_H-M "P -1"
_symmetry_group_IT_number 2
_symmetry_cell_setting 'triclinic'
loop_
_space_group_symop_operation_xyz
x,y,z
-x,-y,-z
loop_
_atom_site_type_symbol
_atom_site_label
_atom_site_fract_x
_atom_site_fract_y
_atom_site_fract_z
Si Si1 0.802155 0.350388 0.742132
Si Si2 0.504109 0.141777 0.960975
Si Si3 0.683491 0.300140 0.311933
Si Si4 0.682406 0.655643 0.977638
Si Si5 0.886075 0.471483 0.349693
Si Si6 0.219052 0.974241 0.577935
Si Si7 0.867305 0.836711 0.568545
O O1 0.654667 0.334623 0.612866
O O2 0.770751 0.441732 0.591112
O O3 0.037657 0.251567 0.630821
O O4 0.736422 0.357227 0.070794
O O5 0.423482 0.248066 0.869195
O O6 0.315819 0.147293 0.181226
O O7 0.702015 0.090083 0.143157
O O8 0.593398 0.082537 0.684376
O O9 0.480772 0.314282 0.237572
O O10 0.918370 0.197317 0.303351
O O11 0.916776 0.622847 0.820106
O O12 0.752988 0.557697 0.138135
O O13 0.000000 0.500000 0.500000
O O14 0.198119 0.068447 0.604603
O O15 0.000000 0.000000 0.500000
#
# Coordination Sequence:
#
# PCOD9050555 Si02
#       7
#     2   2   2   2   2   2   2
#     4  10  25  45  70 102 140 187 226 299 338 429
#     4  12  27  44  75 101 144 186 236 287 354 419
#     4  10  25  42  74  97 148 177 239 284 358 403
#     4  11  26  46  68 108 137 192 234 298 352 417
#     4  11  27  45  75  99 147 184 244 288 356 427
#     4  12  28  45  73 106 143 183 237 290 353 417
#     4  10  25  45  71 103 144 182 240 281 358 414
#
# _framework density 26.306851000000002
#
# number of rings (size 3 to 8) (size 9 to 14) (size 15 to 20)
#    0.857    0.286    1.429    2.143   16.000    1.143 
#    0.000    0.000    0.000    0.000    0.000    0.000 
#    0.000    0.000    0.000    0.000    0.000    0.000 
#
# Total GULP energy -78408.298741 kJ/mol
# GULP energy per Si atom -5600.592767 kJ/mol
# Density = 2.624698 g / cm^3
# Si number density = 26.306851 Si / 1000 Ang^3
#
#
#
# Elastic Constant Matrix: (Units=GPa)
#
#
# Indices 1 2 3 4 5 6 
#
# 1 88.3722 31.6294 -7.7573 3.7828 5.9218 -14.1204
# 2 31.6294 121.3851 26.8499 -24.6670 -3.4636 0.7789
# 3 -7.7573 26.8499 69.5926 -6.0875 5.1692 -16.1966
# 4 3.7828 -24.6670 -6.0875 35.4872 -1.1371 -8.6815
# 5 5.9218 -3.4636 5.1692 -1.1371 42.4043 -2.4393
# 6 -14.1204 0.7789 -16.1966 -8.6815 -2.4393 38.8544
#
#
#
# Elastic Compliance Matrix: (Units=1/GPa)
#
#
# Indices 1 2 3 4 5 6 
#
# 1 0.015487 -0.006085 0.005694 -0.003237 -0.003026 0.007211
# 2 -0.006085 0.012814 -0.005814 0.007920 0.002648 -0.002956
# 3 0.005694 -0.005814 0.020067 0.001301 -0.003069 0.010649
# 4 -0.003237 0.007920 0.001301 0.036145 0.002337 0.007430
# 5 -0.003026 0.002648 -0.003069 0.002337 0.024637 -0.000363
# 6 0.007211 -0.002956 0.010649 0.007430 -0.000363 0.034493
#
#
# Mechanical properties :
#
#
# Convention : Reuss Voigt Hill
#
# Bulk Modulus (GPa) = 27.81078 42.31042 35.06060
# Shear Modulus (GPa) = 29.75476 38.59104 34.17290
#
# Velocity S-wave (km/s) = 3.36678 3.83424 3.60809
# Velocity P-wave (km/s) = 5.07033 5.97664 5.54204
#
# Compressibility (1/GPa) = 0.03595727
#
# Stress axis : x y z
#
# Youngs Moduli (GPa) = 64.57010 78.04046 49.83236
#
# Poissons Ratio (x) = 0.47490 -0.28374
# Poissons Ratio (y) = 0.39293 0.28972
# Poissons Ratio (z) = -0.36765 0.45373
#
# Static dielectric constant tensor:
#      x y z
#    x 2.092900 -0.059810 -0.028490 
#    y -0.059810 2.048540 0.008270 
#    z -0.028490 0.008270 2.038630 
# 
# From -- ./inp_files/47409.got.cif
#   From: 2010.05.17/outbox.cif.g08.bks.cpg/sg2_24_cif.got.tgz:47409.got - 2010.06.03 11:33:40.
