data_PCOD9050268
_publ_section_title
;
Structure prediction by ZEFSAII (Michael W. Deem and Ramdas Pophale) SiO2 
 PCOD9050268
Probable space group: P -1
;
_chemical_formula_sum "Si O2"
_cell_formula_units_Z 12
_cell_length_a 8.541007
_cell_length_b 8.584864
_cell_length_c 9.273295
_cell_angle_alpha 46.113351
_cell_angle_beta 120.654323
_cell_angle_gamma 111.833812
_cell_volume 421.381301
_symmetry_space_group_name_H-M "P -1"
_symmetry_group_IT_number 2
_symmetry_cell_setting 'triclinic'
loop_
_space_group_symop_operation_xyz
x,y,z
-x,-y,-z
loop_
_atom_site_type_symbol
_atom_site_label
_atom_site_fract_x
_atom_site_fract_y
_atom_site_fract_z
Si Si1 0.492823 0.485386 0.832979
Si Si2 0.106779 0.207424 0.979663
Si Si3 0.733714 0.093734 0.532201
Si Si4 0.148189 0.245646 0.651221
Si Si5 0.744310 0.394033 0.758224
Si Si6 0.447370 0.013197 0.787876
O O1 0.373150 0.694111 0.608117
O O2 0.664088 0.503321 0.792417
O O3 0.234417 0.434275 0.471624
O O4 0.500000 0.500000 0.000000
O O5 0.146557 0.321989 0.770335
O O6 0.953200 0.326680 0.919735
O O7 0.255451 0.100619 0.220373
O O8 0.000000 0.000000 0.000000
O O9 0.943052 0.175241 0.558398
O O10 0.475835 0.220247 0.986214
O O11 0.274539 0.050429 0.787615
O O12 0.643198 0.007266 0.398838
O O13 0.602249 0.203066 0.759920
#
# Coordination Sequence:
#
# PCOD9050268 Si02
#       6
#     2   2   2   2   2   2
#     4  10  24  50  81 118 161 210 267 330 398 476
#     4  10  24  49  79 114 156 210 264 322 392 477
#     4  10  24  52  83 115 156 210 268 329 395 475
#     4  11  25  48  79 118 160 210 266 327 396 479
#     4  12  26  48  80 117 160 213 267 330 400 474
#     4  11  25  51  81 116 158 207 265 334 400 469
#
# _framework density 28.477768999999999
#
# number of rings (size 3 to 8) (size 9 to 14) (size 15 to 20)
#    0.000    1.333    0.000    4.000    0.000    9.333 
#    0.000   35.833    0.000    0.000    0.000    0.000 
#    0.000    0.000    0.000    0.000    0.000    0.000 
#
# Total GULP energy -67174.852334 kJ/mol
# GULP energy per Si atom -5597.904361 kJ/mol
# Density = 2.841295 g / cm^3
# Si number density = 28.477769 Si / 1000 Ang^3
#
#
#
# Elastic Constant Matrix: (Units=GPa)
#
#
# Indices 1 2 3 4 5 6 
#
# 1 263.6411 104.9611 112.8740 -15.6335 -3.5958 -25.4448
# 2 104.9611 156.2552 73.6052 -7.9280 1.7201 -14.7632
# 3 112.8740 73.6052 208.6006 3.2006 -12.5101 -13.0414
# 4 -15.6335 -7.9280 3.2006 58.9277 -3.0205 -2.7105
# 5 -3.5958 1.7201 -12.5101 -3.0205 76.1155 -15.5038
# 6 -25.4448 -14.7632 -13.0414 -2.7105 -15.5038 66.5146
#
#
#
# Elastic Compliance Matrix: (Units=1/GPa)
#
#
# Indices 1 2 3 4 5 6 
#
# 1 0.006100 -0.002856 -0.002207 0.001436 0.000333 0.001403
# 2 -0.002856 0.009207 -0.001709 0.000573 -0.000494 0.000524
# 3 -0.002207 -0.001709 0.006689 -0.001112 0.001048 0.000287
# 4 0.001436 0.000573 -0.001112 0.017595 0.000850 0.001373
# 5 0.000333 -0.000494 0.001048 0.000850 0.014092 0.003542
# 6 0.001403 0.000524 0.000287 0.001373 0.003542 0.016625
#
#
# Mechanical properties :
#
#
# Convention : Reuss Voigt Hill
#
# Bulk Modulus (GPa) = 118.32141 134.59751 126.45946
# Shear Modulus (GPa) = 57.68879 62.78199 60.23539
#
# Velocity S-wave (km/s) = 4.50571 4.70041 4.60409
# Velocity P-wave (km/s) = 8.28900 8.76499 8.53032
#
# Compressibility (1/GPa) = 0.00845156
#
# Stress axis : x y z
#
# Youngs Moduli (GPa) = 163.92667 108.60785 149.49517
#
# Poissons Ratio (x) = 0.31020 0.33000
# Poissons Ratio (y) = 0.46820 0.25550
# Poissons Ratio (z) = 0.36186 0.18562
#
# Static dielectric constant tensor:
#      x y z
#    x 2.763980 0.164550 -0.075170 
#    y 0.164550 2.295310 -0.052620 
#    z -0.075170 -0.052620 2.310070 
# 
# From -- ./inp_files/176929.got.cif
#   From: 2010.05.17/outbox.cif.g08.bks.cpg/sg2_89_cif.got.tgz:176929.got - 2010.06.03 11:33:40.
