data_PCOD9050808
_publ_section_title
;
Structure prediction by ZEFSAII (Michael W. Deem and Ramdas Pophale) SiO2 
 PCOD9050808
Probable space group: P -1
;
_chemical_formula_sum "Si O2"
_cell_formula_units_Z 14
_cell_length_a 19.394679
_cell_length_b 7.998931
_cell_length_c 5.203758
_cell_angle_alpha 100.997690
_cell_angle_beta 73.953196
_cell_angle_gamma 138.558378
_cell_volume 513.322254
_symmetry_space_group_name_H-M "P -1"
_symmetry_group_IT_number 2
_symmetry_cell_setting 'triclinic'
loop_
_space_group_symop_operation_xyz
x,y,z
-x,-y,-z
loop_
_atom_site_type_symbol
_atom_site_label
_atom_site_fract_x
_atom_site_fract_y
_atom_site_fract_z
Si Si1 0.257834 0.642289 0.801783
Si Si2 0.392669 0.332730 0.244988
Si Si3 0.464051 0.689022 0.714110
Si Si4 0.022489 0.330311 0.572300
Si Si5 0.839807 0.211212 0.836062
Si Si6 0.377560 0.764893 0.198722
Si Si7 0.908718 0.874372 0.254474
O O1 0.304151 0.676153 0.489697
O O2 0.196452 0.360777 0.854762
O O3 0.186681 0.687041 0.900736
O O4 0.334515 0.798991 0.011767
O O5 0.430186 0.241254 0.365989
O O6 0.273884 0.081402 0.189840
O O7 0.500000 0.500000 0.000000
O O8 0.399274 0.502757 0.487383
O O9 0.512502 0.962338 0.733484
O O10 0.393794 0.600788 0.020137
O O11 0.939930 0.271221 0.839315
O O12 0.105141 0.590971 0.404605
O O13 0.078743 0.255572 0.586625
O O14 0.929438 0.094049 0.408463
O O15 0.000000 0.000000 0.000000
#
# Coordination Sequence:
#
# PCOD9050808 Si02
#       7
#     2   2   2   2   2   2   2
#     4  12  25  45  76 106 148 197 253 311 382 447
#     4  11  24  45  71 108 152 195 247 316 377 461
#     4  10  25  44  68 105 148 192 254 302 380 442
#     4  10  25  47  74 108 151 199 252 319 382 460
#     4  11  23  48  74 112 150 202 253 314 392 454
#     4  11  26  45  74 106 144 200 251 312 371 455
#     4  11  24  46  70 107 147 192 259 313 379 456
#
# _framework density 27.273316000000001
#
# number of rings (size 3 to 8) (size 9 to 14) (size 15 to 20)
#    0.000    1.143    2.857    1.714    6.000    1.714 
#    2.571    0.000    0.000    0.000    0.000    0.000 
#    0.000    0.000    0.000    0.000    0.000    0.000 
#
# Total GULP energy -78090.812190 kJ/mol
# GULP energy per Si atom -5577.915156 kJ/mol
# Density = 2.721124 g / cm^3
# Si number density = 27.273316 Si / 1000 Ang^3
#
#
#
# Elastic Constant Matrix: (Units=GPa)
#
#
# Indices 1 2 3 4 5 6 
#
# 1 83.0260 8.5426 39.8221 -0.0561 -27.5852 4.3834
# 2 8.5426 202.5464 66.8888 20.0718 -20.3587 25.4613
# 3 39.8221 66.8888 195.2848 20.9704 -44.1033 11.4480
# 4 -0.0561 20.0718 20.9704 56.7356 -1.5274 -6.6010
# 5 -27.5852 -20.3587 -44.1033 -1.5274 45.4696 0.7270
# 6 4.3834 25.4613 11.4480 -6.6010 0.7270 26.4428
#
#
#
# Elastic Compliance Matrix: (Units=1/GPa)
#
#
# Indices 1 2 3 4 5 6 
#
# 1 0.015665 0.001089 -0.001419 0.000008 0.008667 -0.003267
# 2 0.001089 0.006666 -0.001282 -0.002605 0.002422 -0.006761
# 3 -0.001419 -0.001282 0.007603 -0.002503 0.005897 -0.002608
# 4 0.000008 -0.002605 -0.002503 0.020410 -0.003043 0.008769
# 5 0.008667 0.002422 0.005897 -0.003043 0.034081 -0.008019
# 6 -0.003267 -0.006761 -0.002608 0.008769 -0.008019 0.048408
#
#
# Mechanical properties :
#
#
# Convention : Reuss Voigt Hill
#
# Bulk Modulus (GPa) = 37.44055 79.04049 58.24052
# Shear Modulus (GPa) = 34.49199 50.10318 42.29759
#
# Velocity S-wave (km/s) = 3.56009 4.29076 3.94239
# Velocity P-wave (km/s) = 5.53685 7.32061 6.49030
#
# Compressibility (1/GPa) = 0.02670901
#
# Stress axis : x y z
#
# Youngs Moduli (GPa) = 63.83539 150.01174 131.53183
#
# Poissons Ratio (x) = -0.16338 0.18670
# Poissons Ratio (y) = -0.06952 0.16866
# Poissons Ratio (z) = 0.09061 0.19236
#
# Static dielectric constant tensor:
#      x y z
#    x 2.467200 -0.109600 0.023540 
#    y -0.109600 2.183420 -0.171540 
#    z 0.023540 -0.171540 2.183040 
# 
# From -- ./inp_files/122614.got.cif
#   From: 2010.05.17/outbox.cif.g08.bks.cpg/sg2_62_cif.got.tgz:122614.got - 2010.06.03 11:33:40.
