data_PCOD9050019
_publ_section_title
;
Structure prediction by ZEFSAII (Michael W. Deem and Ramdas Pophale) SiO2 
 PCOD9050019
Probable space group: P -1
;
_chemical_formula_sum "Si O2"
_cell_formula_units_Z 14
_cell_length_a 13.634534
_cell_length_b 8.753105
_cell_length_c 9.548308
_cell_angle_alpha 45.863803
_cell_angle_beta 41.914100
_cell_angle_gamma 51.757762
_cell_volume 534.115056
_symmetry_space_group_name_H-M "P -1"
_symmetry_group_IT_number 2
_symmetry_cell_setting 'triclinic'
loop_
_space_group_symop_operation_xyz
x,y,z
-x,-y,-z
loop_
_atom_site_type_symbol
_atom_site_label
_atom_site_fract_x
_atom_site_fract_y
_atom_site_fract_z
Si Si1 0.910736 0.715830 0.644962
Si Si2 0.824466 0.666766 0.082206
Si Si3 0.365151 0.695166 0.153608
Si Si4 0.196323 0.813400 0.544271
Si Si5 0.498023 0.081314 0.787948
Si Si6 0.315868 0.531300 0.014576
Si Si7 0.987638 0.243945 0.913918
O O1 0.747886 0.689668 0.779434
O O2 0.011500 0.472717 0.665210
O O3 0.112146 0.269040 0.173253
O O4 0.920861 0.960471 0.438916
O O5 0.856288 0.406008 0.223788
O O6 0.645623 0.731686 0.212796
O O7 0.891798 0.764568 0.083326
O O8 0.245960 0.780872 0.347427
O O9 0.295320 0.616964 0.139818
O O10 0.507042 0.515729 0.175964
O O11 0.448802 0.881301 0.889889
O O12 0.350200 0.836154 0.441698
O O13 0.500000 0.000000 0.000000
O O14 0.196416 0.679039 0.944222
O O15 0.000000 0.000000 0.000000
#
# Coordination Sequence:
#
# PCOD9050019 Si02
#       7
#     2   2   2   2   2   2   2
#     4  10  21  41  62  89 126 159 204 254 307 361
#     4  12  22  38  66  93 125 163 200 258 308 364
#     4  10  17  37  65  88 124 165 198 252 309 359
#     4  11  22  37  65  98 123 155 209 255 309 367
#     4  10  17  34  61  88 121 158 195 249 306 352
#     4   9  20  35  65  87 119 172 205 239 309 367
#     4  10  23  41  62  90 121 168 214 244 307 373
#
# _framework density 26.211582
#
# number of rings (size 3 to 8) (size 9 to 14) (size 15 to 20)
#    0.857    0.857    4.286    2.571    0.000    0.571 
#    0.000    2.143    0.000    3.429    0.000    0.000 
#    0.000    0.000    0.000    0.000    0.000    0.000 
#
# Total GULP energy -78027.387966 kJ/mol
# GULP energy per Si atom -5573.384855 kJ/mol
# Density = 2.615192 g / cm^3
# Si number density = 26.211582 Si / 1000 Ang^3
#
#
#
# Elastic Constant Matrix: (Units=GPa)
#
#
# Indices 1 2 3 4 5 6 
#
# 1 194.7537 45.0586 29.9113 -13.3233 -13.7679 21.1182
# 2 45.0586 130.2962 34.3055 -40.7707 -1.6239 2.3094
# 3 29.9113 34.3055 89.2343 -18.8640 -5.3574 10.5046
# 4 -13.3233 -40.7707 -18.8640 45.4676 9.1190 -10.4586
# 5 -13.7679 -1.6239 -5.3574 9.1190 17.2675 -4.6652
# 6 21.1182 2.3094 10.5046 -10.4586 -4.6652 46.9527
#
#
#
# Elastic Compliance Matrix: (Units=1/GPa)
#
#
# Indices 1 2 3 4 5 6 
#
# 1 0.006368 -0.002605 -0.001058 -0.002529 0.005150 -0.002551
# 2 -0.002605 0.012731 -0.002301 0.011792 -0.007014 0.002990
# 3 -0.001058 -0.002301 0.013246 0.002474 0.001285 -0.001696
# 4 -0.002529 0.011792 0.002474 0.038085 -0.018455 0.006654
# 5 0.005150 -0.007014 0.001285 -0.018455 0.071708 0.000755
# 6 -0.002551 0.002990 -0.001696 0.006654 0.000755 0.024235
#
#
# Mechanical properties :
#
#
# Convention : Reuss Voigt Hill
#
# Bulk Modulus (GPa) = 48.98344 70.31499 59.64922
# Shear Modulus (GPa) = 27.01148 42.27148 34.64148
#
# Velocity S-wave (km/s) = 3.21365 4.02020 3.63934
# Velocity P-wave (km/s) = 5.70073 6.95942 6.36128
#
# Compressibility (1/GPa) = 0.02041506
#
# Stress axis : x y z
#
# Youngs Moduli (GPa) = 157.04388 78.54699 75.49695
#
# Poissons Ratio (x) = 0.20465 0.07987
# Poissons Ratio (y) = 0.40917 0.17374
# Poissons Ratio (z) = 0.16614 0.18076
#
# Static dielectric constant tensor:
#      x y z
#    x 2.099030 -0.004720 0.046770 
#    y -0.004720 2.216900 0.053560 
#    z 0.046770 0.053560 2.187010 
# 
# From -- ./inp_files/414060.got.cif
#   From: 2010.05.17/outbox.cif.g08.bks.cpg/sg2_208_cif.got.tgz:414060.got - 2010.06.03 11:33:40.
