data_PCOD9050122
_publ_section_title
;
Structure prediction by ZEFSAII (Michael W. Deem and Ramdas Pophale) SiO2 
 PCOD9050122
Probable space group: P -1
;
_chemical_formula_sum "Si O2"
_cell_formula_units_Z 12
_cell_length_a 11.262409
_cell_length_b 10.928391
_cell_length_c 4.722499
_cell_angle_alpha 101.738728
_cell_angle_beta 48.036241
_cell_angle_gamma 97.251732
_cell_volume 423.117743
_symmetry_space_group_name_H-M "P -1"
_symmetry_group_IT_number 2
_symmetry_cell_setting 'triclinic'
loop_
_space_group_symop_operation_xyz
x,y,z
-x,-y,-z
loop_
_atom_site_type_symbol
_atom_site_label
_atom_site_fract_x
_atom_site_fract_y
_atom_site_fract_z
Si Si1 0.508810 0.696154 0.037414
Si Si2 0.021210 0.198174 0.460886
Si Si3 0.460525 0.139066 0.437099
Si Si4 0.207174 0.434313 0.165933
Si Si5 0.819787 0.394249 0.239873
Si Si6 0.226666 0.992476 0.374642
O O1 0.539593 0.824057 0.220172
O O2 0.329653 0.663147 0.382807
O O3 0.539397 0.731467 0.681963
O O4 0.633566 0.598651 0.924277
O O5 0.126141 0.300757 0.180406
O O6 0.131161 0.100352 0.409860
O O7 0.902010 0.116517 0.422641
O O8 0.920687 0.282862 0.884074
O O9 0.312782 0.057198 0.532396
O O10 0.627890 0.074439 0.056398
O O11 0.104490 0.517635 0.595878
O O12 0.238504 0.516876 0.881765
#
# Coordination Sequence:
#
# PCOD9050122 Si02
#       6
#     2   2   2   2   2   2
#     4  12  24  48  77 108 149 190 254 296 364 436
#     4  11  24  50  74 114 148 195 240 306 374 433
#     4  11  24  49  75 112 145 195 242 307 358 439
#     4  12  26  48  75 107 149 195 244 301 363 437
#     4  12  26  48  75 107 149 195 244 301 363 437
#     4  10  24  48  77 108 150 193 245 302 368 439
#
# _framework density 28.360897000000001
#
# number of rings (size 3 to 8) (size 9 to 14) (size 15 to 20)
#    0.000    0.667    3.333    4.000    0.000    2.667 
#    0.000    1.667    0.000    0.000    0.000    0.000 
#    0.000    0.000    0.000    0.000    0.000    0.000 
#
# Total GULP energy -67490.026407 kJ/mol
# GULP energy per Si atom -5624.168867 kJ/mol
# Density = 2.829635 g / cm^3
# Si number density = 28.360897 Si / 1000 Ang^3
#
#
#
# Elastic Constant Matrix: (Units=GPa)
#
#
# Indices 1 2 3 4 5 6 
#
# 1 100.6021 79.1028 26.3045 -7.2347 -11.6719 -16.5940
# 2 79.1028 165.1579 48.1604 -7.1748 -15.2134 4.7772
# 3 26.3045 48.1604 108.7439 4.1461 -2.1668 -4.6469
# 4 -7.2347 -7.1748 4.1461 58.0289 -0.5829 -6.6701
# 5 -11.6719 -15.2134 -2.1668 -0.5829 58.6158 -3.3211
# 6 -16.5940 4.7772 -4.6469 -6.6701 -3.3211 77.0794
#
#
#
# Elastic Compliance Matrix: (Units=1/GPa)
#
#
# Indices 1 2 3 4 5 6 
#
# 1 0.017535 -0.008166 -0.000468 0.001740 0.001626 0.004474
# 2 -0.008166 0.011018 -0.003005 0.000275 0.000981 -0.002556
# 3 -0.000468 -0.003005 0.010700 -0.001128 -0.000454 0.000613
# 4 0.001740 0.000275 -0.001128 0.017784 0.000658 0.001857
# 5 0.001626 0.000981 -0.000454 0.000658 0.017689 0.001081
# 6 0.004474 -0.002556 0.000613 0.001857 0.001081 0.014339
#
#
# Mechanical properties :
#
#
# Convention : Reuss Voigt Hill
#
# Bulk Modulus (GPa) = 62.59285 75.73772 69.16529
# Shear Modulus (GPa) = 42.49193 53.47388 47.98290
#
# Velocity S-wave (km/s) = 3.87493 4.34692 4.11770
# Velocity P-wave (km/s) = 6.49139 7.20814 6.85913
#
# Compressibility (1/GPa) = 0.01597626
#
# Stress axis : x y z
#
# Youngs Moduli (GPa) = 57.02835 90.75772 93.45828
#
# Poissons Ratio (x) = 0.74114 0.04372
# Poissons Ratio (y) = 0.46570 0.28081
# Poissons Ratio (z) = 0.02668 0.27269
#
# Static dielectric constant tensor:
#      x y z
#    x 2.164520 0.036850 -0.066240 
#    y 0.036850 2.219980 0.024070 
#    z -0.066240 0.024070 2.167260 
# 
# From -- ./inp_files/64791.got.cif
#   From: 2010.05.17/outbox.cif.g08.bks.cpg/sg2_33_cif.got.tgz:64791.got - 2010.06.03 11:33:40.
