data_PCOD9050406
_publ_section_title
;
Structure prediction by ZEFSAII (Michael W. Deem and Ramdas Pophale) SiO2 
 PCOD9050406
Probable space group: P -1
;
_chemical_formula_sum "Si O2"
_cell_formula_units_Z 16
_cell_length_a 13.121423
_cell_length_b 25.985479
_cell_length_c 17.493916
_cell_angle_alpha 160.645461
_cell_angle_beta 159.650041
_cell_angle_gamma 20.914538
_cell_volume 620.768129
_symmetry_space_group_name_H-M "P -1"
_symmetry_group_IT_number 2
_symmetry_cell_setting 'triclinic'
loop_
_space_group_symop_operation_xyz
x,y,z
-x,-y,-z
loop_
_atom_site_type_symbol
_atom_site_label
_atom_site_fract_x
_atom_site_fract_y
_atom_site_fract_z
Si Si1 0.629553 0.910935 0.675602
Si Si2 0.428372 0.428555 0.239131
Si Si3 0.572719 0.927703 0.827421
Si Si4 0.725418 0.368631 0.129974
Si Si5 0.840836 0.669330 0.231935
Si Si6 0.072963 0.095991 0.271029
Si Si7 0.850613 0.528168 0.309108
Si Si8 0.544403 0.743471 0.698004
O O1 0.434540 0.957875 0.685041
O O2 0.625643 0.968510 0.665731
O O3 0.678484 0.718567 0.424727
O O4 0.931640 0.955190 0.974430
O O5 0.217414 0.723260 0.709907
O O6 0.423826 0.600786 0.438823
O O7 0.189771 0.501933 0.246667
O O8 0.270584 0.343788 0.950208
O O9 0.443125 0.835847 0.672467
O O10 0.952618 0.794714 0.900187
O O11 0.544509 0.103958 0.090404
O O12 0.868348 0.453827 0.413757
O O13 0.623245 0.489261 0.153110
O O14 0.430772 0.342270 0.920769
O O15 0.868841 0.839439 0.516601
O O16 0.066384 0.368129 0.185376
#
# Coordination Sequence:
#
# PCOD9050406 Si02
#       8
#     2   2   2   2   2   2   2   2
#     4  10  20  38  60  89 122 169 205 258 309 365
#     4  11  22  40  63  93 130 166 204 260 317 370
#     4   9  19  32  62  95 121 161 211 257 307 373
#     4   9  17  34  58  92 120 158 206 254 304 363
#     4  11  23  38  64  98 122 166 211 257 313 376
#     4  11  23  41  62  91 130 166 210 254 314 375
#     4   9  16  33  64  84 121 165 203 250 306 367
#     4  10  17  34  62  94 122 163 211 250 314 374
#
# _framework density 25.774519999999999
#
# number of rings (size 3 to 8) (size 9 to 14) (size 15 to 20)
#    0.000    2.000    2.500    2.625    0.000    0.000 
#    0.000   18.750    0.000    0.750    0.000    0.000 
#    0.000    0.000    0.000    0.000    0.000    0.000 
#
# Total GULP energy -89292.411189 kJ/mol
# GULP energy per Si atom -5580.775699 kJ/mol
# Density = 2.571586 g / cm^3
# Si number density = 25.774520 Si / 1000 Ang^3
#
#
#
# Elastic Constant Matrix: (Units=GPa)
#
#
# Indices 1 2 3 4 5 6 
#
# 1 90.3399 42.0403 38.6929 7.6623 -18.0986 -23.5547
# 2 42.0403 100.0013 49.1014 14.9684 -10.9964 -14.9428
# 3 38.6929 49.1014 120.4214 24.3659 -9.0178 -5.9016
# 4 7.6623 14.9684 24.3659 38.1519 -6.8530 -6.8251
# 5 -18.0986 -10.9964 -9.0178 -6.8530 46.2841 3.8755
# 6 -23.5547 -14.9428 -5.9016 -6.8251 3.8755 36.7265
#
#
#
# Elastic Compliance Matrix: (Units=1/GPa)
#
#
# Indices 1 2 3 4 5 6 
#
# 1 0.017723 -0.004132 -0.003804 0.003000 0.004888 0.009116
# 2 -0.004132 0.014361 -0.004026 -0.001744 0.000572 0.002161
# 3 -0.003804 -0.004026 0.012203 -0.006147 -0.000710 -0.003184
# 4 0.003000 -0.001744 -0.006147 0.031932 0.003807 0.005759
# 5 0.004888 0.000572 -0.000710 0.003807 0.023959 0.001433
# 6 0.009116 0.002161 -0.003184 0.005759 0.001433 0.034362
#
#
# Mechanical properties :
#
#
# Convention : Reuss Voigt Hill
#
# Bulk Modulus (GPa) = 49.11197 63.38130 56.24664
# Shear Modulus (GPa) = 30.25682 36.29435 33.27559
#
# Velocity S-wave (km/s) = 3.42995 3.75660 3.59698
# Velocity P-wave (km/s) = 5.89762 6.59243 6.25468
#
# Compressibility (1/GPa) = 0.02036163
#
# Stress axis : x y z
#
# Youngs Moduli (GPa) = 56.42283 69.63344 81.94951
#
# Poissons Ratio (x) = 0.28775 0.31173
# Poissons Ratio (y) = 0.23316 0.32995
# Poissons Ratio (z) = 0.21463 0.28036
#
# Static dielectric constant tensor:
#      x y z
#    x 2.116010 0.042410 -0.001560 
#    y 0.042410 2.096760 -0.042440 
#    z -0.001560 -0.042440 1.990340 
# 
# From -- ./inp_files/571213.got.cif
#   From: 2010.05.17/outbox.cif.g08.bks.cpg/sg2_286_cif.got.tgz:571213.got - 2010.06.03 11:33:40.
