data_PCOD9050157
_publ_section_title
;
Structure prediction by ZEFSAII (Michael W. Deem and Ramdas Pophale) SiO2 
 PCOD9050157
Probable space group: P -1
;
_chemical_formula_sum "Si O2"
_cell_formula_units_Z 12
_cell_length_a 9.331095
_cell_length_b 8.634654
_cell_length_c 7.230350
_cell_angle_alpha 52.556186
_cell_angle_beta 69.760363
_cell_angle_gamma 67.009025
_cell_volume 421.064100
_symmetry_space_group_name_H-M "P -1"
_symmetry_group_IT_number 2
_symmetry_cell_setting 'triclinic'
loop_
_space_group_symop_operation_xyz
x,y,z
-x,-y,-z
loop_
_atom_site_type_symbol
_atom_site_label
_atom_site_fract_x
_atom_site_fract_y
_atom_site_fract_z
Si Si1 0.292762 0.627741 0.560731
Si Si2 0.813563 0.305247 0.865729
Si Si3 0.046788 0.211209 0.334599
Si Si4 0.338728 0.347318 0.039510
Si Si5 0.499239 0.066844 0.738332
Si Si6 0.844051 0.831627 0.266297
O O1 0.460249 0.154338 0.213628
O O2 0.367998 0.813271 0.441015
O O3 0.123610 0.644024 0.722676
O O4 0.246028 0.645008 0.353527
O O5 0.819910 0.070346 0.067869
O O6 0.710384 0.469017 0.928564
O O7 0.000178 0.296462 0.811668
O O8 0.190805 0.250586 0.125351
O O9 0.111115 0.219445 0.505883
O O10 0.000000 0.000000 0.500000
O O11 0.398335 0.437284 0.761315
O O12 0.327308 0.198297 0.672435
O O13 0.500000 0.000000 0.000000
#
# Coordination Sequence:
#
# PCOD9050157 Si02
#       6
#     2   2   2   2   2   2
#     4  11  25  51  80 113 162 205 262 325 393 466
#     4  10  24  51  82 114 150 213 267 322 382 468
#     4  11  23  48  80 112 151 210 263 321 388 465
#     4  12  28  48  85 117 153 205 274 316 390 475
#     4  12  27  51  77 116 166 209 247 332 405 455
#     4  10  24  48  80 111 165 204 258 326 399 456
#
# _framework density 28.499222
#
# number of rings (size 3 to 8) (size 9 to 14) (size 15 to 20)
#    0.000    1.000    3.333    1.500    0.000    8.667 
#    3.000    0.000    0.000    0.000    0.000    0.000 
#    0.000    0.000    0.000    0.000    0.000    0.000 
#
# Total GULP energy -67331.337435 kJ/mol
# GULP energy per Si atom -5610.944786 kJ/mol
# Density = 2.843436 g / cm^3
# Si number density = 28.499222 Si / 1000 Ang^3
#
#
#
# Elastic Constant Matrix: (Units=GPa)
#
#
# Indices 1 2 3 4 5 6 
#
# 1 186.8637 40.4026 38.1938 -1.9891 -20.4370 -7.2599
# 2 40.4026 156.0798 40.3212 -20.7003 5.8635 -18.6225
# 3 38.1938 40.3212 112.5389 -31.7250 5.3429 -4.6829
# 4 -1.9891 -20.7003 -31.7250 63.8217 -5.7868 6.2463
# 5 -20.4370 5.8635 5.3429 -5.7868 49.5353 -2.5249
# 6 -7.2599 -18.6225 -4.6829 6.2463 -2.5249 46.8228
#
#
#
# Elastic Compliance Matrix: (Units=1/GPa)
#
#
# Indices 1 2 3 4 5 6 
#
# 1 0.006395 -0.001290 -0.002124 -0.001065 0.002925 0.000566
# 2 -0.001290 0.007707 -0.001830 0.001219 -0.000979 0.002467
# 3 -0.002124 -0.001830 0.011743 0.005116 -0.001361 -0.000639
# 4 -0.001065 0.001219 0.005116 0.018822 0.000980 -0.001627
# 5 0.002925 -0.000979 -0.001361 0.000980 0.021821 0.000974
# 6 0.000566 0.002467 -0.000639 -0.001627 0.000974 0.022631
#
#
# Mechanical properties :
#
#
# Convention : Reuss Voigt Hill
#
# Bulk Modulus (GPa) = 65.12275 77.03529 71.07902
# Shear Modulus (GPa) = 47.74336 54.47363 51.10850
#
# Velocity S-wave (km/s) = 4.09742 4.37671 4.23937
# Velocity P-wave (km/s) = 6.72945 7.25466 6.99699
#
# Compressibility (1/GPa) = 0.01535562
#
# Stress axis : x y z
#
# Youngs Moduli (GPa) = 156.37078 129.75778 85.15943
#
# Poissons Ratio (x) = 0.16744 0.18084
# Poissons Ratio (y) = 0.20179 0.15587
# Poissons Ratio (z) = 0.33206 0.23751
#
# Static dielectric constant tensor:
#      x y z
#    x 2.204130 -0.044490 -0.088170 
#    y -0.044490 2.349280 0.028810 
#    z -0.088170 0.028810 2.249820 
# 
# From -- ./inp_files/157883.got.cif
#   From: 2010.05.17/outbox.cif.g08.bks.cpg/sg2_79_cif.got.tgz:157883.got - 2010.06.03 11:33:40.
