data_PCOD9050951
_publ_section_title
;
Structure prediction by ZEFSAII (Michael W. Deem and Ramdas Pophale) SiO2 
 PCOD9050951
Probable space group: P -1
;
_chemical_formula_sum "Si O2"
_cell_formula_units_Z 16
_cell_length_a 14.898776
_cell_length_b 8.606490
_cell_length_c 11.716961
_cell_angle_alpha 40.633811
_cell_angle_beta 95.715296
_cell_angle_gamma 119.211171
_cell_volume 750.856938
_symmetry_space_group_name_H-M "P -1"
_symmetry_group_IT_number 2
_symmetry_cell_setting 'triclinic'
loop_
_space_group_symop_operation_xyz
x,y,z
-x,-y,-z
loop_
_atom_site_type_symbol
_atom_site_label
_atom_site_fract_x
_atom_site_fract_y
_atom_site_fract_z
Si Si1 0.991789 0.820174 0.268427
Si Si2 0.675404 0.214260 0.739460
Si Si3 0.891861 0.400161 0.963413
Si Si4 0.780409 0.763564 0.270685
Si Si5 0.257709 0.231984 0.993275
Si Si6 0.234299 0.363586 0.259806
Si Si7 0.434419 0.620932 0.974477
Si Si8 0.967206 0.330062 0.399181
O O1 0.983620 0.727074 0.451638
O O2 0.917654 0.930583 0.180863
O O3 0.932747 0.521792 0.345541
O O4 0.125859 0.057396 0.115300
O O5 0.726090 0.468538 0.505625
O O6 0.715835 0.402591 0.757986
O O7 0.535615 0.962763 0.843045
O O8 0.720532 0.016330 0.847573
O O9 0.836483 0.570388 0.867827
O O10 0.939459 0.475808 0.796656
O O11 0.000000 0.500000 0.000000
O O12 0.786434 0.036835 0.171471
O O13 0.726471 0.687322 0.182043
O O14 0.349276 0.543218 0.902728
O O15 0.139066 0.002429 0.479653
O O16 0.341688 0.423290 0.173990
O O17 0.500000 0.500000 0.000000
#
# Coordination Sequence:
#
# PCOD9050951 Si02
#       8
#     2   2   2   2   2   2   2   2
#     4  11  21  38  64 100 139 174 217 273 338 408
#     4  11  24  46  68  94 133 181 231 281 331 391
#     4  12  25  38  60 103 148 175 214 268 342 425
#     4  12  24  39  68  99 139 179 218 273 341 406
#     4  11  22  45  66  98 138 175 228 281 333 399
#     4  12  22  44  70  97 137 179 224 280 338 400
#     4  10  25  44  73  96 126 182 239 283 329 385
#     4  11  22  37  66 100 137 180 218 264 343 407
#
# _framework density 21.308986000000001
#
# number of rings (size 3 to 8) (size 9 to 14) (size 15 to 20)
#    0.000    0.750    3.750    4.875    1.750    0.500 
#    0.000    0.625    5.500    0.000    0.000    0.000 
#    0.000    0.000    0.000    0.000    0.000    0.000 
#
# Total GULP energy -89393.348328 kJ/mol
# GULP energy per Si atom -5587.084270 kJ/mol
# Density = 2.126049 g / cm^3
# Si number density = 21.308986 Si / 1000 Ang^3
#
#
#
# Elastic Constant Matrix: (Units=GPa)
#
#
# Indices 1 2 3 4 5 6 
#
# 1 49.7565 7.1844 35.6620 -8.5546 -5.0271 -1.4152
# 2 7.1844 123.8485 21.2858 -9.4292 -1.4144 6.9558
# 3 35.6620 21.2858 79.3620 11.2114 0.3318 3.3290
# 4 -8.5546 -9.4292 11.2114 37.9973 0.5951 -3.4331
# 5 -5.0271 -1.4144 0.3318 0.5951 18.3896 -4.8623
# 6 -1.4152 6.9558 3.3290 -3.4331 -4.8623 31.9466
#
#
#
# Elastic Compliance Matrix: (Units=1/GPa)
#
#
# Indices 1 2 3 4 5 6 
#
# 1 0.038661 0.002239 -0.020543 0.015754 0.012440 0.006952
# 2 0.002239 0.008967 -0.003913 0.003788 0.001016 -0.000884
# 3 -0.020543 -0.003913 0.025014 -0.013333 -0.007314 -0.005211
# 4 0.015754 0.003788 -0.013333 0.035184 0.005245 0.005842
# 5 0.012440 0.001016 -0.007314 0.005245 0.060700 0.010894
# 6 0.006952 -0.000884 -0.005211 0.005842 0.010894 0.034631
#
#
# Mechanical properties :
#
#
# Convention : Reuss Voigt Hill
#
# Bulk Modulus (GPa) = 35.45116 42.35904 38.90510
# Shear Modulus (GPa) = 19.45569 30.25568 24.85569
#
# Velocity S-wave (km/s) = 3.02491 3.77218 3.41903
# Velocity P-wave (km/s) = 5.37336 6.23652 5.82096
#
# Compressibility (1/GPa) = 0.02820782
#
# Stress axis : x y z
#
# Youngs Moduli (GPa) = 25.86567 111.52320 39.97806
#
# Poissons Ratio (x) = -0.24970 0.82125
# Poissons Ratio (y) = -0.05791 0.15645
# Poissons Ratio (z) = 0.53135 0.43644
#
# Static dielectric constant tensor:
#      x y z
#    x 1.784190 0.001750 0.008640 
#    y 0.001750 1.817270 -0.011610 
#    z 0.008640 -0.011610 1.741040 
# 
# From -- ./inp_files/446651.got.cif
#   From: 2010.05.17/outbox.cif.g08.bks.cpg/sg2_224_cif.got.tgz:446651.got - 2010.06.03 11:33:40.
