data_PCOD9050863
_publ_section_title
;
Structure prediction by ZEFSAII (Michael W. Deem and Ramdas Pophale) SiO2 
 PCOD9050863
Probable space group: P -1
;
_chemical_formula_sum "Si O2"
_cell_formula_units_Z 14
_cell_length_a 11.738510
_cell_length_b 29.080905
_cell_length_c 5.295928
_cell_angle_alpha 109.149235
_cell_angle_beta 71.632517
_cell_angle_gamma 159.128960
_cell_volume 608.238614
_symmetry_space_group_name_H-M "P -1"
_symmetry_group_IT_number 2
_symmetry_cell_setting 'triclinic'
loop_
_space_group_symop_operation_xyz
x,y,z
-x,-y,-z
loop_
_atom_site_type_symbol
_atom_site_label
_atom_site_fract_x
_atom_site_fract_y
_atom_site_fract_z
Si Si1 0.668674 0.005104 0.586543
Si Si2 0.713315 0.156107 0.931479
Si Si3 0.220426 0.283039 0.909056
Si Si4 0.890317 0.514319 0.631165
Si Si5 0.408272 0.522440 0.633370
Si Si6 0.782985 0.288965 0.957867
Si Si7 0.164605 0.041878 0.705397
O O1 0.490573 0.946132 0.334248
O O2 0.832584 0.015000 0.429467
O O3 0.410811 0.904111 0.811744
O O4 0.938664 0.140896 0.766617
O O5 0.084722 0.280788 0.863682
O O6 0.680428 0.201566 0.014280
O O7 0.555958 0.385845 0.785669
O O8 0.292824 0.331695 0.224382
O O9 0.779912 0.513779 0.500365
O O10 0.000000 0.500000 0.500000
O O11 0.198446 0.655234 0.797613
O O12 0.500000 0.500000 0.500000
O O13 0.145986 0.419583 0.852896
O O14 0.532471 0.197487 0.742411
O O15 0.000000 0.000000 0.500000
O O16 0.000000 0.000000 0.000000
#
# Coordination Sequence:
#
# PCOD9050863 Si02
#       7
#     2   2   2   2   2   2   2
#     4  11  26  43  71 109 144 187 241 302 380 430
#     4  11  24  45  74 109 143 187 240 311 368 441
#     4  11  26  43  70 105 142 189 243 303 369 442
#     4  11  27  45  70 103 145 194 241 309 366 434
#     4  11  25  45  78 101 140 195 247 307 359 439
#     4  10  25  44  70 103 137 185 247 299 362 435
#     4  11  25  42  69 101 136 189 234 288 355 438
#
# _framework density 23.017282000000002
#
# number of rings (size 3 to 8) (size 9 to 14) (size 15 to 20)
#    0.000    1.143    0.000    4.286   16.000    5.714 
#    0.000    0.000    0.000    0.000    0.000    0.000 
#    0.000    0.000    0.000    0.000    0.000    0.000 
#
# Total GULP energy -78004.728388 kJ/mol
# GULP energy per Si atom -5571.766313 kJ/mol
# Density = 2.296489 g / cm^3
# Si number density = 23.017282 Si / 1000 Ang^3
#
#
#
# Elastic Constant Matrix: (Units=GPa)
#
#
# Indices 1 2 3 4 5 6 
#
# 1 139.9474 29.7059 51.6557 22.2109 -34.9530 12.1972
# 2 29.7059 97.1084 36.2281 30.5901 -11.7336 3.4786
# 3 51.6557 36.2281 121.4994 17.3003 -15.4312 -2.8599
# 4 22.2109 30.5901 17.3003 49.8246 -0.1902 -5.6836
# 5 -34.9530 -11.7336 -15.4312 -0.1902 40.1948 9.9226
# 6 12.1972 3.4786 -2.8599 -5.6836 9.9226 38.8892
#
#
#
# Elastic Compliance Matrix: (Units=1/GPa)
#
#
# Indices 1 2 3 4 5 6 
#
# 1 0.013058 0.001098 -0.003634 -0.006158 0.012353 -0.008513
# 2 0.001098 0.014696 -0.003025 -0.008956 0.005154 -0.004505
# 3 -0.003634 -0.003025 0.010660 0.000040 -0.000527 0.002335
# 4 -0.006158 -0.008956 0.000040 0.029359 -0.010191 0.009626
# 5 0.012353 0.005154 -0.000527 -0.010191 0.040899 -0.016299
# 6 -0.008513 -0.004505 0.002335 0.009626 -0.016299 0.034524
#
#
# Mechanical properties :
#
#
# Convention : Reuss Voigt Hill
#
# Bulk Modulus (GPa) = 36.64015 65.97051 51.30533
# Shear Modulus (GPa) = 30.59701 41.84608 36.22154
#
# Velocity S-wave (km/s) = 3.64992 4.26846 3.97125
# Velocity P-wave (km/s) = 5.80652 7.28124 6.58529
#
# Compressibility (1/GPa) = 0.02729247
#
# Stress axis : x y z
#
# Youngs Moduli (GPa) = 76.58000 68.04715 93.81031
#
# Poissons Ratio (x) = -0.07475 0.34090
# Poissons Ratio (y) = -0.08412 0.28379
# Poissons Ratio (z) = 0.27829 0.20585
#
# Static dielectric constant tensor:
#      x y z
#    x 1.908570 -0.031060 0.008650 
#    y -0.031060 1.880040 -0.012220 
#    z 0.008650 -0.012220 1.957540 
# 
# From -- ./inp_files/85326.got.cif
#   From: 2010.05.17/outbox.cif.g08.bks.cpg/sg2_43_cif.got.tgz:85326.got - 2010.06.03 11:33:40.
