data_PCOD9050247
_publ_section_title
;
Structure prediction by ZEFSAII (Michael W. Deem and Ramdas Pophale) SiO2 
 PCOD9050247
Probable space group: P -1
;
_chemical_formula_sum "Si O2"
_cell_formula_units_Z 16
_cell_length_a 13.154870
_cell_length_b 8.750941
_cell_length_c 10.924585
_cell_angle_alpha 84.331643
_cell_angle_beta 31.737258
_cell_angle_gamma 82.280945
_cell_volume 655.251608
_symmetry_space_group_name_H-M "P -1"
_symmetry_group_IT_number 2
_symmetry_cell_setting 'triclinic'
loop_
_space_group_symop_operation_xyz
x,y,z
-x,-y,-z
loop_
_atom_site_type_symbol
_atom_site_label
_atom_site_fract_x
_atom_site_fract_y
_atom_site_fract_z
Si Si1 0.255894 0.947103 0.016407
Si Si2 0.603603 0.533503 0.014972
Si Si3 0.544628 0.855534 0.554461
Si Si4 0.999554 0.325481 0.664234
Si Si5 0.078182 0.152351 0.966038
Si Si6 0.622082 0.442206 0.264572
Si Si7 0.178957 0.201450 0.243062
Si Si8 0.013146 0.595764 0.786254
O O1 0.113919 0.812883 0.154285
O O2 0.216895 0.023265 0.182789
O O3 0.481229 0.897998 0.755411
O O4 0.193354 0.083262 0.973555
O O5 0.818639 0.441638 0.790380
O O6 0.629101 0.713493 0.988240
O O7 0.500000 0.500000 0.000000
O O8 0.523547 0.478525 0.229845
O O9 0.762736 0.795632 0.297370
O O10 0.384338 0.739361 0.698895
O O11 0.500000 0.000000 0.500000
O O12 0.103307 0.437238 0.641158
O O13 0.123947 0.248728 0.432907
O O14 0.938172 0.295467 0.156926
O O15 0.000000 0.000000 0.000000
O O16 0.500000 0.500000 0.500000
O O17 0.815602 0.528176 0.045040
O O18 0.021009 0.287273 0.303809
#
# Coordination Sequence:
#
# PCOD9050247 Si02
#       8
#     2   2   2   2   2   2   2   2
#     4  10  19  36  58  84 107 158 209 241 281 368
#     4  10  21  37  57  87 123 146 198 257 302 349
#     4  10  19  33  60  82 114 151 203 239 292 358
#     4  10  18  36  61  80 110 154 206 240 290 365
#     4  10  21  36  53  83 125 151 185 249 313 346
#     4  10  17  34  62  86 108 158 206 238 286 363
#     4   9  19  35  58  79 111 157 198 238 296 353
#     4   9  17  32  58  79 110 149 202 232 285 360
#
# _framework density 24.418102999999999
#
# number of rings (size 3 to 8) (size 9 to 14) (size 15 to 20)
#    0.000    2.500    3.750    1.875    1.750    0.000 
#    2.250    5.000    0.000    0.000    0.000    0.000 
#    0.000    0.000    0.000    0.000    0.000    0.000 
#
# Total GULP energy -89105.303248 kJ/mol
# GULP energy per Si atom -5569.081453 kJ/mol
# Density = 2.436253 g / cm^3
# Si number density = 24.418103 Si / 1000 Ang^3
#
#
#
# Elastic Constant Matrix: (Units=GPa)
#
#
# Indices 1 2 3 4 5 6 
#
# 1 70.1353 18.8271 15.1577 5.3700 11.1389 17.7779
# 2 18.8271 139.2948 46.4860 15.8630 17.7800 34.2808
# 3 15.1577 46.4860 144.5756 24.0048 37.2784 23.1666
# 4 5.3700 15.8630 24.0048 51.2400 14.3243 17.1887
# 5 11.1389 17.7800 37.2784 14.3243 23.6089 0.8505
# 6 17.7779 34.2808 23.1666 17.1887 0.8505 34.0960
#
#
#
# Elastic Compliance Matrix: (Units=1/GPa)
#
#
# Indices 1 2 3 4 5 6 
#
# 1 0.020887 0.002708 0.005143 0.008296 -0.024303 -0.020684
# 2 0.002708 0.011669 0.001684 0.005099 -0.015225 -0.016480
# 3 0.005143 0.001684 0.015804 0.006309 -0.031846 -0.017498
# 4 0.008296 0.005099 0.006309 0.034860 -0.037772 -0.030370
# 5 -0.024303 -0.015225 -0.031846 -0.037772 0.136141 0.065263
# 6 -0.020684 -0.016480 -0.017498 -0.030370 0.065263 0.082255
#
#
# Mechanical properties :
#
#
# Convention : Reuss Voigt Hill
#
# Bulk Modulus (GPa) = 14.83009 57.21636 36.02322
# Shear Modulus (GPa) = 16.39219 40.02464 28.20842
#
# Velocity S-wave (km/s) = 2.59378 4.05302 3.40255
# Velocity P-wave (km/s) = 3.88032 6.73687 5.49738
#
# Compressibility (1/GPa) = 0.06743049
#
# Stress axis : x y z
#
# Youngs Moduli (GPa) = 47.87591 85.69429 63.27408
#
# Poissons Ratio (x) = -0.23210 -0.32540
# Poissons Ratio (y) = -0.12967 -0.10653
# Poissons Ratio (z) = -0.24621 -0.14427
#
# Static dielectric constant tensor:
#      x y z
#    x 1.999140 -0.003360 -0.016730 
#    y -0.003360 2.029530 0.087620 
#    z -0.016730 0.087620 2.002630 
# 
# From -- ./inp_files/253248.got.cif
#   From: 2010.05.17/outbox.cif.g08.bks.cpg/sg2_127_cif.got.tgz:253248.got - 2010.06.03 11:33:40.
