data_PCOD9050731
_publ_section_title
;
Structure prediction by ZEFSAII (Michael W. Deem and Ramdas Pophale) SiO2 
 PCOD9050731
Probable space group: P -1
;
_chemical_formula_sum "Si O2"
_cell_formula_units_Z 10
_cell_length_a 14.330262
_cell_length_b 5.115191
_cell_length_c 8.874591
_cell_angle_alpha 80.777845
_cell_angle_beta 136.359953
_cell_angle_gamma 105.706925
_cell_volume 431.557501
_symmetry_space_group_name_H-M "P -1"
_symmetry_group_IT_number 2
_symmetry_cell_setting 'triclinic'
loop_
_space_group_symop_operation_xyz
x,y,z
-x,-y,-z
loop_
_atom_site_type_symbol
_atom_site_label
_atom_site_fract_x
_atom_site_fract_y
_atom_site_fract_z
Si Si1 0.983861 0.035970 0.727128
Si Si2 0.586294 0.275223 0.647967
Si Si3 0.131535 0.746626 0.151206
Si Si4 0.171285 0.334646 0.668087
Si Si5 0.356985 0.891624 0.931974
O O1 0.731324 0.347248 0.722441
O O2 0.908605 0.771878 0.569264
O O3 0.876927 0.127136 0.706484
O O4 0.105164 0.968609 0.979034
O O5 0.500000 0.500000 0.500000
O O6 0.613619 0.223170 0.859714
O O7 0.500000 0.000000 0.500000
O O8 0.000000 0.500000 0.000000
O O9 0.257246 0.641012 0.751859
O O10 0.056550 0.263454 0.672702
O O11 0.276465 0.133634 0.832654
O O12 0.500000 0.000000 0.000000
#
# Coordination Sequence:
#
# PCOD9050731 Si02
#       5
#     2   2   2   2   2
#     4  10  25  43  76 110 143 190 243 320 372 436
#     4  12  29  50  75 107 154 198 246 304 377 443
#     4  11  25  45  77 109 147 191 256 305 368 447
#     4  11  25  47  74 108 148 186 248 310 378 430
#     4  12  27  48  73 106 149 200 250 301 370 457
#
# _framework density 23.171880999999999
#
# number of rings (size 3 to 8) (size 9 to 14) (size 15 to 20)
#    0.000    0.800    2.000    3.000   11.200    1.600 
#    0.000    0.000    0.000    0.000    0.000    0.000 
#    0.000    0.000    0.000    0.000    0.000    0.000 
#
# Total GULP energy -56104.651482 kJ/mol
# GULP energy per Si atom -5610.465148 kJ/mol
# Density = 2.311914 g / cm^3
# Si number density = 23.171881 Si / 1000 Ang^3
#
#
#
# Elastic Constant Matrix: (Units=GPa)
#
#
# Indices 1 2 3 4 5 6 
#
# 1 201.2752 49.8529 82.9753 -1.2144 13.3524 -4.2777
# 2 49.8529 106.1925 46.4268 3.2717 6.2415 -15.4229
# 3 82.9753 46.4268 124.4293 8.3712 5.9420 -0.6919
# 4 -1.2144 3.2717 8.3712 66.0880 -2.3857 12.1430
# 5 13.3524 6.2415 5.9420 -2.3857 56.3677 -4.7865
# 6 -4.2777 -15.4229 -0.6919 12.1430 -4.7865 26.0965
#
#
#
# Elastic Compliance Matrix: (Units=1/GPa)
#
#
# Indices 1 2 3 4 5 6 
#
# 1 0.007147 -0.001542 -0.004193 0.000775 -0.001082 -0.000410
# 2 -0.001542 0.012967 -0.003648 -0.001697 -0.000071 0.008091
# 3 -0.004193 -0.003648 0.012261 -0.001079 -0.000114 -0.002037
# 4 0.000775 -0.001697 -0.001079 0.016985 0.000090 -0.008791
# 5 -0.001082 -0.000071 -0.000114 0.000090 0.018283 0.003089
# 6 -0.000410 0.008091 -0.002037 -0.008791 0.003089 0.047637
#
#
# Mechanical properties :
#
#
# Convention : Reuss Voigt Hill
#
# Bulk Modulus (GPa) = 73.47942 87.82300 80.65121
# Shear Modulus (GPa) = 36.08020 46.55323 41.31671
#
# Velocity S-wave (km/s) = 3.95025 4.48709 4.22720
# Velocity P-wave (km/s) = 7.25158 8.05160 7.66204
#
# Compressibility (1/GPa) = 0.01360925
#
# Stress axis : x y z
#
# Youngs Moduli (GPa) = 139.92790 77.12005 81.56179
#
# Poissons Ratio (x) = 0.11888 0.34201
# Poissons Ratio (y) = 0.21571 0.29750
# Poissons Ratio (z) = 0.58675 0.28130
#
# Static dielectric constant tensor:
#      x y z
#    x 1.834980 0.009490 -0.014650 
#    y 0.009490 1.889420 -0.045970 
#    z -0.014650 -0.045970 1.850770 
# 
# From -- ./inp_files/440007.got.cif
#   From: 2010.05.17/outbox.cif.g08.bks.cpg/sg2_221_cif.got.tgz:440007.got - 2010.06.03 11:33:40.
