data_PCOD9050519
_publ_section_title
;
Structure prediction by ZEFSAII (Michael W. Deem and Ramdas Pophale) SiO2 
 PCOD9050519
Probable space group: P -1
;
_chemical_formula_sum "Si O2"
_cell_formula_units_Z 11
_cell_length_a 5.339104
_cell_length_b 5.056998
_cell_length_c 17.767984
_cell_angle_alpha 121.411495
_cell_angle_beta 68.940844
_cell_angle_gamma 86.676248
_cell_volume 363.513951
_symmetry_space_group_name_H-M "P -1"
_symmetry_group_IT_number 2
_symmetry_cell_setting 'triclinic'
loop_
_space_group_symop_operation_xyz
x,y,z
-x,-y,-z
loop_
_atom_site_type_symbol
_atom_site_label
_atom_site_fract_x
_atom_site_fract_y
_atom_site_fract_z
Si Si1 0.674508 0.626485 0.911538
Si Si2 0.633015 0.684407 0.448107
Si Si3 0.943296 0.260225 0.227827
Si Si4 0.737383 0.759804 0.137425
Si Si5 0.190641 0.133349 0.333588
Si Si6 0.000000 0.000000 0.500000
O O1 0.454046 0.420264 0.911533
O O2 0.798207 0.631490 0.814415
O O3 0.963652 0.494872 0.908935
O O4 0.500000 0.000000 0.000000
O O5 0.500000 0.500000 0.500000
O O6 0.702499 0.539468 0.334668
O O7 0.685597 0.049295 0.503884
O O8 0.005038 0.527940 0.413754
O O9 0.055504 0.043073 0.258335
O O10 0.840307 0.063860 0.145002
O O11 0.521825 0.965585 0.256372
O O12 0.130340 0.008634 0.400189
#
# Coordination Sequence:
#
# PCOD9050519 Si02
#       6
#     2   2   2   2   2   1
#     4  12  28  50  85 122 157 211 273 340 418 500
#     4  10  25  42  68 108 153 213 272 331 392 480
#     4  10  27  49  77 112 167 212 271 333 417 480
#     4  12  26  53  79 117 166 210 269 339 417 495
#     4  10  26  45  73 115 155 223 266 339 408 478
#     4  12  24  44  72 110 164 202 294 334 394 484
#
# _framework density 30.260185
#
# number of rings (size 3 to 8) (size 9 to 14) (size 15 to 20)
#    1.091    0.000    1.818    2.182    7.636    2.182 
#    0.000    0.000    0.000    0.000    0.000    0.000 
#    0.000    0.000    0.000    0.000    0.000    0.000 
#
# Total GULP energy -61414.145816 kJ/mol
# GULP energy per Si atom -5583.104165 kJ/mol
# Density = 3.019131 g / cm^3
# Si number density = 30.260185 Si / 1000 Ang^3
#
#
#
# Elastic Constant Matrix: (Units=GPa)
#
#
# Indices 1 2 3 4 5 6 
#
# 1 315.0519 95.0219 67.5429 30.1069 -16.8490 5.3477
# 2 95.0219 194.9553 77.5196 -6.2225 -15.5570 -6.5531
# 3 67.5429 77.5196 158.1744 15.5239 -42.7311 -0.4892
# 4 30.1069 -6.2225 15.5239 60.4976 -6.1550 0.2589
# 5 -16.8490 -15.5570 -42.7311 -6.1550 83.3369 18.6060
# 6 5.3477 -6.5531 -0.4892 0.2589 18.6060 68.7836
#
#
#
# Elastic Compliance Matrix: (Units=1/GPa)
#
#
# Indices 1 2 3 4 5 6 
#
# 1 0.004061 -0.001807 -0.000614 -0.002033 0.000135 -0.000521
# 2 -0.001807 0.007361 -0.003262 0.002417 -0.000709 0.001001
# 3 -0.000614 -0.003262 0.009543 -0.002034 0.004312 -0.001354
# 4 -0.002033 0.002417 -0.002034 0.018342 0.000302 0.000223
# 5 0.000135 -0.000709 0.004312 0.000302 0.015048 -0.004119
# 6 -0.000521 0.001001 -0.001354 0.000223 -0.004119 0.015778
#
#
# Mechanical properties :
#
#
# Convention : Reuss Voigt Hill
#
# Bulk Modulus (GPa) = 104.16348 127.59449 115.87899
# Shear Modulus (GPa) = 59.03306 71.06343 65.04825
#
# Velocity S-wave (km/s) = 4.42163 4.85130 4.64144
# Velocity P-wave (km/s) = 7.78236 8.58123 8.19154
#
# Compressibility (1/GPa) = 0.00960029
#
# Stress axis : x y z
#
# Youngs Moduli (GPa) = 246.24037 135.84781 104.78486
#
# Poissons Ratio (x) = 0.24545 0.06436
# Poissons Ratio (y) = 0.44490 0.34177
# Poissons Ratio (z) = 0.15125 0.44309
#
# Static dielectric constant tensor:
#      x y z
#    x 2.150400 -0.605240 -0.314500 
#    y -0.605240 1.252220 -0.548470 
#    z -0.314500 -0.548470 1.890910 
# 
# From -- ./inp_files/545507.got.cif
#   From: 2010.05.17/outbox.cif.g08.bks.cpg/sg2_273_cif.got.tgz:545507.got - 2010.06.03 11:33:40.
