data_PCOD9050849
_publ_section_title
;
Structure prediction by ZEFSAII (Michael W. Deem and Ramdas Pophale) SiO2 
 PCOD9050849
Probable space group: P -1
;
_chemical_formula_sum "Si O2"
_cell_formula_units_Z 14
_cell_length_a 9.059628
_cell_length_b 13.291568
_cell_length_c 14.519868
_cell_angle_alpha 29.018737
_cell_angle_beta 101.895902
_cell_angle_gamma 119.669605
_cell_volume 621.264185
_symmetry_space_group_name_H-M "P -1"
_symmetry_group_IT_number 2
_symmetry_cell_setting 'triclinic'
loop_
_space_group_symop_operation_xyz
x,y,z
-x,-y,-z
loop_
_atom_site_type_symbol
_atom_site_label
_atom_site_fract_x
_atom_site_fract_y
_atom_site_fract_z
Si Si1 0.235875 0.530819 0.084347
Si Si2 0.433437 0.273143 0.750157
Si Si3 0.136282 0.654921 0.482543
Si Si4 0.910650 0.162285 0.187010
Si Si5 0.966763 0.763276 0.051214
Si Si6 0.629232 0.780925 0.000355
Si Si7 0.172403 0.391984 0.400001
O O1 0.061790 0.284012 0.194572
O O2 0.438976 0.576020 0.072582
O O3 0.182061 0.469767 0.233953
O O4 0.239803 0.781690 0.860416
O O5 0.500000 0.500000 0.500000
O O6 0.420843 0.317458 0.821770
O O7 0.643026 0.335775 0.736186
O O8 0.205632 0.996870 0.918457
O O9 0.142633 0.455514 0.704363
O O10 0.000000 0.500000 0.500000
O O11 0.028435 0.710284 0.496585
O O12 0.332492 0.940827 0.236943
O O13 0.037113 0.334629 0.973198
O O14 0.820505 0.852822 0.402832
O O15 0.839686 0.857611 0.950516
#
# Coordination Sequence:
#
# PCOD9050849 Si02
#       7
#     2   2   2   2   2   2   2
#     4  10  25  44  69  98 124 175 228 271 328 383
#     4  11  22  38  67  97 128 172 219 264 328 391
#     4  12  25  41  65  99 139 178 215 264 333 399
#     4  11  22  45  72  91 132 170 225 280 318 388
#     4  12  24  42  67  96 138 175 216 270 331 392
#     4  11  25  44  63  99 136 172 219 271 332 393
#     4  11  23  42  67  99 131 173 221 272 327 389
#
# _framework density 22.534694999999999
#
# number of rings (size 3 to 8) (size 9 to 14) (size 15 to 20)
#    0.000    0.857    5.714    0.857    2.000    4.571 
#    0.000    0.714    0.000    0.000    0.000    0.000 
#    0.000    0.000    0.000    0.000    0.000    0.000 
#
# Total GULP energy -77972.073543 kJ/mol
# GULP energy per Si atom -5569.433824 kJ/mol
# Density = 2.248340 g / cm^3
# Si number density = 22.534695 Si / 1000 Ang^3
#
#
#
# Elastic Constant Matrix: (Units=GPa)
#
#
# Indices 1 2 3 4 5 6 
#
# 1 26.5814 31.2524 14.9868 -9.4502 13.4568 15.5366
# 2 31.2524 156.4703 31.4500 15.8955 -1.8191 30.1531
# 3 14.9868 31.4500 95.8589 16.9154 9.2142 17.7954
# 4 -9.4502 15.8955 16.9154 28.8598 0.4803 4.7149
# 5 13.4568 -1.8191 9.2142 0.4803 22.0170 5.8447
# 6 15.5366 30.1531 17.7954 4.7149 5.8447 25.6693
#
#
#
# Elastic Compliance Matrix: (Units=1/GPa)
#
#
# Indices 1 2 3 4 5 6 
#
# 1 0.373643 -0.068547 -0.030954 0.200556 -0.194467 -0.116730
# 2 -0.068547 0.021428 0.004772 -0.039545 0.039540 0.011270
# 3 -0.030954 0.004772 0.015914 -0.022870 0.012219 0.003516
# 4 0.200556 -0.039545 -0.022870 0.147472 -0.102834 -0.062754
# 5 -0.194467 0.039540 0.012219 -0.102834 0.152192 0.047020
# 6 -0.116730 0.011270 0.003516 -0.062754 0.047020 0.094753
#
#
# Mechanical properties :
#
#
# Convention : Reuss Voigt Hill
#
# Bulk Modulus (GPa) = 4.51416 48.25433 26.38424
# Shear Modulus (GPa) = 4.67856 28.72397 16.70127
#
# Velocity S-wave (km/s) = 1.44245 3.57410 2.72533
# Velocity P-wave (km/s) = 2.18673 6.20420 4.65155
#
# Compressibility (1/GPa) = 0.22152530
#
# Stress axis : x y z
#
# Youngs Moduli (GPa) = 2.67635 46.66745 62.83636
#
# Poissons Ratio (x) = 3.19894 1.94506
# Poissons Ratio (y) = 0.18346 -0.29983
# Poissons Ratio (z) = 0.08284 -0.22268
#
# Static dielectric constant tensor:
#      x y z
#    x 1.944540 0.026680 0.048800 
#    y 0.026680 1.804210 -0.053520 
#    z 0.048800 -0.053520 1.968340 
# 
# From -- ./inp_files/203973.got.cif
#   From: 2010.05.17/outbox.cif.g08.bks.cpg/sg2_102_cif.got.tgz:203973.got - 2010.06.03 11:33:40.
