data_PCOD9050879
_publ_section_title
;
Structure prediction by ZEFSAII (Michael W. Deem and Ramdas Pophale) SiO2 
 PCOD9050879
Probable space group: P -1
;
_chemical_formula_sum "Si O2"
_cell_formula_units_Z 16
_cell_length_a 15.241319
_cell_length_b 9.577434
_cell_length_c 9.042757
_cell_angle_alpha 111.550920
_cell_angle_beta 35.533567
_cell_angle_gamma 121.282108
_cell_volume 651.561350
_symmetry_space_group_name_H-M "P -1"
_symmetry_group_IT_number 2
_symmetry_cell_setting 'triclinic'
loop_
_space_group_symop_operation_xyz
x,y,z
-x,-y,-z
loop_
_atom_site_type_symbol
_atom_site_label
_atom_site_fract_x
_atom_site_fract_y
_atom_site_fract_z
Si Si1 0.315961 0.471646 0.804067
Si Si2 0.054218 0.598290 0.116958
Si Si3 0.538587 0.410772 0.050076
Si Si4 0.794461 0.306101 0.525704
Si Si5 0.275332 0.201437 0.563529
Si Si6 0.350113 0.999928 0.609368
Si Si7 0.896041 0.097842 0.512385
Si Si8 0.153756 0.980699 0.150706
O O1 0.500000 0.500000 0.500000
O O2 0.335701 0.473305 0.953195
O O3 0.207764 0.300712 0.804584
O O4 0.229199 0.592385 0.922648
O O5 0.064088 0.782117 0.168689
O O6 0.912879 0.486477 0.379958
O O7 0.000000 0.500000 0.000000
O O8 0.376987 0.311315 0.330938
O O9 0.500000 0.500000 0.000000
O O10 0.624831 0.299466 0.822060
O O11 0.747483 0.175258 0.404593
O O12 0.884441 0.250438 0.509832
O O13 0.388333 0.134818 0.480744
O O14 0.139257 0.039683 0.617852
O O15 0.500000 0.000000 0.500000
O O16 0.248896 0.041397 0.892122
O O17 0.769462 0.026863 0.795904
O O18 0.067159 0.106915 0.345045
#
# Coordination Sequence:
#
# PCOD9050879 Si02
#       8
#     2   2   2   2   2   2   2   2
#     4  10  25  44  72 102 144 191 238 294 362 424
#     4  12  25  45  77 105 148 187 243 303 353 442
#     4  11  27  44  71 105 146 187 248 299 360 429
#     4  11  27  46  70 104 142 188 240 293 367 417
#     4  10  25  44  70  97 142 183 233 299 355 424
#     4  11  27  42  73 100 140 189 237 289 360 435
#     4  10  25  46  68 102 140 183 234 296 358 429
#     4  11  25  44  72 102 139 183 240 286 364 427
#
# _framework density 24.556398000000002
#
# number of rings (size 3 to 8) (size 9 to 14) (size 15 to 20)
#    0.000    1.250    1.250    1.500   15.750    4.000 
#    0.000    0.000    0.000    0.000    0.000    0.000 
#    0.000    0.000    0.000    0.000    0.000    0.000 
#
# Total GULP energy -89383.101182 kJ/mol
# GULP energy per Si atom -5586.443824 kJ/mol
# Density = 2.450051 g / cm^3
# Si number density = 24.556398 Si / 1000 Ang^3
#
#
#
# Elastic Constant Matrix: (Units=GPa)
#
#
# Indices 1 2 3 4 5 6 
#
# 1 124.0048 24.5457 27.0951 -1.5498 18.6512 -32.8529
# 2 24.5457 72.5074 4.8439 4.8993 -3.1437 -25.4786
# 3 27.0951 4.8439 74.6427 13.0534 11.0456 -13.0909
# 4 -1.5498 4.8993 13.0534 38.6819 0.5372 9.7689
# 5 18.6512 -3.1437 11.0456 0.5372 40.2403 5.5135
# 6 -32.8529 -25.4786 -13.0909 9.7689 5.5135 49.3316
#
#
#
# Elastic Compliance Matrix: (Units=1/GPa)
#
#
# Indices 1 2 3 4 5 6 
#
# 1 0.011561 -0.001493 -0.001885 -0.000442 -0.005935 0.007179
# 2 -0.001493 0.018037 0.002047 -0.005548 0.000252 0.009935
# 3 -0.001885 0.002047 0.017044 -0.007623 -0.004410 0.006327
# 4 -0.000442 -0.005548 -0.007623 0.032066 0.003063 -0.011875
# 5 -0.005935 0.000252 -0.004410 0.003063 0.030018 -0.008954
# 6 0.007179 0.009935 0.006327 -0.011875 -0.008954 0.035214
#
#
# Mechanical properties :
#
#
# Convention : Reuss Voigt Hill
#
# Bulk Modulus (GPa) = 22.73766 42.68050 32.70908
# Shear Modulus (GPa) = 31.00562 39.96209 35.48386
#
# Velocity S-wave (km/s) = 3.55720 4.03843 3.80543
# Velocity P-wave (km/s) = 5.11381 6.25808 5.71466
#
# Compressibility (1/GPa) = 0.04397990
#
# Stress axis : x y z
#
# Youngs Moduli (GPa) = 86.50117 55.44092 58.67204
#
# Poissons Ratio (x) = 0.08275 0.11059
# Poissons Ratio (y) = 0.12910 -0.12008
# Poissons Ratio (z) = 0.16305 -0.11347
#
# Static dielectric constant tensor:
#      x y z
#    x 2.006690 0.070030 -0.049440 
#    y 0.070030 1.983620 -0.052330 
#    z -0.049440 -0.052330 2.094700 
# 
# From -- ./inp_files/205030.got.cif
#   From: 2010.05.17/outbox.cif.g08.bks.cpg/sg2_103_cif.got.tgz:205030.got - 2010.06.03 11:33:40.
