data_PCOD9050274
_publ_section_title
;
Structure prediction by ZEFSAII (Michael W. Deem and Ramdas Pophale) SiO2 
 PCOD9050274
Probable space group: P -1
;
_chemical_formula_sum "Si O2"
_cell_formula_units_Z 14
_cell_length_a 4.809943
_cell_length_b 7.510030
_cell_length_c 21.936723
_cell_angle_alpha 41.897548
_cell_angle_beta 90.465667
_cell_angle_gamma 82.394353
_cell_volume 517.668457
_symmetry_space_group_name_H-M "P -1"
_symmetry_group_IT_number 2
_symmetry_cell_setting 'triclinic'
loop_
_space_group_symop_operation_xyz
x,y,z
-x,-y,-z
loop_
_atom_site_type_symbol
_atom_site_label
_atom_site_fract_x
_atom_site_fract_y
_atom_site_fract_z
Si Si1 0.787970 0.218166 0.314210
Si Si2 0.754987 0.905388 0.960176
Si Si3 0.601871 0.526948 0.355340
Si Si4 0.577546 0.453168 0.871755
Si Si5 0.134806 0.224837 0.479363
Si Si6 0.698710 0.205158 0.091142
Si Si7 0.862380 0.917028 0.770724
O O1 0.767582 0.434888 0.315150
O O2 0.543250 0.373626 0.230821
O O3 0.761154 0.934739 0.417898
O O4 0.041625 0.135313 0.286313
O O5 0.029048 0.797432 0.949604
O O6 0.793342 0.183018 0.920825
O O7 0.489170 0.987081 0.891877
O O8 0.659476 0.685716 0.060844
O O9 0.863619 0.478273 0.416395
O O10 0.377355 0.812035 0.288125
O O11 0.394453 0.316927 0.422808
O O12 0.721089 0.665165 0.854108
O O13 0.000000 0.000000 0.500000
O O14 0.500000 0.500000 0.000000
O O15 0.855829 0.103468 0.181272
#
# Coordination Sequence:
#
# PCOD9050274 Si02
#       7
#     2   2   2   2   2   2   2
#     4  11  26  48  80 118 167 207 269 338 399 484
#     4  11  29  54  81 109 169 217 271 332 421 473
#     4  11  27  52  80 118 163 217 265 329 411 487
#     4  11  29  51  81 123 157 215 279 340 401 492
#     4  10  24  49  82 115 161 219 264 322 412 490
#     4  12  29  53  77 117 158 217 266 342 405 491
#     4  12  31  50  86 124 164 209 285 334 408 482
#
# _framework density 27.044338
#
# number of rings (size 3 to 8) (size 9 to 14) (size 15 to 20)
#    0.000    0.857    0.000    3.857   18.000    4.571 
#    0.000    1.429    0.000    0.000    0.000    0.000 
#    0.000    0.000    0.000    0.000    0.000    0.000 
#
# Total GULP energy -78330.594019 kJ/mol
# GULP energy per Si atom -5595.042430 kJ/mol
# Density = 2.698278 g / cm^3
# Si number density = 27.044338 Si / 1000 Ang^3
#
#
#
# Elastic Constant Matrix: (Units=GPa)
#
#
# Indices 1 2 3 4 5 6 
#
# 1 148.3164 56.3425 53.2215 -13.6947 6.4606 -23.4714
# 2 56.3425 171.1829 80.1355 -15.3680 -2.6919 -28.4962
# 3 53.2215 80.1355 183.2922 -7.3953 13.3905 -18.6324
# 4 -13.6947 -15.3680 -7.3953 31.4906 -18.4395 -1.6034
# 5 6.4606 -2.6919 13.3905 -18.4395 49.6077 -6.1329
# 6 -23.4714 -28.4962 -18.6324 -1.6034 -6.1329 55.7261
#
#
#
# Elastic Compliance Matrix: (Units=1/GPa)
#
#
# Indices 1 2 3 4 5 6 
#
# 1 0.008474 -0.001341 -0.001540 0.003243 0.000759 0.002545
# 2 -0.001341 0.008949 -0.003234 0.005571 0.004041 0.003535
# 3 -0.001540 -0.003234 0.007415 -0.002158 -0.002802 -0.000194
# 4 0.003243 0.005571 -0.002158 0.046652 0.018655 0.006889
# 5 0.000759 0.004041 -0.002802 0.018655 0.028604 0.005134
# 6 0.002545 0.003535 -0.000194 0.006889 0.005134 0.021523
#
#
# Mechanical properties :
#
#
# Convention : Reuss Voigt Hill
#
# Bulk Modulus (GPa) = 79.32212 98.02118 88.67165
# Shear Modulus (GPa) = 36.21865 48.23767 42.22816
#
# Velocity S-wave (km/s) = 3.66352 4.22791 3.95580
# Velocity P-wave (km/s) = 6.87672 7.75609 7.32961
#
# Compressibility (1/GPa) = 0.01260682
#
# Stress axis : x y z
#
# Youngs Moduli (GPa) = 118.01355 111.73930 134.86297
#
# Poissons Ratio (x) = 0.14988 0.20768
# Poissons Ratio (y) = 0.15829 0.43619
# Poissons Ratio (z) = 0.18173 0.36140
#
# Static dielectric constant tensor:
#      x y z
#    x 2.124190 -0.014420 0.030110 
#    y -0.014420 2.369820 0.062080 
#    z 0.030110 0.062080 2.165300 
# 
# From -- ./inp_files/582256.got.cif
#   From: 2010.05.17/outbox.cif.g08.bks.cpg/sg2_292_cif.got.tgz:582256.got - 2010.06.03 11:33:40.
