data_PCOD9050587
_publ_section_title
;
Structure prediction by ZEFSAII (Michael W. Deem and Ramdas Pophale) SiO2 
 PCOD9050587
Probable space group: P -1
;
_chemical_formula_sum "Si O2"
_cell_formula_units_Z 16
_cell_length_a 12.361184
_cell_length_b 8.328212
_cell_length_c 13.827499
_cell_angle_alpha 77.234413
_cell_angle_beta 117.452060
_cell_angle_gamma 145.307906
_cell_volume 682.847396
_symmetry_space_group_name_H-M "P -1"
_symmetry_group_IT_number 2
_symmetry_cell_setting 'triclinic'
loop_
_space_group_symop_operation_xyz
x,y,z
-x,-y,-z
loop_
_atom_site_type_symbol
_atom_site_label
_atom_site_fract_x
_atom_site_fract_y
_atom_site_fract_z
Si Si1 0.047063 0.608305 0.272677
Si Si2 0.476359 0.689421 0.297915
Si Si3 0.369615 0.995980 0.503623
Si Si4 0.527474 0.624374 0.127149
Si Si5 0.554054 0.815301 0.770404
Si Si6 0.584819 0.229312 0.081245
Si Si7 0.311097 0.414533 0.550861
Si Si8 0.972430 0.804876 0.709522
O O1 0.018295 0.382122 0.273518
O O2 0.835826 0.471507 0.174706
O O3 0.124353 0.718499 0.400612
O O4 0.247340 0.898195 0.251143
O O5 0.581380 0.952831 0.369984
O O6 0.490096 0.715518 0.185748
O O7 0.628813 0.703217 0.382719
O O8 0.227328 0.382905 0.273838
O O9 0.491987 0.297057 0.475526
O O10 0.500000 0.000000 0.500000
O O11 0.404777 0.323231 0.153175
O O12 0.450336 0.629992 0.999030
O O13 0.787370 0.873490 0.199042
O O14 0.530014 0.897452 0.844805
O O15 0.345682 0.557848 0.645084
O O16 0.500000 0.000000 0.000000
O O17 0.099721 0.203023 0.423853
#
# Coordination Sequence:
#
# PCOD9050587 Si02
#       8
#     2   2   2   2   2   2   2   2
#     4  11  24  42  68  99 129 177 211 263 337 379
#     4  10  22  39  66  97 135 170 211 263 324 392
#     4  10  17  34  63  95 129 163 207 257 317 387
#     4  11  26  45  65  99 128 174 224 268 315 384
#     4  10  26  45  68  94 134 166 217 278 320 381
#     4  12  27  46  67  96 129 168 232 271 316 384
#     4   9  20  39  64 100 129 169 212 258 326 397
#     4  11  21  40  70  97 138 170 208 264 332 379
#
# _framework density 23.431296
#
# number of rings (size 3 to 8) (size 9 to 14) (size 15 to 20)
#    0.000    1.500    3.750    1.875    1.750    9.000 
#    0.000    1.250    0.000    0.000    0.000    0.000 
#    0.000    0.000    0.000    0.000    0.000    0.000 
#
# Total GULP energy -89489.067464 kJ/mol
# GULP energy per Si atom -5593.066717 kJ/mol
# Density = 2.337797 g / cm^3
# Si number density = 23.431296 Si / 1000 Ang^3
#
#
#
# Elastic Constant Matrix: (Units=GPa)
#
#
# Indices 1 2 3 4 5 6 
#
# 1 77.3059 3.7032 22.4062 8.5578 -16.6046 8.0341
# 2 3.7032 43.6909 -4.3927 -6.6083 7.2983 -3.1320
# 3 22.4062 -4.3927 94.0746 -9.6974 0.4390 9.2288
# 4 8.5578 -6.6083 -9.6974 39.6049 -1.8948 4.8292
# 5 -16.6046 7.2983 0.4390 -1.8948 56.0528 -3.8835
# 6 8.0341 -3.1320 9.2288 4.8292 -3.8835 37.0441
#
#
#
# Elastic Compliance Matrix: (Units=1/GPa)
#
#
# Indices 1 2 3 4 5 6 
#
# 1 0.016119 -0.003461 -0.004354 -0.004696 0.004992 -0.001568
# 2 -0.003461 0.024966 0.002428 0.005174 -0.004040 0.001158
# 3 -0.004354 0.002428 0.012541 0.004671 -0.001738 -0.002766
# 4 -0.004696 0.005174 0.004671 0.028642 -0.001382 -0.003587
# 5 0.004992 -0.004040 -0.001738 -0.001382 0.019900 0.001275
# 6 -0.001568 0.001158 -0.002766 -0.003587 0.001275 0.028723
#
#
# Mechanical properties :
#
#
# Convention : Reuss Voigt Hill
#
# Bulk Modulus (GPa) = 23.33557 28.72276 26.02917
# Shear Modulus (GPa) = 32.06187 39.43067 35.74627
#
# Velocity S-wave (km/s) = 3.70311 4.10667 3.91010
# Velocity P-wave (km/s) = 5.31647 5.89671 5.61409
#
# Compressibility (1/GPa) = 0.04285303
#
# Stress axis : x y z
#
# Youngs Moduli (GPa) = 62.04045 40.05472 79.73681
#
# Poissons Ratio (x) = 0.13861 0.34719
# Poissons Ratio (y) = 0.21470 -0.19364
# Poissons Ratio (z) = 0.27014 -0.09727
#
# Static dielectric constant tensor:
#      x y z
#    x 1.928100 -0.036130 -0.032950 
#    y -0.036130 1.903870 0.001030 
#    z -0.032950 0.001030 1.903050 
# 
# From -- ./inp_files/515540.got.cif
#   From: 2010.05.17/outbox.cif.g08.bks.cpg/sg2_258_cif.got.tgz:515540.got - 2010.06.03 11:33:40.
