data_PCOD9050378
_publ_section_title
;
Structure prediction by ZEFSAII (Michael W. Deem and Ramdas Pophale) SiO2 
 PCOD9050378
Probable space group: P -1
;
_chemical_formula_sum "Si O2"
_cell_formula_units_Z 14
_cell_length_a 6.866373
_cell_length_b 19.902929
_cell_length_c 9.247010
_cell_angle_alpha 144.439654
_cell_angle_beta 131.294714
_cell_angle_gamma 61.718527
_cell_volume 546.384538
_symmetry_space_group_name_H-M "P -1"
_symmetry_group_IT_number 2
_symmetry_cell_setting 'triclinic'
loop_
_space_group_symop_operation_xyz
x,y,z
-x,-y,-z
loop_
_atom_site_type_symbol
_atom_site_label
_atom_site_fract_x
_atom_site_fract_y
_atom_site_fract_z
Si Si1 0.512150 0.626268 0.647463
Si Si2 0.293268 0.060321 0.297572
Si Si3 0.674337 0.506830 0.955789
Si Si4 0.615774 0.157615 0.884483
Si Si5 0.928996 0.653517 0.102743
Si Si6 0.892872 0.935170 0.189295
Si Si7 0.400729 0.854386 0.682651
O O1 0.500000 0.500000 0.500000
O O2 0.538032 0.413621 0.609591
O O3 0.341865 0.715816 0.798420
O O4 0.798494 0.683709 0.942171
O O5 0.872875 0.124901 0.870100
O O6 0.448169 0.138090 0.384428
O O7 0.366327 0.133997 0.610949
O O8 0.000000 0.000000 0.000000
O O9 0.948787 0.466800 0.065810
O O10 0.500000 0.500000 0.000000
O O11 0.743918 0.625630 0.104368
O O12 0.574927 0.054478 0.801955
O O13 0.369722 0.157437 0.110511
O O14 0.171043 0.751146 0.416185
O O15 0.761860 0.034727 0.209281
O O16 0.000000 0.000000 0.500000
#
# Coordination Sequence:
#
# PCOD9050378 Si02
#       7
#     2   2   2   2   2   2   2
#     4  10  25  50  81 113 154 205 266 331 399 468
#     4  11  24  45  73 115 159 213 267 314 400 471
#     4  10  24  54  82 112 149 202 270 325 404 470
#     4  11  25  45  77 111 159 216 261 327 391 476
#     4  10  25  49  77 114 156 197 256 335 391 471
#     4  11  24  46  67 111 165 206 266 315 394 478
#     4  11  25  43  71 114 158 203 260 328 387 470
#
# _framework density 25.622980999999999
#
# number of rings (size 3 to 8) (size 9 to 14) (size 15 to 20)
#    0.000    1.429    2.857    0.000    4.000    7.429 
#    7.714    0.000    0.000    0.000    0.000    0.000 
#    0.000    0.000    0.000    0.000    0.000    0.000 
#
# Total GULP energy -78143.884506 kJ/mol
# GULP energy per Si atom -5581.706036 kJ/mol
# Density = 2.556466 g / cm^3
# Si number density = 25.622981 Si / 1000 Ang^3
#
#
#
# Elastic Constant Matrix: (Units=GPa)
#
#
# Indices 1 2 3 4 5 6 
#
# 1 166.5283 54.9783 95.8042 -24.1191 -4.0856 17.4865
# 2 54.9783 114.5653 64.2025 -20.2119 -7.0703 -1.5475
# 3 95.8042 64.2025 196.4124 -20.1442 9.2792 8.0455
# 4 -24.1191 -20.2119 -20.1442 63.5323 -5.8460 1.8828
# 5 -4.0856 -7.0703 9.2792 -5.8460 58.0778 -0.5764
# 6 17.4865 -1.5475 8.0455 1.8828 -0.5764 47.6580
#
#
#
# Elastic Compliance Matrix: (Units=1/GPa)
#
#
# Indices 1 2 3 4 5 6 
#
# 1 0.009415 -0.002105 -0.003637 0.001945 0.001153 -0.002972
# 2 -0.002105 0.011824 -0.002768 0.002220 0.001973 0.001560
# 3 -0.003637 -0.002768 0.007869 0.000067 -0.001844 -0.000109
# 4 0.001945 0.002220 0.000067 0.017442 0.002139 -0.001316
# 5 0.001153 0.001973 -0.001844 0.002139 0.018050 0.000086
# 6 -0.002972 0.001560 -0.000109 -0.001316 0.000086 0.022195
#
#
# Mechanical properties :
#
#
# Convention : Reuss Voigt Hill
#
# Bulk Modulus (GPa) = 82.73157 100.83068 91.78113
# Shear Modulus (GPa) = 46.36294 51.35504 48.85899
#
# Velocity S-wave (km/s) = 4.25835 4.48175 4.37148
# Velocity P-wave (km/s) = 7.51906 8.13748 7.83437
#
# Compressibility (1/GPa) = 0.01208728
#
# Stress axis : x y z
#
# Youngs Moduli (GPa) = 106.21705 84.57053 127.08781
#
# Poissons Ratio (x) = 0.17806 0.46225
# Poissons Ratio (y) = 0.22363 0.35172
# Poissons Ratio (z) = 0.38634 0.23405
#
# Static dielectric constant tensor:
#      x y z
#    x 2.129990 0.029750 0.035140 
#    y 0.029750 2.198050 0.019200 
#    z 0.035140 0.019200 2.218240 
# 
# From -- ./inp_files/219918.got.cif
#   From: 2010.05.17/outbox.cif.g08.bks.cpg/sg2_110_cif.got.tgz:219918.got - 2010.06.03 11:33:40.
