data_PCOD9050260
_publ_section_title
;
Structure prediction by ZEFSAII (Michael W. Deem and Ramdas Pophale) SiO2 
 PCOD9050260
Probable space group: P -1
;
_chemical_formula_sum "Si O2"
_cell_formula_units_Z 12
_cell_length_a 11.010878
_cell_length_b 9.174556
_cell_length_c 8.310110
_cell_angle_alpha 113.038407
_cell_angle_beta 134.685372
_cell_angle_gamma 55.794864
_cell_volume 493.607832
_symmetry_space_group_name_H-M "P -1"
_symmetry_group_IT_number 2
_symmetry_cell_setting 'triclinic'
loop_
_space_group_symop_operation_xyz
x,y,z
-x,-y,-z
loop_
_atom_site_type_symbol
_atom_site_label
_atom_site_fract_x
_atom_site_fract_y
_atom_site_fract_z
Si Si1 0.380443 0.942967 0.572599
Si Si2 0.173966 0.034222 0.123072
Si Si3 0.547848 0.692289 0.363336
Si Si4 0.590884 0.753391 0.092186
Si Si5 0.923114 0.675707 0.115961
Si Si6 0.291390 0.690713 0.588766
O O1 0.240610 0.084570 0.376907
O O2 0.559587 0.804545 0.577663
O O3 0.432146 0.053106 0.796470
O O4 0.285463 0.825010 0.502576
O O5 0.346367 0.840232 0.175883
O O6 0.128451 0.161961 0.985360
O O7 0.000000 0.000000 0.000000
O O8 0.561996 0.514499 0.375951
O O9 0.659406 0.643629 0.276560
O O10 0.395422 0.751311 0.850345
O O11 0.748778 0.686349 0.069100
O O12 0.088320 0.683563 0.389236
O O13 0.000000 0.500000 0.000000
#
# Coordination Sequence:
#
# PCOD9050260 Si02
#       6
#     2   2   2   2   2   2
#     4  10  25  45  83 109 151 204 254 310 387 457
#     4  10  24  49  78 111 155 201 255 315 384 452
#     4  10  26  48  79 110 157 205 251 312 388 458
#     4  12  29  48  77 116 158 203 252 324 385 455
#     4  12  31  50  79 115 155 204 263 317 384 458
#     4  12  27  51  78 116 154 203 260 319 379 457
#
# _framework density 24.310797999999998
#
# number of rings (size 3 to 8) (size 9 to 14) (size 15 to 20)
#    1.000    0.000    1.667    2.000   14.000    2.667 
#    0.000    0.000    0.000    0.000    0.000    0.000 
#    0.000    0.000    0.000    0.000    0.000    0.000 
#
# Total GULP energy -66863.875227 kJ/mol
# GULP energy per Si atom -5571.989602 kJ/mol
# Density = 2.425547 g / cm^3
# Si number density = 24.310798 Si / 1000 Ang^3
#
#
#
# Elastic Constant Matrix: (Units=GPa)
#
#
# Indices 1 2 3 4 5 6 
#
# 1 98.7947 20.8247 42.8255 17.7159 -15.3889 -3.5792
# 2 20.8247 114.2107 43.3449 -3.6803 -1.6865 -5.6344
# 3 42.8255 43.3449 156.4092 29.0179 -3.4763 -5.6402
# 4 17.7159 -3.6803 29.0179 41.4935 2.6491 -2.6666
# 5 -15.3889 -1.6865 -3.4763 2.6491 37.8376 6.6824
# 6 -3.5792 -5.6344 -5.6402 -2.6666 6.6824 27.2822
#
#
#
# Elastic Compliance Matrix: (Units=1/GPa)
#
#
# Indices 1 2 3 4 5 6 
#
# 1 0.013071 -0.001672 -0.002167 -0.004623 0.005522 -0.000883
# 2 -0.001672 0.010465 -0.003146 0.004041 -0.001132 0.001964
# 3 -0.002167 -0.003146 0.008907 -0.005570 0.000128 0.000332
# 4 -0.004623 0.004041 -0.005570 0.030856 -0.004956 0.003306
# 5 0.005522 -0.001132 0.000128 -0.004956 0.030287 -0.007386
# 6 -0.000883 0.001964 0.000332 0.003306 -0.007386 0.039144
#
#
# Mechanical properties :
#
#
# Convention : Reuss Voigt Hill
#
# Bulk Modulus (GPa) = 54.13517 64.82275 59.47896
# Shear Modulus (GPa) = 32.70996 38.81730 35.76363
#
# Velocity S-wave (km/s) = 3.67207 4.00022 3.83965
# Velocity P-wave (km/s) = 6.34784 6.93237 6.64654
#
# Compressibility (1/GPa) = 0.01847228
#
# Stress axis : x y z
#
# Youngs Moduli (GPa) = 76.50600 95.55593 112.27280
#
# Poissons Ratio (x) = 0.15976 0.24330
# Poissons Ratio (y) = 0.12791 0.35326
# Poissons Ratio (z) = 0.16579 0.30066
#
# Static dielectric constant tensor:
#      x y z
#    x 2.047590 -0.010160 -0.052460 
#    y -0.010160 2.037410 0.174630 
#    z -0.052460 0.174630 2.229910 
# 
# From -- ./inp_files/234927.got.cif
#   From: 2010.05.17/outbox.cif.g08.bks.cpg/sg2_118_cif.got.tgz:234927.got - 2010.06.03 11:33:40.
