data_PCOD9050074
_publ_section_title
;
Structure prediction by ZEFSAII (Michael W. Deem and Ramdas Pophale) SiO2 
 PCOD9050074
Probable space group: P -1
;
_chemical_formula_sum "Si O2"
_cell_formula_units_Z 16
_cell_length_a 6.328008
_cell_length_b 8.797566
_cell_length_c 12.947235
_cell_angle_alpha 104.695771
_cell_angle_beta 94.652621
_cell_angle_gamma 103.353706
_cell_volume 670.840723
_symmetry_space_group_name_H-M "P -1"
_symmetry_group_IT_number 2
_symmetry_cell_setting 'triclinic'
loop_
_space_group_symop_operation_xyz
x,y,z
-x,-y,-z
loop_
_atom_site_type_symbol
_atom_site_label
_atom_site_fract_x
_atom_site_fract_y
_atom_site_fract_z
Si Si1 0.933657 0.508196 0.620078
Si Si2 0.313886 0.481893 0.077209
Si Si3 0.452146 0.045646 0.178233
Si Si4 0.817196 0.837039 0.633732
Si Si5 0.209409 0.123210 0.737564
Si Si6 0.625838 0.414318 0.249625
Si Si7 0.072871 0.763973 0.078933
Si Si8 0.537528 0.668435 0.403408
O O1 0.886893 0.684586 0.659599
O O2 0.721664 0.359186 0.603736
O O3 0.000000 0.500000 0.500000
O O4 0.114128 0.509017 0.716078
O O5 0.450974 0.470018 0.181692
O O6 0.208936 0.634062 0.091549
O O7 0.500000 0.500000 0.000000
O O8 0.111408 0.322813 0.025565
O O9 0.328369 0.087037 0.282052
O O10 0.582805 0.226963 0.182737
O O11 0.625906 0.946974 0.198109
O O12 0.254588 0.930281 0.084354
O O13 0.674236 0.771213 0.517510
O O14 0.040040 0.975481 0.647537
O O15 0.350735 0.241147 0.678989
O O16 0.066775 0.203091 0.822618
O O17 0.567393 0.483181 0.370418
#
# Coordination Sequence:
#
# PCOD9050074 Si02
#       8
#     2   2   2   2   2   2   2   2
#     4  12  24  44  68 101 148 191 243 294 345 419
#     4  11  25  49  75 106 140 180 234 301 355 427
#     4  11  23  44  69 100 146 185 233 293 355 422
#     4  11  23  43  66  99 148 191 236 296 348 410
#     4  11  25  45  70 106 142 189 233 300 353 419
#     4  12  25  42  75 103 139 193 236 288 360 420
#     4  10  24  48  74  98 145 178 230 300 361 418
#     4  12  25  41  69 104 139 196 249 287 348 410
#
# _framework density 23.850670999999998
#
# number of rings (size 3 to 8) (size 9 to 14) (size 15 to 20)
#    0.000    0.750    3.750    3.750    0.000    7.000 
#    0.000    2.500    0.000    0.000    0.000    0.000 
#    0.000    0.000    0.000    0.000    0.000    0.000 
#
# Total GULP energy -89425.559237 kJ/mol
# GULP energy per Si atom -5589.097452 kJ/mol
# Density = 2.379639 g / cm^3
# Si number density = 23.850671 Si / 1000 Ang^3
#
#
#
# Elastic Constant Matrix: (Units=GPa)
#
#
# Indices 1 2 3 4 5 6 
#
# 1 157.3633 45.8304 53.3013 14.1762 34.2842 0.8945
# 2 45.8304 62.7478 29.6791 27.3590 22.3046 8.7950
# 3 53.3013 29.6791 98.9054 32.6023 45.1061 8.2640
# 4 14.1762 27.3590 32.6023 36.2529 9.6942 9.5181
# 5 34.2842 22.3046 45.1061 9.6942 65.4362 17.4483
# 6 0.8945 8.7950 8.2640 9.5181 17.4483 45.6723
#
#
#
# Elastic Compliance Matrix: (Units=1/GPa)
#
#
# Indices 1 2 3 4 5 6 
#
# 1 0.009710 -0.007435 -0.004953 0.006091 -0.000303 0.000984
# 2 -0.007435 0.031954 0.006075 -0.024865 -0.007779 0.001047
# 3 -0.004953 0.006075 0.024227 -0.021835 -0.014140 0.004496
# 4 0.006091 -0.024865 -0.021835 0.062479 0.013642 -0.009613
# 5 -0.000303 -0.007779 -0.014140 0.013642 0.028385 -0.009624
# 6 0.000984 0.001047 0.004496 -0.009613 -0.009624 0.026541
#
#
# Mechanical properties :
#
#
# Convention : Reuss Voigt Hill
#
# Bulk Modulus (GPa) = 18.77448 64.07091 41.42270
# Shear Modulus (GPa) = 23.39981 42.15264 32.77622
#
# Velocity S-wave (km/s) = 3.13564 4.20855 3.71108
# Velocity P-wave (km/s) = 4.58241 7.10898 5.98064
#
# Compressibility (1/GPa) = 0.05326379
#
# Stress axis : x y z
#
# Youngs Moduli (GPa) = 102.99061 31.29499 41.27561
#
# Poissons Ratio (x) = 0.23268 0.20446
# Poissons Ratio (y) = 0.76574 -0.25074
# Poissons Ratio (z) = 0.51016 -0.19011
#
# Static dielectric constant tensor:
#      x y z
#    x 1.673410 -0.153210 0.379200 
#    y -0.153210 1.880150 0.253110 
#    z 0.379200 0.253110 1.469510 
# 
# From -- ./inp_files/139357.got.cif
#   From: 2010.05.17/outbox.cif.g08.bks.cpg/sg2_70_cif.got.tgz:139357.got - 2010.06.03 11:33:40.
