data_PCOD9050803
_publ_section_title
;
Structure prediction by ZEFSAII (Michael W. Deem and Ramdas Pophale) SiO2 
 PCOD9050803
Probable space group: P -1
;
_chemical_formula_sum "Si O2"
_cell_formula_units_Z 16
_cell_length_a 17.260040
_cell_length_b 8.974963
_cell_length_c 8.309210
_cell_angle_alpha 97.809953
_cell_angle_beta 81.913039
_cell_angle_gamma 146.175872
_cell_volume 708.946898
_symmetry_space_group_name_H-M "P -1"
_symmetry_group_IT_number 2
_symmetry_cell_setting 'triclinic'
loop_
_space_group_symop_operation_xyz
x,y,z
-x,-y,-z
loop_
_atom_site_type_symbol
_atom_site_label
_atom_site_fract_x
_atom_site_fract_y
_atom_site_fract_z
Si Si1 0.101250 0.233793 0.875843
Si Si2 0.301874 0.996740 0.680018
Si Si3 0.346650 0.749611 0.093528
Si Si4 0.432736 0.750293 0.397431
Si Si5 0.835892 0.338732 0.656997
Si Si6 0.941065 0.052257 0.433905
Si Si7 0.032427 0.453447 0.828643
Si Si8 0.651222 0.655700 0.444444
O O1 0.121107 0.132127 0.729787
O O2 0.029293 0.269413 0.827164
O O3 0.242602 0.509615 0.961295
O O4 0.000000 0.000000 0.000000
O O5 0.256083 0.867922 0.495089
O O6 0.190481 0.745036 0.787372
O O7 0.449303 0.164578 0.702478
O O8 0.308734 0.187295 0.704006
O O9 0.345689 0.660543 0.253903
O O10 0.268892 0.777094 0.185570
O O11 0.500000 0.000000 0.000000
O O12 0.377713 0.562429 0.533780
O O13 0.500000 0.000000 0.500000
O O14 0.940739 0.381739 0.704085
O O15 0.937503 0.636759 0.606597
O O16 0.802335 0.907564 0.529889
O O17 0.000000 0.000000 0.500000
O O18 0.000000 0.500000 0.000000
O O19 0.500000 0.500000 0.500000
#
# Coordination Sequence:
#
# PCOD9050803 Si02
#       8
#     2   2   2   2   2   2   2   2
#     4  12  27  46  69 102 145 186 237 301 364 430
#     4  11  24  44  73 101 139 187 236 300 359 427
#     4  12  26  45  69 106 144 186 236 297 370 436
#     4  11  24  44  72 100 139 185 240 292 355 434
#     4  12  24  45  69 107 138 186 244 296 359 439
#     4  12  25  43  75 107 138 185 247 304 360 431
#     4  12  24  42  67 100 139 185 236 290 359 431
#     4  10  25  44  68 104 146 182 241 304 361 431
#
# _framework density 22.568684999999999
#
# number of rings (size 3 to 8) (size 9 to 14) (size 15 to 20)
#    0.000    0.500    5.000    2.625    5.250    0.000 
#    0.000    0.000    0.000    3.000    0.000    0.000 
#    0.000    0.000    0.000    0.000    0.000    0.000 
#
# Total GULP energy -89152.703206 kJ/mol
# GULP energy per Si atom -5572.043950 kJ/mol
# Density = 2.251732 g / cm^3
# Si number density = 22.568685 Si / 1000 Ang^3
#
#
#
# Elastic Constant Matrix: (Units=GPa)
#
#
# Indices 1 2 3 4 5 6 
#
# 1 141.1321 48.4311 10.8746 -13.7445 28.7922 -9.2147
# 2 48.4311 116.8087 26.2589 -23.1084 2.1800 -6.0265
# 3 10.8746 26.2589 62.9770 6.7034 -0.4779 -10.3104
# 4 -13.7445 -23.1084 6.7034 47.8428 0.5921 5.9334
# 5 28.7922 2.1800 -0.4779 0.5921 45.3444 -4.8854
# 6 -9.2147 -6.0265 -10.3104 5.9334 -4.8854 51.5224
#
#
#
# Elastic Compliance Matrix: (Units=1/GPa)
#
#
# Indices 1 2 3 4 5 6 
#
# 1 0.009698 -0.003616 -0.000232 0.001074 -0.005938 0.000578
# 2 -0.003616 0.012297 -0.005225 0.005710 0.001492 -0.000770
# 3 -0.000232 -0.005225 0.019380 -0.005816 0.001109 0.004001
# 4 0.001074 0.005710 -0.005816 0.025222 -0.001710 -0.003371
# 5 -0.005938 0.001492 0.001109 -0.001710 0.026001 0.001997
# 6 0.000578 -0.000770 0.004001 -0.003371 0.001997 0.020800
#
#
# Mechanical properties :
#
#
# Convention : Reuss Voigt Hill
#
# Bulk Modulus (GPa) = 43.04942 54.67191 48.86066
# Shear Modulus (GPa) = 35.89686 44.63216 40.26451
#
# Velocity S-wave (km/s) = 3.99251 4.45186 4.22843
# Velocity P-wave (km/s) = 6.35372 7.12058 6.74805
#
# Compressibility (1/GPa) = 0.02322912
#
# Stress axis : x y z
#
# Youngs Moduli (GPa) = 103.11402 81.32124 51.59952
#
# Poissons Ratio (x) = 0.29404 0.01195
# Poissons Ratio (y) = 0.37284 0.26963
# Poissons Ratio (z) = 0.02388 0.42494
#
# Static dielectric constant tensor:
#      x y z
#    x 2.097520 0.087910 -0.084330 
#    y 0.087910 1.918910 -0.008820 
#    z -0.084330 -0.008820 1.812940 
# 
# From -- ./inp_files/329029.got.cif
#   From: 2010.05.17/outbox.cif.g08.bks.cpg/sg2_165_cif.got.tgz:329029.got - 2010.06.03 11:33:40.
