data_PCOD9050299
_publ_section_title
;
Structure prediction by ZEFSAII (Michael W. Deem and Ramdas Pophale) SiO2 
 PCOD9050299
Probable space group: P -1
;
_chemical_formula_sum "Si O2"
_cell_formula_units_Z 14
_cell_length_a 9.053533
_cell_length_b 9.508861
_cell_length_c 10.618007
_cell_angle_alpha 88.510024
_cell_angle_beta 81.444119
_cell_angle_gamma 137.684050
_cell_volume 595.698841
_symmetry_space_group_name_H-M "P -1"
_symmetry_group_IT_number 2
_symmetry_cell_setting 'triclinic'
loop_
_space_group_symop_operation_xyz
x,y,z
-x,-y,-z
loop_
_atom_site_type_symbol
_atom_site_label
_atom_site_fract_x
_atom_site_fract_y
_atom_site_fract_z
Si Si1 0.932212 0.330680 0.170264
Si Si2 0.919190 0.796872 0.363109
Si Si3 0.618876 0.752997 0.590684
Si Si4 0.622909 0.233693 0.006784
Si Si5 0.057610 0.971825 0.859220
Si Si6 0.827542 0.419333 0.413250
Si Si7 0.418762 0.352068 0.133156
O O1 0.847078 0.116825 0.138476
O O2 0.788652 0.334644 0.102254
O O3 0.848105 0.302441 0.320548
O O4 0.198430 0.565698 0.117537
O O5 0.734254 0.713529 0.492560
O O6 0.924846 0.635292 0.340488
O O7 0.165643 0.009494 0.385583
O O8 0.855450 0.846422 0.248470
O O9 0.438611 0.722967 0.538810
O O10 0.497945 0.605109 0.735579
O O11 0.431027 0.206077 0.075092
O O12 0.500000 0.000000 0.000000
O O13 0.832039 0.769583 0.816510
O O14 0.000000 0.000000 0.000000
O O15 0.000000 0.500000 0.500000
O O16 0.500000 0.500000 0.000000
#
# Coordination Sequence:
#
# PCOD9050299 Si02
#       7
#     2   2   2   2   2   2   2
#     4  11  26  45  67 105 150 179 243 308 357 437
#     4  10  26  48  76 102 144 195 250 298 366 446
#     4  10  24  50  73  99 149 189 249 304 356 436
#     4  11  24  44  69 102 144 190 232 300 374 428
#     4  11  25  45  72 104 140 190 246 294 368 437
#     4  12  28  46  74 106 147 195 244 303 377 429
#     4  11  22  41  73 100 137 187 233 295 364 427
#
# _framework density 23.501809999999999
#
# number of rings (size 3 to 8) (size 9 to 14) (size 15 to 20)
#    0.000    1.143    2.857    1.286   16.000    0.571 
#    5.143    0.000    0.000    0.000    0.000    0.000 
#    0.000    0.000    0.000    0.000    0.000    0.000 
#
# Total GULP energy -77936.798835 kJ/mol
# GULP energy per Si atom -5566.914203 kJ/mol
# Density = 2.344832 g / cm^3
# Si number density = 23.501810 Si / 1000 Ang^3
#
#
#
# Elastic Constant Matrix: (Units=GPa)
#
#
# Indices 1 2 3 4 5 6 
#
# 1 107.2140 19.7585 44.2637 2.8385 11.9936 3.0461
# 2 19.7585 115.1416 28.1815 -6.7333 -2.8495 -9.3681
# 3 44.2637 28.1815 114.0370 10.6905 3.8625 -20.4828
# 4 2.8385 -6.7333 10.6905 29.8240 -4.5297 -3.0566
# 5 11.9936 -2.8495 3.8625 -4.5297 26.3919 7.5735
# 6 3.0461 -9.3681 -20.4828 -3.0566 7.5735 55.9455
#
#
#
# Elastic Compliance Matrix: (Units=1/GPa)
#
#
# Indices 1 2 3 4 5 6 
#
# 1 0.011981 -0.001273 -0.004464 -0.000708 -0.004497 -0.001930
# 2 -0.001273 0.009769 -0.002192 0.003547 0.002339 0.000780
# 3 -0.004464 -0.002192 0.012313 -0.004338 -0.002023 0.004421
# 4 -0.000708 0.003547 -0.004338 0.037126 0.007703 0.000030
# 5 -0.004497 0.002339 -0.002023 0.007703 0.043400 -0.005559
# 6 -0.001930 0.000780 0.004421 0.000030 -0.005559 0.020483
#
#
# Mechanical properties :
#
#
# Convention : Reuss Voigt Hill
#
# Bulk Modulus (GPa) = 54.92926 57.86667 56.39797
# Shear Modulus (GPa) = 31.84773 38.71154 35.27963
#
# Velocity S-wave (km/s) = 3.68519 4.06294 3.87867
# Velocity P-wave (km/s) = 6.44442 6.83269 6.64139
#
# Compressibility (1/GPa) = 0.01820523
#
# Stress axis : x y z
#
# Youngs Moduli (GPa) = 83.46323 102.36859 81.21805
#
# Poissons Ratio (x) = 0.13034 0.36254
# Poissons Ratio (y) = 0.10627 0.17800
# Poissons Ratio (z) = 0.37257 0.22435
#
# Static dielectric constant tensor:
#      x y z
#    x 1.954390 0.027800 0.016710 
#    y 0.027800 1.984590 -0.087900 
#    z 0.016710 -0.087900 1.968750 
# 
# From -- ./inp_files/379151.got.cif
#   From: 2010.05.17/outbox.cif.g08.bks.cpg/sg2_190_cif.got.tgz:379151.got - 2010.06.03 11:33:40.
