data_PCOD9050132
_publ_section_title
;
Structure prediction by ZEFSAII (Michael W. Deem and Ramdas Pophale) SiO2 
 PCOD9050132
Probable space group: P -1
;
_chemical_formula_sum "Si O2"
_cell_formula_units_Z 13
_cell_length_a 8.537659
_cell_length_b 19.814198
_cell_length_c 4.877607
_cell_angle_alpha 116.350434
_cell_angle_beta 79.663344
_cell_angle_gamma 134.958716
_cell_volume 511.356249
_symmetry_space_group_name_H-M "P -1"
_symmetry_group_IT_number 2
_symmetry_cell_setting 'triclinic'
loop_
_space_group_symop_operation_xyz
x,y,z
-x,-y,-z
loop_
_atom_site_type_symbol
_atom_site_label
_atom_site_fract_x
_atom_site_fract_y
_atom_site_fract_z
Si Si1 0.645418 0.232614 0.979065
Si Si2 0.724177 0.478488 0.439913
Si Si3 0.664499 0.607953 0.968478
Si Si4 0.094342 0.818819 0.454126
Si Si5 0.500000 0.000000 0.000000
Si Si6 0.211752 0.015984 0.499394
Si Si7 0.205639 0.620575 0.308848
O O1 0.780739 0.203221 0.802056
O O2 0.716029 0.322888 0.908691
O O3 0.387340 0.122424 0.819034
O O4 0.700611 0.281593 0.347187
O O5 0.779188 0.583075 0.696408
O O6 0.491526 0.396605 0.195757
O O7 0.715794 0.426087 0.623981
O O8 0.933549 0.528571 0.267046
O O9 0.500000 0.500000 0.000000
O O10 0.833444 0.707969 0.297790
O O11 0.250028 0.878601 0.781471
O O12 0.124779 0.912044 0.490671
O O13 0.634623 0.971118 0.764954
O O14 0.000000 0.000000 0.500000
#
# Coordination Sequence:
#
# PCOD9050132 Si02
#       7
#     2   2   2   2   1   2   2
#     4  11  25  46  77 105 152 204 260 322 404 468
#     4  10  25  42  69 107 150 194 263 310 393 465
#     4  11  24  44  69 107 150 202 250 322 394 470
#     4  11  25  46  74 104 155 203 265 319 405 469
#     4  10  24  48  78 100 152 206 250 332 390 466
#     4  11  28  47  74 114 150 200 269 326 400 476
#     4  11  25  45  76 109 149 204 257 324 388 479
#
# _framework density 25.422587
#
# number of rings (size 3 to 8) (size 9 to 14) (size 15 to 20)
#    0.000    1.231    1.538    2.769   12.923    4.308 
#    0.000    0.000    0.000    0.000    0.000    0.000 
#    0.000    0.000    0.000    0.000    0.000    0.000 
#
# Total GULP energy -72466.124317 kJ/mol
# GULP energy per Si atom -5574.317255 kJ/mol
# Density = 2.536472 g / cm^3
# Si number density = 25.422587 Si / 1000 Ang^3
#
#
#
# Elastic Constant Matrix: (Units=GPa)
#
#
# Indices 1 2 3 4 5 6 
#
# 1 151.4494 53.9600 10.0877 9.6953 -1.2754 -7.5328
# 2 53.9600 133.6634 40.7599 34.1362 23.4390 -12.5941
# 3 10.0877 40.7599 109.3893 34.1968 25.0026 7.4702
# 4 9.6953 34.1362 34.1968 68.2443 12.3136 6.5361
# 5 -1.2754 23.4390 25.0026 12.3136 50.0034 9.3254
# 6 -7.5328 -12.5941 7.4702 6.5361 9.3254 45.3563
#
#
#
# Elastic Compliance Matrix: (Units=1/GPa)
#
#
# Indices 1 2 3 4 5 6 
#
# 1 0.007874 -0.003624 0.000125 0.000323 0.001782 -0.000132
# 2 -0.003624 0.011804 -0.002122 -0.003959 -0.004430 0.004507
# 3 0.000125 -0.002122 0.012214 -0.004272 -0.003838 -0.001175
# 4 0.000323 -0.003959 -0.004272 0.019043 -0.000119 -0.003062
# 5 0.001782 -0.004430 -0.003838 -0.000119 0.025084 -0.005442
# 6 -0.000132 0.004507 -0.001175 -0.003062 -0.005442 0.025031
#
#
# Mechanical properties :
#
#
# Convention : Reuss Voigt Hill
#
# Bulk Modulus (GPa) = 48.42680 67.12413 57.77546
# Shear Modulus (GPa) = 41.95566 52.03376 46.99471
#
# Velocity S-wave (km/s) = 4.06683 4.52901 4.30413
# Velocity P-wave (km/s) = 6.41422 7.33553 6.89029
#
# Compressibility (1/GPa) = 0.02064972
#
# Stress axis : x y z
#
# Youngs Moduli (GPa) = 127.00763 84.71676 81.87592
#
# Poissons Ratio (x) = 0.30702 -0.01024
# Poissons Ratio (y) = 0.46029 0.17372
# Poissons Ratio (z) = -0.01589 0.17975
#
# Static dielectric constant tensor:
#      x y z
#    x 2.067260 0.030850 -0.038100 
#    y 0.030850 2.035000 -0.059750 
#    z -0.038100 -0.059750 2.127300 
# 
# From -- ./inp_files/51988.got.cif
#   From: 2010.05.17/outbox.cif.g08.bks.cpg/sg2_26_cif.got.tgz:51988.got - 2010.06.03 11:33:40.
