data_PCOD9050534
_publ_section_title
;
Structure prediction by ZEFSAII (Michael W. Deem and Ramdas Pophale) SiO2 
 PCOD9050534
Probable space group: P -1
;
_chemical_formula_sum "Si O2"
_cell_formula_units_Z 14
_cell_length_a 16.129986
_cell_length_b 8.347585
_cell_length_c 9.089364
_cell_angle_alpha 60.762827
_cell_angle_beta 39.938127
_cell_angle_gamma 80.176408
_cell_volume 638.554711
_symmetry_space_group_name_H-M "P -1"
_symmetry_group_IT_number 2
_symmetry_cell_setting 'triclinic'
loop_
_space_group_symop_operation_xyz
x,y,z
-x,-y,-z
loop_
_atom_site_type_symbol
_atom_site_label
_atom_site_fract_x
_atom_site_fract_y
_atom_site_fract_z
Si Si1 0.105092 0.593304 0.619351
Si Si2 0.103767 0.186347 0.682044
Si Si3 0.783869 0.397939 0.222610
Si Si4 0.534782 0.072397 0.587877
Si Si5 0.587660 0.719113 0.734106
Si Si6 0.334562 0.267211 0.718049
Si Si7 0.071290 0.906720 0.323058
O O1 0.126118 0.392161 0.639863
O O2 0.191035 0.669637 0.617581
O O3 0.133203 0.757873 0.382665
O O4 0.939315 0.521942 0.903342
O O5 0.257732 0.186766 0.453326
O O6 0.037742 0.194269 0.610396
O O7 0.000000 0.000000 0.000000
O O8 0.694851 0.213910 0.326938
O O9 0.699858 0.544986 0.272584
O O10 0.440528 0.198229 0.699137
O O11 0.500000 0.000000 0.500000
O O12 0.511518 0.872772 0.797669
O O13 0.610083 0.704815 0.535456
O O14 0.500000 0.500000 0.000000
O O15 0.191454 0.083391 0.002439
O O16 0.000000 0.000000 0.500000
#
# Coordination Sequence:
#
# PCOD9050534 Si02
#       7
#     2   2   2   2   2   2   2
#     4  11  25  41  73 107 138 187 237 295 361 420
#     4  12  24  47  77 101 146 188 238 298 357 421
#     4  11  22  45  71 104 142 181 240 295 358 425
#     4  10  25  42  70  98 138 187 236 288 354 423
#     4  11  25  46  71 102 138 184 242 288 355 428
#     4  11  23  47  68 101 141 184 232 299 355 418
#     4  12  26  44  70 111 143 180 242 296 358 426
#
# _framework density 21.924512
#
# number of rings (size 3 to 8) (size 9 to 14) (size 15 to 20)
#    0.000    0.857    4.286    1.714    8.000    2.286 
#    2.571    1.429    0.000    0.000    0.000    0.000 
#    0.000    0.000    0.000    0.000    0.000    0.000 
#
# Total GULP energy -78264.137203 kJ/mol
# GULP energy per Si atom -5590.295515 kJ/mol
# Density = 2.187461 g / cm^3
# Si number density = 21.924512 Si / 1000 Ang^3
#
#
#
# Elastic Constant Matrix: (Units=GPa)
#
#
# Indices 1 2 3 4 5 6 
#
# 1 114.1033 50.4683 34.5910 -19.8137 -14.7357 -4.4685
# 2 50.4683 82.7714 24.2647 -16.2022 -3.2804 -20.1413
# 3 34.5910 24.2647 84.1823 -19.8689 3.9364 -10.7865
# 4 -19.8137 -16.2022 -19.8689 37.9248 -5.4691 -2.7997
# 5 -14.7357 -3.2804 3.9364 -5.4691 38.4083 -3.5720
# 6 -4.4685 -20.1413 -10.7865 -2.7997 -3.5720 49.6271
#
#
#
# Elastic Compliance Matrix: (Units=1/GPa)
#
#
# Indices 1 2 3 4 5 6 
#
# 1 0.014216 -0.007262 -0.003500 0.003142 0.005467 -0.001857
# 2 -0.007262 0.019424 -0.000545 0.004809 0.000302 0.007404
# 3 -0.003500 -0.000545 0.015346 0.005934 -0.001838 0.003001
# 4 0.003142 0.004809 0.005934 0.034546 0.006480 0.005940
# 5 0.005467 0.000302 -0.001838 0.006480 0.029522 0.002706
# 6 -0.001857 0.007404 0.003001 0.005940 0.002706 0.024170
#
#
# Mechanical properties :
#
#
# Convention : Reuss Voigt Hill
#
# Bulk Modulus (GPa) = 37.92082 55.52279 46.72180
# Shear Modulus (GPa) = 29.65075 36.64088 33.14582
#
# Velocity S-wave (km/s) = 3.68149 4.09250 3.89243
# Velocity P-wave (km/s) = 5.95019 6.90731 6.44654
#
# Compressibility (1/GPa) = 0.02637074
#
# Stress axis : x y z
#
# Youngs Moduli (GPa) = 70.34258 51.48217 65.16516
#
# Poissons Ratio (x) = 0.37387 0.22810
# Poissons Ratio (y) = 0.51084 0.03553
# Poissons Ratio (z) = 0.24622 0.02807
#
# Static dielectric constant tensor:
#      x y z
#    x 1.814750 -0.053390 -0.035170 
#    y -0.053390 1.870120 0.025400 
#    z -0.035170 0.025400 1.775850 
# 
# From -- ./inp_files/158889.got.cif
#   From: 2010.05.17/outbox.cif.g08.bks.cpg/sg2_80_cif.got.tgz:158889.got - 2010.06.03 11:33:40.
