data_PCOD9050065
_publ_section_title
;
Structure prediction by ZEFSAII (Michael W. Deem and Ramdas Pophale) SiO2 
 PCOD9050065
Probable space group: P -1
;
_chemical_formula_sum "Si O2"
_cell_formula_units_Z 15
_cell_length_a 14.164095
_cell_length_b 11.527082
_cell_length_c 5.301144
_cell_angle_alpha 66.647074
_cell_angle_beta 62.949273
_cell_angle_gamma 52.566042
_cell_volume 603.216530
_symmetry_space_group_name_H-M "P -1"
_symmetry_group_IT_number 2
_symmetry_cell_setting 'triclinic'
loop_
_space_group_symop_operation_xyz
x,y,z
-x,-y,-z
loop_
_atom_site_type_symbol
_atom_site_label
_atom_site_fract_x
_atom_site_fract_y
_atom_site_fract_z
Si Si1 0.646292 0.770002 0.462129
Si Si2 0.217046 0.699530 0.432586
Si Si3 0.814693 0.854914 0.465427
Si Si4 0.865573 0.600854 0.965292
Si Si5 0.538293 0.591480 0.699509
Si Si6 0.342203 0.849522 0.357189
Si Si7 0.500000 0.000000 0.000000
Si Si8 0.088780 0.681145 0.094399
O O1 0.697219 0.841931 0.530388
O O2 0.579424 0.689136 0.725177
O O3 0.555964 0.888811 0.268556
O O4 0.763855 0.650253 0.260935
O O5 0.337223 0.536213 0.473945
O O6 0.272023 0.806545 0.276357
O O7 0.149483 0.702633 0.253250
O O8 0.129222 0.730509 0.752508
O O9 0.854343 0.749370 0.750690
O O10 0.938894 0.774615 0.217900
O O11 0.763336 0.023779 0.443408
O O12 0.859997 0.494936 0.851103
O O13 0.000000 0.500000 0.000000
O O14 0.434527 0.702911 0.533660
O O15 0.500000 0.500000 0.000000
O O16 0.412553 0.928100 0.098185
#
# Coordination Sequence:
#
# PCOD9050065 Si02
#       8
#     2   2   2   2   2   2   1   2
#     4  11  24  46  80 111 156 195 263 327 399 462
#     4  12  27  50  76 113 154 208 261 322 390 476
#     4  12  27  46  77 116 157 205 260 328 398 477
#     4  12  23  47  77 115 154 204 260 329 392 460
#     4  11  25  49  77 113 153 207 266 324 395 471
#     4  11  27  48  74 114 154 210 258 329 396 470
#     4  10  24  48  74 110 148 198 260 326 394 462
#     4  12  27  47  80 113 157 205 261 322 395 472
#
# _framework density 24.866693000000001
#
# number of rings (size 3 to 8) (size 9 to 14) (size 15 to 20)
#    0.000    0.533    4.000    3.200    0.000    6.400 
#    2.400    0.000    0.000    0.000    0.000    0.000 
#    0.000    0.000    0.000    0.000    0.000    0.000 
#
# Total GULP energy -83844.575710 kJ/mol
# GULP energy per Si atom -5589.638381 kJ/mol
# Density = 2.481010 g / cm^3
# Si number density = 24.866693 Si / 1000 Ang^3
#
#
#
# Elastic Constant Matrix: (Units=GPa)
#
#
# Indices 1 2 3 4 5 6 
#
# 1 159.6768 56.5843 45.2475 -12.4243 6.7649 22.7425
# 2 56.5843 95.7091 11.1663 -3.5378 -3.5766 17.4535
# 3 45.2475 11.1663 101.3884 -21.2656 -17.8201 16.6072
# 4 -12.4243 -3.5378 -21.2656 33.6319 6.3672 2.8643
# 5 6.7649 -3.5766 -17.8201 6.3672 41.5624 -2.1679
# 6 22.7425 17.4535 16.6072 2.8643 -2.1679 40.9765
#
#
#
# Elastic Compliance Matrix: (Units=1/GPa)
#
#
# Indices 1 2 3 4 5 6 
#
# 1 0.009700 -0.005012 -0.003818 0.001570 -0.003993 -0.002023
# 2 -0.005012 0.014015 0.001918 0.000686 0.002537 -0.003879
# 3 -0.003818 0.001918 0.014716 0.007432 0.005703 -0.004880
# 4 0.001570 0.000686 0.007432 0.036222 -0.002917 -0.006862
# 5 -0.003993 0.002537 0.005703 -0.002917 0.027847 0.000502
# 6 -0.002023 -0.003879 -0.004880 -0.006862 0.000502 0.029663
#
#
# Mechanical properties :
#
#
# Convention : Reuss Voigt Hill
#
# Bulk Modulus (GPa) = 40.63689 64.75226 52.69458
# Shear Modulus (GPa) = 32.42769 39.48593 35.95681
#
# Velocity S-wave (km/s) = 3.61510 3.98917 3.80673
# Velocity P-wave (km/s) = 5.81400 6.87854 6.36855
#
# Compressibility (1/GPa) = 0.02460818
#
# Stress axis : x y z
#
# Youngs Moduli (GPa) = 103.09300 71.35200 67.95136
#
# Poissons Ratio (x) = 0.35759 0.25945
# Poissons Ratio (y) = 0.51666 -0.13034
# Poissons Ratio (z) = 0.39363 -0.13687
#
# Static dielectric constant tensor:
#      x y z
#    x 2.013140 0.045430 -0.025790 
#    y 0.045430 2.003420 0.095170 
#    z -0.025790 0.095170 1.981620 
# 
# From -- ./inp_files/93140.got.cif
#   From: 2010.05.17/outbox.cif.g08.bks.cpg/sg2_47_cif.got.tgz:93140.got - 2010.06.03 11:33:40.
