data_PCOD9050752
_publ_section_title
;
Structure prediction by ZEFSAII (Michael W. Deem and Ramdas Pophale) SiO2 
 PCOD9050752
Probable space group: P -1
;
_chemical_formula_sum "Si O2"
_cell_formula_units_Z 16
_cell_length_a 9.521007
_cell_length_b 11.381347
_cell_length_c 19.067748
_cell_angle_alpha 38.302556
_cell_angle_beta 135.100134
_cell_angle_gamma 105.909358
_cell_volume 691.575332
_symmetry_space_group_name_H-M "P -1"
_symmetry_group_IT_number 2
_symmetry_cell_setting 'triclinic'
loop_
_space_group_symop_operation_xyz
x,y,z
-x,-y,-z
loop_
_atom_site_type_symbol
_atom_site_label
_atom_site_fract_x
_atom_site_fract_y
_atom_site_fract_z
Si Si1 0.657891 0.920872 0.167681
Si Si2 0.629026 0.542745 0.963650
Si Si3 0.793154 0.752631 0.734163
Si Si4 0.813235 0.310165 0.894282
Si Si5 0.691676 0.505173 0.611682
Si Si6 0.565975 0.565936 0.177795
Si Si7 0.669046 0.934777 0.760349
Si Si8 0.070604 0.466485 0.446504
O O1 0.674671 0.776411 0.310725
O O2 0.948537 0.698776 0.346685
O O3 0.500000 0.000000 0.000000
O O4 0.560913 0.187004 0.029134
O O5 0.480516 0.584710 0.818195
O O6 0.604135 0.785688 0.851034
O O7 0.500000 0.500000 0.000000
O O8 0.941475 0.314152 0.170884
O O9 0.801994 0.535407 0.809787
O O10 0.794171 0.781012 0.804721
O O11 0.500000 0.000000 0.500000
O O12 0.764132 0.338050 0.782223
O O13 0.607224 0.336340 0.858904
O O14 0.107763 0.071689 0.124149
O O15 0.500000 0.500000 0.500000
O O16 0.903210 0.445670 0.659382
O O17 0.568777 0.778335 0.468084
O O18 0.855874 0.435922 0.367225
#
# Coordination Sequence:
#
# PCOD9050752 Si02
#       8
#     2   2   2   2   2   2   2   2
#     4   9  22  43  70  90 134 180 228 280 348 413
#     4  11  25  42  70 109 143 179 230 297 365 422
#     4  11  21  45  74  99 137 187 240 283 348 437
#     4  11  24  44  69 100 138 184 235 284 349 425
#     4  12  30  44  68 102 141 185 240 293 348 410
#     4  11  23  42  73 100 134 185 230 281 361 429
#     4  11  24  48  69  99 141 187 232 287 356 430
#     4  10  25  44  65 102 137 176 237 292 341 420
#
# _framework density 23.135586
#
# number of rings (size 3 to 8) (size 9 to 14) (size 15 to 20)
#    0.000    1.250    3.750    0.750   12.250    2.500 
#    0.000    1.250    0.000    0.000    0.000    0.000 
#    0.000    0.000    0.000    0.000    0.000    0.000 
#
# Total GULP energy -89200.118585 kJ/mol
# GULP energy per Si atom -5575.007412 kJ/mol
# Density = 2.308293 g / cm^3
# Si number density = 23.135586 Si / 1000 Ang^3
#
#
#
# Elastic Constant Matrix: (Units=GPa)
#
#
# Indices 1 2 3 4 5 6 
#
# 1 138.8412 10.4423 14.7467 22.8901 -6.9210 5.4723
# 2 10.4423 64.9295 6.3475 15.5079 3.5865 -2.7493
# 3 14.7467 6.3475 84.3959 20.9218 -11.4191 3.1429
# 4 22.8901 15.5079 20.9218 43.1313 -8.2530 1.1435
# 5 -6.9210 3.5865 -11.4191 -8.2530 29.0812 10.3850
# 6 5.4723 -2.7493 3.1429 1.1435 10.3850 33.6305
#
#
#
# Elastic Compliance Matrix: (Units=1/GPa)
#
#
# Indices 1 2 3 4 5 6 
#
# 1 0.008001 -0.000551 -0.000198 -0.003630 0.001455 -0.001654
# 2 -0.000551 0.017688 -0.000393 -0.007073 -0.005756 0.003590
# 3 -0.000198 -0.000393 0.014051 -0.005566 0.004878 -0.002630
# 4 -0.003630 -0.007073 -0.005566 0.031959 0.007969 -0.003015
# 5 0.001455 -0.005756 0.004878 0.007969 0.045106 -0.015363
# 6 -0.001654 0.003590 -0.002630 -0.003015 -0.015363 0.035390
#
#
# Mechanical properties :
#
#
# Convention : Reuss Voigt Hill
#
# Bulk Modulus (GPa) = 26.69873 39.02662 32.86267
# Shear Modulus (GPa) = 29.94652 38.27729 34.11190
#
# Velocity S-wave (km/s) = 3.60167 4.07194 3.84400
# Velocity P-wave (km/s) = 5.37226 6.24603 5.82555
#
# Compressibility (1/GPa) = 0.03745497
#
# Stress axis : x y z
#
# Youngs Moduli (GPa) = 124.98263 56.53646 71.16963
#
# Poissons Ratio (x) = 0.03114 0.01412
# Poissons Ratio (y) = 0.06885 0.02798
# Poissons Ratio (z) = 0.02479 0.02223
#
# Static dielectric constant tensor:
#      x y z
#    x 1.943770 0.081520 0.024050 
#    y 0.081520 1.941790 0.020950 
#    z 0.024050 0.020950 1.937940 
# 
# From -- ./inp_files/559696.got.cif
#   From: 2010.05.17/outbox.cif.g08.bks.cpg/sg2_280_cif.got.tgz:559696.got - 2010.06.03 11:33:40.
