data_PCOD9050988
_publ_section_title
;
Structure prediction by ZEFSAII (Michael W. Deem and Ramdas Pophale) SiO2 
 PCOD9050988
Probable space group: P -1
;
_chemical_formula_sum "Si O2"
_cell_formula_units_Z 14
_cell_length_a 10.741523
_cell_length_b 15.777701
_cell_length_c 18.241792
_cell_angle_alpha 157.038156
_cell_angle_beta 146.323558
_cell_angle_gamma 35.406849
_cell_volume 651.519817
_symmetry_space_group_name_H-M "P -1"
_symmetry_group_IT_number 2
_symmetry_cell_setting 'triclinic'
loop_
_space_group_symop_operation_xyz
x,y,z
-x,-y,-z
loop_
_atom_site_type_symbol
_atom_site_label
_atom_site_fract_x
_atom_site_fract_y
_atom_site_fract_z
Si Si1 0.342612 0.169531 0.502578
Si Si2 0.921723 0.688410 0.948343
Si Si3 0.508299 0.026625 0.309585
Si Si4 0.809038 0.230367 0.521033
Si Si5 0.452212 0.486378 0.052003
Si Si6 0.893101 0.156453 0.348816
Si Si7 0.296715 0.332443 0.329061
O O1 0.441359 0.123750 0.433929
O O2 0.092120 0.129533 0.363595
O O3 0.500000 0.000000 0.500000
O O4 0.363762 0.411462 0.732610
O O5 0.838234 0.466008 0.754428
O O6 0.866479 0.696467 0.840761
O O7 0.193316 0.630707 0.052743
O O8 0.804047 0.928625 0.115510
O O9 0.745331 0.076757 0.431891
O O10 0.308678 0.159515 0.263428
O O11 0.533167 0.764790 0.116671
O O12 0.980179 0.157179 0.477708
O O13 0.565936 0.273254 0.390840
O O14 0.500000 0.500000 0.000000
O O15 0.757802 0.409732 0.468551
#
# Coordination Sequence:
#
# PCOD9050988 Si02
#       7
#     2   2   2   2   2   2   2
#     4  12  24  43  64  93 128 169 215 260 317 374
#     4  11  21  37  70  97 121 173 215 250 325 380
#     4  10  25  45  62  94 136 164 210 269 316 374
#     4   9  23  43  62  98 132 166 205 268 318 371
#     4  12  23  41  67  91 126 175 211 260 319 378
#     4  11  21  40  70  94 126 172 214 256 316 385
#     4   9  23  43  63  97 133 164 207 269 317 370
#
# _framework density 21.488219000000001
#
# number of rings (size 3 to 8) (size 9 to 14) (size 15 to 20)
#    0.857    0.571    2.857    3.429    0.000    5.714 
#    0.000    6.429    0.000    0.000    0.000    0.000 
#    0.000    0.000    0.000    0.000    0.000    0.000 
#
# Total GULP energy -78022.825140 kJ/mol
# GULP energy per Si atom -5573.058939 kJ/mol
# Density = 2.143931 g / cm^3
# Si number density = 21.488219 Si / 1000 Ang^3
#
#
#
# Elastic Constant Matrix: (Units=GPa)
#
#
# Indices 1 2 3 4 5 6 
#
# 1 85.9140 10.1274 22.0267 21.6235 17.4866 11.4839
# 2 10.1274 19.7445 12.0494 34.9979 12.4045 18.1929
# 3 22.0267 12.0494 147.6073 45.3034 8.0224 12.8157
# 4 21.6235 34.9979 45.3034 38.4756 -1.2254 6.4389
# 5 17.4866 12.4045 8.0224 -1.2254 27.8616 12.5146
# 6 11.4839 18.1929 12.8157 6.4389 12.5146 25.7934
#
#
#
# Elastic Compliance Matrix: (Units=1/GPa)
#
#
# Indices 1 2 3 4 5 6 
#
# 1 0.013313 -0.008695 -0.001850 0.001895 -0.005320 0.003233
# 2 -0.008695 -0.024255 -0.009993 0.037893 0.017128 0.008174
# 3 -0.001850 -0.009993 0.007054 0.001418 0.002351 0.002873
# 4 0.001895 0.037893 0.001418 -0.007817 -0.008936 -0.021989
# 5 -0.005320 0.017128 0.002351 -0.008936 0.044012 -0.030004
# 6 0.003233 0.008174 0.002873 -0.021989 -0.030004 0.050184
#
#
# Mechanical properties :
#
#
# Convention : Reuss Voigt Hill
#
# Bulk Modulus (GPa) = -22.23961 37.96366 7.86202
# Shear Modulus (GPa) = 46.04961 32.36361 39.20661
#
# Velocity S-wave (km/s) = 4.63430 3.88507 4.27612
# Velocity P-wave (km/s) = 4.27358 6.15066 5.29594
#
# Compressibility (1/GPa) = -0.04496482
#
# Stress axis : x y z
#
# Youngs Moduli (GPa) = 75.11728 -41.22866 141.75991
#
# Poissons Ratio (x) = -0.35848 0.26225
# Poissons Ratio (y) = 0.65314 1.41666
# Poissons Ratio (z) = 0.13896 -0.41201
#
# Static dielectric constant tensor:
#      x y z
#    x 1.817120 -0.032010 0.008620 
#    y -0.032010 1.859070 0.001270 
#    z 0.008620 0.001270 1.809720 
# 
# From -- ./inp_files/596074.got.cif
#   From: 2010.05.17/outbox.cif.g08.bks.cpg/sg2_299_cif.got.tgz:596074.got - 2010.06.03 11:33:40.
