data_PCOD9050435
_publ_section_title
;
Structure prediction by ZEFSAII (Michael W. Deem and Ramdas Pophale) SiO2 
 PCOD9050435
Probable space group: P -1
;
_chemical_formula_sum "Si O2"
_cell_formula_units_Z 16
_cell_length_a 8.137337
_cell_length_b 11.888161
_cell_length_c 12.080126
_cell_angle_alpha 51.339302
_cell_angle_beta 55.733180
_cell_angle_gamma 75.530885
_cell_volume 744.668940
_symmetry_space_group_name_H-M "P -1"
_symmetry_group_IT_number 2
_symmetry_cell_setting 'triclinic'
loop_
_space_group_symop_operation_xyz
x,y,z
-x,-y,-z
loop_
_atom_site_type_symbol
_atom_site_label
_atom_site_fract_x
_atom_site_fract_y
_atom_site_fract_z
Si Si1 0.058992 0.827092 0.936990
Si Si2 0.190487 0.091992 0.306736
Si Si3 0.537288 0.986067 0.363330
Si Si4 0.991686 0.345144 0.157480
Si Si5 0.685119 0.477078 0.586323
Si Si6 0.360661 0.668963 0.536631
Si Si7 0.740435 0.008781 0.899701
Si Si8 0.906604 0.313753 0.763155
O O1 0.094950 0.763255 0.842087
O O2 0.234254 0.964954 0.791417
O O3 0.087872 0.714928 0.091187
O O4 0.840052 0.876965 0.997560
O O5 0.168563 0.259139 0.184856
O O6 0.393111 0.087042 0.299647
O O7 0.202653 0.005485 0.241036
O O8 0.000000 0.000000 0.500000
O O9 0.467083 0.826092 0.439366
O O10 0.500000 0.000000 0.500000
O O11 0.855037 0.350459 0.312870
O O12 0.000000 0.500000 0.000000
O O13 0.486384 0.550299 0.612154
O O14 0.659978 0.358103 0.569913
O O15 0.740602 0.406244 0.723107
O O16 0.876373 0.599712 0.408323
O O17 0.848841 0.156835 0.823382
O O18 0.500000 0.000000 0.000000
#
# Coordination Sequence:
#
# PCOD9050435 Si02
#       8
#     2   2   2   2   2   2   2   2
#     4  11  24  43  65 103 134 173 228 294 345 405
#     4  11  23  43  68 102 134 182 239 279 346 420
#     4  12  22  43  71 102 135 177 235 296 343 406
#     4  11  24  44  67  96 138 182 227 287 348 416
#     4  10  25  41  66  94 136 188 222 284 337 423
#     4  11  22  45  67  95 136 184 235 272 351 411
#     4  11  24  42  70  97 135 181 227 287 347 414
#     4  11  23  43  62  99 137 173 232 277 352 403
#
# _framework density 21.486059999999998
#
# number of rings (size 3 to 8) (size 9 to 14) (size 15 to 20)
#    0.000    1.000    2.500    4.125    0.000    6.000 
#    4.500    1.250    0.000    0.000    0.000    0.000 
#    0.000    0.000    0.000    0.000    0.000    0.000 
#
# Total GULP energy -89416.217069 kJ/mol
# GULP energy per Si atom -5588.513567 kJ/mol
# Density = 2.143716 g / cm^3
# Si number density = 21.486060 Si / 1000 Ang^3
#
#
#
# Elastic Constant Matrix: (Units=GPa)
#
#
# Indices 1 2 3 4 5 6 
#
# 1 114.7560 37.2366 21.2834 6.6032 25.5405 -12.2948
# 2 37.2366 93.7257 23.8609 -1.4920 -1.8625 -5.5392
# 3 21.2834 23.8609 56.6726 2.8853 15.6235 -6.4717
# 4 6.6032 -1.4920 2.8853 33.4739 0.0083 -4.5535
# 5 25.5405 -1.8625 15.6235 0.0083 43.3482 -6.7385
# 6 -12.2948 -5.5392 -6.4717 -4.5535 -6.7385 32.7644
#
#
#
# Elastic Compliance Matrix: (Units=1/GPa)
#
#
# Indices 1 2 3 4 5 6 
#
# 1 0.012248 -0.004857 -0.000277 -0.002342 -0.007022 0.001951
# 2 -0.004857 0.014269 -0.005760 0.002216 0.005695 0.000931
# 3 -0.000277 -0.005760 0.022653 -0.001952 -0.008019 0.001476
# 4 -0.002342 0.002216 -0.001952 0.031148 0.002796 0.004014
# 5 -0.007022 0.005695 -0.008019 0.002796 0.030882 0.003484
# 6 0.001951 0.000931 0.001476 0.004014 0.003484 0.032976
#
#
# Mechanical properties :
#
#
# Convention : Reuss Voigt Hill
#
# Bulk Modulus (GPa) = 36.52093 47.76845 42.14469
# Shear Modulus (GPa) = 28.55627 34.10219 31.32923
#
# Velocity S-wave (km/s) = 3.64958 3.98826 3.82267
# Velocity P-wave (km/s) = 5.89862 6.59461 6.25630
#
# Compressibility (1/GPa) = 0.02738156
#
# Stress axis : x y z
#
# Youngs Moduli (GPa) = 81.64552 70.08182 44.14406
#
# Poissons Ratio (x) = 0.34039 0.01223
# Poissons Ratio (y) = 0.39656 0.25428
# Poissons Ratio (z) = 0.02262 0.40368
#
# Static dielectric constant tensor:
#      x y z
#    x 1.832210 -0.072670 0.113200 
#    y -0.072670 1.880290 -0.209530 
#    z 0.113200 -0.209530 2.090450 
# 
# From -- ./inp_files/391961.got.cif
#   From: 2010.05.17/outbox.cif.g08.bks.cpg/sg2_196_cif.got.tgz:391961.got - 2010.06.03 11:33:40.
