data_PCOD9050660
_publ_section_title
;
Structure prediction by ZEFSAII (Michael W. Deem and Ramdas Pophale) SiO2 
 PCOD9050660
Probable space group: P -1
;
_chemical_formula_sum "Si O2"
_cell_formula_units_Z 16
_cell_length_a 18.269517
_cell_length_b 6.916476
_cell_length_c 7.160638
_cell_angle_alpha 97.162586
_cell_angle_beta 124.028211
_cell_angle_gamma 94.235183
_cell_volume 732.594180
_symmetry_space_group_name_H-M "P -1"
_symmetry_group_IT_number 2
_symmetry_cell_setting 'triclinic'
loop_
_space_group_symop_operation_xyz
x,y,z
-x,-y,-z
loop_
_atom_site_type_symbol
_atom_site_label
_atom_site_fract_x
_atom_site_fract_y
_atom_site_fract_z
Si Si1 0.096082 0.751901 0.669570
Si Si2 0.291622 0.735306 0.998647
Si Si3 0.279674 0.956746 0.377872
Si Si4 0.035164 0.414293 0.850804
Si Si5 0.544883 0.803949 0.495533
Si Si6 0.601768 0.975812 0.101111
Si Si7 0.417590 0.439928 0.121531
Si Si8 0.906553 0.943080 0.976332
O O1 0.197582 0.737434 0.766185
O O2 0.039564 0.727539 0.396195
O O3 0.067495 0.581417 0.764356
O O4 0.088983 0.943601 0.805291
O O5 0.359997 0.913103 0.019722
O O6 0.278445 0.785703 0.202377
O O7 0.327037 0.530087 0.016096
O O8 0.179768 0.005417 0.249705
O O9 0.353543 0.132740 0.419968
O O10 0.328860 0.917697 0.632844
O O11 0.000000 0.500000 0.000000
O O12 0.106039 0.285839 0.012139
O O13 0.489243 0.645992 0.252185
O O14 0.549208 0.680693 0.674706
O O15 0.500000 0.000000 0.500000
O O16 0.600816 0.740228 0.072036
O O17 0.500000 0.000000 0.000000
O O18 0.000000 0.000000 0.000000
#
# Coordination Sequence:
#
# PCOD9050660 Si02
#       8
#     2   2   2   2   2   2   2   2
#     4  10  25  43  70 100 135 186 225 292 354 406
#     4  11  25  45  67 100 137 178 237 282 341 425
#     4  11  25  45  69  98 138 182 229 288 348 411
#     4  11  23  44  69 100 136 177 235 291 347 422
#     4  11  21  42  69  95 133 176 226 282 340 413
#     4  12  27  44  67 102 144 179 230 292 346 419
#     4  11  23  41  70  95 134 181 220 282 351 401
#     4  11  24  45  70 100 140 184 229 288 358 413
#
# _framework density 21.840198999999998
#
# number of rings (size 3 to 8) (size 9 to 14) (size 15 to 20)
#    0.000    1.000    3.750    1.875    5.250    3.000 
#    0.000    0.000    0.000    0.000    0.000    0.000 
#    0.000    0.000    0.000    0.000    0.000    0.000 
#
# Total GULP energy -89231.650506 kJ/mol
# GULP energy per Si atom -5576.978157 kJ/mol
# Density = 2.179049 g / cm^3
# Si number density = 21.840199 Si / 1000 Ang^3
#
#
#
# Elastic Constant Matrix: (Units=GPa)
#
#
# Indices 1 2 3 4 5 6 
#
# 1 101.7080 37.9316 40.4957 -18.5659 18.2658 -19.3622
# 2 37.9316 124.9630 8.8662 -11.1757 3.3398 -30.6287
# 3 40.4957 8.8662 107.0393 -9.9227 3.4379 -17.9919
# 4 -18.5659 -11.1757 -9.9227 25.9878 1.6365 2.4338
# 5 18.2658 3.3398 3.4379 1.6365 37.5067 -8.5599
# 6 -19.3622 -30.6287 -17.9919 2.4338 -8.5599 35.3877
#
#
#
# Elastic Compliance Matrix: (Units=1/GPa)
#
#
# Indices 1 2 3 4 5 6 
#
# 1 0.015937 -0.003238 -0.004516 0.008596 -0.007136 0.001304
# 2 -0.003238 0.011301 0.002013 0.002274 0.002448 0.009469
# 3 -0.004516 0.002013 0.011922 0.001516 0.002174 0.005754
# 4 0.008596 0.002274 0.001516 0.046284 -0.005901 0.002832
# 5 -0.007136 0.002448 0.002174 -0.005901 0.031663 0.007384
# 6 0.001304 0.009469 0.005754 0.002832 0.007384 0.041684
#
#
# Mechanical properties :
#
#
# Convention : Reuss Voigt Hill
#
# Bulk Modulus (GPa) = 36.13038 56.47746 46.30392
# Shear Modulus (GPa) = 27.85541 36.20423 32.02982
#
# Velocity S-wave (km/s) = 3.57518 4.07589 3.83372
# Velocity P-wave (km/s) = 5.79840 6.93297 6.39091
#
# Compressibility (1/GPa) = 0.02767754
#
# Stress axis : x y z
#
# Youngs Moduli (GPa) = 62.74874 88.48596 83.87856
#
# Poissons Ratio (x) = 0.28652 0.37878
# Poissons Ratio (y) = 0.20318 -0.16882
# Poissons Ratio (z) = 0.28336 -0.17810
#
# Static dielectric constant tensor:
#      x y z
#    x 1.824080 0.018910 -0.019810 
#    y 0.018910 1.804900 0.037950 
#    z -0.019810 0.037950 1.899750 
# 
# From -- ./inp_files/340515.got.cif
#   From: 2010.05.17/outbox.cif.g08.bks.cpg/sg2_171_cif.got.tgz:340515.got - 2010.06.03 11:33:40.
