data_PCOD9050041
_publ_section_title
;
Structure prediction by ZEFSAII (Michael W. Deem and Ramdas Pophale) SiO2 
 PCOD9050041
Probable space group: P -1
;
_chemical_formula_sum "Si O2"
_cell_formula_units_Z 16
_cell_length_a 14.035593
_cell_length_b 8.565362
_cell_length_c 6.538339
_cell_angle_alpha 111.776758
_cell_angle_beta 77.459058
_cell_angle_gamma 101.088024
_cell_volume 707.092273
_symmetry_space_group_name_H-M "P -1"
_symmetry_group_IT_number 2
_symmetry_cell_setting 'triclinic'
loop_
_space_group_symop_operation_xyz
x,y,z
-x,-y,-z
loop_
_atom_site_type_symbol
_atom_site_label
_atom_site_fract_x
_atom_site_fract_y
_atom_site_fract_z
Si Si1 0.936612 0.326210 0.876569
Si Si2 0.895235 0.132942 0.208064
Si Si3 0.349539 0.423736 0.980154
Si Si4 0.507849 0.266105 0.079241
Si Si5 0.566900 0.966730 0.644838
Si Si6 0.768549 0.852927 0.362893
Si Si7 0.192808 0.574888 0.358079
Si Si8 0.918214 0.771472 0.580011
O O1 0.844168 0.376583 0.822983
O O2 0.006145 0.246782 0.647304
O O3 0.903290 0.195693 0.004886
O O4 0.000000 0.500000 0.000000
O O5 0.833385 0.271661 0.414166
O O6 0.007004 0.142053 0.244141
O O7 0.836750 0.955728 0.212384
O O8 0.422804 0.557290 0.883232
O O9 0.271431 0.324659 0.812741
O O10 0.412506 0.291550 0.998269
O O11 0.299460 0.521217 0.233955
O O12 0.475518 0.199448 0.286137
O O13 0.564118 0.122889 0.877109
O O14 0.674472 0.944910 0.504967
O O15 0.500000 0.000000 0.500000
O O16 0.829379 0.844832 0.541465
O O17 0.125962 0.409483 0.395504
#
# Coordination Sequence:
#
# PCOD9050041 Si02
#       8
#     2   2   2   2   2   2   2   2
#     4  11  19  40  66  93 129 176 226 268 318 386
#     4  11  24  43  67  93 136 184 217 271 329 381
#     4  11  24  45  67 103 131 172 222 273 328 397
#     4  10  24  48  73  92 136 174 211 276 341 389
#     4  11  23  48  72 100 133 170 218 272 335 403
#     4  12  26  43  66 103 134 171 224 273 328 393
#     4  11  22  41  68  94 131 174 225 269 323 391
#     4  11  23  42  65  95 136 177 222 273 324 381
#
# _framework density 22.627883000000001
#
# number of rings (size 3 to 8) (size 9 to 14) (size 15 to 20)
#    0.000    1.000    3.750    3.375    0.000    2.000 
#   11.250    0.000    0.000    0.000    0.000    0.000 
#    0.000    0.000    0.000    0.000    0.000    0.000 
#
# Total GULP energy -89530.191516 kJ/mol
# GULP energy per Si atom -5595.636970 kJ/mol
# Density = 2.257638 g / cm^3
# Si number density = 22.627883 Si / 1000 Ang^3
#
#
#
# Elastic Constant Matrix: (Units=GPa)
#
#
# Indices 1 2 3 4 5 6 
#
# 1 103.8403 41.9230 38.6176 -13.5694 -9.3836 -16.8105
# 2 41.9230 103.7525 39.2836 -41.7606 8.6217 -0.2142
# 3 38.6176 39.2836 84.5173 -34.4160 3.8625 -7.2076
# 4 -13.5694 -41.7606 -34.4160 49.5166 -12.0230 -6.8379
# 5 -9.3836 8.6217 3.8625 -12.0230 26.4517 2.7887
# 6 -16.8105 -0.2142 -7.2076 -6.8379 2.7887 39.0484
#
#
#
# Elastic Compliance Matrix: (Units=1/GPa)
#
#
# Indices 1 2 3 4 5 6 
#
# 1 0.014667 -0.005258 -0.004774 -0.001527 0.006427 0.004678
# 2 -0.005258 0.016960 -0.000477 0.012085 -0.001829 -0.000011
# 3 -0.004774 -0.000477 0.019693 0.012731 0.000979 0.003736
# 4 -0.001527 0.012085 0.012731 0.042966 0.012303 0.008404
# 5 0.006427 -0.001829 0.000979 0.012303 0.045939 0.001811
# 6 0.004678 -0.000011 0.003736 0.008404 0.001811 0.029655
#
#
# Mechanical properties :
#
#
# Convention : Reuss Voigt Hill
#
# Bulk Modulus (GPa) = 33.00100 59.08426 46.04263
# Shear Modulus (GPa) = 24.87602 34.48906 29.68254
#
# Velocity S-wave (km/s) = 3.31925 3.90832 3.62576
# Velocity P-wave (km/s) = 5.41348 6.82162 6.15793
#
# Compressibility (1/GPa) = 0.03030211
#
# Stress axis : x y z
#
# Youngs Moduli (GPa) = 68.18082 58.96360 50.77997
#
# Poissons Ratio (x) = 0.31001 0.24244
# Poissons Ratio (y) = 0.35847 0.02420
# Poissons Ratio (z) = 0.32552 0.02810
#
# Static dielectric constant tensor:
#      x y z
#    x 1.909510 0.004510 0.077410 
#    y 0.004510 1.842320 0.064660 
#    z 0.077410 0.064660 1.907800 
# 
# From -- ./inp_files/90685.got.cif
#   From: 2010.05.17/outbox.cif.g08.bks.cpg/sg2_46_cif.got.tgz:90685.got - 2010.06.03 11:33:40.
