data_PCOD9050607
_publ_section_title
;
Structure prediction by ZEFSAII (Michael W. Deem and Ramdas Pophale) SiO2 
 PCOD9050607
Probable space group: P -1
;
_chemical_formula_sum "Si O2"
_cell_formula_units_Z 16
_cell_length_a 9.302885
_cell_length_b 14.841533
_cell_length_c 7.746391
_cell_angle_alpha 104.887304
_cell_angle_beta 102.085711
_cell_angle_gamma 132.752537
_cell_volume 638.423567
_symmetry_space_group_name_H-M "P -1"
_symmetry_group_IT_number 2
_symmetry_cell_setting 'triclinic'
loop_
_space_group_symop_operation_xyz
x,y,z
-x,-y,-z
loop_
_atom_site_type_symbol
_atom_site_label
_atom_site_fract_x
_atom_site_fract_y
_atom_site_fract_z
Si Si1 0.158503 0.301830 0.124309
Si Si2 0.384152 0.910251 0.744555
Si Si3 0.336290 0.644548 0.899568
Si Si4 0.158875 0.112724 0.936865
Si Si5 0.963818 0.840240 0.603474
Si Si6 0.256262 0.789094 0.152206
Si Si7 0.456386 0.606826 0.260783
Si Si8 0.802165 0.354742 0.585647
O O1 0.134705 0.243976 0.276643
O O2 0.396273 0.471662 0.232298
O O3 0.092519 0.186526 0.919850
O O4 0.973113 0.291836 0.044929
O O5 0.325222 0.772223 0.650887
O O6 0.149125 0.851166 0.613900
O O7 0.577693 0.040165 0.723474
O O8 0.500000 0.000000 0.000000
O O9 0.075473 0.507240 0.693197
O O10 0.564717 0.742674 0.889292
O O11 0.362960 0.757993 0.052163
O O12 0.357318 0.583080 0.035744
O O13 0.106053 0.006462 0.735363
O O14 0.000000 0.000000 0.000000
O O15 0.733860 0.748833 0.394133
O O16 0.201965 0.716430 0.284745
O O17 0.340512 0.624212 0.375124
#
# Coordination Sequence:
#
# PCOD9050607 Si02
#       8
#     2   2   2   2   2   2   2   2
#     4  11  22  43  71  97 146 185 233 295 353 413
#     4  12  26  44  70 103 144 188 241 291 349 428
#     4  11  22  47  74 100 145 185 236 300 345 429
#     4  10  25  43  66  99 141 188 233 288 354 415
#     4  11  25  44  64  99 146 191 234 288 353 415
#     4  11  21  46  73 101 143 187 237 295 350 419
#     4  11  24  44  70 109 144 182 236 293 359 423
#     4  11  25  45  74 106 138 189 237 294 360 416
#
# _framework density 25.061731000000002
#
# number of rings (size 3 to 8) (size 9 to 14) (size 15 to 20)
#    0.000    1.000    5.000    1.500    3.500    3.000 
#    0.000    1.250    0.000    0.000    0.000    0.000 
#    0.000    0.000    0.000    0.000    0.000    0.000 
#
# Total GULP energy -89509.595344 kJ/mol
# GULP energy per Si atom -5594.349709 kJ/mol
# Density = 2.500469 g / cm^3
# Si number density = 25.061731 Si / 1000 Ang^3
#
#
#
# Elastic Constant Matrix: (Units=GPa)
#
#
# Indices 1 2 3 4 5 6 
#
# 1 98.0590 29.4647 23.6971 18.1561 4.1010 2.6891
# 2 29.4647 127.2373 43.4574 34.6990 -4.1493 2.8173
# 3 23.6971 43.4574 99.3169 9.5727 8.0510 1.9201
# 4 18.1561 34.6990 9.5727 50.4082 -5.6281 3.0023
# 5 4.1010 -4.1493 8.0510 -5.6281 36.5426 9.9255
# 6 2.6891 2.8173 1.9201 3.0023 9.9255 48.9293
#
#
#
# Elastic Compliance Matrix: (Units=1/GPa)
#
#
# Indices 1 2 3 4 5 6 
#
# 1 0.011664 -0.001279 -0.001794 -0.003153 -0.001547 0.000010
# 2 -0.001279 0.011379 -0.004169 -0.006399 0.001457 -0.000324
# 3 -0.001794 -0.004169 0.012482 0.000785 -0.003013 0.000412
# 4 -0.003153 -0.006399 0.000785 0.025780 0.003932 -0.001869
# 5 -0.001547 0.001457 -0.003013 0.003932 0.030698 -0.006349
# 6 0.000010 -0.000324 0.000412 -0.001869 -0.006349 0.021842
#
#
# Mechanical properties :
#
#
# Convention : Reuss Voigt Hill
#
# Bulk Modulus (GPa) = 47.52739 57.53907 52.53323
# Shear Modulus (GPa) = 36.94313 42.37561 39.65937
#
# Velocity S-wave (km/s) = 3.84355 4.11645 3.98234
# Velocity P-wave (km/s) = 6.22113 6.75295 6.49249
#
# Compressibility (1/GPa) = 0.02104050
#
# Stress axis : x y z
#
# Youngs Moduli (GPa) = 85.73265 87.88076 80.11722
#
# Poissons Ratio (x) = 0.11240 0.14375
# Poissons Ratio (y) = 0.10965 0.33401
# Poissons Ratio (z) = 0.15383 0.36637
#
# Static dielectric constant tensor:
#      x y z
#    x 1.971930 0.067570 -0.031960 
#    y 0.067570 1.997190 -0.050580 
#    z -0.031960 -0.050580 2.042330 
# 
# From -- ./inp_files/208410.got.cif
#   From: 2010.05.17/outbox.cif.g08.bks.cpg/sg2_105_cif.got.tgz:208410.got - 2010.06.03 11:33:40.
