data_PCOD9050298
_publ_section_title
;
Structure prediction by ZEFSAII (Michael W. Deem and Ramdas Pophale) SiO2 
 PCOD9050298
Probable space group: P -1
;
_chemical_formula_sum "Si O2"
_cell_formula_units_Z 16
_cell_length_a 8.991626
_cell_length_b 8.823708
_cell_length_c 14.869245
_cell_angle_alpha 79.240151
_cell_angle_beta 100.520965
_cell_angle_gamma 43.051424
_cell_volume 695.934777
_symmetry_space_group_name_H-M "P -1"
_symmetry_group_IT_number 2
_symmetry_cell_setting 'triclinic'
loop_
_space_group_symop_operation_xyz
x,y,z
-x,-y,-z
loop_
_atom_site_type_symbol
_atom_site_label
_atom_site_fract_x
_atom_site_fract_y
_atom_site_fract_z
Si Si1 0.572364 0.974018 0.799012
Si Si2 0.496913 0.657215 0.150643
Si Si3 0.902388 0.496597 0.402957
Si Si4 0.891165 0.229371 0.799129
Si Si5 0.574398 0.099832 0.046771
Si Si6 0.199990 0.001131 0.526051
Si Si7 0.707699 0.709889 0.672605
Si Si8 0.961144 0.089137 0.325142
O O1 0.620483 0.087575 0.850900
O O2 0.340393 0.227691 0.689883
O O3 0.511961 0.874759 0.865184
O O4 0.747266 0.767169 0.764513
O O5 0.299313 0.691362 0.159374
O O6 0.764868 0.384103 0.246630
O O7 0.533530 0.671257 0.048306
O O8 0.926137 0.300844 0.457111
O O9 0.107784 0.358064 0.366275
O O10 0.000000 0.500000 0.500000
O O11 0.777044 0.474989 0.716187
O O12 0.138151 0.089279 0.891549
O O13 0.960930 0.057068 0.743403
O O14 0.500000 0.000000 0.000000
O O15 0.202282 0.934313 0.431308
O O16 0.428514 0.928598 0.579946
O O17 0.185116 0.905135 0.622429
#
# Coordination Sequence:
#
# PCOD9050298 Si02
#       8
#     2   2   2   2   2   2   2   2
#     4  11  24  45  70 100 139 180 230 288 339 399
#     4  11  25  46  72 101 135 181 232 285 347 408
#     4  12  23  39  67  96 138 186 229 275 335 397
#     4  12  25  45  73 102 139 178 228 286 345 412
#     4  10  24  50  73  98 135 178 231 291 346 403
#     4  11  23  42  63 101 140 182 225 277 333 406
#     4  12  25  42  71 103 140 181 237 278 334 410
#     4  11  25  44  67  99 144 181 222 280 348 406
#
# _framework density 22.990659000000001
#
# number of rings (size 3 to 8) (size 9 to 14) (size 15 to 20)
#    0.000    0.750    5.000    2.250    1.750    1.000 
#    2.250    1.250    0.000    0.000    0.000    0.000 
#    0.000    0.000    0.000    0.000    0.000    0.000 
#
# Total GULP energy -89198.809168 kJ/mol
# GULP energy per Si atom -5574.925573 kJ/mol
# Density = 2.293833 g / cm^3
# Si number density = 22.990659 Si / 1000 Ang^3
#
#
#
# Elastic Constant Matrix: (Units=GPa)
#
#
# Indices 1 2 3 4 5 6 
#
# 1 73.6246 3.6575 18.4120 -10.3379 -19.5452 7.6630
# 2 3.6575 76.9135 11.4862 -0.5160 -12.5773 14.2614
# 3 18.4120 11.4862 110.3099 -21.9646 -21.1181 7.6216
# 4 -10.3379 -0.5160 -21.9646 14.7934 10.3680 3.9213
# 5 -19.5452 -12.5773 -21.1181 10.3680 43.7377 0.1613
# 6 7.6630 14.2614 7.6216 3.9213 0.1613 14.3677
#
#
#
# Elastic Compliance Matrix: (Units=1/GPa)
#
#
# Indices 1 2 3 4 5 6 
#
# 1 0.019194 0.003684 0.002767 0.018382 0.006690 -0.020453
# 2 0.003684 0.017789 0.001766 0.007734 0.005865 -0.022736
# 3 0.002767 0.001766 0.016146 0.029368 0.002652 -0.019839
# 4 0.018382 0.007734 0.029368 0.151805 -0.011093 -0.074366
# 5 0.006690 0.005865 0.002652 -0.011093 0.031480 -0.008123
# 6 -0.020453 -0.022736 -0.019839 -0.074366 -0.008123 0.133989
#
#
# Mechanical properties :
#
#
# Convention : Reuss Voigt Hill
#
# Bulk Modulus (GPa) = 14.37543 36.43994 25.40769
# Shear Modulus (GPa) = 13.25717 29.73257 21.49487
#
# Velocity S-wave (km/s) = 2.40392 3.60007 3.06100
# Velocity P-wave (km/s) = 3.73784 5.75891 4.85471
#
# Compressibility (1/GPa) = 0.06956312
#
# Stress axis : x y z
#
# Youngs Moduli (GPa) = 52.10093 56.21334 61.93645
#
# Poissons Ratio (x) = -0.20708 -0.17138
# Poissons Ratio (y) = -0.19193 -0.10940
# Poissons Ratio (z) = -0.14417 -0.09929
#
# Static dielectric constant tensor:
#      x y z
#    x 1.870010 -0.082050 -0.019470 
#    y -0.082050 1.241150 -0.029810 
#    z -0.019470 -0.029810 1.952210 
# 
# From -- ./inp_files/188891.got.cif
#   From: 2010.05.17/outbox.cif.g08.bks.cpg/sg2_95_cif.got.tgz:188891.got - 2010.06.03 11:33:40.
