data_PCOD9050499
_publ_section_title
;
Structure prediction by ZEFSAII (Michael W. Deem and Ramdas Pophale) SiO2 
 PCOD9050499
Probable space group: P -1
;
_chemical_formula_sum "Si O2"
_cell_formula_units_Z 16
_cell_length_a 11.606054
_cell_length_b 13.605425
_cell_length_c 13.354837
_cell_angle_alpha 34.566004
_cell_angle_beta 128.889573
_cell_angle_gamma 101.144385
_cell_volume 633.432475
_symmetry_space_group_name_H-M "P -1"
_symmetry_group_IT_number 2
_symmetry_cell_setting 'triclinic'
loop_
_space_group_symop_operation_xyz
x,y,z
-x,-y,-z
loop_
_atom_site_type_symbol
_atom_site_label
_atom_site_fract_x
_atom_site_fract_y
_atom_site_fract_z
Si Si1 0.678617 0.194907 0.874800
Si Si2 0.793250 0.062949 0.490388
Si Si3 0.532439 0.882337 0.309479
Si Si4 0.905269 0.633979 0.230710
Si Si5 0.956911 0.909047 0.916256
Si Si6 0.693199 0.552987 0.045926
Si Si7 0.254188 0.930461 0.754362
Si Si8 0.457115 0.389017 0.296559
O O1 0.500000 0.500000 0.500000
O O2 0.569323 0.110729 0.851890
O O3 0.774641 0.092305 0.125034
O O4 0.877159 0.075421 0.009981
O O5 0.924356 0.873345 0.813886
O O6 0.756332 0.296905 0.301983
O O7 0.891912 0.950593 0.527982
O O8 0.544692 0.207405 0.237340
O O9 0.624870 0.637805 0.626339
O O10 0.665894 0.940166 0.312436
O O11 0.337906 0.101488 0.094276
O O12 0.872060 0.514597 0.230125
O O13 0.000000 0.500000 0.500000
O O14 0.037519 0.680007 0.218031
O O15 0.716985 0.160076 0.613194
O O16 0.656325 0.609758 0.860086
O O17 0.409095 0.634547 0.060334
#
# Coordination Sequence:
#
# PCOD9050499 Si02
#       8
#     2   2   2   2   2   2   2   2
#     4  12  27  46  63  88 142 184 219 268 327 396
#     4   9  19  38  69  95 130 167 220 271 328 389
#     4  11  24  40  69  97 123 183 221 266 328 397
#     4  11  25  38  66 105 138 161 216 280 330 398
#     4  10  25  42  66  98 130 172 219 273 335 383
#     4   9  18  37  65 103 134 163 200 283 340 377
#     4  11  22  43  73  95 131 178 221 269 327 398
#     4   9  21  42  71 103 130 163 223 281 324 391
#
# _framework density 25.259204
#
# number of rings (size 3 to 8) (size 9 to 14) (size 15 to 20)
#    0.000    1.750    2.500    1.125    5.250    4.000 
#    0.000    0.000    0.000    2.250    0.000    0.000 
#    0.000    0.000    0.000    0.000    0.000    0.000 
#
# Total GULP energy -89415.967874 kJ/mol
# GULP energy per Si atom -5588.497992 kJ/mol
# Density = 2.520171 g / cm^3
# Si number density = 25.259204 Si / 1000 Ang^3
#
#
#
# Elastic Constant Matrix: (Units=GPa)
#
#
# Indices 1 2 3 4 5 6 
#
# 1 115.9400 20.9253 39.3913 3.9798 -33.3574 0.7624
# 2 20.9253 117.7221 20.0833 13.3334 -7.4859 -5.8653
# 3 39.3913 20.0833 76.9449 8.4023 -22.4646 -4.1505
# 4 3.9798 13.3334 8.4023 26.7475 -9.7192 -12.9571
# 5 -33.3574 -7.4859 -22.4646 -9.7192 45.5051 2.0391
# 6 0.7624 -5.8653 -4.1505 -12.9571 2.0391 33.5623
#
#
#
# Elastic Compliance Matrix: (Units=1/GPa)
#
#
# Indices 1 2 3 4 5 6 
#
# 1 0.012284 -0.001330 -0.004108 0.002556 0.007325 -0.000478
# 2 -0.001330 0.009438 -0.001648 -0.004517 -0.001192 -0.000196
# 3 -0.004108 -0.001648 0.017167 -0.001761 0.004774 0.000958
# 4 0.002556 -0.004517 -0.001761 0.052725 0.010687 0.018640
# 5 0.007325 -0.001192 0.004774 0.010687 0.031680 0.002417
# 6 -0.000478 -0.000196 0.000958 0.018640 0.002417 0.036940
#
#
# Mechanical properties :
#
#
# Convention : Reuss Voigt Hill
#
# Bulk Modulus (GPa) = 40.45663 52.37855 46.41759
# Shear Modulus (GPa) = 27.37565 36.51014 31.94289
#
# Velocity S-wave (km/s) = 3.29567 3.80599 3.55999
# Velocity P-wave (km/s) = 5.52569 6.33210 5.94259
#
# Compressibility (1/GPa) = 0.02471783
#
# Stress axis : x y z
#
# Youngs Moduli (GPa) = 81.40801 105.95222 58.25152
#
# Poissons Ratio (x) = 0.14094 0.23927
# Poissons Ratio (y) = 0.10829 0.09598
# Poissons Ratio (z) = 0.33439 0.17458
#
# Static dielectric constant tensor:
#      x y z
#    x 1.988490 -0.054180 0.298260 
#    y -0.054180 1.959350 0.149250 
#    z 0.298260 0.149250 0.350590 
# 
# From -- ./inp_files/522197.got.cif
#   From: 2010.05.17/outbox.cif.g08.bks.cpg/sg2_262_cif.got.tgz:522197.got - 2010.06.03 11:33:40.
