data_PCOD9050182
_publ_section_title
;
Structure prediction by ZEFSAII (Michael W. Deem and Ramdas Pophale) SiO2 
 PCOD9050182
Probable space group: P -1
;
_chemical_formula_sum "Si O2"
_cell_formula_units_Z 16
_cell_length_a 10.741034
_cell_length_b 12.304001
_cell_length_c 7.496971
_cell_angle_alpha 71.093532
_cell_angle_beta 113.012198
_cell_angle_gamma 68.100657
_cell_volume 706.576137
_symmetry_space_group_name_H-M "P -1"
_symmetry_group_IT_number 2
_symmetry_cell_setting 'triclinic'
loop_
_space_group_symop_operation_xyz
x,y,z
-x,-y,-z
loop_
_atom_site_type_symbol
_atom_site_label
_atom_site_fract_x
_atom_site_fract_y
_atom_site_fract_z
Si Si1 0.551926 0.181978 0.745915
Si Si2 0.381448 0.714678 0.919820
Si Si3 0.759706 0.797198 0.367973
Si Si4 0.974110 0.353232 0.661074
Si Si5 0.777145 0.589665 0.724032
Si Si6 0.146610 0.013375 0.519567
Si Si7 0.254852 0.528020 0.877535
Si Si8 0.099508 0.065937 0.067135
O O1 0.420998 0.317346 0.479126
O O2 0.614386 0.234515 0.908067
O O3 0.432529 0.140990 0.780282
O O4 0.709370 0.048085 0.815305
O O5 0.434467 0.400545 0.979933
O O6 0.278991 0.646539 0.897068
O O7 0.300839 0.851664 0.678387
O O8 0.815050 0.702792 0.630226
O O9 0.849520 0.696970 0.300092
O O10 0.808332 0.905749 0.363021
O O11 0.882718 0.467346 0.703805
O O12 0.012197 0.210198 0.836634
O O13 0.138869 0.590979 0.607412
O O14 0.196221 0.471820 0.031888
O O15 0.098139 0.089184 0.263728
O O16 0.000000 0.000000 0.500000
O O17 0.000000 0.000000 0.000000
#
# Coordination Sequence:
#
# PCOD9050182 Si02
#       8
#     2   2   2   2   2   2   2   2
#     4  10  24  49  68 108 142 195 241 297 361 433
#     4  11  23  43  73 103 149 188 241 304 358 432
#     4  10  25  49  71 105 145 193 243 301 366 433
#     4  12  25  46  72 108 146 193 241 304 360 431
#     4  10  25  46  73 106 146 194 243 296 367 433
#     4  12  26  48  74 106 142 190 247 307 367 430
#     4  11  24  45  71 111 145 193 241 299 361 436
#     4  12  27  45  74 108 146 188 249 303 364 429
#
# _framework density 22.644410000000001
#
# number of rings (size 3 to 8) (size 9 to 14) (size 15 to 20)
#    0.750    0.250    1.250    4.875    5.250    4.500 
#    4.500    0.000    0.000    0.000    0.000    0.000 
#    0.000    0.000    0.000    0.000    0.000    0.000 
#
# Total GULP energy -89469.781153 kJ/mol
# GULP energy per Si atom -5591.861322 kJ/mol
# Density = 2.259287 g / cm^3
# Si number density = 22.644410 Si / 1000 Ang^3
#
#
#
# Elastic Constant Matrix: (Units=GPa)
#
#
# Indices 1 2 3 4 5 6 
#
# 1 94.8405 37.7520 45.6255 -19.1553 0.9025 -10.4395
# 2 37.7520 95.9050 26.9805 -14.6474 -0.2375 0.1664
# 3 45.6255 26.9805 121.8128 -15.2288 -18.9987 -2.8757
# 4 -19.1553 -14.6474 -15.2288 36.3987 -2.0279 -4.4296
# 5 0.9025 -0.2375 -18.9987 -2.0279 53.5409 -0.6693
# 6 -10.4395 0.1664 -2.8757 -4.4296 -0.6693 32.9041
#
#
#
# Elastic Compliance Matrix: (Units=1/GPa)
#
#
# Indices 1 2 3 4 5 6 
#
# 1 0.016142 -0.004256 -0.004547 0.005452 -0.001630 0.005446
# 2 -0.004256 0.012736 -0.000989 0.002319 -0.000150 -0.001192
# 3 -0.004547 -0.000989 0.011015 0.002029 0.004056 -0.000119
# 4 0.005452 0.002319 0.002029 0.033010 0.001968 0.006379
# 5 -0.001630 -0.000150 0.004056 0.001968 0.020224 0.000514
# 6 0.005446 -0.001192 -0.000119 0.006379 0.000514 0.032984
#
#
# Mechanical properties :
#
#
# Convention : Reuss Voigt Hill
#
# Bulk Modulus (GPa) = 49.23794 59.25269 54.24531
# Shear Modulus (GPa) = 32.79443 38.04878 35.42161
#
# Velocity S-wave (km/s) = 3.80970 4.10356 3.95936
# Velocity P-wave (km/s) = 6.41427 6.97679 6.70144
#
# Compressibility (1/GPa) = 0.02030954
#
# Stress axis : x y z
#
# Youngs Moduli (GPa) = 61.95122 78.51713 90.78487
#
# Poissons Ratio (x) = 0.33413 0.41284
# Poissons Ratio (y) = 0.26364 0.08975
# Poissons Ratio (z) = 0.28172 0.07762
#
# Static dielectric constant tensor:
#      x y z
#    x 1.844820 -0.000020 0.013290 
#    y -0.000020 1.816780 -0.014140 
#    z 0.013290 -0.014140 1.884930 
# 
# From -- ./inp_files/276099.got.cif
#   From: 2010.05.17/outbox.cif.g08.bks.cpg/sg2_139_cif.got.tgz:276099.got - 2010.06.03 11:33:40.
