data_PCOD9050241
_publ_section_title
;
Structure prediction by ZEFSAII (Michael W. Deem and Ramdas Pophale) SiO2 
 PCOD9050241
Probable space group: P -1
;
_chemical_formula_sum "Si O2"
_cell_formula_units_Z 14
_cell_length_a 5.009582
_cell_length_b 14.111389
_cell_length_c 23.379365
_cell_angle_alpha 160.606765
_cell_angle_beta 76.687259
_cell_angle_gamma 102.157378
_cell_volume 533.932378
_symmetry_space_group_name_H-M "P -1"
_symmetry_group_IT_number 2
_symmetry_cell_setting 'triclinic'
loop_
_space_group_symop_operation_xyz
x,y,z
-x,-y,-z
loop_
_atom_site_type_symbol
_atom_site_label
_atom_site_fract_x
_atom_site_fract_y
_atom_site_fract_z
Si Si1 0.332400 0.819585 0.148895
Si Si2 0.012175 0.369929 0.298693
Si Si3 0.228083 0.659759 0.177945
Si Si4 0.550261 0.688335 0.847174
Si Si5 0.445512 0.613691 0.502992
Si Si6 0.712695 0.895402 0.477974
Si Si7 0.176928 0.800144 0.023672
O O1 0.128404 0.750426 0.171189
O O2 0.198466 0.930077 0.159961
O O3 0.531962 0.049844 0.297415
O O4 0.514212 0.549800 0.966178
O O5 0.168273 0.411142 0.254097
O O6 0.181566 0.525124 0.429423
O O7 0.704094 0.483845 0.381228
O O8 0.033145 0.035243 0.123974
O O9 0.323340 0.928706 0.362001
O O10 0.997494 0.482796 0.121104
O O11 0.339649 0.437887 0.701085
O O12 0.476756 0.733400 0.943387
O O13 0.500000 0.000000 0.000000
O O14 0.500000 0.500000 0.500000
O O15 0.500000 0.000000 0.500000
O O16 0.000000 0.000000 0.500000
#
# Coordination Sequence:
#
# PCOD9050241 Si02
#       7
#     2   2   2   2   2   2   2
#     4  11  25  42  70 105 144 194 248 305 371 441
#     4  11  26  45  73 109 146 196 247 309 371 446
#     4  11  25  44  71 104 146 193 249 308 371 445
#     4  10  24  49  75 112 150 198 251 314 377 450
#     4  12  24  46  73 103 148 192 246 306 372 440
#     4  12  26  50  79 109 150 201 254 310 381 449
#     4  11  22  46  70 103 146 194 245 308 373 445
#
# _framework density 26.220548000000001
#
# number of rings (size 3 to 8) (size 9 to 14) (size 15 to 20)
#    0.000    0.857    2.857    3.429    2.000    2.286 
#    2.571    2.857    0.000    0.000    0.000    0.000 
#    0.000    0.000    0.000    0.000    0.000    0.000 
#
# Total GULP energy -78463.691885 kJ/mol
# GULP energy per Si atom -5604.549420 kJ/mol
# Density = 2.616087 g / cm^3
# Si number density = 26.220548 Si / 1000 Ang^3
#
#
#
# Elastic Constant Matrix: (Units=GPa)
#
#
# Indices 1 2 3 4 5 6 
#
# 1 79.4500 43.7428 9.3847 -0.0357 14.5673 1.4738
# 2 43.7428 186.2728 52.9688 -14.3331 6.0006 16.9574
# 3 9.3847 52.9688 154.4893 6.8325 23.9562 9.9131
# 4 -0.0357 -14.3331 6.8325 47.9270 13.3565 4.0255
# 5 14.5673 6.0006 23.9562 13.3565 34.2440 -4.4371
# 6 1.4738 16.9574 9.9131 4.0255 -4.4371 32.7581
#
#
#
# Elastic Compliance Matrix: (Units=1/GPa)
#
#
# Indices 1 2 3 4 5 6 
#
# 1 0.015894 -0.003831 0.001491 0.000758 -0.007466 -0.000287
# 2 -0.003831 0.007405 -0.002290 0.002678 0.000471 -0.003233
# 3 0.001491 -0.002290 0.008296 0.000099 -0.006369 -0.002267
# 4 0.000758 0.002678 0.000099 0.025389 -0.011559 -0.006136
# 5 -0.007466 0.000471 -0.006369 -0.011559 0.042451 0.009190
# 6 -0.000287 -0.003233 -0.002267 -0.006136 0.009190 0.034898
#
#
# Mechanical properties :
#
#
# Convention : Reuss Voigt Hill
#
# Bulk Modulus (GPa) = 44.77485 70.26717 57.52101
# Shear Modulus (GPa) = 33.10391 43.92688 38.51540
#
# Velocity S-wave (km/s) = 3.55705 4.09746 3.83678
# Velocity P-wave (km/s) = 5.82953 7.01729 6.45080
#
# Compressibility (1/GPa) = 0.02233397
#
# Stress axis : x y z
#
# Youngs Moduli (GPa) = 62.91491 135.04994 120.53589
#
# Poissons Ratio (x) = 0.51743 -0.17969
# Poissons Ratio (y) = 0.24105 0.27603
# Poissons Ratio (z) = -0.09379 0.30927
#
# Static dielectric constant tensor:
#      x y z
#    x 2.070030 -0.013660 0.015570 
#    y -0.013660 2.127910 0.010690 
#    z 0.015570 0.010690 2.038450 
# 
# From -- ./inp_files/604651.got.cif
#   From: 2010.05.17/outbox.cif.g08.bks.cpg/sg2_303_cif.got.tgz:604651.got - 2010.06.03 11:33:40.
