data_PCOD9050027
_publ_section_title
;
Structure prediction by ZEFSAII (Michael W. Deem and Ramdas Pophale) SiO2 
 PCOD9050027
Probable space group: P -1
;
_chemical_formula_sum "Si O2"
_cell_formula_units_Z 16
_cell_length_a 9.040466
_cell_length_b 19.546243
_cell_length_c 11.846223
_cell_angle_alpha 31.755345
_cell_angle_beta 116.263762
_cell_angle_gamma 126.787504
_cell_volume 871.189162
_symmetry_space_group_name_H-M "P -1"
_symmetry_group_IT_number 2
_symmetry_cell_setting 'triclinic'
loop_
_space_group_symop_operation_xyz
x,y,z
-x,-y,-z
loop_
_atom_site_type_symbol
_atom_site_label
_atom_site_fract_x
_atom_site_fract_y
_atom_site_fract_z
Si Si1 0.323997 0.012577 0.965862
Si Si2 0.989731 0.341473 0.329052
Si Si3 0.232892 0.459710 0.444141
Si Si4 0.502184 0.646307 0.443759
Si Si5 0.134269 0.974250 0.172103
Si Si6 0.719658 0.462731 0.033600
Si Si7 0.084437 0.208036 0.939792
Si Si8 0.672509 0.571815 0.107593
O O1 0.370428 0.182200 0.733565
O O2 0.290734 0.976882 0.138024
O O3 0.500000 0.000000 0.000000
O O4 0.136244 0.901122 0.992897
O O5 0.799836 0.346496 0.228344
O O6 0.077069 0.445081 0.323732
O O7 0.958900 0.181107 0.578877
O O8 0.138150 0.411797 0.179701
O O9 0.347445 0.608034 0.346384
O O10 0.374943 0.426829 0.461858
O O11 0.143660 0.330337 0.688953
O O12 0.400314 0.564809 0.637637
O O13 0.186185 0.109139 0.084609
O O14 0.000000 0.000000 0.000000
O O15 0.724254 0.530056 0.063923
O O16 0.506980 0.400680 0.007546
O O17 0.158585 0.293309 0.961546
#
# Coordination Sequence:
#
# PCOD9050027 Si02
#       8
#     2   2   2   2   2   2   2   2
#     4  11  22  33  53  95 124 143 174 238 321 343
#     4  11  20  38  61  89 116 153 196 241 282 348
#     4  10  17  34  61  90 112 145 194 239 288 341
#     4  10  20  32  61  91 116 147 186 244 291 344
#     4  10  19  36  62  86 118 148 189 231 300 354
#     4  10  24  38  59  82 119 161 199 235 279 331
#     4  10  20  38  62  85 114 154 192 238 292 352
#     4  10  22  41  59  83 116 156 206 233 279 342
#
# _framework density 18.365701999999999
#
# number of rings (size 3 to 8) (size 9 to 14) (size 15 to 20)
#    0.000    1.750    5.000    0.750    1.750    1.000 
#    0.000    5.000    0.000    0.000    0.000    0.000 
#    0.000    0.000    0.000    0.000    0.000    0.000 
#
# Total GULP energy -89217.822350 kJ/mol
# GULP energy per Si atom -5576.113897 kJ/mol
# Density = 1.832390 g / cm^3
# Si number density = 18.365702 Si / 1000 Ang^3
#
#
#
# Elastic Constant Matrix: (Units=GPa)
#
#
# Indices 1 2 3 4 5 6 
#
# 1 93.0522 31.7341 28.6149 2.4010 -9.8902 3.1745
# 2 31.7341 105.0611 34.0053 -9.8839 -22.0214 -4.6787
# 3 28.6149 34.0053 90.1993 -2.6794 -12.6665 -3.0284
# 4 2.4010 -9.8839 -2.6794 25.1270 -0.9942 -6.4166
# 5 -9.8902 -22.0214 -12.6665 -0.9942 13.8184 0.9511
# 6 3.1745 -4.6787 -3.0284 -6.4166 0.9511 17.0962
#
#
#
# Elastic Compliance Matrix: (Units=1/GPa)
#
#
# Indices 1 2 3 4 5 6 
#
# 1 0.013296 -0.003393 -0.003063 -0.004316 0.001380 -0.005637
# 2 -0.003393 0.017319 -0.001548 0.009822 0.023947 0.007449
# 3 -0.003063 -0.001548 0.013945 0.002260 0.008078 0.003014
# 4 -0.004316 0.009822 0.002260 0.050581 0.016763 0.021941
# 5 0.001380 0.023947 0.008078 0.016763 0.119620 0.007365
# 6 -0.005637 0.007449 0.003014 0.021941 0.007365 0.069937
#
#
# Mechanical properties :
#
#
# Convention : Reuss Voigt Hill
#
# Bulk Modulus (GPa) = 35.02363 53.00233 44.01298
# Shear Modulus (GPa) = 16.11744 24.13888 20.12816
#
# Velocity S-wave (km/s) = 2.96562 3.62932 3.31413
# Velocity P-wave (km/s) = 5.55320 6.81797 6.21783
#
# Compressibility (1/GPa) = 0.02855215
#
# Stress axis : x y z
#
# Youngs Moduli (GPa) = 75.21183 57.73875 71.71257
#
# Poissons Ratio (x) = 0.19589 0.21963
# Poissons Ratio (y) = 0.25517 0.11104
# Poissons Ratio (z) = 0.23035 0.08941
#
# Static dielectric constant tensor:
#      x y z
#    x 1.674560 0.025810 0.008770 
#    y 0.025810 1.662470 0.009190 
#    z 0.008770 0.009190 1.630330 
# 
# From -- ./inp_files/405298.got.cif
#   From: 2010.05.17/outbox.cif.g08.bks.cpg/sg2_203_cif.got.tgz:405298.got - 2010.06.03 11:33:40.
