data_PCOD9050788
_publ_section_title
;
Structure prediction by ZEFSAII (Michael W. Deem and Ramdas Pophale) SiO2 
 PCOD9050788
Probable space group: P -1
;
_chemical_formula_sum "Si O2"
_cell_formula_units_Z 16
_cell_length_a 15.135523
_cell_length_b 14.864182
_cell_length_c 5.599733
_cell_angle_alpha 129.764750
_cell_angle_beta 46.439283
_cell_angle_gamma 135.456581
_cell_volume 612.432521
_symmetry_space_group_name_H-M "P -1"
_symmetry_group_IT_number 2
_symmetry_cell_setting 'triclinic'
loop_
_space_group_symop_operation_xyz
x,y,z
-x,-y,-z
loop_
_atom_site_type_symbol
_atom_site_label
_atom_site_fract_x
_atom_site_fract_y
_atom_site_fract_z
Si Si1 0.715498 0.622817 0.398503
Si Si2 0.150717 0.986145 0.423325
Si Si3 0.061509 0.402495 0.297376
Si Si4 0.479722 0.326525 0.476382
Si Si5 0.179945 0.119243 0.095665
Si Si6 0.691590 0.367828 0.519020
Si Si7 0.191706 0.779193 0.228704
Si Si8 0.570669 0.138196 0.740418
O O1 0.607608 0.466566 0.371432
O O2 0.654934 0.667945 0.362213
O O3 0.731299 0.721853 0.753263
O O4 0.870711 0.643638 0.112849
O O5 0.201056 0.053438 0.185923
O O6 0.176142 0.860328 0.180306
O O7 0.209896 0.072608 0.706400
O O8 0.985070 0.930787 0.666761
O O9 0.199477 0.487451 0.344454
O O10 0.000000 0.500000 0.500000
O O11 0.943072 0.280057 0.454503
O O12 0.543206 0.341694 0.650538
O O13 0.482236 0.196799 0.141035
O O14 0.660565 0.259284 0.597144
O O15 0.777536 0.338432 0.107368
O O16 0.329460 0.875877 0.279271
O O17 0.500000 0.000000 0.500000
#
# Coordination Sequence:
#
# PCOD9050788 Si02
#       8
#     2   2   2   2   2   2   2   2
#     4  11  25  45  76 103 150 197 249 315 380 450
#     4  10  25  44  67 108 152 191 253 302 379 467
#     4  12  24  44  74 109 150 191 247 321 387 458
#     4  10  25  49  66 109 141 192 262 305 378 460
#     4  10  25  44  67 104 150 197 244 310 376 453
#     4  11  24  46  72 105 147 191 253 316 379 457
#     4  11  26  41  74 108 144 199 246 311 388 453
#     4  11  25  47  74 103 145 195 249 312 377 455
#
# _framework density 26.125326000000001
#
# number of rings (size 3 to 8) (size 9 to 14) (size 15 to 20)
#    0.000    1.250    2.500    1.125   12.250    3.500 
#    0.000    0.000    0.000    0.000    0.000    0.000 
#    0.000    0.000    0.000    0.000    0.000    0.000 
#
# Total GULP energy -89630.939284 kJ/mol
# GULP energy per Si atom -5601.933705 kJ/mol
# Density = 2.606586 g / cm^3
# Si number density = 26.125326 Si / 1000 Ang^3
#
#
#
# Elastic Constant Matrix: (Units=GPa)
#
#
# Indices 1 2 3 4 5 6 
#
# 1 141.1055 33.8636 51.5632 16.1416 -6.0746 -11.6236
# 2 33.8636 82.6996 48.0824 16.0329 -6.3443 -4.7636
# 3 51.5632 48.0824 113.6503 2.2699 -11.0836 8.4424
# 4 16.1416 16.0329 2.2699 42.6357 7.2067 7.6527
# 5 -6.0746 -6.3443 -11.0836 7.2067 37.3758 6.5072
# 6 -11.6236 -4.7636 8.4424 7.6527 6.5072 41.7226
#
#
#
# Elastic Compliance Matrix: (Units=1/GPa)
#
#
# Indices 1 2 3 4 5 6 
#
# 1 0.009613 -0.000291 -0.004449 -0.004098 0.000242 0.004259
# 2 -0.000291 0.018600 -0.007803 -0.007569 0.001422 0.004788
# 3 -0.004449 -0.007803 0.014749 0.004541 0.002555 -0.006346
# 4 -0.004098 -0.007569 0.004541 0.029827 -0.005030 -0.007611
# 5 0.000242 0.001422 0.002555 -0.005030 0.029453 -0.003958
# 6 0.004259 0.004788 -0.006346 -0.007611 -0.003958 0.028998
#
#
# Mechanical properties :
#
#
# Convention : Reuss Voigt Hill
#
# Bulk Modulus (GPa) = 55.94324 67.16374 61.55349
# Shear Modulus (GPa) = 30.81023 37.94324 34.37674
#
# Velocity S-wave (km/s) = 3.43785 3.81511 3.63139
# Velocity P-wave (km/s) = 6.10069 6.72093 6.41830
#
# Compressibility (1/GPa) = 0.01787526
#
# Stress axis : x y z
#
# Youngs Moduli (GPa) = 104.03024 53.76337 67.80305
#
# Poissons Ratio (x) = 0.01564 0.30166
# Poissons Ratio (y) = 0.03027 0.52907
# Poissons Ratio (z) = 0.46283 0.41952
#
# Static dielectric constant tensor:
#      x y z
#    x 2.037640 0.019330 0.060170 
#    y 0.019330 2.021790 0.011010 
#    z 0.060170 0.011010 2.067930 
# 
# From -- ./inp_files/98661.got.cif
#   From: 2010.05.17/outbox.cif.g08.bks.cpg/sg2_50_cif.got.tgz:98661.got - 2010.06.03 11:33:40.
