data_PCOD9050016
_publ_section_title
;
Structure prediction by ZEFSAII (Michael W. Deem and Ramdas Pophale) SiO2 
 PCOD9050016
Probable space group: P -1
;
_chemical_formula_sum "Si O2"
_cell_formula_units_Z 12
_cell_length_a 11.882727
_cell_length_b 9.241604
_cell_length_c 12.258110
_cell_angle_alpha 38.369444
_cell_angle_beta 44.533286
_cell_angle_gamma 39.173345
_cell_volume 508.520314
_symmetry_space_group_name_H-M "P -1"
_symmetry_group_IT_number 2
_symmetry_cell_setting 'triclinic'
loop_
_space_group_symop_operation_xyz
x,y,z
-x,-y,-z
loop_
_atom_site_type_symbol
_atom_site_label
_atom_site_fract_x
_atom_site_fract_y
_atom_site_fract_z
Si Si1 0.788011 0.659211 0.294069
Si Si2 0.816300 0.019190 0.881638
Si Si3 0.146782 0.162976 0.282159
Si Si4 0.424035 0.298689 0.924940
Si Si5 0.624129 0.224118 0.461816
Si Si6 0.106352 0.192316 0.646412
O O1 0.588691 0.688882 0.427697
O O2 0.822884 0.812109 0.278603
O O3 0.952893 0.353618 0.359990
O O4 0.804075 0.791839 0.093268
O O5 0.606327 0.270899 0.873421
O O6 0.875496 0.916252 0.777959
O O7 0.961564 0.086964 0.795288
O O8 0.270699 0.904203 0.422754
O O9 0.257433 0.330201 0.096826
O O10 0.360533 0.526256 0.743330
O O11 0.500000 0.000000 0.000000
O O12 0.722903 0.989027 0.443388
O O13 0.000000 0.500000 0.500000
#
# Coordination Sequence:
#
# PCOD9050016 Si02
#       6
#     2   2   2   2   2   2
#     4  12  25  49  81 106 153 203 248 306 374 444
#     4  11  25  47  75 111 149 198 247 311 373 437
#     4  11  25  51  75 113 151 192 252 309 373 441
#     4  10  24  48  72 113 152 190 245 304 374 444
#     4  12  26  49  81 109 149 199 250 309 371 442
#     4  12  26  50  72 111 150 198 256 301 370 449
#
# _framework density 23.597877
#
# number of rings (size 3 to 8) (size 9 to 14) (size 15 to 20)
#    0.000    0.667    3.333    3.500    0.000    4.667 
#    9.000    2.500    0.000    0.000    0.000    0.000 
#    0.000    0.000    0.000    0.000    0.000    0.000 
#
# Total GULP energy -67313.279173 kJ/mol
# GULP energy per Si atom -5609.439931 kJ/mol
# Density = 2.354417 g / cm^3
# Si number density = 23.597877 Si / 1000 Ang^3
#
#
#
# Elastic Constant Matrix: (Units=GPa)
#
#
# Indices 1 2 3 4 5 6 
#
# 1 143.7348 54.5024 48.0077 10.0882 5.0059 -5.3798
# 2 54.5024 150.9773 67.8672 14.3977 -9.4156 -15.4691
# 3 48.0077 67.8672 122.1925 -0.2021 -7.5103 -23.6696
# 4 10.0882 14.3977 -0.2021 45.8114 -16.0002 1.9690
# 5 5.0059 -9.4156 -7.5103 -16.0002 45.5157 5.1787
# 6 -5.3798 -15.4691 -23.6696 1.9690 5.1787 39.1200
#
#
#
# Elastic Compliance Matrix: (Units=1/GPa)
#
#
# Indices 1 2 3 4 5 6 
#
# 1 0.008817 -0.002021 -0.002643 -0.002158 -0.002498 -0.000747
# 2 -0.002021 0.009685 -0.004371 -0.002476 0.000525 0.000963
# 3 -0.002643 -0.004371 0.012786 0.002390 0.001734 0.005294
# 4 -0.002158 -0.002476 0.002390 0.026604 0.009752 -0.002460
# 5 -0.002498 0.000525 0.001734 0.009752 0.026418 -0.003075
# 6 -0.000747 0.000963 0.005294 -0.002460 -0.003075 0.029575
#
#
# Mechanical properties :
#
#
# Convention : Reuss Voigt Hill
#
# Bulk Modulus (GPa) = 75.65338 84.18436 79.91887
# Shear Modulus (GPa) = 36.66735 42.52455 39.59595
#
# Velocity S-wave (km/s) = 3.94616 4.24966 4.10072
# Velocity P-wave (km/s) = 7.27268 7.73508 7.50744
#
# Compressibility (1/GPa) = 0.01321818
#
# Stress axis : x y z
#
# Youngs Moduli (GPa) = 113.41682 103.24888 78.21106
#
# Poissons Ratio (x) = 0.20869 0.20673
# Poissons Ratio (y) = 0.22924 0.34183
# Poissons Ratio (z) = 0.29979 0.45126
#
# Static dielectric constant tensor:
#      x y z
#    x 1.907990 -0.022670 -0.020900 
#    y -0.022670 1.900140 0.018780 
#    z -0.020900 0.018780 1.894430 
# 
# From -- ./inp_files/521834.got.cif
#   From: 2010.05.17/outbox.cif.g08.bks.cpg/sg2_261_cif.got.tgz:521834.got - 2010.06.03 11:33:40.
