data_PCOD9050171
_publ_section_title
;
Structure prediction by ZEFSAII (Michael W. Deem and Ramdas Pophale) SiO2 
 PCOD9050171
Probable space group: P -1
;
_chemical_formula_sum "Si O2"
_cell_formula_units_Z 14
_cell_length_a 11.597180
_cell_length_b 9.769424
_cell_length_c 7.117894
_cell_angle_alpha 50.852064
_cell_angle_beta 51.960991
_cell_angle_gamma 54.642406
_cell_volume 468.220266
_symmetry_space_group_name_H-M "P -1"
_symmetry_group_IT_number 2
_symmetry_cell_setting 'triclinic'
loop_
_space_group_symop_operation_xyz
x,y,z
-x,-y,-z
loop_
_atom_site_type_symbol
_atom_site_label
_atom_site_fract_x
_atom_site_fract_y
_atom_site_fract_z
Si Si1 0.842383 0.838088 0.150560
Si Si2 0.966000 0.967813 0.347607
Si Si3 0.590082 0.855354 0.688505
Si Si4 0.599827 0.412392 0.756732
Si Si5 0.866395 0.661272 0.898272
Si Si6 0.626058 0.201003 0.523074
Si Si7 0.143366 0.557038 0.226717
O O1 0.746451 0.796151 0.454455
O O2 0.941047 0.771218 0.584559
O O3 0.787363 0.779251 0.056969
O O4 0.878242 0.032891 0.917438
O O5 0.796297 0.106338 0.348685
O O6 0.000000 0.000000 0.500000
O O7 0.494084 0.713535 0.943810
O O8 0.413475 0.996582 0.267332
O O9 0.500000 0.000000 0.500000
O O10 0.506431 0.376277 0.380795
O O11 0.650108 0.297812 0.610618
O O12 0.735439 0.426672 0.750436
O O13 0.772723 0.572612 0.925512
O O14 0.000000 0.500000 0.000000
O O15 0.023403 0.730675 0.089059
O O16 0.000000 0.500000 0.500000
#
# Coordination Sequence:
#
# PCOD9050171 Si02
#       7
#     2   2   2   2   2   2   2
#     4  10  26  52  83 134 178 232 304 375 456 550
#     4  10  24  48  89 129 173 229 306 374 446 534
#     4  12  31  55  88 131 184 239 304 374 467 562
#     4  11  30  62  90 130 189 244 300 385 464 546
#     4   9  22  51  84 135 179 230 295 377 458 530
#     4  11  29  58  93 129 182 247 311 371 471 544
#     4  11  27  50  94 133 173 232 310 378 447 547
#
# _framework density 29.900458
#
# number of rings (size 3 to 8) (size 9 to 14) (size 15 to 20)
#    0.000    1.429    0.000    0.429   14.000    2.286 
#   10.286    0.714    0.000    0.000    0.000    0.000 
#    0.000    0.000    0.000    0.000    0.000    0.000 
#
# Total GULP energy -78060.859482 kJ/mol
# GULP energy per Si atom -5575.775677 kJ/mol
# Density = 2.983240 g / cm^3
# Si number density = 29.900458 Si / 1000 Ang^3
#
#
#
# Elastic Constant Matrix: (Units=GPa)
#
#
# Indices 1 2 3 4 5 6 
#
# 1 268.9455 98.8619 89.9193 14.1771 17.6817 36.9148
# 2 98.8619 203.1921 79.6100 19.9429 -7.5081 35.6544
# 3 89.9193 79.6100 188.5187 11.5223 -15.9664 24.4620
# 4 14.1771 19.9429 11.5223 40.3437 28.7679 12.0147
# 5 17.6817 -7.5081 -15.9664 28.7679 54.1433 22.9138
# 6 36.9148 35.6544 24.4620 12.0147 22.9138 46.8542
#
#
#
# Elastic Compliance Matrix: (Units=1/GPa)
#
#
# Indices 1 2 3 4 5 6 
#
# 1 0.005378 -0.002166 -0.002139 0.002748 -0.004068 -0.000188
# 2 -0.002166 0.008344 -0.000481 -0.007214 0.008362 -0.006632
# 3 -0.002139 -0.000481 0.008164 -0.005680 0.008041 -0.004687
# 4 0.002748 -0.007214 -0.005680 0.050873 -0.034986 0.010354
# 5 -0.004068 0.008362 0.008041 -0.034986 0.051996 -0.023814
# 6 -0.000188 -0.006632 -0.004687 0.010354 -0.023814 0.037975
#
#
# Mechanical properties :
#
#
# Convention : Reuss Voigt Hill
#
# Bulk Modulus (GPa) = 81.19840 133.04875 107.12358
# Shear Modulus (GPa) = 28.34358 54.41923 41.38141
#
# Velocity S-wave (km/s) = 3.08219 4.27079 3.72421
# Velocity P-wave (km/s) = 6.31520 8.30141 7.37547
#
# Compressibility (1/GPa) = 0.01231551
#
# Stress axis : x y z
#
# Youngs Moduli (GPa) = 185.95372 119.84019 122.48653
#
# Poissons Ratio (x) = 0.25954 0.26196
# Poissons Ratio (y) = 0.40272 0.05892
# Poissons Ratio (z) = 0.39769 0.05765
#
# Static dielectric constant tensor:
#      x y z
#    x 2.020860 0.225620 -0.221440 
#    y 0.225620 2.783640 0.064940 
#    z -0.221440 0.064940 2.059980 
# 
# From -- ./inp_files/66066.got.cif
#   From: 2010.05.17/outbox.cif.g08.bks.cpg/sg2_34_cif.got.tgz:66066.got - 2010.06.03 11:33:40.
