data_PCOD9050550
_publ_section_title
;
Structure prediction by ZEFSAII (Michael W. Deem and Ramdas Pophale) SiO2 
 PCOD9050550
Probable space group: P -1
;
_chemical_formula_sum "Si O2"
_cell_formula_units_Z 14
_cell_length_a 15.407681
_cell_length_b 11.754935
_cell_length_c 9.552758
_cell_angle_alpha 54.556594
_cell_angle_beta 133.421405
_cell_angle_gamma 147.643850
_cell_volume 672.531311
_symmetry_space_group_name_H-M "P -1"
_symmetry_group_IT_number 2
_symmetry_cell_setting 'triclinic'
loop_
_space_group_symop_operation_xyz
x,y,z
-x,-y,-z
loop_
_atom_site_type_symbol
_atom_site_label
_atom_site_fract_x
_atom_site_fract_y
_atom_site_fract_z
Si Si1 0.702414 0.021843 0.126748
Si Si2 0.697451 0.605871 0.614503
Si Si3 0.978998 0.967835 0.166724
Si Si4 0.419298 0.779979 0.534801
Si Si5 0.424492 0.795777 0.223999
Si Si6 0.902675 0.684785 0.521435
Si Si7 0.407040 0.271779 0.017038
O O1 0.908440 0.166648 0.292485
O O2 0.593382 0.955827 0.194634
O O3 0.679822 0.147918 0.926622
O O4 0.599616 0.804266 0.089346
O O5 0.500000 0.500000 0.500000
O O6 0.696761 0.444009 0.780895
O O7 0.770694 0.661572 0.494132
O O8 0.841943 0.818350 0.712206
O O9 0.934449 0.785346 0.334036
O O10 0.804216 0.907086 0.051070
O O11 0.000000 0.000000 0.000000
O O12 0.495232 0.813339 0.441856
O O13 0.204569 0.556055 0.443569
O O14 0.489872 0.743499 0.758878
O O15 0.500000 0.000000 0.500000
O O16 0.500000 0.500000 0.000000
#
# Coordination Sequence:
#
# PCOD9050550 Si02
#       7
#     2   2   2   2   2   2   2
#     4  11  24  47  72 101 146 188 247 288 362 433
#     4  11  25  43  72 101 141 187 244 297 355 424
#     4  12  28  42  66 110 142 187 241 298 365 424
#     4  11  24  46  70 101 143 186 235 294 366 424
#     4  10  25  42  73 103 140 193 239 292 358 431
#     4  11  25  46  71 101 141 190 242 296 359 427
#     4  12  26  45  73 102 147 190 236 302 360 424
#
# _framework density 20.816873999999999
#
# number of rings (size 3 to 8) (size 9 to 14) (size 15 to 20)
#    0.000    0.857    4.286    1.286   10.000    3.429 
#    0.000    0.714    0.000    0.000    0.000    0.000 
#    0.000    0.000    0.000    0.000    0.000    0.000 
#
# Total GULP energy -78094.593362 kJ/mol
# GULP energy per Si atom -5578.185240 kJ/mol
# Density = 2.076949 g / cm^3
# Si number density = 20.816874 Si / 1000 Ang^3
#
#
#
# Elastic Constant Matrix: (Units=GPa)
#
#
# Indices 1 2 3 4 5 6 
#
# 1 82.0032 41.8697 30.5343 6.3396 -5.7144 2.3973
# 2 41.8697 150.3768 52.5513 7.1153 -5.0019 -24.1261
# 3 30.5343 52.5513 79.8456 13.4305 -8.3114 -4.2738
# 4 6.3396 7.1153 13.4305 37.3780 0.6967 5.8189
# 5 -5.7144 -5.0019 -8.3114 0.6967 33.3673 -3.9667
# 6 2.3973 -24.1261 -4.2738 5.8189 -3.9667 38.8360
#
#
#
# Elastic Compliance Matrix: (Units=1/GPa)
#
#
# Indices 1 2 3 4 5 6 
#
# 1 0.015556 -0.003572 -0.003683 -0.000107 0.000799 -0.003487
# 2 -0.003572 0.010456 -0.005036 -0.000563 0.000461 0.006293
# 3 -0.003683 -0.005036 0.018477 -0.005157 0.003354 0.000247
# 4 -0.000107 -0.000563 -0.005157 0.029658 -0.002675 -0.005628
# 5 0.000799 0.000461 0.003354 -0.002675 0.031570 0.004232
# 6 -0.003487 0.006293 0.000247 -0.005628 0.004232 0.031177
#
#
# Mechanical properties :
#
#
# Convention : Reuss Voigt Hill
#
# Bulk Modulus (GPa) = 50.23601 62.45959 56.34780
# Shear Modulus (GPa) = 29.74205 34.40095 32.07150
#
# Velocity S-wave (km/s) = 3.78398 4.06957 3.92937
# Velocity P-wave (km/s) = 6.57845 7.22159 6.90751
#
# Compressibility (1/GPa) = 0.01990604
#
# Stress axis : x y z
#
# Youngs Moduli (GPa) = 64.28480 95.63725 54.12069
#
# Poissons Ratio (x) = 0.34160 0.19935
# Poissons Ratio (y) = 0.22961 0.27257
# Poissons Ratio (z) = 0.23679 0.48166
#
# Static dielectric constant tensor:
#      x y z
#    x 1.803490 -0.056490 -0.033100 
#    y -0.056490 1.808190 -0.031270 
#    z -0.033100 -0.031270 1.772190 
# 
# From -- ./inp_files/215953.got.cif
#   From: 2010.05.17/outbox.cif.g08.bks.cpg/sg2_108_cif.got.tgz:215953.got - 2010.06.03 11:33:40.
