data_PCOD9050262
_publ_section_title
;
Structure prediction by ZEFSAII (Michael W. Deem and Ramdas Pophale) SiO2 
 PCOD9050262
Probable space group: P -1
;
_chemical_formula_sum "Si O2"
_cell_formula_units_Z 12
_cell_length_a 13.655465
_cell_length_b 8.888788
_cell_length_c 9.533304
_cell_angle_alpha 104.121315
_cell_angle_beta 147.333384
_cell_angle_gamma 58.133735
_cell_volume 477.035472
_symmetry_space_group_name_H-M "P -1"
_symmetry_group_IT_number 2
_symmetry_cell_setting 'triclinic'
loop_
_space_group_symop_operation_xyz
x,y,z
-x,-y,-z
loop_
_atom_site_type_symbol
_atom_site_label
_atom_site_fract_x
_atom_site_fract_y
_atom_site_fract_z
Si Si1 0.404581 0.478211 0.235097
Si Si2 0.272689 0.050339 0.810392
Si Si3 0.960017 0.585800 0.174841
Si Si4 0.493320 0.737679 0.244692
Si Si5 0.791578 0.912491 0.826509
Si Si6 0.827773 0.036427 0.606486
O O1 0.500000 0.500000 0.500000
O O2 0.392154 0.628031 0.149639
O O3 0.592066 0.256975 0.357923
O O4 0.172541 0.506313 0.988361
O O5 0.121848 0.065658 0.504687
O O6 0.137794 0.246968 0.785157
O O7 0.500000 0.000000 0.000000
O O8 0.367172 0.867490 0.985183
O O9 0.233700 0.427136 0.480330
O O10 0.881386 0.710170 0.963459
O O11 0.437000 0.896075 0.332677
O O12 0.981991 0.940897 0.111248
O O13 0.784919 0.936883 0.657202
#
# Coordination Sequence:
#
# PCOD9050262 Si02
#       6
#     2   2   2   2   2   2
#     4  12  25  48  75 115 151 193 254 313 370 440
#     4  11  26  50  75 110 153 202 246 305 372 456
#     4  11  26  50  77 112 151 197 252 304 377 445
#     4  11  26  49  75 114 149 196 247 308 377 440
#     4  10  24  49  79 108 149 201 247 314 363 447
#     4  11  23  49  76 109 154 194 253 305 378 434
#
# _framework density 25.155360000000002
#
# number of rings (size 3 to 8) (size 9 to 14) (size 15 to 20)
#    0.000    1.000    5.000    0.000    0.000    8.000 
#    3.000    0.000    0.000    0.000    0.000    0.000 
#    0.000    0.000    0.000    0.000    0.000    0.000 
#
# Total GULP energy -67413.989893 kJ/mol
# GULP energy per Si atom -5617.832491 kJ/mol
# Density = 2.509810 g / cm^3
# Si number density = 25.155360 Si / 1000 Ang^3
#
#
#
# Elastic Constant Matrix: (Units=GPa)
#
#
# Indices 1 2 3 4 5 6 
#
# 1 184.9062 93.3871 103.8611 -20.0362 -21.3175 24.7781
# 2 93.3871 139.8757 80.3878 -20.1096 -18.6722 16.1896
# 3 103.8611 80.3878 154.6016 -15.1236 -2.3505 -0.1279
# 4 -20.0362 -20.1096 -15.1236 43.2861 -13.2989 0.3172
# 5 -21.3175 -18.6722 -2.3505 -13.2989 60.4442 0.3687
# 6 24.7781 16.1896 -0.1279 0.3172 0.3687 56.5973
#
#
#
# Elastic Compliance Matrix: (Units=1/GPa)
#
#
# Indices 1 2 3 4 5 6 
#
# 1 0.011474 -0.002871 -0.005863 0.003077 0.003635 -0.004256
# 2 -0.002871 0.012991 -0.004342 0.004378 0.003810 -0.002518
# 3 -0.005863 -0.004342 0.012481 -0.001398 -0.003255 0.003866
# 4 0.003077 0.004378 -0.001398 0.028775 0.008732 -0.002821
# 5 0.003635 0.003810 -0.003255 0.008732 0.020815 -0.002873
# 6 -0.004256 -0.002518 0.003866 -0.002821 -0.002873 0.020296
#
#
# Mechanical properties :
#
#
# Convention : Reuss Voigt Hill
#
# Bulk Modulus (GPa) = 92.63522 114.96173 103.79848
# Shear Modulus (GPa) = 36.60804 45.51535 41.06169
#
# Velocity S-wave (km/s) = 3.81895 4.25828 4.04459
# Velocity P-wave (km/s) = 7.50673 8.36524 7.94759
#
# Compressibility (1/GPa) = 0.01079503
#
# Stress axis : x y z
#
# Youngs Moduli (GPa) = 87.15378 76.97617 80.11958
#
# Poissons Ratio (x) = 0.22100 0.46971
# Poissons Ratio (y) = 0.25022 0.34788
# Poissons Ratio (z) = 0.51095 0.33423
#
# Static dielectric constant tensor:
#      x y z
#    x 1.999520 -0.001990 0.061090 
#    y -0.001990 2.043440 0.059160 
#    z 0.061090 0.059160 1.981680 
# 
# From -- ./inp_files/448882.got.cif
#   From: 2010.05.17/outbox.cif.g08.bks.cpg/sg2_225_cif.got.tgz:448882.got - 2010.06.03 11:33:40.
