data_PCOD9050663
_publ_section_title
;
Structure prediction by ZEFSAII (Michael W. Deem and Ramdas Pophale) SiO2 
 PCOD9050663
Probable space group: P -1
;
_chemical_formula_sum "Si O2"
_cell_formula_units_Z 14
_cell_length_a 21.260428
_cell_length_b 15.154244
_cell_length_c 12.375577
_cell_angle_alpha 40.297429
_cell_angle_beta 157.988202
_cell_angle_gamma 153.492291
_cell_volume 611.236599
_symmetry_space_group_name_H-M "P -1"
_symmetry_group_IT_number 2
_symmetry_cell_setting 'triclinic'
loop_
_space_group_symop_operation_xyz
x,y,z
-x,-y,-z
loop_
_atom_site_type_symbol
_atom_site_label
_atom_site_fract_x
_atom_site_fract_y
_atom_site_fract_z
Si Si1 0.883509 0.289878 0.063947
Si Si2 0.936980 0.984554 0.090386
Si Si3 0.703892 0.369121 0.117269
Si Si4 0.645087 0.658995 0.750481
Si Si5 0.273846 0.628691 0.094657
Si Si6 0.887687 0.025775 0.392131
Si Si7 0.193864 0.824735 0.185665
O O1 0.014910 0.257928 0.377507
O O2 0.660029 0.215731 0.855983
O O3 0.863474 0.185850 0.021830
O O4 0.000000 0.500000 0.000000
O O5 0.167904 0.144301 0.220640
O O6 0.041988 0.991416 0.363140
O O7 0.852316 0.083504 0.890899
O O8 0.708121 0.755018 0.880302
O O9 0.000000 0.500000 0.500000
O O10 0.696981 0.530941 0.950638
O O11 0.647376 0.288940 0.977939
O O12 0.437205 0.163801 0.952318
O O13 0.366397 0.538956 0.372574
O O14 0.957079 0.405306 0.798936
O O15 0.000000 0.000000 0.500000
O O16 0.500000 0.000000 0.500000
#
# Coordination Sequence:
#
# PCOD9050663 Si02
#       7
#     2   2   2   2   2   2   2
#     4  10  25  43  70 104 142 187 245 297 372 429
#     4  11  23  43  74 104 139 188 242 298 360 439
#     4  12  28  44  71 108 150 191 245 309 368 430
#     4  11  24  46  73 105 140 191 245 296 369 434
#     4  11  23  45  73  98 143 192 242 297 363 436
#     4  12  26  48  75 106 149 196 243 306 369 438
#     4  11  22  41  68 101 140 188 237 291 359 434
#
# _framework density 22.904389999999999
#
# number of rings (size 3 to 8) (size 9 to 14) (size 15 to 20)
#    0.000    0.857    4.286    2.143    6.000    2.857 
#    0.000    0.714    0.000    0.000    0.000    0.000 
#    0.000    0.000    0.000    0.000    0.000    0.000 
#
# Total GULP energy -77968.804053 kJ/mol
# GULP energy per Si atom -5569.200290 kJ/mol
# Density = 2.285226 g / cm^3
# Si number density = 22.904390 Si / 1000 Ang^3
#
#
#
# Elastic Constant Matrix: (Units=GPa)
#
#
# Indices 1 2 3 4 5 6 
#
# 1 161.7711 21.8675 33.5416 0.4160 0.7430 -4.1344
# 2 21.8675 70.9127 27.0074 -18.7837 0.9978 5.7119
# 3 33.5416 27.0074 85.9009 -6.5075 4.1104 5.3563
# 4 0.4160 -18.7837 -6.5075 37.9812 3.6440 8.2349
# 5 0.7430 0.9978 4.1104 3.6440 23.7277 2.0980
# 6 -4.1344 5.7119 5.3563 8.2349 2.0980 32.9045
#
#
#
# Elastic Compliance Matrix: (Units=1/GPa)
#
#
# Indices 1 2 3 4 5 6 
#
# 1 0.006999 -0.001917 -0.002424 -0.001925 0.000395 0.002063
# 2 -0.001917 0.019447 -0.004202 0.010200 -0.001118 -0.005414
# 3 -0.002424 -0.004202 0.014217 0.001030 -0.002191 -0.002007
# 4 -0.001925 0.010200 0.001030 0.034307 -0.004891 -0.010454
# 5 0.000395 -0.001118 -0.002191 -0.004891 0.043394 -0.000942
# 6 0.002063 -0.005414 -0.002007 -0.010454 -0.000942 0.034593
#
#
# Mechanical properties :
#
#
# Convention : Reuss Voigt Hill
#
# Bulk Modulus (GPa) = 42.41280 53.71308 48.06294
# Shear Modulus (GPa) = 28.10564 34.66721 31.38642
#
# Velocity S-wave (km/s) = 3.50678 3.89467 3.70580
# Velocity P-wave (km/s) = 5.91221 6.61260 6.27219
#
# Compressibility (1/GPa) = 0.02357779
#
# Stress axis : x y z
#
# Youngs Moduli (GPa) = 142.87577 51.42221 70.33961
#
# Poissons Ratio (x) = 0.09858 0.17047
# Poissons Ratio (y) = 0.27389 0.29556
# Poissons Ratio (z) = 0.34627 0.21607
#
# Static dielectric constant tensor:
#      x y z
#    x 1.801490 -0.047950 0.041280 
#    y -0.047950 1.955970 0.125350 
#    z 0.041280 0.125350 1.904880 
# 
# From -- ./inp_files/471914.got.cif
#   From: 2010.05.17/outbox.cif.g08.bks.cpg/sg2_236_cif.got.tgz:471914.got - 2010.06.03 11:33:40.
