data_PCOD9050596
_publ_section_title
;
Structure prediction by ZEFSAII (Michael W. Deem and Ramdas Pophale) SiO2 
 PCOD9050596
Probable space group: P -1
;
_chemical_formula_sum "Si O2"
_cell_formula_units_Z 14
_cell_length_a 11.211170
_cell_length_b 12.125756
_cell_length_c 8.848936
_cell_angle_alpha 145.842480
_cell_angle_beta 85.675835
_cell_angle_gamma 106.076157
_cell_volume 622.101522
_symmetry_space_group_name_H-M "P -1"
_symmetry_group_IT_number 2
_symmetry_cell_setting 'triclinic'
loop_
_space_group_symop_operation_xyz
x,y,z
-x,-y,-z
loop_
_atom_site_type_symbol
_atom_site_label
_atom_site_fract_x
_atom_site_fract_y
_atom_site_fract_z
Si Si1 0.499537 0.717829 0.313179
Si Si2 0.175435 0.789793 0.803406
Si Si3 0.032626 0.484006 0.723590
Si Si4 0.001501 0.230216 0.721719
Si Si5 0.702356 0.077092 0.511661
Si Si6 0.664104 0.822362 0.914786
Si Si7 0.587146 0.331812 0.402253
O O1 0.375023 0.769237 0.333467
O O2 0.493525 0.700840 0.473964
O O3 0.623846 0.911412 0.459526
O O4 0.500000 0.500000 0.000000
O O5 0.140826 0.672857 0.834800
O O6 0.298489 0.748696 0.683512
O O7 0.055329 0.678004 0.576672
O O8 0.228977 0.042766 0.065017
O O9 0.069112 0.347401 0.693701
O O10 0.953385 0.606273 0.957599
O O11 0.851134 0.194575 0.672628
O O12 0.000000 0.000000 0.500000
O O13 0.698255 0.939570 0.205269
O O14 0.652961 0.581704 0.646859
O O15 0.516994 0.793129 0.855408
#
# Coordination Sequence:
#
# PCOD9050596 Si02
#       7
#     2   2   2   2   2   2   2
#     4  11  23  40  67  99 133 173 218 271 343 399
#     4  11  23  44  69  90 142 169 220 284 325 401
#     4  10  25  43  66 104 122 180 228 270 338 393
#     4  11  25  46  69  95 135 178 230 278 330 393
#     4  11  24  41  66  96 133 176 218 278 333 396
#     4  11  23  41  64  96 130 171 217 270 337 395
#     4  11  24  40  66  99 130 175 218 268 340 406
#
# _framework density 22.504363000000001
#
# number of rings (size 3 to 8) (size 9 to 14) (size 15 to 20)
#    0.000    1.143    4.286    0.429    4.000    4.571 
#    2.571    2.857    0.000    0.000    0.000    0.000 
#    0.000    0.000    0.000    0.000    0.000    0.000 
#
# Total GULP energy -78270.750018 kJ/mol
# GULP energy per Si atom -5590.767858 kJ/mol
# Density = 2.245314 g / cm^3
# Si number density = 22.504363 Si / 1000 Ang^3
#
#
#
# Elastic Constant Matrix: (Units=GPa)
#
#
# Indices 1 2 3 4 5 6 
#
# 1 20.8799 1.8197 11.7525 12.1159 6.2916 4.8178
# 2 1.8197 183.7032 46.7830 31.4270 -2.0408 10.6315
# 3 11.7525 46.7830 71.5874 21.1620 -1.1812 -2.0145
# 4 12.1159 31.4270 21.1620 43.5481 -2.5979 -6.9858
# 5 6.2916 -2.0408 -1.1812 -2.5979 24.5707 5.0383
# 6 4.8178 10.6315 -2.0145 -6.9858 5.0383 22.7584
#
#
#
# Elastic Compliance Matrix: (Units=1/GPa)
#
#
# Indices 1 2 3 4 5 6 
#
# 1 0.082128 0.008409 -0.011545 -0.028750 -0.018371 -0.027094
# 2 0.008409 0.008325 -0.004899 -0.007326 -0.000795 -0.008176
# 3 -0.011545 -0.004899 0.019810 -0.001878 0.002191 0.005424
# 4 -0.028750 -0.007326 -0.001878 0.040835 0.006804 0.020371
# 5 -0.018371 -0.000795 0.002191 0.006804 0.046951 -0.003851
# 6 -0.027094 -0.008176 0.005424 0.020371 -0.003851 0.061080
#
#
# Mechanical properties :
#
#
# Convention : Reuss Voigt Hill
#
# Bulk Modulus (GPa) = 10.61642 44.09787 27.35714
# Shear Modulus (GPa) = 16.30800 32.56314 24.43557
#
# Velocity S-wave (km/s) = 2.69487 3.80803 3.29875
# Velocity P-wave (km/s) = 3.79616 6.24280 5.16640
#
# Compressibility (1/GPa) = 0.09419374
#
# Stress axis : x y z
#
# Youngs Moduli (GPa) = 12.17606 120.11360 50.48024
#
# Poissons Ratio (x) = -1.01004 0.58280
# Poissons Ratio (y) = -0.10239 0.24729
# Poissons Ratio (z) = 0.14057 0.58841
#
# Static dielectric constant tensor:
#      x y z
#    x 1.824860 -0.036060 -0.000710 
#    y -0.036060 1.907930 0.008650 
#    z -0.000710 0.008650 1.817940 
# 
# From -- ./inp_files/258370.got.cif
#   From: 2010.05.17/outbox.cif.g08.bks.cpg/sg2_130_cif.got.tgz:258370.got - 2010.06.03 11:33:40.
