data_PCOD9050099
_publ_section_title
;
Structure prediction by ZEFSAII (Michael W. Deem and Ramdas Pophale) SiO2 
 PCOD9050099
Probable space group: P -1
;
_chemical_formula_sum "Si O2"
_cell_formula_units_Z 14
_cell_length_a 9.642496
_cell_length_b 20.397104
_cell_length_c 5.287512
_cell_angle_alpha 91.881079
_cell_angle_beta 107.051627
_cell_angle_gamma 36.991988
_cell_volume 560.373391
_symmetry_space_group_name_H-M "P -1"
_symmetry_group_IT_number 2
_symmetry_cell_setting 'triclinic'
loop_
_space_group_symop_operation_xyz
x,y,z
-x,-y,-z
loop_
_atom_site_type_symbol
_atom_site_label
_atom_site_fract_x
_atom_site_fract_y
_atom_site_fract_z
Si Si1 0.084842 0.133455 0.991005
Si Si2 0.461682 0.454907 0.284722
Si Si3 0.287849 0.822835 0.950620
Si Si4 0.075125 0.683654 0.802200
Si Si5 0.227480 0.015136 0.546419
Si Si6 0.712070 0.616390 0.767818
Si Si7 0.590069 0.792346 0.450756
O O1 0.831229 0.182379 0.903997
O O2 0.214273 0.064149 0.792293
O O3 0.017029 0.234492 0.010908
O O4 0.254863 0.049354 0.313535
O O5 0.500000 0.500000 0.500000
O O6 0.728178 0.347149 0.263119
O O7 0.618018 0.580787 0.621063
O O8 0.240313 0.561511 0.986167
O O9 0.374165 0.858187 0.133432
O O10 0.529097 0.703408 0.916528
O O11 0.050634 0.914742 0.640209
O O12 0.836447 0.745043 0.523384
O O13 0.449075 0.878839 0.623559
O O14 0.688384 0.683847 0.566333
O O15 0.000000 0.500000 0.000000
#
# Coordination Sequence:
#
# PCOD9050099 Si02
#       7
#     2   2   2   2   2   2   2
#     4  10  24  48  76 106 153 203 255 303 384 454
#     4  11  26  47  73 101 148 200 256 303 390 453
#     4  10  25  44  74 107 154 197 243 313 380 450
#     4  11  26  46  71 111 146 206 246 321 377 456
#     4  10  25  48  79 114 150 207 252 312 383 455
#     4  12  26  47  70 113 143 201 250 325 368 455
#     4  12  27  44  76 113 154 188 263 312 383 449
#
# _framework density 24.983342
#
# number of rings (size 3 to 8) (size 9 to 14) (size 15 to 20)
#    0.857    0.286    2.857    1.286   10.000    2.857 
#    0.000    0.000    0.000    0.000    0.000    0.000 
#    0.000    0.000    0.000    0.000    0.000    0.000 
#
# Total GULP energy -78409.736698 kJ/mol
# GULP energy per Si atom -5600.695478 kJ/mol
# Density = 2.492648 g / cm^3
# Si number density = 24.983342 Si / 1000 Ang^3
#
#
#
# Elastic Constant Matrix: (Units=GPa)
#
#
# Indices 1 2 3 4 5 6 
#
# 1 95.6968 37.5313 39.5923 -6.6165 32.6973 10.8638
# 2 37.5313 89.8875 21.4556 7.6386 15.3934 14.1306
# 3 39.5923 21.4556 92.2526 22.5072 10.8814 -0.9967
# 4 -6.6165 7.6386 22.5072 43.9348 6.1029 4.0655
# 5 32.6973 15.3934 10.8814 6.1029 40.3697 -5.8024
# 6 10.8638 14.1306 -0.9967 4.0655 -5.8024 24.8098
#
#
#
# Elastic Compliance Matrix: (Units=1/GPa)
#
#
# Indices 1 2 3 4 5 6 
#
# 1 0.028474 -0.003080 -0.012959 0.016558 -0.023700 -0.019491
# 2 -0.003080 0.014708 -0.001500 -0.001022 -0.003673 -0.007780
# 3 -0.012959 -0.001500 0.019132 -0.013940 0.009722 0.011856
# 4 0.016558 -0.001022 -0.013940 0.036570 -0.017273 -0.017260
# 5 -0.023700 -0.003673 0.009722 -0.017273 0.049269 0.027213
# 6 -0.019491 -0.007780 0.011856 -0.017260 0.027213 0.062942
#
#
# Mechanical properties :
#
#
# Convention : Reuss Voigt Hill
#
# Bulk Modulus (GPa) = 36.71569 52.77724 44.74647
# Shear Modulus (GPa) = 19.58844 33.77338 26.68091
#
# Velocity S-wave (km/s) = 2.80315 3.68072 3.27149
# Velocity P-wave (km/s) = 5.02044 6.26374 5.67623
#
# Compressibility (1/GPa) = 0.02723631
#
# Stress axis : x y z
#
# Youngs Moduli (GPa) = 35.11963 67.98962 52.26721
#
# Poissons Ratio (x) = 0.20943 0.67732
# Poissons Ratio (y) = 0.10818 0.07841
# Poissons Ratio (z) = 0.45511 0.10199
#
# Static dielectric constant tensor:
#      x y z
#    x 1.988580 0.017190 -0.022740 
#    y 0.017190 1.967790 -0.047660 
#    z -0.022740 -0.047660 2.002660 
# 
# From -- ./inp_files/45099.got.cif
#   From: 2010.05.17/outbox.cif.g08.bks.cpg/sg2_23_cif.got.tgz:45099.got - 2010.06.03 11:33:40.
