data_PCOD9050924
_publ_section_title
;
Structure prediction by ZEFSAII (Michael W. Deem and Ramdas Pophale) SiO2 
 PCOD9050924
Probable space group: P -1
;
_chemical_formula_sum "Si O2"
_cell_formula_units_Z 14
_cell_length_a 8.609655
_cell_length_b 15.192239
_cell_length_c 8.670176
_cell_angle_alpha 67.056355
_cell_angle_beta 105.309480
_cell_angle_gamma 49.026131
_cell_volume 523.856323
_symmetry_space_group_name_H-M "P -1"
_symmetry_group_IT_number 2
_symmetry_cell_setting 'triclinic'
loop_
_space_group_symop_operation_xyz
x,y,z
-x,-y,-z
loop_
_atom_site_type_symbol
_atom_site_label
_atom_site_fract_x
_atom_site_fract_y
_atom_site_fract_z
Si Si1 0.631810 0.534667 0.451298
Si Si2 0.809458 0.749432 0.708885
Si Si3 0.798152 0.292384 0.289624
Si Si4 0.911271 0.916879 0.203882
Si Si5 0.304813 0.887072 0.292832
Si Si6 0.414707 0.364360 0.969604
Si Si7 0.293381 0.207704 0.989291
O O1 0.500000 0.500000 0.500000
O O2 0.495875 0.700949 0.387516
O O3 0.585766 0.575468 0.229926
O O4 0.993728 0.343880 0.715198
O O5 0.527941 0.832910 0.501759
O O6 0.774286 0.782815 0.858277
O O7 0.898925 0.807904 0.624159
O O8 0.119811 0.534916 0.887255
O O9 0.825804 0.265696 0.497015
O O10 0.500000 0.500000 0.000000
O O11 0.722101 0.228936 0.239688
O O12 0.010442 0.978032 0.218319
O O13 0.611666 0.016440 0.125853
O O14 0.834179 0.966718 0.967937
O O15 0.359484 0.286495 0.955977
#
# Coordination Sequence:
#
# PCOD9050924 Si02
#       7
#     2   2   2   2   2   2   2
#     4  12  26  45  75 105 141 185 244 287 350 424
#     4  11  24  42  73 103 140 188 236 286 351 417
#     4  10  25  44  72 105 139 185 237 294 352 416
#     4  11  26  48  69 106 145 185 238 290 360 413
#     4  11  25  48  71 103 142 191 232 289 357 423
#     4  11  22  43  71 102 139 187 240 285 346 420
#     4  12  24  45  73 106 140 190 235 291 347 427
#
# _framework density 26.724882999999998
#
# number of rings (size 3 to 8) (size 9 to 14) (size 15 to 20)
#    0.000    0.857    2.857    3.429    8.000    3.429 
#    5.143    0.000    0.000    0.000    0.000    0.000 
#    0.000    0.000    0.000    0.000    0.000    0.000 
#
# Total GULP energy -78258.885718 kJ/mol
# GULP energy per Si atom -5589.920408 kJ/mol
# Density = 2.666406 g / cm^3
# Si number density = 26.724883 Si / 1000 Ang^3
#
#
#
# Elastic Constant Matrix: (Units=GPa)
#
#
# Indices 1 2 3 4 5 6 
#
# 1 163.1278 27.6076 58.6020 28.5889 18.8581 -16.5232
# 2 27.6076 113.6457 54.0423 16.6021 4.4294 -11.8906
# 3 58.6020 54.0423 145.6224 23.1769 0.2878 -3.1230
# 4 28.5889 16.6021 23.1769 44.8930 1.5450 -4.7072
# 5 18.8581 4.4294 0.2878 1.5450 71.6960 12.5702
# 6 -16.5232 -11.8906 -3.1230 -4.7072 12.5702 43.2535
#
#
#
# Elastic Compliance Matrix: (Units=1/GPa)
#
#
# Indices 1 2 3 4 5 6 
#
# 1 0.008393 0.000304 -0.002849 -0.003525 -0.002753 0.003500
# 2 0.000304 0.011245 -0.003914 -0.001966 -0.001256 0.003076
# 3 -0.002849 -0.003914 0.009742 -0.002033 0.001360 -0.002077
# 4 -0.003525 -0.001966 -0.002033 0.026360 0.000361 0.000730
# 5 -0.002753 -0.001256 0.001360 0.000361 0.015760 -0.005839
# 6 0.003500 0.003076 -0.002077 0.000730 -0.005839 0.026929
#
#
# Mechanical properties :
#
#
# Convention : Reuss Voigt Hill
#
# Bulk Modulus (GPa) = 60.74521 78.09994 69.42258
# Shear Modulus (GPa) = 42.79603 50.77812 46.78707
#
# Velocity S-wave (km/s) = 4.00603 4.36366 4.18867
# Velocity P-wave (km/s) = 6.64657 7.39431 7.03039
#
# Compressibility (1/GPa) = 0.01646220
#
# Stress axis : x y z
#
# Youngs Moduli (GPa) = 119.15350 88.93148 102.64426
#
# Poissons Ratio (x) = -0.02707 0.29242
# Poissons Ratio (y) = -0.03627 0.40177
# Poissons Ratio (z) = 0.33945 0.34809
#
# Static dielectric constant tensor:
#      x y z
#    x 2.114560 0.086080 -0.055960 
#    y 0.086080 2.315500 -0.137240 
#    z -0.055960 -0.137240 2.093560 
# 
# From -- ./inp_files/217093.got.cif
#   From: 2010.05.17/outbox.cif.g08.bks.cpg/sg2_109_cif.got.tgz:217093.got - 2010.06.03 11:33:40.
