data_PCOD9050758
_publ_section_title
;
Structure prediction by ZEFSAII (Michael W. Deem and Ramdas Pophale) SiO2 
 PCOD9050758
Probable space group: P -1
;
_chemical_formula_sum "Si O2"
_cell_formula_units_Z 16
_cell_length_a 5.437526
_cell_length_b 16.957875
_cell_length_c 11.463549
_cell_angle_alpha 45.835257
_cell_angle_beta 100.819568
_cell_angle_gamma 108.542626
_cell_volume 718.003222
_symmetry_space_group_name_H-M "P -1"
_symmetry_group_IT_number 2
_symmetry_cell_setting 'triclinic'
loop_
_space_group_symop_operation_xyz
x,y,z
-x,-y,-z
loop_
_atom_site_type_symbol
_atom_site_label
_atom_site_fract_x
_atom_site_fract_y
_atom_site_fract_z
Si Si1 0.855352 0.628957 0.453221
Si Si2 0.667770 0.541888 0.088075
Si Si3 0.274119 0.031246 0.369885
Si Si4 0.690728 0.319659 0.389899
Si Si5 0.187572 0.170531 0.440360
Si Si6 0.914766 0.328445 0.152416
Si Si7 0.685714 0.357084 0.696878
Si Si8 0.499422 0.240778 0.040843
O O1 0.769132 0.491414 0.598182
O O2 0.586934 0.663734 0.377177
O O3 0.042949 0.681327 0.522887
O O4 0.062633 0.659850 0.331989
O O5 0.633466 0.442252 0.284100
O O6 0.500000 0.500000 0.000000
O O7 0.609309 0.655409 0.021946
O O8 0.961381 0.572535 0.029847
O O9 0.190478 0.108719 0.380903
O O10 0.322525 0.113959 0.176357
O O11 0.500000 0.000000 0.500000
O O12 0.062547 0.914706 0.437274
O O13 0.453887 0.207371 0.497910
O O14 0.738266 0.332817 0.242108
O O15 0.144506 0.289972 0.273256
O O16 0.739394 0.234221 0.151478
O O17 0.607364 0.279760 0.883479
#
# Coordination Sequence:
#
# PCOD9050758 Si02
#       8
#     2   2   2   2   2   2   2   2
#     4  10  25  45  65  91 131 178 232 266 318 392
#     4  12  23  34  53  96 137 161 200 257 334 405
#     4  11  21  41  62  91 130 168 212 264 324 403
#     4  12  24  38  62  93 131 177 207 269 327 399
#     4  11  22  37  61  91 130 167 211 256 329 392
#     4  12  21  37  57  97 128 164 209 256 338 399
#     4  10  25  44  65  93 128 181 227 271 322 381
#     4  12  24  39  63  95 131 169 214 272 327 391
#
# _framework density 22.284023000000001
#
# number of rings (size 3 to 8) (size 9 to 14) (size 15 to 20)
#    0.000    0.750    6.250    1.125   10.500    0.000 
#    0.000    0.000    0.000    1.500    0.000    0.000 
#    0.000    0.000    0.000    0.000    0.000    0.000 
#
# Total GULP energy -89200.187748 kJ/mol
# GULP energy per Si atom -5575.011734 kJ/mol
# Density = 2.223330 g / cm^3
# Si number density = 22.284023 Si / 1000 Ang^3
#
#
#
# Elastic Constant Matrix: (Units=GPa)
#
#
# Indices 1 2 3 4 5 6 
#
# 1 83.2304 28.5639 32.9950 -6.1872 -9.3154 19.8514
# 2 28.5639 85.8664 41.9813 -7.3169 -10.0304 39.4846
# 3 32.9950 41.9813 131.9881 -10.7124 -30.7797 7.2121
# 4 -6.1872 -7.3169 -10.7124 33.5510 8.9747 -5.4289
# 5 -9.3154 -10.0304 -30.7797 8.9747 34.0944 1.4287
# 6 19.8514 39.4846 7.2121 -5.4289 1.4287 43.1049
#
#
#
# Elastic Compliance Matrix: (Units=1/GPa)
#
#
# Indices 1 2 3 4 5 6 
#
# 1 0.014946 -0.000772 -0.002807 0.000377 0.001462 -0.005707
# 2 -0.000772 0.025187 -0.006011 -0.000899 0.002928 -0.021920
# 3 -0.002807 -0.006011 0.011795 0.000614 0.007756 0.004645
# 4 0.000377 -0.000899 0.000614 0.032951 -0.008489 0.004978
# 5 0.001462 0.002928 0.007756 -0.008489 0.040124 -0.007052
# 6 -0.005707 -0.021920 0.004645 0.004978 -0.007052 0.045990
#
#
# Mechanical properties :
#
#
# Convention : Reuss Voigt Hill
#
# Bulk Modulus (GPa) = 30.53663 56.46283 43.49973
# Shear Modulus (GPa) = 24.86479 35.31972 30.09225
#
# Velocity S-wave (km/s) = 3.34400 3.98550 3.67876
# Velocity P-wave (km/s) = 5.35191 6.82435 6.13248
#
# Compressibility (1/GPa) = 0.03274756
#
# Stress axis : x y z
#
# Youngs Moduli (GPa) = 66.90974 39.70362 84.78311
#
# Poissons Ratio (x) = 0.03065 0.23801
# Poissons Ratio (y) = 0.05165 0.50959
# Poissons Ratio (z) = 0.18783 0.23864
#
# Static dielectric constant tensor:
#      x y z
#    x 2.058350 -0.027150 -0.033910 
#    y -0.027150 1.884250 -0.057290 
#    z -0.033910 -0.057290 1.852530 
# 
# From -- ./inp_files/370355.got.cif
#   From: 2010.05.17/outbox.cif.g08.bks.cpg/sg2_186_cif.got.tgz:370355.got - 2010.06.03 11:33:40.
