data_PCOD9050684
_publ_section_title
;
Structure prediction by ZEFSAII (Michael W. Deem and Ramdas Pophale) SiO2 
 PCOD9050684
Probable space group: P -1
;
_chemical_formula_sum "Si O2"
_cell_formula_units_Z 16
_cell_length_a 11.481263
_cell_length_b 5.714990
_cell_length_c 14.013599
_cell_angle_alpha 74.295314
_cell_angle_beta 66.259560
_cell_angle_gamma 112.765802
_cell_volume 669.771114
_symmetry_space_group_name_H-M "P -1"
_symmetry_group_IT_number 2
_symmetry_cell_setting 'triclinic'
loop_
_space_group_symop_operation_xyz
x,y,z
-x,-y,-z
loop_
_atom_site_type_symbol
_atom_site_label
_atom_site_fract_x
_atom_site_fract_y
_atom_site_fract_z
Si Si1 0.206942 0.691207 0.993149
Si Si2 0.732062 0.143223 0.632787
Si Si3 0.982597 0.824233 0.428830
Si Si4 0.917906 0.686948 0.109462
Si Si5 0.752848 0.670602 0.354247
Si Si6 0.417198 0.639886 0.061865
Si Si7 0.566228 0.760972 0.546524
Si Si8 0.494533 0.735116 0.228505
O O1 0.181429 0.549608 0.913047
O O2 0.333641 0.036454 0.891839
O O3 0.269655 0.553033 0.058432
O O4 0.052327 0.638328 0.093611
O O5 0.854495 0.489561 0.538658
O O6 0.581879 0.088676 0.739092
O O7 0.844658 0.082239 0.657858
O O8 0.673070 0.998739 0.564557
O O9 0.899080 0.818678 0.361008
O O10 0.000000 0.000000 0.500000
O O11 0.826190 0.702359 0.224768
O O12 0.000000 0.000000 0.000000
O O13 0.667393 0.808866 0.415067
O O14 0.599470 0.330461 0.429316
O O15 0.400370 0.547392 0.187856
O O16 0.500000 0.500000 0.000000
O O17 0.500000 0.000000 0.000000
O O18 0.522492 0.467559 0.655640
#
# Coordination Sequence:
#
# PCOD9050684 Si02
#       8
#     2   2   2   2   2   2   2   2
#     4  10  25  47  69 105 137 195 252 302 376 436
#     4  11  23  42  72 100 147 184 231 295 371 441
#     4  11  23  47  63 102 149 184 230 292 365 443
#     4  11  25  48  69  98 146 196 245 311 366 441
#     4  11  24  45  71 100 146 188 240 299 369 447
#     4  10  25  43  71 105 141 190 247 301 365 434
#     4  11  24  45  70 112 139 188 241 301 374 442
#     4  11  23  44  74 102 143 182 232 312 360 443
#
# _framework density 23.888756999999998
#
# number of rings (size 3 to 8) (size 9 to 14) (size 15 to 20)
#    0.000    1.250    2.500    1.500   10.500    0.500 
#   13.500    0.000    0.000    0.000    0.000    0.000 
#    0.000    0.000    0.000    0.000    0.000    0.000 
#
# Total GULP energy -89213.861739 kJ/mol
# GULP energy per Si atom -5575.866359 kJ/mol
# Density = 2.383438 g / cm^3
# Si number density = 23.888757 Si / 1000 Ang^3
#
#
#
# Elastic Constant Matrix: (Units=GPa)
#
#
# Indices 1 2 3 4 5 6 
#
# 1 164.6230 34.1252 37.5047 19.9141 3.2754 32.3867
# 2 34.1252 135.8339 34.9059 13.2788 -5.2886 33.7598
# 3 37.5047 34.9059 110.6480 37.4520 -12.4486 13.7255
# 4 19.9141 13.2788 37.4520 42.8533 -3.8640 -4.0044
# 5 3.2754 -5.2886 -12.4486 -3.8640 13.5952 -8.9185
# 6 32.3867 33.7598 13.7255 -4.0044 -8.9185 29.5264
#
#
#
# Elastic Compliance Matrix: (Units=1/GPa)
#
#
# Indices 1 2 3 4 5 6 
#
# 1 0.012079 0.003506 -0.001255 -0.009841 -0.021583 -0.024528
# 2 0.003506 0.012855 -0.001268 -0.008022 -0.014687 -0.023477
# 3 -0.001255 -0.001268 0.015240 -0.011929 0.008129 -0.003420
# 4 -0.009841 -0.008022 -0.011929 0.047147 0.028256 0.040441
# 5 -0.021583 -0.014687 0.008129 0.028256 0.143540 0.083876
# 6 -0.024528 -0.023477 -0.003420 0.040441 0.083876 0.120025
#
#
# Mechanical properties :
#
#
# Convention : Reuss Voigt Hill
#
# Bulk Modulus (GPa) = 23.73135 69.35297 46.54216
# Shear Modulus (GPa) = 13.77541 37.49957 25.63749
#
# Velocity S-wave (km/s) = 2.40396 3.96632 3.27953
# Velocity P-wave (km/s) = 4.20250 7.07603 5.81942
#
# Compressibility (1/GPa) = 0.04213836
#
# Stress axis : x y z
#
# Youngs Moduli (GPa) = 82.78884 77.79348 65.61750
#
# Poissons Ratio (x) = -0.27272 0.08234
# Poissons Ratio (y) = -0.29023 0.08322
# Poissons Ratio (z) = 0.10389 0.09866
#
# Static dielectric constant tensor:
#      x y z
#    x 2.066750 -0.053000 0.030010 
#    y -0.053000 1.995100 -0.048040 
#    z 0.030010 -0.048040 1.892400 
# 
# From -- ./inp_files/510964.got.cif
#   From: 2010.05.17/outbox.cif.g08.bks.cpg/sg2_256_cif.got.tgz:510964.got - 2010.06.03 11:33:40.
