data_PCOD9050667
_publ_section_title
;
Structure prediction by ZEFSAII (Michael W. Deem and Ramdas Pophale) SiO2 
 PCOD9050667
Probable space group: P -1
;
_chemical_formula_sum "Si O2"
_cell_formula_units_Z 14
_cell_length_a 22.349934
_cell_length_b 7.866862
_cell_length_c 7.859358
_cell_angle_alpha 105.008602
_cell_angle_beta 49.697432
_cell_angle_gamma 142.495067
_cell_volume 536.960619
_symmetry_space_group_name_H-M "P -1"
_symmetry_group_IT_number 2
_symmetry_cell_setting 'triclinic'
loop_
_space_group_symop_operation_xyz
x,y,z
-x,-y,-z
loop_
_atom_site_type_symbol
_atom_site_label
_atom_site_fract_x
_atom_site_fract_y
_atom_site_fract_z
Si Si1 0.426123 0.716709 0.940492
Si Si2 0.782258 0.809845 0.383607
Si Si3 0.383316 0.128516 0.580276
Si Si4 0.433629 0.042215 0.795123
Si Si5 0.197293 0.747573 0.411584
Si Si6 0.877893 0.789566 0.515532
Si Si7 0.909777 0.219346 0.951927
O O1 0.552996 0.816509 0.701976
O O2 0.395699 0.772657 0.844685
O O3 0.261361 0.353098 0.203246
O O4 0.500000 0.000000 0.000000
O O5 0.609104 0.416150 0.602782
O O6 0.890863 0.905987 0.335558
O O7 0.770221 0.994284 0.508517
O O8 0.850330 0.939560 0.099102
O O9 0.500000 0.500000 0.500000
O O10 0.395431 0.999711 0.660699
O O11 0.230184 0.925698 0.849783
O O12 0.317927 0.939438 0.093014
O O13 0.184643 0.530824 0.477818
O O14 0.015156 0.411690 0.643089
O O15 0.000000 0.000000 0.500000
O O16 0.000000 0.500000 0.000000
#
# Coordination Sequence:
#
# PCOD9050667 Si02
#       7
#     2   2   2   2   2   2   2
#     4  11  26  47  74 109 151 199 258 312 376 459
#     4  11  23  44  74 108 147 207 248 307 388 452
#     4  12  27  44  74 112 149 192 256 318 369 450
#     4  11  24  44  76 108 144 201 250 315 379 449
#     4  10  26  45  71 108 154 195 253 309 383 454
#     4  11  27  43  72 108 148 197 254 316 372 457
#     4  10  25  43  70 106 151 192 244 314 375 450
#
# _framework density 26.072673999999999
#
# number of rings (size 3 to 8) (size 9 to 14) (size 15 to 20)
#    0.000    1.143    2.857    0.857   12.000    6.286 
#    0.000    1.429    0.000    0.000    0.000    0.000 
#    0.000    0.000    0.000    0.000    0.000    0.000 
#
# Total GULP energy -77973.098953 kJ/mol
# GULP energy per Si atom -5569.507068 kJ/mol
# Density = 2.601333 g / cm^3
# Si number density = 26.072674 Si / 1000 Ang^3
#
#
#
# Elastic Constant Matrix: (Units=GPa)
#
#
# Indices 1 2 3 4 5 6 
#
# 1 115.5602 -5.1422 0.7657 -0.6691 -6.6334 13.5554
# 2 -5.1422 80.9428 14.5245 -6.9787 -12.8082 -4.2039
# 3 0.7657 14.5245 156.6439 -11.2696 -18.1594 18.4184
# 4 -0.6691 -6.9787 -11.2696 42.7044 -1.0838 -11.4875
# 5 -6.6334 -12.8082 -18.1594 -1.0838 49.7705 -8.7949
# 6 13.5554 -4.2039 18.4184 -11.4875 -8.7949 34.6725
#
#
#
# Elastic Compliance Matrix: (Units=1/GPa)
#
#
# Indices 1 2 3 4 5 6 
#
# 1 0.009151 0.000377 0.000406 -0.000684 0.000783 -0.003776
# 2 0.000377 0.013690 -0.001068 0.003177 0.003985 0.004143
# 3 0.000406 -0.001068 0.007146 0.000866 0.001816 -0.003337
# 4 -0.000684 0.003177 0.000866 0.026922 0.003391 0.009972
# 5 0.000783 0.003985 0.001816 0.003391 0.023051 0.006183
# 6 -0.003776 0.004143 -0.003337 0.009972 0.006183 0.037464
#
#
# Mechanical properties :
#
#
# Convention : Reuss Voigt Hill
#
# Bulk Modulus (GPa) = 33.99286 41.49365 37.74325
# Shear Modulus (GPa) = 39.12358 48.29607 43.70983
#
# Velocity S-wave (km/s) = 3.87791 4.30858 4.09890
# Velocity P-wave (km/s) = 5.75473 6.37973 6.07527
#
# Compressibility (1/GPa) = 0.02941794
#
# Stress axis : x y z
#
# Youngs Moduli (GPa) = 109.27219 73.04807 139.93687
#
# Poissons Ratio (x) = -0.02757 -0.05678
# Poissons Ratio (y) = -0.04124 0.14942
# Poissons Ratio (z) = -0.04434 0.07800
#
# Static dielectric constant tensor:
#      x y z
#    x 2.146360 0.080070 -0.019440 
#    y 0.080070 2.085210 0.068840 
#    z -0.019440 0.068840 2.201080 
# 
# From -- ./inp_files/351777.got.cif
#   From: 2010.05.17/outbox.cif.g08.bks.cpg/sg2_176_cif.got.tgz:351777.got - 2010.06.03 11:33:40.
