data_PCOD9050228
_publ_section_title
;
Structure prediction by ZEFSAII (Michael W. Deem and Ramdas Pophale) SiO2 
 PCOD9050228
Probable space group: P -1
;
_chemical_formula_sum "Si O2"
_cell_formula_units_Z 10
_cell_length_a 5.316820
_cell_length_b 15.122893
_cell_length_c 7.296880
_cell_angle_alpha 126.127536
_cell_angle_beta 100.207818
_cell_angle_gamma 60.372615
_cell_volume 406.443057
_symmetry_space_group_name_H-M "P -1"
_symmetry_group_IT_number 2
_symmetry_cell_setting 'triclinic'
loop_
_space_group_symop_operation_xyz
x,y,z
-x,-y,-z
loop_
_atom_site_type_symbol
_atom_site_label
_atom_site_fract_x
_atom_site_fract_y
_atom_site_fract_z
Si Si1 0.229091 0.671066 0.627175
Si Si2 0.395785 0.901829 0.321325
Si Si3 0.222332 0.336592 0.152090
Si Si4 0.857235 0.148956 0.465872
Si Si5 0.827249 0.398135 0.857230
O O1 0.566932 0.619913 0.667075
O O2 0.152685 0.804208 0.683310
O O3 0.180402 0.602729 0.363672
O O4 0.017863 0.670937 0.757848
O O5 0.425649 0.832824 0.436192
O O6 0.500000 0.000000 0.500000
O O7 0.553864 0.801076 0.063435
O O8 0.068515 0.000343 0.330248
O O9 0.051554 0.410600 0.037134
O O10 0.911017 0.249774 0.714259
O O11 0.500000 0.500000 0.000000
#
# Coordination Sequence:
#
# PCOD9050228 Si02
#       5
#     2   2   2   2   2
#     4  10  27  45  70 112 141 180 250 280 360 429
#     4  11  21  41  74  95 147 186 232 287 356 426
#     4  12  25  45  73 107 141 190 231 299 354 418
#     4   9  23  43  64 107 137 183 237 285 348 421
#     4  10  24  49  74 100 147 187 234 299 352 416
#
# _framework density 24.603691999999999
#
# number of rings (size 3 to 8) (size 9 to 14) (size 15 to 20)
#    1.200    0.400    2.000    1.200    8.400    3.200 
#    0.000    7.000    0.000    0.000    0.000    0.000 
#    0.000    0.000    0.000    0.000    0.000    0.000 
#
# Total GULP energy -55724.074065 kJ/mol
# GULP energy per Si atom -5572.407406 kJ/mol
# Density = 2.454769 g / cm^3
# Si number density = 24.603692 Si / 1000 Ang^3
#
#
#
# Elastic Constant Matrix: (Units=GPa)
#
#
# Indices 1 2 3 4 5 6 
#
# 1 134.3842 34.3730 58.0170 -32.2722 10.2446 0.0907
# 2 34.3730 132.9284 61.0972 -19.3390 -11.7057 -8.6512
# 3 58.0170 61.0972 149.9158 -19.4562 -7.5097 -6.7648
# 4 -32.2722 -19.3390 -19.4562 49.0170 1.4252 -5.7365
# 5 10.2446 -11.7057 -7.5097 1.4252 55.5876 -3.7498
# 6 0.0907 -8.6512 -6.7648 -5.7365 -3.7498 42.5135
#
#
#
# Elastic Compliance Matrix: (Units=1/GPa)
#
#
# Indices 1 2 3 4 5 6 
#
# 1 0.010519 -0.000695 -0.003225 0.005428 -0.002672 -0.000180
# 2 -0.000695 0.009822 -0.003255 0.002301 0.001829 0.001954
# 3 -0.003225 -0.003255 0.009405 0.000407 0.001237 0.001005
# 4 0.005428 0.002301 0.000407 0.025524 -0.000853 0.003890
# 5 -0.002672 0.001829 0.001237 -0.000853 0.019202 0.002153
# 6 -0.000180 0.001954 0.001005 0.003890 0.002153 0.024795
#
#
# Mechanical properties :
#
#
# Convention : Reuss Voigt Hill
#
# Bulk Modulus (GPa) = 64.95655 80.46697 72.71176
# Shear Modulus (GPa) = 42.10567 47.00636 44.55601
#
# Velocity S-wave (km/s) = 4.14134 4.37572 4.26014
# Velocity P-wave (km/s) = 7.02325 7.63580 7.33592
#
# Compressibility (1/GPa) = 0.01539491
#
# Stress axis : x y z
#
# Youngs Moduli (GPa) = 95.06863 101.81383 106.32212
#
# Poissons Ratio (x) = 0.07076 0.34289
# Poissons Ratio (y) = 0.06608 0.34613
# Poissons Ratio (z) = 0.30660 0.33145
#
# Static dielectric constant tensor:
#      x y z
#    x 2.086710 -0.067650 0.005890 
#    y -0.067650 2.089710 -0.012290 
#    z 0.005890 -0.012290 1.922630 
# 
# From -- ./inp_files/3953.got.cif
#   From: 2010.05.17/outbox.cif.g08.bks.cpg/sg2_2_cif.got.tgz:3953.got - 2010.06.03 11:33:40.
