data_PCOD9050147
_publ_section_title
;
Structure prediction by ZEFSAII (Michael W. Deem and Ramdas Pophale) SiO2 
 PCOD9050147
Probable space group: P -1
;
_chemical_formula_sum "Si O2"
_cell_formula_units_Z 16
_cell_length_a 9.173434
_cell_length_b 21.425389
_cell_length_c 5.079765
_cell_angle_alpha 101.109023
_cell_angle_beta 77.378488
_cell_angle_gamma 139.721807
_cell_volume 629.332840
_symmetry_space_group_name_H-M "P -1"
_symmetry_group_IT_number 2
_symmetry_cell_setting 'triclinic'
loop_
_space_group_symop_operation_xyz
x,y,z
-x,-y,-z
loop_
_atom_site_type_symbol
_atom_site_label
_atom_site_fract_x
_atom_site_fract_y
_atom_site_fract_z
Si Si1 0.823521 0.483696 0.837325
Si Si2 0.398557 0.357100 0.580945
Si Si3 0.085705 0.372862 0.731847
Si Si4 0.598984 0.101213 0.577868
Si Si5 0.340741 0.657732 0.835951
Si Si6 0.776143 0.255405 0.258278
Si Si7 0.123840 0.974426 0.848308
Si Si8 0.014031 0.852469 0.289472
O O1 0.725903 0.383485 0.876264
O O2 0.637037 0.451961 0.694243
O O3 0.089071 0.566097 0.729123
O O4 0.817703 0.528463 0.131498
O O5 0.268616 0.379475 0.580004
O O6 0.466442 0.329180 0.307194
O O7 0.228841 0.259104 0.741887
O O8 0.902313 0.317066 0.527290
O O9 0.964359 0.312088 0.002881
O O10 0.657515 0.153587 0.322389
O O11 0.824286 0.154290 0.689870
O O12 0.500000 0.000000 0.500000
O O13 0.392828 0.072933 0.771197
O O14 0.392130 0.745094 0.793712
O O15 0.026427 0.908616 0.568546
O O16 0.094857 0.914290 0.046760
O O17 0.000000 0.000000 0.000000
#
# Coordination Sequence:
#
# PCOD9050147 Si02
#       8
#     2   2   2   2   2   2   2   2
#     4  10  25  47  71 104 144 204 239 298 364 434
#     4  12  26  43  74 105 148 188 244 305 352 430
#     4  11  27  45  75 104 151 185 250 299 358 433
#     4  10  24  48  79 101 146 193 238 295 369 439
#     4  10  26  45  73  99 149 192 249 292 371 427
#     4  11  26  48  70 110 141 192 242 304 362 436
#     4  11  26  49  75 108 146 184 239 301 366 438
#     4  11  26  46  72 109 144 189 239 295 366 430
#
# _framework density 25.423749999999998
#
# number of rings (size 3 to 8) (size 9 to 14) (size 15 to 20)
#    0.000    1.250    1.250    1.500   17.500    2.500 
#    4.500    0.000    0.000    0.000    0.000    0.000 
#    0.000    0.000    0.000    0.000    0.000    0.000 
#
# Total GULP energy -89446.262242 kJ/mol
# GULP energy per Si atom -5590.391390 kJ/mol
# Density = 2.536588 g / cm^3
# Si number density = 25.423750 Si / 1000 Ang^3
#
#
#
# Elastic Constant Matrix: (Units=GPa)
#
#
# Indices 1 2 3 4 5 6 
#
# 1 144.1165 28.0049 41.3476 -15.9809 -40.8310 -20.9356
# 2 28.0049 99.3316 35.4789 -21.9882 6.4116 -20.1490
# 3 41.3476 35.4789 102.2164 -7.7924 6.7431 -8.0101
# 4 -15.9809 -21.9882 -7.7924 61.1110 -8.2488 8.6333
# 5 -40.8310 6.4116 6.7431 -8.2488 35.1243 -9.6075
# 6 -20.9356 -20.1490 -8.0101 8.6333 -9.6075 48.9657
#
#
#
# Elastic Compliance Matrix: (Units=1/GPa)
#
#
# Indices 1 2 3 4 5 6 
#
# 1 0.020806 -0.000872 -0.008711 0.006479 0.030826 0.012018
# 2 -0.000872 0.013159 -0.003607 0.003404 -0.000920 0.003671
# 3 -0.008711 -0.003607 0.014889 -0.002902 -0.014400 -0.005087
# 4 0.006479 0.003404 -0.002902 0.020286 0.012960 0.002662
# 5 0.030826 -0.000920 -0.014400 0.012960 0.076626 0.023195
# 6 0.012018 0.003671 -0.005087 0.002662 0.023195 0.030321
#
#
# Mechanical properties :
#
#
# Convention : Reuss Voigt Hill
#
# Bulk Modulus (GPa) = 44.49741 61.70306 53.10023
# Shear Modulus (GPa) = 23.81436 45.09574 34.45505
#
# Velocity S-wave (km/s) = 3.06387 4.21618 3.68534
# Velocity P-wave (km/s) = 5.48240 6.92994 6.24823
#
# Compressibility (1/GPa) = 0.02247322
#
# Stress axis : x y z
#
# Youngs Moduli (GPa) = 48.06411 75.99364 67.16401
#
# Poissons Ratio (x) = 0.06627 0.58508
# Poissons Ratio (y) = 0.04191 0.24225
# Poissons Ratio (z) = 0.41870 0.27410
#
# Static dielectric constant tensor:
#      x y z
#    x 2.011320 0.018300 -0.030160 
#    y 0.018300 2.131760 0.063710 
#    z -0.030160 0.063710 2.071650 
# 
# From -- ./inp_files/53268.got.cif
#   From: 2010.05.17/outbox.cif.g08.bks.cpg/sg2_27_cif.got.tgz:53268.got - 2010.06.03 11:33:40.
