data_PCOD9050856
_publ_section_title
;
Structure prediction by ZEFSAII (Michael W. Deem and Ramdas Pophale) SiO2 
 PCOD9050856
Probable space group: P -1
;
_chemical_formula_sum "Si O2"
_cell_formula_units_Z 12
_cell_length_a 9.353318
_cell_length_b 12.987329
_cell_length_c 6.016266
_cell_angle_alpha 71.658592
_cell_angle_beta 114.781484
_cell_angle_gamma 129.944214
_cell_volume 507.613182
_symmetry_space_group_name_H-M "P -1"
_symmetry_group_IT_number 2
_symmetry_cell_setting 'triclinic'
loop_
_space_group_symop_operation_xyz
x,y,z
-x,-y,-z
loop_
_atom_site_type_symbol
_atom_site_label
_atom_site_fract_x
_atom_site_fract_y
_atom_site_fract_z
Si Si1 0.022556 0.683037 0.899056
Si Si2 0.705672 0.939960 0.727793
Si Si3 0.124137 0.217117 0.918613
Si Si4 0.628100 0.060411 0.257969
Si Si5 0.411022 0.484252 0.701869
Si Si6 0.164137 0.566502 0.372965
O O1 0.167839 0.798595 0.746960
O O2 0.897146 0.541452 0.789488
O O3 0.159061 0.680761 0.176696
O O4 0.887185 0.711777 0.919984
O O5 0.679502 0.959488 0.439724
O O6 0.900814 0.087476 0.822236
O O7 0.507347 0.914143 0.703782
O O8 0.748906 0.837676 0.908377
O O9 0.220736 0.327633 0.710781
O O10 0.500000 0.000000 0.000000
O O11 0.500000 0.500000 0.500000
O O12 0.352305 0.587465 0.587004
O O13 0.500000 0.500000 0.000000
O O14 0.000000 0.500000 0.500000
#
# Coordination Sequence:
#
# PCOD9050856 Si02
#       6
#     2   2   2   2   2   2
#     4  11  24  43  75 101 143 187 242 298 358 433
#     4  10  25  44  70 100 141 185 237 289 359 426
#     4  11  23  49  69 102 141 188 236 294 359 430
#     4  11  23  43  68 105 136 182 237 292 356 424
#     4  12  28  47  71 109 147 186 243 303 366 429
#     4  11  25  46  72 101 138 193 239 292 367 432
#
# _framework density 23.640051
#
# number of rings (size 3 to 8) (size 9 to 14) (size 15 to 20)
#    0.000    1.000    3.333    2.000    4.667    2.000 
#    3.000    0.000    0.000    0.000    0.000    0.000 
#    0.000    0.000    0.000    0.000    0.000    0.000 
#
# Total GULP energy -66978.748119 kJ/mol
# GULP energy per Si atom -5581.562343 kJ/mol
# Density = 2.358625 g / cm^3
# Si number density = 23.640051 Si / 1000 Ang^3
#
#
#
# Elastic Constant Matrix: (Units=GPa)
#
#
# Indices 1 2 3 4 5 6 
#
# 1 130.9450 18.0030 33.9336 -18.4454 -15.2382 -0.4732
# 2 18.0030 57.6318 9.1108 -8.5923 -11.9374 5.6451
# 3 33.9336 9.1108 118.1765 -8.8776 14.6226 -5.6090
# 4 -18.4454 -8.5923 -8.8776 48.6127 -3.3718 1.2034
# 5 -15.2382 -11.9374 14.6226 -3.3718 30.6928 -7.9591
# 6 -0.4732 5.6451 -5.6090 1.2034 -7.9591 41.1167
#
#
#
# Elastic Compliance Matrix: (Units=1/GPa)
#
#
# Indices 1 2 3 4 5 6 
#
# 1 0.009886 -0.000725 -0.003323 0.003467 0.006845 0.000984
# 2 -0.000725 0.020402 -0.002239 0.003559 0.008631 -0.001548
# 3 -0.003323 -0.002239 0.010508 -0.000263 -0.007488 0.000261
# 4 0.003467 0.003559 -0.000263 0.022866 0.005731 -0.000045
# 5 0.006845 0.008631 -0.007488 0.005731 0.045207 0.006455
# 6 0.000984 -0.001548 0.000261 -0.000045 0.006455 0.025831
#
#
# Mechanical properties :
#
#
# Convention : Reuss Voigt Hill
#
# Bulk Modulus (GPa) = 35.43183 47.64979 41.54081
# Shear Modulus (GPa) = 31.91210 40.46483 36.18846
#
# Velocity S-wave (km/s) = 3.67811 4.14177 3.91680
# Velocity P-wave (km/s) = 5.74966 6.56296 6.16972
#
# Compressibility (1/GPa) = 0.02822321
#
# Stress axis : x y z
#
# Youngs Moduli (GPa) = 101.15379 49.01493 95.16808
#
# Poissons Ratio (x) = 0.03551 0.31622
# Poissons Ratio (y) = 0.07329 0.21308
# Poissons Ratio (z) = 0.33611 0.10974
#
# Static dielectric constant tensor:
#      x y z
#    x 1.870200 0.022610 -0.000780 
#    y 0.022610 1.924930 0.049600 
#    z -0.000780 0.049600 1.986530 
# 
# From -- ./inp_files/19899.got.cif
#   From: 2010.05.17/outbox.cif.g08.bks.cpg/sg2_10_cif.got.tgz:19899.got - 2010.06.03 11:33:40.
