data_PCOD9050151
_publ_section_title
;
Structure prediction by ZEFSAII (Michael W. Deem and Ramdas Pophale) SiO2 
 PCOD9050151
Probable space group: P -1
;
_chemical_formula_sum "Si O2"
_cell_formula_units_Z 14
_cell_length_a 23.155712
_cell_length_b 7.173562
_cell_length_c 7.371618
_cell_angle_alpha 125.631986
_cell_angle_beta 129.583548
_cell_angle_gamma 35.770392
_cell_volume 545.760715
_symmetry_space_group_name_H-M "P -1"
_symmetry_group_IT_number 2
_symmetry_cell_setting 'triclinic'
loop_
_space_group_symop_operation_xyz
x,y,z
-x,-y,-z
loop_
_atom_site_type_symbol
_atom_site_label
_atom_site_fract_x
_atom_site_fract_y
_atom_site_fract_z
Si Si1 0.357568 0.249579 0.806325
Si Si2 0.451565 0.348921 0.343049
Si Si3 0.166170 0.105040 0.677469
Si Si4 0.891317 0.303580 0.054132
Si Si5 0.394130 0.696835 0.784016
Si Si6 0.952612 0.831864 0.175552
Si Si7 0.840359 0.355848 0.625003
O O1 0.129269 0.855545 0.939163
O O2 0.452969 0.031606 0.726418
O O3 0.369707 0.992984 0.805573
O O4 0.370942 0.436572 0.075168
O O5 0.500000 0.500000 0.500000
O O6 0.406554 0.473846 0.526343
O O7 0.108399 0.459262 0.699254
O O8 0.108292 0.125602 0.747939
O O9 0.291479 0.867357 0.795088
O O10 0.150945 0.913843 0.415037
O O11 0.820246 0.538261 0.873856
O O12 0.000000 0.000000 0.000000
O O13 0.500000 0.500000 0.000000
O O14 0.055986 0.774873 0.343729
O O15 0.746488 0.552865 0.408204
O O16 0.000000 0.500000 0.000000
#
# Coordination Sequence:
#
# PCOD9050151 Si02
#       7
#     2   2   2   2   2   2   2
#     4  10  24  48  79 115 154 215 268 330 401 473
#     4   9  22  47  79 103 156 204 267 327 393 468
#     4  12  27  47  76 114 162 205 264 325 411 472
#     4  10  24  49  76 116 154 207 265 330 400 472
#     4  11  28  47  74 120 159 209 266 334 402 482
#     4  11  24  52  80 112 160 208 265 333 400 479
#     4  11  26  45  79 118 151 207 268 330 404 480
#
# _framework density 25.652269
#
# number of rings (size 3 to 8) (size 9 to 14) (size 15 to 20)
#    0.000    1.429    2.857    0.429   10.000    6.286 
#    0.000    0.000    0.000    0.000    0.000    0.000 
#    0.000    0.000    0.000    0.000    0.000    0.000 
#
# Total GULP energy -78181.688220 kJ/mol
# GULP energy per Si atom -5584.406301 kJ/mol
# Density = 2.559388 g / cm^3
# Si number density = 25.652269 Si / 1000 Ang^3
#
#
#
# Elastic Constant Matrix: (Units=GPa)
#
#
# Indices 1 2 3 4 5 6 
#
# 1 145.5347 60.1384 56.5647 -3.9307 1.4316 -3.0034
# 2 60.1384 122.9357 76.9306 -15.4062 5.0211 -15.0629
# 3 56.5647 76.9306 160.3185 -23.1936 -1.2942 -5.0891
# 4 -3.9307 -15.4062 -23.1936 47.8495 1.7749 -0.8473
# 5 1.4316 5.0211 -1.2942 1.7749 45.0577 4.2982
# 6 -3.0034 -15.0629 -5.0891 -0.8473 4.2982 57.2015
#
#
#
# Elastic Compliance Matrix: (Units=1/GPa)
#
#
# Indices 1 2 3 4 5 6 
#
# 1 0.008941 -0.003599 -0.001625 -0.001230 0.000181 -0.000655
# 2 -0.003599 0.013685 -0.004947 0.001840 -0.001925 0.003147
# 3 -0.001625 -0.004947 0.009591 0.002883 0.000818 -0.000553
# 4 -0.001230 0.001840 0.002883 0.022847 -0.001088 0.001097
# 5 0.000181 -0.001925 0.000818 -0.001088 0.022673 -0.002145
# 6 -0.000655 0.003147 -0.000553 0.001097 -0.002145 0.018404
#
#
# Mechanical properties :
#
#
# Convention : Reuss Voigt Hill
#
# Bulk Modulus (GPa) = 84.20321 90.67295 87.43808
# Shear Modulus (GPa) = 41.51363 45.69876 43.60619
#
# Velocity S-wave (km/s) = 4.02720 4.22533 4.12745
# Velocity P-wave (km/s) = 7.38381 7.69599 7.54151
#
# Compressibility (1/GPa) = 0.01187603
#
# Stress axis : x y z
#
# Youngs Moduli (GPa) = 111.83844 73.07210 104.26728
#
# Poissons Ratio (x) = 0.26298 0.16945
# Poissons Ratio (y) = 0.40249 0.51577
# Poissons Ratio (z) = 0.18175 0.36146
#
# Static dielectric constant tensor:
#      x y z
#    x 2.031980 0.018520 0.000780 
#    y 0.018520 2.142270 0.057520 
#    z 0.000780 0.057520 2.175430 
# 
# From -- ./inp_files/351906.got.cif
#   From: 2010.05.17/outbox.cif.g08.bks.cpg/sg2_176_cif.got.tgz:351906.got - 2010.06.03 11:33:40.
