data_PCOD9050821
_publ_section_title
;
Structure prediction by ZEFSAII (Michael W. Deem and Ramdas Pophale) SiO2 
 PCOD9050821
Probable space group: P -1
;
_chemical_formula_sum "Si O2"
_cell_formula_units_Z 16
_cell_length_a 9.174792
_cell_length_b 15.299277
_cell_length_c 5.035177
_cell_angle_alpha 104.025091
_cell_angle_beta 91.845026
_cell_angle_gamma 88.590580
_cell_volume 685.248636
_symmetry_space_group_name_H-M "P -1"
_symmetry_group_IT_number 2
_symmetry_cell_setting 'triclinic'
loop_
_space_group_symop_operation_xyz
x,y,z
-x,-y,-z
loop_
_atom_site_type_symbol
_atom_site_label
_atom_site_fract_x
_atom_site_fract_y
_atom_site_fract_z
Si Si1 0.100646 0.410652 0.415080
Si Si2 0.353904 0.745540 0.765063
Si Si3 0.602719 0.367030 0.822133
Si Si4 0.968688 0.220645 0.420623
Si Si5 0.496161 0.084111 0.260872
Si Si6 0.247074 0.999991 0.458607
Si Si7 0.284888 0.437171 0.947764
Si Si8 0.013844 0.106418 0.851383
O O1 0.232416 0.425885 0.636874
O O2 0.000000 0.500000 0.500000
O O3 0.020652 0.320869 0.436241
O O4 0.165409 0.400913 0.117182
O O5 0.403113 0.668258 0.503558
O O6 0.201038 0.781256 0.666626
O O7 0.470595 0.824224 0.819580
O O8 0.331570 0.707044 0.028521
O O9 0.441928 0.389248 0.941705
O O10 0.693694 0.457786 0.908748
O O11 0.999208 0.186445 0.692808
O O12 0.040082 0.148674 0.169158
O O13 0.340981 0.078943 0.391635
O O14 0.626928 0.065810 0.464730
O O15 0.500000 0.000000 0.000000
O O16 0.143014 0.040520 0.710689
O O17 0.138125 0.947061 0.220560
#
# Coordination Sequence:
#
# PCOD9050821 Si02
#       8
#     2   2   2   2   2   2   2   2
#     4  12  25  43  68  99 136 176 217 274 331 396
#     4  12  25  44  69  99 132 174 227 269 336 390
#     4  11  25  44  71  97 133 177 216 277 327 401
#     4  12  25  43  68  99 134 172 226 274 327 399
#     4  11  25  44  68  97 137 175 227 278 332 405
#     4  10  25  44  68  98 132 180 222 275 343 393
#     4  11  24  46  67  99 136 172 223 266 337 394
#     4  11  25  45  70  97 136 178 223 278 334 397
#
# _framework density 23.349188999999999
#
# number of rings (size 3 to 8) (size 9 to 14) (size 15 to 20)
#    0.000    0.750    1.250    5.625    5.250    6.000 
#    0.000    0.000    0.000    0.000    0.000    0.000 
#    0.000    0.000    0.000    0.000    0.000    0.000 
#
# Total GULP energy -89700.449209 kJ/mol
# GULP energy per Si atom -5606.278076 kJ/mol
# Density = 2.329605 g / cm^3
# Si number density = 23.349189 Si / 1000 Ang^3
#
#
#
# Elastic Constant Matrix: (Units=GPa)
#
#
# Indices 1 2 3 4 5 6 
#
# 1 94.8413 26.5811 8.4151 -1.8430 0.8452 11.4455
# 2 26.5811 82.9379 6.1794 5.7109 3.6668 10.3905
# 3 8.4151 6.1794 65.8783 9.5158 2.2688 -3.9823
# 4 -1.8430 5.7109 9.5158 45.4941 2.9837 9.5786
# 5 0.8452 3.6668 2.2688 2.9837 20.7903 0.5045
# 6 11.4455 10.3905 -3.9823 9.5786 0.5045 20.8955
#
#
#
# Elastic Compliance Matrix: (Units=1/GPa)
#
#
# Indices 1 2 3 4 5 6 
#
# 1 0.012519 -0.003176 -0.002132 0.002818 0.000049 -0.006977
# 2 -0.003176 0.013918 -0.001078 -0.000436 -0.002021 -0.005138
# 3 -0.002132 -0.001078 0.016727 -0.004890 -0.001021 0.007158
# 4 0.002818 -0.000436 -0.004890 0.026371 -0.002942 -0.014276
# 5 0.000049 -0.002021 -0.001021 -0.002942 0.048964 0.000950
# 6 -0.006977 -0.005138 0.007158 -0.014276 0.000950 0.062120
#
#
# Mechanical properties :
#
#
# Convention : Reuss Voigt Hill
#
# Bulk Modulus (GPa) = 32.90092 36.22317 34.56205
# Shear Modulus (GPa) = 24.56732 30.93476 27.75104
#
# Velocity S-wave (km/s) = 3.24724 3.64383 3.45124
# Velocity P-wave (km/s) = 5.30856 5.76634 5.54218
#
# Compressibility (1/GPa) = 0.03039429
#
# Stress axis : x y z
#
# Youngs Moduli (GPa) = 79.87560 71.84726 59.78336
#
# Poissons Ratio (x) = 0.22816 0.12744
# Poissons Ratio (y) = 0.25365 0.06444
# Poissons Ratio (z) = 0.17028 0.07745
#
# Static dielectric constant tensor:
#      x y z
#    x 1.874630 -0.023580 -0.013280 
#    y -0.023580 1.881160 -0.007950 
#    z -0.013280 -0.007950 1.837780 
# 
# From -- ./inp_files/39974.got.cif
#   From: 2010.05.17/outbox.cif.g08.bks.cpg/sg2_20_cif.got.tgz:39974.got - 2010.06.03 11:33:40.
