data_PCOD9050411
_publ_section_title
;
Structure prediction by ZEFSAII (Michael W. Deem and Ramdas Pophale) SiO2 
 PCOD9050411
Probable space group: P -1
;
_chemical_formula_sum "Si O2"
_cell_formula_units_Z 14
_cell_length_a 13.739852
_cell_length_b 9.247853
_cell_length_c 10.011214
_cell_angle_alpha 58.971258
_cell_angle_beta 34.595318
_cell_angle_gamma 53.471101
_cell_volume 579.462034
_symmetry_space_group_name_H-M "P -1"
_symmetry_group_IT_number 2
_symmetry_cell_setting 'triclinic'
loop_
_space_group_symop_operation_xyz
x,y,z
-x,-y,-z
loop_
_atom_site_type_symbol
_atom_site_label
_atom_site_fract_x
_atom_site_fract_y
_atom_site_fract_z
Si Si1 0.167817 0.304859 0.739298
Si Si2 0.478615 0.319075 0.558252
Si Si3 0.155339 0.008968 0.717623
Si Si4 0.103638 0.043989 0.160995
Si Si5 0.658296 0.331836 0.839417
Si Si6 0.570244 0.788878 0.045991
Si Si7 0.036047 0.334864 0.321938
O O1 0.340725 0.348160 0.577465
O O2 0.003033 0.490365 0.811897
O O3 0.201422 0.183006 0.626236
O O4 0.128474 0.181855 0.957643
O O5 0.500000 0.500000 0.500000
O O6 0.670751 0.169513 0.375210
O O7 0.410622 0.242412 0.802296
O O8 0.068461 0.007979 0.670958
O O9 0.000000 0.000000 0.000000
O O10 0.064207 0.154772 0.289658
O O11 0.276699 0.859152 0.063877
O O12 0.574206 0.290538 0.815693
O O13 0.845138 0.372991 0.594536
O O14 0.500000 0.500000 0.000000
O O15 0.774829 0.696275 0.801033
O O16 0.500000 0.000000 0.000000
#
# Coordination Sequence:
#
# PCOD9050411 Si02
#       7
#     2   2   2   2   2   2   2
#     4  11  24  44  73 108 141 179 237 296 358 413
#     4  12  25  44  75 103 141 187 242 290 352 430
#     4  10  25  40  70 103 145 180 228 293 363 408
#     4  11  23  48  73 101 142 188 237 291 353 428
#     4  12  29  49  71 106 147 188 240 296 360 428
#     4  12  27  47  74 105 141 191 243 291 357 428
#     4  12  26  47  77 103 146 188 242 296 356 427
#
# _framework density 24.160340000000001
#
# number of rings (size 3 to 8) (size 9 to 14) (size 15 to 20)
#    0.000    0.571    2.857    3.857    8.000    6.286 
#    0.000    0.000    0.000    0.000    0.000    0.000 
#    0.000    0.000    0.000    0.000    0.000    0.000 
#
# Total GULP energy -78420.285639 kJ/mol
# GULP energy per Si atom -5601.448974 kJ/mol
# Density = 2.410535 g / cm^3
# Si number density = 24.160340 Si / 1000 Ang^3
#
#
#
# Elastic Constant Matrix: (Units=GPa)
#
#
# Indices 1 2 3 4 5 6 
#
# 1 91.8159 43.4235 3.5837 0.7853 -32.7348 6.1925
# 2 43.4235 183.1312 41.6516 20.7212 -10.2116 -12.0640
# 3 3.5837 41.6516 105.6415 15.5124 -18.7658 -13.3579
# 4 0.7853 20.7212 15.5124 45.9626 -6.8723 -4.5883
# 5 -32.7348 -10.2116 -18.7658 -6.8723 43.4221 1.0092
# 6 6.1925 -12.0640 -13.3579 -4.5883 1.0092 50.7052
#
#
#
# Elastic Compliance Matrix: (Units=1/GPa)
#
#
# Indices 1 2 3 4 5 6 
#
# 1 0.018336 -0.004716 0.003098 0.002682 0.014537 -0.002592
# 2 -0.004716 0.007423 -0.002809 -0.002696 -0.003483 0.001427
# 3 0.003098 -0.002809 0.012127 -0.001706 0.006603 0.001862
# 4 0.002682 -0.002696 -0.001706 0.024239 0.004471 0.000686
# 5 0.014537 -0.003483 0.006603 0.004471 0.036759 -0.001192
# 6 -0.002592 0.001427 0.001862 0.000686 -0.001192 0.020954
#
#
# Mechanical properties :
#
#
# Convention : Reuss Voigt Hill
#
# Bulk Modulus (GPa) = 34.44469 61.98957 48.21713
# Shear Modulus (GPa) = 36.13539 47.47997 41.80768
#
# Velocity S-wave (km/s) = 3.87156 4.43787 4.16435
# Velocity P-wave (km/s) = 5.85431 7.20922 6.56680
#
# Compressibility (1/GPa) = 0.02903205
#
# Stress axis : x y z
#
# Youngs Moduli (GPa) = 54.53869 134.72543 82.45847
#
# Poissons Ratio (x) = 0.63536 -0.25547
# Poissons Ratio (y) = 0.25720 0.23162
# Poissons Ratio (z) = -0.16897 0.37844
#
# Static dielectric constant tensor:
#      x y z
#    x 2.024190 -0.194260 0.157530 
#    y -0.194260 2.374770 -0.408220 
#    z 0.157530 -0.408220 2.243810 
# 
# From -- ./inp_files/223145.got.cif
#   From: 2010.05.17/outbox.cif.g08.bks.cpg/sg2_112_cif.got.tgz:223145.got - 2010.06.03 11:33:40.
