data_PCOD9050024
_publ_section_title
;
Structure prediction by ZEFSAII (Michael W. Deem and Ramdas Pophale) SiO2 
 PCOD9050024
Probable space group: P -1
;
_chemical_formula_sum "Si O2"
_cell_formula_units_Z 11
_cell_length_a 15.472905
_cell_length_b 5.673862
_cell_length_c 9.333297
_cell_angle_alpha 89.533672
_cell_angle_beta 40.080474
_cell_angle_gamma 109.251080
_cell_volume 450.047480
_symmetry_space_group_name_H-M "P -1"
_symmetry_group_IT_number 2
_symmetry_cell_setting 'triclinic'
loop_
_space_group_symop_operation_xyz
x,y,z
-x,-y,-z
loop_
_atom_site_type_symbol
_atom_site_label
_atom_site_fract_x
_atom_site_fract_y
_atom_site_fract_z
Si Si1 0.856588 0.189632 0.822882
Si Si2 0.931649 0.621484 0.969696
Si Si3 0.271600 0.983106 0.495008
Si Si4 0.325657 0.243957 0.709824
Si Si5 0.784695 0.441838 0.656531
Si Si6 0.500000 0.500000 0.000000
O O1 0.868438 0.422499 0.914498
O O2 0.789168 0.222744 0.759821
O O3 0.039786 0.292538 0.569005
O O4 0.747722 0.907398 0.045970
O O5 0.795784 0.669429 0.192816
O O6 0.089916 0.900740 0.720102
O O7 0.000000 0.500000 0.000000
O O8 0.322178 0.034573 0.596466
O O9 0.384612 0.255292 0.262396
O O10 0.268141 0.722650 0.426613
O O11 0.500000 0.500000 0.500000
O O12 0.653696 0.501891 0.868736
#
# Coordination Sequence:
#
# PCOD9050024 Si02
#       6
#     2   2   2   2   2   1
#     4  10  24  48  73 102 142 180 245 286 351 420
#     4  11  24  46  76 102 139 187 239 288 353 422
#     4  11  26  44  73 103 142 189 234 285 353 428
#     4  12  28  44  74 107 141 185 238 298 352 411
#     4  10  25  47  75 103 138 193 229 297 343 428
#     4  12  26  42  72 106 146 176 238 282 370 406
#
# _framework density 24.441863999999999
#
# number of rings (size 3 to 8) (size 9 to 14) (size 15 to 20)
#    0.000    1.091    1.818    2.182   10.182    2.182 
#    0.000    5.455    0.000    0.000    0.000    0.000 
#    0.000    0.000    0.000    0.000    0.000    0.000 
#
# Total GULP energy -61349.577386 kJ/mol
# GULP energy per Si atom -5577.234308 kJ/mol
# Density = 2.438623 g / cm^3
# Si number density = 24.441864 Si / 1000 Ang^3
#
#
#
# Elastic Constant Matrix: (Units=GPa)
#
#
# Indices 1 2 3 4 5 6 
#
# 1 201.0887 101.3778 106.7755 13.7214 -41.5020 -12.0035
# 2 101.3778 78.1743 60.2792 5.1864 -33.5105 13.8546
# 3 106.7755 60.2792 206.9708 -50.0502 -25.3596 -19.4076
# 4 13.7214 5.1864 -50.0502 35.1548 -8.6932 15.3951
# 5 -41.5020 -33.5105 -25.3596 -8.6932 54.8144 0.1500
# 6 -12.0035 13.8546 -19.4076 15.3951 0.1500 40.5302
#
#
#
# Elastic Compliance Matrix: (Units=1/GPa)
#
#
# Indices 1 2 3 4 5 6 
#
# 1 0.069009 -0.083389 -0.032172 -0.098920 -0.029497 0.071221
# 2 -0.083389 0.129168 0.027724 0.106396 0.045792 -0.096159
# 3 -0.032172 0.027724 0.028652 0.066797 0.016524 -0.030719
# 4 -0.098920 0.106396 0.066797 0.209682 0.054617 -0.113529
# 5 -0.029497 0.045792 0.016524 0.054617 0.040314 -0.037372
# 6 0.071221 -0.096159 -0.030719 -0.113529 -0.037372 0.107189
#
#
# Mechanical properties :
#
#
# Convention : Reuss Voigt Hill
#
# Bulk Modulus (GPa) = 19.54878 113.67765 66.61321
# Shear Modulus (GPa) = 6.43717 40.61997 23.52857
#
# Velocity S-wave (km/s) = 1.62462 4.08107 3.10600
# Velocity P-wave (km/s) = 3.39626 8.29561 6.33845
#
# Compressibility (1/GPa) = 0.05115410
#
# Stress axis : x y z
#
# Youngs Moduli (GPa) = 14.49079 7.74189 34.90188
#
# Poissons Ratio (x) = 0.64559 1.12286
# Poissons Ratio (y) = 1.20837 -0.96761
# Poissons Ratio (z) = 0.46620 -0.21463
#
# Static dielectric constant tensor:
#      x y z
#    x 1.901960 -0.006330 0.059510 
#    y -0.006330 1.975710 0.001350 
#    z 0.059510 0.001350 1.925110 
# 
# From -- ./inp_files/17470.got.cif
#   From: 2010.05.17/outbox.cif.g08.bks.cpg/sg2_9_cif.got.tgz:17470.got - 2010.06.03 11:33:40.
