data_PCOD9050586
_publ_section_title
;
Structure prediction by ZEFSAII (Michael W. Deem and Ramdas Pophale) SiO2 
 PCOD9050586
Probable space group: P -1
;
_chemical_formula_sum "Si O2"
_cell_formula_units_Z 16
_cell_length_a 18.571799
_cell_length_b 11.514492
_cell_length_c 16.018746
_cell_angle_alpha 134.618874
_cell_angle_beta 22.027718
_cell_angle_gamma 145.224524
_cell_volume 704.311063
_symmetry_space_group_name_H-M "P -1"
_symmetry_group_IT_number 2
_symmetry_cell_setting 'triclinic'
loop_
_space_group_symop_operation_xyz
x,y,z
-x,-y,-z
loop_
_atom_site_type_symbol
_atom_site_label
_atom_site_fract_x
_atom_site_fract_y
_atom_site_fract_z
Si Si1 0.558975 0.325407 0.413537
Si Si2 0.097238 0.282989 0.654279
Si Si3 0.664339 0.771711 0.018979
Si Si4 0.539817 0.564981 0.803660
Si Si5 0.790765 0.980469 0.510558
Si Si6 0.855309 0.757938 0.061042
Si Si7 0.451499 0.092133 0.952960
Si Si8 0.692573 0.097183 0.266739
O O1 0.801201 0.566207 0.296662
O O2 0.427279 0.218053 0.413171
O O3 0.348729 0.299821 0.681723
O O4 0.619620 0.186336 0.320588
O O5 0.251782 0.401281 0.463690
O O6 0.148105 0.119363 0.535157
O O7 0.805128 0.148375 0.889664
O O8 0.484130 0.537347 0.133072
O O9 0.552074 0.813765 0.084101
O O10 0.943005 0.859279 0.741945
O O11 0.696092 0.922040 0.133654
O O12 0.281505 0.392543 0.946637
O O13 0.567609 0.772335 0.891768
O O14 0.682096 0.094471 0.713826
O O15 0.039473 0.731374 0.893592
O O16 0.000000 0.000000 0.000000
O O17 0.500000 0.000000 0.500000
#
# Coordination Sequence:
#
# PCOD9050586 Si02
#       8
#     2   2   2   2   2   2   2   2
#     4  11  21  38  64  95 128 172 215 265 332 384
#     4  10  25  43  65  96 133 175 222 276 317 384
#     4  11  23  43  67  99 133 166 216 278 325 391
#     4  11  23  44  70  95 133 178 215 272 330 379
#     4  11  23  43  66  95 135 175 216 269 333 386
#     4  11  20  38  61  95 135 161 205 272 326 381
#     4  11  25  45  67  94 133 180 225 260 320 400
#     4  12  21  35  66 100 132 167 207 267 338 390
#
# _framework density 22.717234999999999
#
# number of rings (size 3 to 8) (size 9 to 14) (size 15 to 20)
#    0.000    1.000    5.000    1.875    0.000    3.500 
#    0.000    8.750    0.000    0.000    0.000    0.000 
#    0.000    0.000    0.000    0.000    0.000    0.000 
#
# Total GULP energy -89491.502118 kJ/mol
# GULP energy per Si atom -5593.218882 kJ/mol
# Density = 2.266553 g / cm^3
# Si number density = 22.717235 Si / 1000 Ang^3
#
#
#
# Elastic Constant Matrix: (Units=GPa)
#
#
# Indices 1 2 3 4 5 6 
#
# 1 39.2655 -7.7169 15.3657 2.1443 0.2578 -3.7378
# 2 -7.7169 52.8097 13.1321 -0.7158 0.2232 -1.2241
# 3 15.3657 13.1321 99.1959 5.7989 -12.5681 -17.4357
# 4 2.1443 -0.7158 5.7989 29.9887 -4.8109 1.3825
# 5 0.2578 0.2232 -12.5681 -4.8109 32.6226 3.9447
# 6 -3.7378 -1.2241 -17.4357 1.3825 3.9447 27.7523
#
#
#
# Elastic Compliance Matrix: (Units=1/GPa)
#
#
# Indices 1 2 3 4 5 6 
#
# 1 0.028815 0.005531 -0.005222 -0.001402 -0.002640 0.001289
# 2 0.005531 0.020725 -0.003944 0.000645 -0.001533 -0.000633
# 3 -0.005222 -0.003944 0.013266 -0.001959 0.004046 0.006980
# 4 -0.001402 0.000645 -0.001959 0.034793 0.004844 -0.003813
# 5 -0.002640 -0.001533 0.004046 0.004844 0.033304 -0.002856
# 6 0.001289 -0.000633 0.006980 -0.003813 -0.002856 0.041160
#
#
# Mechanical properties :
#
#
# Convention : Reuss Voigt Hill
#
# Bulk Modulus (GPa) = 18.00581 25.87032 21.93806
# Shear Modulus (GPa) = 25.27250 29.43873 27.35562
#
# Velocity S-wave (km/s) = 3.33901 3.60373 3.47389
# Velocity P-wave (km/s) = 4.77583 5.35990 5.07627
#
# Compressibility (1/GPa) = 0.05553762
#
# Stress axis : x y z
#
# Youngs Moduli (GPa) = 34.70452 48.24998 75.38072
#
# Poissons Ratio (x) = -0.26688 0.39361
# Poissons Ratio (y) = -0.19195 0.29728
# Poissons Ratio (z) = 0.18121 0.19028
#
# Static dielectric constant tensor:
#      x y z
#    x 1.858590 0.021540 0.018660 
#    y 0.021540 1.873380 -0.029790 
#    z 0.018660 -0.029790 1.810810 
# 
# From -- ./inp_files/315835.got.cif
#   From: 2010.05.17/outbox.cif.g08.bks.cpg/sg2_158_cif.got.tgz:315835.got - 2010.06.03 11:33:40.
