data_PCOD9050333
_publ_section_title
;
Structure prediction by ZEFSAII (Michael W. Deem and Ramdas Pophale) SiO2 
 PCOD9050333
Probable space group: P -1
;
_chemical_formula_sum "Si O2"
_cell_formula_units_Z 10
_cell_length_a 17.079146
_cell_length_b 5.104050
_cell_length_c 6.721179
_cell_angle_alpha 76.197328
_cell_angle_beta 139.304484
_cell_angle_gamma 98.366219
_cell_volume 370.420669
_symmetry_space_group_name_H-M "P -1"
_symmetry_group_IT_number 2
_symmetry_cell_setting 'triclinic'
loop_
_space_group_symop_operation_xyz
x,y,z
-x,-y,-z
loop_
_atom_site_type_symbol
_atom_site_label
_atom_site_fract_x
_atom_site_fract_y
_atom_site_fract_z
Si Si1 0.967259 0.248135 0.748215
Si Si2 0.620827 0.665582 0.847027
Si Si3 0.811011 0.470050 0.751328
Si Si4 0.779641 0.145084 0.094195
Si Si5 0.551338 0.735471 0.262450
O O1 0.870028 0.428932 0.657265
O O2 0.905353 0.144606 0.451129
O O3 0.088108 0.405210 0.936389
O O4 0.000000 0.000000 0.000000
O O5 0.687387 0.646878 0.480004
O O6 0.555705 0.788261 0.500955
O O7 0.529820 0.527604 0.846155
O O8 0.704057 0.412278 0.973191
O O9 0.789545 0.185201 0.868804
O O10 0.705085 0.890278 0.047609
O O11 0.500000 0.000000 0.000000
#
# Coordination Sequence:
#
# PCOD9050333 Si02
#       5
#     2   2   2   2   2
#     4  11  27  47  77 112 152 199 269 315 380 469
#     4  10  26  48  78 119 152 204 260 313 396 471
#     4  10  26  49  76 114 150 209 260 312 395 459
#     4  11  26  50  78 111 162 197 251 333 387 454
#     4  10  24  50  82 112 158 204 256 320 388 464
#
# _framework density 26.996333
#
# number of rings (size 3 to 8) (size 9 to 14) (size 15 to 20)
#    0.000    1.600    0.000    0.600   14.000    8.000 
#    0.000    9.000    0.000    0.000    0.000    0.000 
#    0.000    0.000    0.000    0.000    0.000    0.000 
#
# Total GULP energy -56152.023446 kJ/mol
# GULP energy per Si atom -5615.202345 kJ/mol
# Density = 2.693489 g / cm^3
# Si number density = 26.996333 Si / 1000 Ang^3
#
#
#
# Elastic Constant Matrix: (Units=GPa)
#
#
# Indices 1 2 3 4 5 6 
#
# 1 178.1442 67.2936 63.1108 -11.2659 26.0182 15.1143
# 2 67.2936 173.7188 84.0578 -7.9086 7.2407 29.1405
# 3 63.1108 84.0578 187.0512 -19.5405 10.0034 22.2673
# 4 -11.2659 -7.9086 -19.5405 58.7942 9.3018 1.0085
# 5 26.0182 7.2407 10.0034 9.3018 34.7452 -5.0870
# 6 15.1143 29.1405 22.2673 1.0085 -5.0870 54.4995
#
#
#
# Elastic Compliance Matrix: (Units=1/GPa)
#
#
# Indices 1 2 3 4 5 6 
#
# 1 0.007810 -0.001957 -0.001111 0.001800 -0.005784 -0.001239
# 2 -0.001957 0.008300 -0.002769 -0.000159 0.000174 -0.002745
# 3 -0.001111 -0.002769 0.007442 0.002153 -0.001520 -0.001434
# 4 0.001800 -0.000159 0.002153 0.019264 -0.007436 -0.002345
# 5 -0.005784 0.000174 -0.001520 -0.007436 0.036333 0.005661
# 6 -0.001239 -0.002745 -0.001434 -0.002345 0.005661 0.021318
#
#
# Mechanical properties :
#
#
# Convention : Reuss Voigt Hill
#
# Bulk Modulus (GPa) = 84.18133 107.53761 95.85947
# Shear Modulus (GPa) = 43.06616 51.23791 47.15204
#
# Velocity S-wave (km/s) = 3.99840 4.36128 4.18378
# Velocity P-wave (km/s) = 7.25028 8.07971 7.67620
#
# Compressibility (1/GPa) = 0.01187912
#
# Stress axis : x y z
#
# Youngs Moduli (GPa) = 128.04220 120.47817 134.37068
#
# Poissons Ratio (x) = 0.23578 0.14925
# Poissons Ratio (y) = 0.25058 0.37205
# Poissons Ratio (z) = 0.14222 0.33359
#
# Static dielectric constant tensor:
#      x y z
#    x 2.166940 -0.023560 -0.062480 
#    y -0.023560 2.096370 0.050240 
#    z -0.062480 0.050240 2.142150 
# 
# From -- ./inp_files/3962.got.cif
#   From: 2010.05.17/outbox.cif.g08.bks.cpg/sg2_2_cif.got.tgz:3962.got - 2010.06.03 11:33:40.
