data_PCOD9050935
_publ_section_title
;
Structure prediction by ZEFSAII (Michael W. Deem and Ramdas Pophale) SiO2 
 PCOD9050935
Probable space group: P -1
;
_chemical_formula_sum "Si O2"
_cell_formula_units_Z 14
_cell_length_a 11.906197
_cell_length_b 7.886628
_cell_length_c 7.780966
_cell_angle_alpha 57.423789
_cell_angle_beta 103.158092
_cell_angle_gamma 82.958041
_cell_volume 572.136382
_symmetry_space_group_name_H-M "P -1"
_symmetry_group_IT_number 2
_symmetry_cell_setting 'triclinic'
loop_
_space_group_symop_operation_xyz
x,y,z
-x,-y,-z
loop_
_atom_site_type_symbol
_atom_site_label
_atom_site_fract_x
_atom_site_fract_y
_atom_site_fract_z
Si Si1 0.348223 0.359584 0.955480
Si Si2 0.297478 0.003860 0.905549
Si Si3 0.030498 0.006698 0.715279
Si Si4 0.694205 0.673887 0.493236
Si Si5 0.874498 0.441530 0.384426
Si Si6 0.445126 0.519511 0.231016
Si Si7 0.059945 0.570969 0.142723
O O1 0.327859 0.137395 0.005776
O O2 0.216333 0.535389 0.820985
O O3 0.431333 0.439840 0.805892
O O4 0.412898 0.374337 0.148878
O O5 0.351993 0.083004 0.710608
O O6 0.157240 0.049423 0.777440
O O7 0.353027 0.755649 0.081879
O O8 0.921689 0.212872 0.608107
O O9 0.037502 0.813397 0.950188
O O10 0.000000 0.000000 0.500000
O O11 0.776992 0.576939 0.409784
O O12 0.581659 0.597530 0.546254
O O13 0.801711 0.578262 0.718841
O O14 0.983652 0.520367 0.305754
O O15 0.000000 0.500000 0.000000
#
# Coordination Sequence:
#
# PCOD9050935 Si02
#       7
#     2   2   2   2   2   2   2
#     4  10  25  44  72  99 134 184 232 289 333 410
#     4  11  23  43  71 101 136 177 236 279 341 412
#     4  12  23  40  69 101 136 183 224 276 351 409
#     4  11  24  41  66  99 135 181 223 283 339 409
#     4  11  24  40  62 101 140 171 228 279 337 413
#     4  11  23  49  70  96 139 182 233 287 344 389
#     4  12  22  39  64  94 135 176 222 277 338 407
#
# _framework density 24.469687
#
# number of rings (size 3 to 8) (size 9 to 14) (size 15 to 20)
#    0.000    0.857    4.286    2.571    2.000    5.143 
#    0.000    7.143    0.000    0.000    0.000    0.000 
#    0.000    0.000    0.000    0.000    0.000    0.000 
#
# Total GULP energy -78043.282212 kJ/mol
# GULP energy per Si atom -5574.520158 kJ/mol
# Density = 2.441399 g / cm^3
# Si number density = 24.469687 Si / 1000 Ang^3
#
#
#
# Elastic Constant Matrix: (Units=GPa)
#
#
# Indices 1 2 3 4 5 6 
#
# 1 96.0666 14.6710 -17.2386 14.7629 -15.6344 20.1730
# 2 14.6710 102.6221 25.9471 5.1710 -3.6462 27.2213
# 3 -17.2386 25.9471 89.9698 -3.9404 -31.6962 4.6686
# 4 14.7629 5.1710 -3.9404 41.6041 0.8949 1.5120
# 5 -15.6344 -3.6462 -31.6962 0.8949 53.2960 3.0682
# 6 20.1730 27.2213 4.6686 1.5120 3.0682 34.8534
#
#
#
# Elastic Compliance Matrix: (Units=1/GPa)
#
#
# Indices 1 2 3 4 5 6 
#
# 1 0.016282 -0.000765 0.007049 -0.004843 0.009597 -0.010406
# 2 -0.000765 0.013355 -0.003969 -0.001403 -0.001112 -0.009297
# 3 0.007049 -0.003969 0.018418 -0.000377 0.013020 -0.004577
# 4 -0.004843 -0.001403 -0.000377 0.025833 -0.002350 0.003035
# 5 0.009597 -0.001112 0.013020 -0.002350 0.029800 -0.008951
# 6 -0.010406 -0.009297 -0.004577 0.003035 -0.008951 0.043245
#
#
# Mechanical properties :
#
#
# Convention : Reuss Voigt Hill
#
# Bulk Modulus (GPa) = 18.98050 37.26863 28.12457
# Shear Modulus (GPa) = 31.27649 43.63596 37.45623
#
# Velocity S-wave (km/s) = 3.57903 4.22745 3.91669
# Velocity P-wave (km/s) = 4.98527 6.25237 5.65442
#
# Compressibility (1/GPa) = 0.05268564
#
# Stress axis : x y z
#
# Youngs Moduli (GPa) = 61.41615 74.88045 54.29511
#
# Poissons Ratio (x) = 0.05727 -0.38273
# Poissons Ratio (y) = 0.04697 0.21549
# Poissons Ratio (z) = -0.43293 0.29719
#
# Static dielectric constant tensor:
#      x y z
#    x 2.009570 0.021230 0.039160 
#    y 0.021230 1.596080 0.741780 
#    z 0.039160 0.741780 1.228480 
# 
# From -- ./inp_files/187322.got.cif
#   From: 2010.05.17/outbox.cif.g08.bks.cpg/sg2_94_cif.got.tgz:187322.got - 2010.06.03 11:33:40.
