data_PCOD9050651
_publ_section_title
;
Structure prediction by ZEFSAII (Michael W. Deem and Ramdas Pophale) SiO2 
 PCOD9050651
Probable space group: P -1
;
_chemical_formula_sum "Si O2"
_cell_formula_units_Z 16
_cell_length_a 26.083575
_cell_length_b 9.272096
_cell_length_c 11.707224
_cell_angle_alpha 42.372493
_cell_angle_beta 152.083345
_cell_angle_gamma 145.652555
_cell_volume 747.469815
_symmetry_space_group_name_H-M "P -1"
_symmetry_group_IT_number 2
_symmetry_cell_setting 'triclinic'
loop_
_space_group_symop_operation_xyz
x,y,z
-x,-y,-z
loop_
_atom_site_type_symbol
_atom_site_label
_atom_site_fract_x
_atom_site_fract_y
_atom_site_fract_z
Si Si1 0.005712 0.470199 0.394471
Si Si2 0.781287 0.358724 0.860008
Si Si3 0.654713 0.678235 0.208979
Si Si4 0.833385 0.089650 0.723883
Si Si5 0.356917 0.342040 0.549507
Si Si6 0.347198 0.180398 0.127858
Si Si7 0.904876 0.918363 0.179202
Si Si8 0.856078 0.523931 0.673545
O O1 0.063313 0.291243 0.602311
O O2 0.000000 0.500000 0.500000
O O3 0.087667 0.739877 0.330585
O O4 0.863403 0.342660 0.132703
O O5 0.724853 0.524557 0.690847
O O6 0.882584 0.483525 0.880155
O O7 0.665363 0.089534 0.735974
O O8 0.677857 0.793806 0.314018
O O9 0.727999 0.531347 0.432059
O O10 0.500000 0.500000 0.000000
O O11 0.691233 0.820541 0.078451
O O12 0.695009 0.861087 0.535223
O O13 0.826597 0.289300 0.675485
O O14 0.892283 0.960824 0.993709
O O15 0.510328 0.568798 0.713699
O O16 0.232953 0.157873 0.993347
O O17 0.024513 0.197519 0.293498
#
# Coordination Sequence:
#
# PCOD9050651 Si02
#       8
#     2   2   2   2   2   2   2   2
#     4  12  28  42  70 106 137 179 224 283 354 408
#     4  11  22  43  72  99 133 181 233 276 335 413
#     4   9  21  42  67  96 133 178 227 278 328 403
#     4  12  25  46  65 105 143 173 225 287 350 395
#     4  10  25  43  69  96 141 182 220 291 341 393
#     4  11  22  43  70 100 130 180 243 268 334 416
#     4  12  25  45  72 100 139 180 227 286 335 408
#     4  11  22  44  71 101 135 182 225 282 343 401
#
# _framework density 21.405546000000001
#
# number of rings (size 3 to 8) (size 9 to 14) (size 15 to 20)
#    0.000    1.000    2.500    3.750    5.250    3.000 
#    0.000    5.625    0.000    0.000    0.000    0.000 
#    0.000    0.000    0.000    0.000    0.000    0.000 
#
# Total GULP energy -89306.149874 kJ/mol
# GULP energy per Si atom -5581.634367 kJ/mol
# Density = 2.135683 g / cm^3
# Si number density = 21.405546 Si / 1000 Ang^3
#
#
#
# Elastic Constant Matrix: (Units=GPa)
#
#
# Indices 1 2 3 4 5 6 
#
# 1 115.9257 34.1682 110.5938 -29.5248 -25.3484 -40.7245
# 2 34.1682 126.1288 -61.5853 91.1386 21.6042 84.2414
# 3 110.5938 -61.5853 905.5342 -485.1090 -222.8700 -586.6335
# 4 -29.5248 91.1386 -485.1090 346.4536 135.3492 357.0712
# 5 -25.3484 21.6042 -222.8700 135.3492 92.3844 149.9818
# 6 -40.7245 84.2414 -586.6335 357.0712 149.9818 463.5315
#
#
#
# Elastic Compliance Matrix: (Units=1/GPa)
#
#
# Indices 1 2 3 4 5 6 
#
# 1 0.011919 -0.002630 -0.003694 -0.001270 0.000758 -0.002417
# 2 -0.002630 0.013305 -0.003897 -0.006968 0.001196 -0.002601
# 3 -0.003694 -0.003897 0.010418 0.005281 0.003939 0.008226
# 4 -0.001270 -0.006968 0.005281 0.020924 -0.006724 -0.006105
# 5 0.000758 0.001196 0.003939 -0.006724 0.029173 0.000574
# 6 -0.002417 -0.002601 0.008226 -0.006105 0.000574 0.017345
#
#
# Mechanical properties :
#
#
# Convention : Reuss Voigt Hill
#
# Bulk Modulus (GPa) = 65.79536 145.99358 105.89447
# Shear Modulus (GPa) = 38.88211 251.43470 145.15841
#
# Velocity S-wave (km/s) = 4.26661 10.84977 8.24383
# Velocity P-wave (km/s) = 7.42133 15.01027 11.84028
#
# Compressibility (1/GPa) = 0.01519864
#
# Stress axis : x y z
#
# Youngs Moduli (GPa) = 83.89969 75.15908 95.98854
#
# Poissons Ratio (x) = 0.19770 0.35459
# Poissons Ratio (y) = 0.22070 0.37408
# Poissons Ratio (z) = 0.30994 0.29290
#
# Static dielectric constant tensor:
#      x y z
#    x 1.799960 0.065560 -0.055280 
#    y 0.065560 1.819920 -0.030290 
#    z -0.055280 -0.030290 1.778510 
# 
# From -- ./inp_files/306217.got.cif
#   From: 2010.05.17/outbox.cif.g08.bks.cpg/sg2_154_cif.got.tgz:306217.got - 2010.06.03 11:33:40.
