data_PCOD9050916
_publ_section_title
;
Structure prediction by ZEFSAII (Michael W. Deem and Ramdas Pophale) SiO2 
 PCOD9050916
Probable space group: P -1
;
_chemical_formula_sum "Si O2"
_cell_formula_units_Z 14
_cell_length_a 8.593454
_cell_length_b 10.528310
_cell_length_c 10.838925
_cell_angle_alpha 56.084165
_cell_angle_beta 111.998375
_cell_angle_gamma 135.148889
_cell_volume 573.575340
_symmetry_space_group_name_H-M "P -1"
_symmetry_group_IT_number 2
_symmetry_cell_setting 'triclinic'
loop_
_space_group_symop_operation_xyz
x,y,z
-x,-y,-z
loop_
_atom_site_type_symbol
_atom_site_label
_atom_site_fract_x
_atom_site_fract_y
_atom_site_fract_z
Si Si1 0.356925 0.180673 0.250670
Si Si2 0.528925 0.229222 0.534493
Si Si3 0.704608 0.213989 0.217911
Si Si4 0.128143 0.542802 0.295853
Si Si5 0.237697 0.851001 0.983094
Si Si6 0.092831 0.099990 0.838331
Si Si7 0.432145 0.480371 0.282589
O O1 0.482106 0.175800 0.405406
O O2 0.524509 0.242547 0.157026
O O3 0.337215 0.343672 0.204047
O O4 0.119133 0.971304 0.263369
O O5 0.772333 0.391235 0.574088
O O6 0.417867 0.331791 0.458225
O O7 0.419951 0.022139 0.682091
O O8 0.890305 0.333144 0.312860
O O9 0.815545 0.278189 0.083149
O O10 0.124980 0.709948 0.145316
O O11 0.301631 0.545641 0.263688
O O12 0.500000 0.000000 0.000000
O O13 0.168186 0.982417 0.870164
O O14 0.310759 0.332780 0.770738
O O15 0.000000 0.000000 0.000000
#
# Coordination Sequence:
#
# PCOD9050916 Si02
#       7
#     2   2   2   2   2   2   2
#     4  10  27  44  67 106 137 179 231 275 350 401
#     4  10  25  44  72 101 141 177 234 282 339 410
#     4  12  25  45  71 101 143 183 226 286 337 414
#     4  12  25  45  74 100 140 182 232 283 342 404
#     4  12  24  46  70 104 136 180 236 277 345 403
#     4  12  26  47  74  98 143 180 224 293 339 409
#     4  10  25  45  67 106 133 180 230 279 343 406
#
# _framework density 24.408301999999999
#
# number of rings (size 3 to 8) (size 9 to 14) (size 15 to 20)
#    0.857    0.000    2.857    3.000    4.000    1.714 
#    0.000    0.000    0.000    0.000    0.000    0.000 
#    0.000    0.000    0.000    0.000    0.000    0.000 
#
# Total GULP energy -78235.608511 kJ/mol
# GULP energy per Si atom -5588.257751 kJ/mol
# Density = 2.435275 g / cm^3
# Si number density = 24.408302 Si / 1000 Ang^3
#
#
#
# Elastic Constant Matrix: (Units=GPa)
#
#
# Indices 1 2 3 4 5 6 
#
# 1 63.3862 28.1856 0.5150 -0.8941 -5.7631 11.5588
# 2 28.1856 153.1101 12.3153 6.9207 3.3084 25.4068
# 3 0.5150 12.3153 48.9613 5.9407 8.7740 -3.8682
# 4 -0.8941 6.9207 5.9407 35.6430 -2.3683 7.7602
# 5 -5.7631 3.3084 8.7740 -2.3683 21.9427 -3.0623
# 6 11.5588 25.4068 -3.8682 7.7602 -3.0623 31.0914
#
#
#
# Elastic Compliance Matrix: (Units=1/GPa)
#
#
# Indices 1 2 3 4 5 6 
#
# 1 0.018405 -0.002714 -0.001164 0.002601 0.005306 -0.004896
# 2 -0.002714 0.008282 -0.002181 -0.000093 -0.001965 -0.006200
# 3 -0.001164 -0.002181 0.023745 -0.005399 -0.009272 0.005604
# 4 0.002601 -0.000093 -0.005399 0.031305 0.004995 -0.008884
# 5 0.005306 -0.001965 -0.009272 0.004995 0.051836 0.002338
# 6 -0.004896 -0.006200 0.005604 -0.008884 0.002338 0.042195
#
#
# Mechanical properties :
#
#
# Convention : Reuss Voigt Hill
#
# Bulk Modulus (GPa) = 26.10137 38.60994 32.35565
# Shear Modulus (GPa) = 24.91818 32.69820 28.80819
#
# Velocity S-wave (km/s) = 3.19860 3.66407 3.43922
# Velocity P-wave (km/s) = 4.93541 5.80976 5.39034
#
# Compressibility (1/GPa) = 0.03831217
#
# Stress axis : x y z
#
# Youngs Moduli (GPa) = 54.33431 120.74610 42.11488
#
# Poissons Ratio (x) = 0.32773 0.04903
# Poissons Ratio (y) = 0.14748 0.09185
# Poissons Ratio (z) = 0.06325 0.26335
#
# Static dielectric constant tensor:
#      x y z
#    x 1.946780 -0.034550 -0.043480 
#    y -0.034550 1.918480 0.038910 
#    z -0.043480 0.038910 1.960180 
# 
# From -- ./inp_files/341038.got.cif
#   From: 2010.05.17/outbox.cif.g08.bks.cpg/sg2_171_cif.got.tgz:341038.got - 2010.06.03 11:33:40.
