data_PCOD9050648
_publ_section_title
;
Structure prediction by ZEFSAII (Michael W. Deem and Ramdas Pophale) SiO2 
 PCOD9050648
Probable space group: P -1
;
_chemical_formula_sum "Si O2"
_cell_formula_units_Z 16
_cell_length_a 8.775947
_cell_length_b 9.028197
_cell_length_c 15.960414
_cell_angle_alpha 139.165847
_cell_angle_beta 104.622266
_cell_angle_gamma 75.148329
_cell_volume 795.803663
_symmetry_space_group_name_H-M "P -1"
_symmetry_group_IT_number 2
_symmetry_cell_setting 'triclinic'
loop_
_space_group_symop_operation_xyz
x,y,z
-x,-y,-z
loop_
_atom_site_type_symbol
_atom_site_label
_atom_site_fract_x
_atom_site_fract_y
_atom_site_fract_z
Si Si1 0.123544 0.901641 0.405171
Si Si2 0.388239 0.522838 0.355696
Si Si3 0.471375 0.741181 0.897738
Si Si4 0.389859 0.110086 0.455239
Si Si5 0.655195 0.938470 0.760081
Si Si6 0.600724 0.695501 0.063275
Si Si7 0.950365 0.605986 0.128889
Si Si8 0.136994 0.823519 0.980290
O O1 0.243542 0.699122 0.376888
O O2 0.045159 0.791854 0.266619
O O3 0.220255 0.108206 0.475109
O O4 0.000000 0.000000 0.500000
O O5 0.482190 0.396568 0.237439
O O6 0.521121 0.677577 0.472737
O O7 0.333134 0.327600 0.325634
O O8 0.291853 0.747414 0.911245
O O9 0.600763 0.647343 0.944338
O O10 0.500000 0.000000 0.000000
O O11 0.361628 0.996890 0.312546
O O12 0.500000 0.000000 0.500000
O O13 0.496475 0.061430 0.832126
O O14 0.792411 0.060696 0.878111
O O15 0.767532 0.697385 0.129950
O O16 0.500000 0.500000 0.000000
O O17 0.946919 0.396148 0.101540
O O18 0.000000 0.500000 0.000000
O O19 0.000000 0.000000 0.000000
#
# Coordination Sequence:
#
# PCOD9050648 Si02
#       8
#     2   2   2   2   2   2   2   2
#     4  11  27  45  65  98 134 180 228 279 339 399
#     4  11  23  44  72  91 134 179 227 273 332 410
#     4  11  22  42  66 103 131 173 222 275 341 404
#     4  10  25  43  69  89 127 177 230 273 325 394
#     4  11  22  44  67 102 129 172 226 276 328 407
#     4  11  23  38  68  98 135 168 225 271 332 405
#     4  12  25  40  66  97 136 176 217 284 341 394
#     4  11  24  40  68 100 140 171 214 278 345 402
#
# _framework density 20.105461999999999
#
# number of rings (size 3 to 8) (size 9 to 14) (size 15 to 20)
#    0.000    1.000    5.000    2.625   10.500    0.000 
#    0.000    0.625    0.000    0.000    0.000    0.000 
#    0.000    0.000    0.000    0.000    0.000    0.000 
#
# Total GULP energy -89171.063568 kJ/mol
# GULP energy per Si atom -5573.191473 kJ/mol
# Density = 2.005970 g / cm^3
# Si number density = 20.105462 Si / 1000 Ang^3
#
#
#
# Elastic Constant Matrix: (Units=GPa)
#
#
# Indices 1 2 3 4 5 6 
#
# 1 84.6873 6.3795 34.9186 -3.1248 3.8131 -5.5204
# 2 6.3795 64.4646 6.6965 -7.8908 1.5576 -15.5854
# 3 34.9186 6.6965 81.0441 -19.5920 0.1457 -12.8660
# 4 -3.1248 -7.8908 -19.5920 39.7876 5.3296 1.4268
# 5 3.8131 1.5576 0.1457 5.3296 37.7660 -1.8367
# 6 -5.5204 -15.5854 -12.8660 1.4268 -1.8367 39.3360
#
#
#
# Elastic Compliance Matrix: (Units=1/GPa)
#
#
# Indices 1 2 3 4 5 6 
#
# 1 0.014651 -0.001137 -0.006865 -0.002284 -0.001113 -0.000609
# 2 -0.001137 0.017698 0.001063 0.003801 -0.000814 0.007024
# 3 -0.006865 0.001063 0.018047 0.008426 -0.000364 0.005038
# 4 -0.002284 0.003801 0.008426 0.030312 -0.004107 0.002650
# 5 -0.001113 -0.000814 -0.000364 -0.004107 0.027246 0.000823
# 6 -0.000609 0.007024 0.005038 0.002650 0.000823 0.029710
#
#
# Mechanical properties :
#
#
# Convention : Reuss Voigt Hill
#
# Bulk Modulus (GPa) = 27.38478 36.24278 31.81378
# Shear Modulus (GPa) = 30.54122 35.52467 33.03294
#
# Velocity S-wave (km/s) = 3.90173 4.20803 4.05777
# Velocity P-wave (km/s) = 5.82650 6.45566 6.14913
#
# Compressibility (1/GPa) = 0.03651664
#
# Stress axis : x y z
#
# Youngs Moduli (GPa) = 68.25625 56.50474 55.41222
#
# Poissons Ratio (x) = 0.06423 0.38043
# Poissons Ratio (y) = 0.07758 -0.05890
# Poissons Ratio (z) = 0.46861 -0.06006
#
# Static dielectric constant tensor:
#      x y z
#    x 1.719190 0.051400 0.004410 
#    y 0.051400 1.615050 -0.024060 
#    z 0.004410 -0.024060 1.796440 
# 
# From -- ./inp_files/397466.got.cif
#   From: 2010.05.17/outbox.cif.g08.bks.cpg/sg2_199_cif.got.tgz:397466.got - 2010.06.03 11:33:40.
