data_PCOD9050033
_publ_section_title
;
Structure prediction by ZEFSAII (Michael W. Deem and Ramdas Pophale) SiO2 
 PCOD9050033
Probable space group: P -1
;
_chemical_formula_sum "Si O2"
_cell_formula_units_Z 13
_cell_length_a 5.135897
_cell_length_b 9.517175
_cell_length_c 12.185098
_cell_angle_alpha 64.783474
_cell_angle_beta 110.963372
_cell_angle_gamma 102.186663
_cell_volume 501.959087
_symmetry_space_group_name_H-M "P -1"
_symmetry_group_IT_number 2
_symmetry_cell_setting 'triclinic'
loop_
_space_group_symop_operation_xyz
x,y,z
-x,-y,-z
loop_
_atom_site_type_symbol
_atom_site_label
_atom_site_fract_x
_atom_site_fract_y
_atom_site_fract_z
Si Si1 0.098013 0.675534 0.988458
Si Si2 0.728641 0.820786 0.052556
Si Si3 0.958750 0.140490 0.296956
Si Si4 0.521348 0.923017 0.206924
Si Si5 0.639106 0.612244 0.393162
Si Si6 0.500000 0.000000 0.500000
Si Si7 0.198909 0.673263 0.588425
O O1 0.990456 0.787107 0.839141
O O2 0.960223 0.723571 0.065327
O O3 0.000000 0.500000 0.000000
O O4 0.429778 0.720384 0.028806
O O5 0.744785 0.879140 0.160826
O O6 0.692573 0.976680 0.922818
O O7 0.180084 0.024353 0.407399
O O8 0.919110 0.279220 0.328153
O O9 0.664168 0.033647 0.284891
O O10 0.447526 0.754634 0.299931
O O11 0.500000 0.500000 0.500000
O O12 0.684859 0.497707 0.336699
O O13 0.943328 0.670645 0.464941
O O14 0.563760 0.192972 0.447874
#
# Coordination Sequence:
#
# PCOD9050033 Si02
#       7
#     2   2   2   2   2   1   2
#     4  11  26  47  76 111 153 190 256 312 384 448
#     4  10  25  48  75 112 144 204 251 310 382 449
#     4  11  26  43  73 108 142 201 244 312 375 454
#     4  10  24  48  73 106 151 191 257 306 378 456
#     4  11  25  47  69 104 149 193 242 309 376 445
#     4  12  24  44  74  98 154 186 252 306 366 462
#     4  11  26  43  67 110 141 192 247 298 382 443
#
# _framework density 25.898524999999999
#
# number of rings (size 3 to 8) (size 9 to 14) (size 15 to 20)
#    0.000    1.231    1.538    1.846    8.615    8.000 
#    5.538    0.000    0.000    0.000    0.000    0.000 
#    0.000    0.000    0.000    0.000    0.000    0.000 
#
# Total GULP energy -72685.913874 kJ/mol
# GULP energy per Si atom -5591.224144 kJ/mol
# Density = 2.583958 g / cm^3
# Si number density = 25.898525 Si / 1000 Ang^3
#
#
#
# Elastic Constant Matrix: (Units=GPa)
#
#
# Indices 1 2 3 4 5 6 
#
# 1 89.8961 33.2635 11.0393 0.5052 -0.2382 3.9370
# 2 33.2635 183.2399 25.5846 5.0144 -4.7416 6.9274
# 3 11.0393 25.5846 73.3722 -3.0802 4.6573 -2.8705
# 4 0.5052 5.0144 -3.0802 42.5102 2.0597 -13.1791
# 5 -0.2382 -4.7416 4.6573 2.0597 29.6747 7.3233
# 6 3.9370 6.9274 -2.8705 -13.1791 7.3233 42.7641
#
#
#
# Elastic Compliance Matrix: (Units=1/GPa)
#
#
# Indices 1 2 3 4 5 6 
#
# 1 0.012045 -0.001966 -0.001195 -0.000323 0.000242 -0.001012
# 2 -0.001966 0.006269 -0.002141 -0.001508 0.001861 -0.001762
# 3 -0.001195 -0.002141 0.014992 0.002398 -0.003565 0.002813
# 4 -0.000323 -0.001508 0.002398 0.027098 -0.004875 0.009621
# 5 0.000242 0.001861 -0.003565 -0.004875 0.036968 -0.008396
# 6 -0.001012 -0.001762 0.002813 0.009621 -0.008396 0.028354
#
#
# Mechanical properties :
#
#
# Convention : Reuss Voigt Hill
#
# Bulk Modulus (GPa) = 44.04780 54.03144 49.03962
# Shear Modulus (GPa) = 34.74679 41.43121 38.08900
#
# Velocity S-wave (km/s) = 3.66683 4.00403 3.83913
# Velocity P-wave (km/s) = 5.91374 6.50264 6.21517
#
# Compressibility (1/GPa) = 0.02270261
#
# Stress axis : x y z
#
# Youngs Moduli (GPa) = 83.02161 159.51128 66.70078
#
# Poissons Ratio (x) = 0.31365 0.07972
# Poissons Ratio (y) = 0.16325 0.14277
# Poissons Ratio (z) = 0.09922 0.34144
#
# Static dielectric constant tensor:
#      x y z
#    x 2.427510 0.112030 -0.701050 
#    y 0.112030 2.015950 -0.161780 
#    z -0.701050 -0.161780 3.287210 
# 
# From -- ./inp_files/105649.got.cif
#   From: 2010.05.17/outbox.cif.g08.bks.cpg/sg2_53_cif.got.tgz:105649.got - 2010.06.03 11:33:40.
