data_PCOD9050022
_publ_section_title
;
Structure prediction by ZEFSAII (Michael W. Deem and Ramdas Pophale) SiO2 
 PCOD9050022
Probable space group: P -1
;
_chemical_formula_sum "Si O2"
_cell_formula_units_Z 14
_cell_length_a 8.162575
_cell_length_b 15.961595
_cell_length_c 14.690909
_cell_angle_alpha 153.868423
_cell_angle_beta 137.005436
_cell_angle_gamma 39.137783
_cell_volume 527.846847
_symmetry_space_group_name_H-M "P -1"
_symmetry_group_IT_number 2
_symmetry_cell_setting 'triclinic'
loop_
_space_group_symop_operation_xyz
x,y,z
-x,-y,-z
loop_
_atom_site_type_symbol
_atom_site_label
_atom_site_fract_x
_atom_site_fract_y
_atom_site_fract_z
Si Si1 0.414677 0.802265 0.091621
Si Si2 0.016002 0.267949 0.680874
Si Si3 0.703365 0.812670 0.663593
Si Si4 0.266345 0.353524 0.181467
Si Si5 0.239700 0.549109 0.543857
Si Si6 0.615046 0.326727 0.729366
Si Si7 0.955333 0.086917 0.790159
O O1 0.683910 0.779951 0.226959
O O2 0.162528 0.921182 0.167443
O O3 0.381204 0.941912 0.124114
O O4 0.451706 0.565259 0.870268
O O5 0.872268 0.505182 0.822992
O O6 0.874374 0.245653 0.693183
O O7 0.989229 0.116036 0.444811
O O8 0.627007 0.676639 0.573282
O O9 0.561637 0.789926 0.491048
O O10 0.011678 0.694450 0.658201
O O11 0.133950 0.491297 0.351228
O O12 0.557548 0.347510 0.295624
O O13 0.199051 0.153344 0.960542
O O14 0.719854 0.269560 0.818001
#
# Coordination Sequence:
#
# PCOD9050022 Si02
#       7
#     2   2   2   2   2   2   2
#     4  12  26  43  73 112 143 183 230 295 364 420
#     4  12  25  43  72 111 145 180 228 299 363 416
#     4  11  24  47  72 101 146 180 246 282 355 416
#     4  11  24  47  72 101 146 180 246 282 355 416
#     4  10  24  48  72  98 142 202 226 300 328 424
#     4  12  25  43  72 111 145 180 228 299 363 416
#     4  12  26  43  73 112 143 183 230 295 364 420
#
# _framework density 26.522846999999999
#
# number of rings (size 3 to 8) (size 9 to 14) (size 15 to 20)
#    0.000    0.571    4.286    3.429    2.000    0.000 
#    0.000   15.714    0.000    0.000    0.000    0.000 
#    0.000    0.000    0.000    0.000    0.000    0.000 
#
# Total GULP energy -78534.498368 kJ/mol
# GULP energy per Si atom -5609.607026 kJ/mol
# Density = 2.646248 g / cm^3
# Si number density = 26.522847 Si / 1000 Ang^3
#
#
#
# Elastic Constant Matrix: (Units=GPa)
#
#
# Indices 1 2 3 4 5 6 
#
# 1 96.7670 -8.5816 16.5370 -6.5441 15.0209 -9.8048
# 2 -8.5816 51.4412 4.6825 4.4607 14.2445 12.2190
# 3 16.5370 4.6825 127.8438 0.4830 11.6955 -2.3630
# 4 -6.5441 4.4607 0.4830 39.9985 -4.2572 7.4530
# 5 15.0209 14.2445 11.6955 -4.2572 38.1469 -3.2041
# 6 -9.8048 12.2190 -2.3630 7.4530 -3.2041 35.2083
#
#
#
# Elastic Compliance Matrix: (Units=1/GPa)
#
#
# Indices 1 2 3 4 5 6 
#
# 1 0.011824 0.003110 -0.001138 0.000763 -0.005257 0.001497
# 2 0.003110 0.025402 -0.000431 -0.001939 -0.011518 -0.008616
# 3 -0.001138 -0.000431 0.008169 -0.000500 -0.001925 0.000312
# 4 0.000763 -0.001939 -0.000500 0.026518 0.003161 -0.004474
# 5 -0.005257 -0.011518 -0.001925 0.003161 0.033934 0.004823
# 6 0.001497 -0.008616 0.000312 -0.004474 0.004823 0.033216
#
#
# Mechanical properties :
#
#
# Convention : Reuss Voigt Hill
#
# Bulk Modulus (GPa) = 20.62805 33.48087 27.05446
# Shear Modulus (GPa) = 32.86474 40.23169 36.54821
#
# Velocity S-wave (km/s) = 3.52392 3.89893 3.71616
# Velocity P-wave (km/s) = 4.93474 5.73756 5.35123
#
# Compressibility (1/GPa) = 0.04847768
#
# Stress axis : x y z
#
# Youngs Moduli (GPa) = 84.57588 39.36695 122.41780
#
# Poissons Ratio (x) = -0.12244 0.13926
# Poissons Ratio (y) = -0.26304 0.05275
# Poissons Ratio (z) = 0.09621 0.01696
#
# Static dielectric constant tensor:
#      x y z
#    x 2.033870 0.012560 -0.015180 
#    y 0.012560 2.054100 0.028460 
#    z -0.015180 0.028460 2.023490 
# 
# From -- ./inp_files/260884.got.cif
#   From: 2010.05.17/outbox.cif.g08.bks.cpg/sg2_131_cif.got.tgz:260884.got - 2010.06.03 11:33:40.
