data_PCOD9050631
_publ_section_title
;
Structure prediction by ZEFSAII (Michael W. Deem and Ramdas Pophale) SiO2 
 PCOD9050631
Probable space group: P -1
;
_chemical_formula_sum "Si O2"
_cell_formula_units_Z 16
_cell_length_a 5.643227
_cell_length_b 12.893506
_cell_length_c 12.313009
_cell_angle_alpha 48.098115
_cell_angle_beta 105.206851
_cell_angle_gamma 88.935089
_cell_volume 619.606268
_symmetry_space_group_name_H-M "P -1"
_symmetry_group_IT_number 2
_symmetry_cell_setting 'triclinic'
loop_
_space_group_symop_operation_xyz
x,y,z
-x,-y,-z
loop_
_atom_site_type_symbol
_atom_site_label
_atom_site_fract_x
_atom_site_fract_y
_atom_site_fract_z
Si Si1 0.617275 0.020363 0.883996
Si Si2 0.233016 0.538645 0.382432
Si Si3 0.126503 0.307786 0.245204
Si Si4 0.923076 0.329046 0.506010
Si Si5 0.752466 0.222022 0.124657
Si Si6 0.421266 0.536034 0.814206
Si Si7 0.765250 0.922177 0.394402
Si Si8 0.891471 0.191966 0.935190
O O1 0.448867 0.081164 0.718102
O O2 0.785999 0.128461 0.861817
O O3 0.500000 0.000000 0.000000
O O4 0.808678 0.868152 0.983417
O O5 0.500000 0.500000 0.500000
O O6 0.063505 0.640192 0.385699
O O7 0.196786 0.637188 0.204183
O O8 0.147727 0.397050 0.444948
O O9 0.344971 0.389680 0.196392
O O10 0.235669 0.169744 0.433240
O O11 0.019583 0.258195 0.155840
O O12 0.847601 0.394522 0.202931
O O13 0.674905 0.429247 0.346281
O O14 0.980243 0.167705 0.578715
O O15 0.737850 0.091725 0.293977
O O16 0.531380 0.370602 0.982365
O O17 0.777159 0.147559 0.061849
#
# Coordination Sequence:
#
# PCOD9050631 Si02
#       8
#     2   2   2   2   2   2   2   2
#     4  11  23  44  62 104 151 186 233 301 381 439
#     4  11  23  41  70 101 143 197 248 301 364 457
#     4  11  28  53  77 109 148 200 255 317 375 447
#     4  10  25  43  68 105 148 187 250 302 377 440
#     4  12  26  48  74 112 144 196 256 312 380 446
#     4  11  27  49  80 108 149 196 253 316 379 443
#     4  11  25  45  75 104 147 193 243 312 377 446
#     4  11  26  38  72 103 143 193 246 302 371 451
#
# _framework density 25.822849000000001
#
# number of rings (size 3 to 8) (size 9 to 14) (size 15 to 20)
#    0.000    1.000    1.250    3.375   12.250    4.000 
#    0.000    3.750    0.000    0.000    0.000    0.000 
#    0.000    0.000    0.000    0.000    0.000    0.000 
#
# Total GULP energy -89463.897527 kJ/mol
# GULP energy per Si atom -5591.493595 kJ/mol
# Density = 2.576407 g / cm^3
# Si number density = 25.822849 Si / 1000 Ang^3
#
#
#
# Elastic Constant Matrix: (Units=GPa)
#
#
# Indices 1 2 3 4 5 6 
#
# 1 98.4549 26.9818 52.6788 -14.4044 13.4578 12.0102
# 2 26.9818 81.5722 35.9232 6.3924 9.3110 22.4162
# 3 52.6788 35.9232 195.5884 -22.9656 18.6288 9.3845
# 4 -14.4044 6.3924 -22.9656 52.9345 7.7594 1.9525
# 5 13.4578 9.3110 18.6288 7.7594 40.1704 4.1601
# 6 12.0102 22.4162 9.3845 1.9525 4.1601 36.2536
#
#
#
# Elastic Compliance Matrix: (Units=1/GPa)
#
#
# Indices 1 2 3 4 5 6 
#
# 1 0.013326 -0.002790 -0.002260 0.003530 -0.003253 -0.001922
# 2 -0.002790 0.016896 -0.002303 -0.003426 -0.000350 -0.008702
# 3 -0.002260 -0.002303 0.006690 0.002901 -0.002430 0.000564
# 4 0.003530 -0.003426 0.002901 0.022420 -0.006032 -0.000317
# 5 -0.003253 -0.000350 -0.002430 -0.006032 0.028462 -0.001018
# 6 -0.001922 -0.008702 0.000564 -0.000317 -0.001018 0.033589
#
#
# Mechanical properties :
#
#
# Convention : Reuss Voigt Hill
#
# Bulk Modulus (GPa) = 45.03492 67.42034 56.22763
# Shear Modulus (GPa) = 34.84529 43.20714 39.02622
#
# Velocity S-wave (km/s) = 3.67740 4.09493 3.89177
# Velocity P-wave (km/s) = 5.95893 6.96588 6.48198
#
# Compressibility (1/GPa) = 0.02220499
#
# Stress axis : x y z
#
# Youngs Moduli (GPa) = 75.03889 59.18545 149.48648
#
# Poissons Ratio (x) = 0.16512 0.33789
# Poissons Ratio (y) = 0.20935 0.34431
# Poissons Ratio (z) = 0.16961 0.13632
#
# Static dielectric constant tensor:
#      x y z
#    x 2.079090 -0.066840 -0.034060 
#    y -0.066840 2.106810 -0.018710 
#    z -0.034060 -0.018710 2.095320 
# 
# From -- ./inp_files/484275.got.cif
#   From: 2010.05.17/outbox.cif.g08.bks.cpg/sg2_243_cif.got.tgz:484275.got - 2010.06.03 11:33:40.
