data_PCOD9050001
_publ_section_title
;
Structure prediction by ZEFSAII (Michael W. Deem and Ramdas Pophale) SiO2 
 PCOD9050001
Probable space group: P -1
;
_chemical_formula_sum "Si O2"
_cell_formula_units_Z 15
_cell_length_a 11.161050
_cell_length_b 13.395397
_cell_length_c 12.176178
_cell_angle_alpha 126.379720
_cell_angle_beta 35.041329
_cell_angle_gamma 140.247019
_cell_volume 665.121742
_symmetry_space_group_name_H-M "P -1"
_symmetry_group_IT_number 2
_symmetry_cell_setting 'triclinic'
loop_
_space_group_symop_operation_xyz
x,y,z
-x,-y,-z
loop_
_atom_site_type_symbol
_atom_site_label
_atom_site_fract_x
_atom_site_fract_y
_atom_site_fract_z
Si Si1 0.599397 0.756833 0.417230
Si Si2 0.305370 0.066081 0.322840
Si Si3 0.254121 0.427867 0.721563
Si Si4 0.713577 0.857167 0.159713
Si Si5 0.500000 0.500000 0.000000
Si Si6 0.841173 0.547114 0.580822
Si Si7 0.683734 0.185042 0.728857
Si Si8 0.325627 0.687975 0.977178
O O1 0.558895 0.817055 0.598181
O O2 0.803260 0.724020 0.278028
O O3 0.697461 0.865483 0.308933
O O4 0.342260 0.592423 0.458742
O O5 0.473420 0.161078 0.151220
O O6 0.318427 0.928454 0.258967
O O7 0.000000 0.000000 0.500000
O O8 0.500000 0.500000 0.500000
O O9 0.343130 0.556513 0.831442
O O10 0.980396 0.380066 0.848582
O O11 0.519294 0.882688 0.261916
O O12 0.624956 0.683519 0.080794
O O13 0.000000 0.000000 0.000000
O O14 0.697090 0.576132 0.798608
O O15 0.000000 0.500000 0.500000
O O16 0.033920 0.699453 0.462792
O O17 0.619295 0.280585 0.915379
#
# Coordination Sequence:
#
# PCOD9050001 Si02
#       8
#     2   2   2   2   1   2   2   2
#     4  11  25  46  76 108 147 194 253 321 374 464
#     4  12  29  48  75 108 153 203 256 325 385 464
#     4  11  23  47  76 110 141 192 262 317 380 457
#     4  11  28  47  73 116 151 203 255 313 398 466
#     4  10  24  48  72 104 154 198 248 310 374 462
#     4  11  24  48  72 111 149 193 256 304 382 469
#     4  12  27  47  75 109 155 199 251 317 389 473
#     4  11  27  46  74 109 145 198 255 314 392 449
#
# _framework density 22.552261000000001
#
# number of rings (size 3 to 8) (size 9 to 14) (size 15 to 20)
#    0.000    0.800    4.000    2.000   13.067    1.600 
#    0.000    0.000    0.000    0.000    0.000    0.000 
#    0.000    0.000    0.000    0.000    0.000    0.000 
#
# Total GULP energy -83608.581084 kJ/mol
# GULP energy per Si atom -5573.905406 kJ/mol
# Density = 2.250093 g / cm^3
# Si number density = 22.552261 Si / 1000 Ang^3
#
#
#
# Elastic Constant Matrix: (Units=GPa)
#
#
# Indices 1 2 3 4 5 6 
#
# 1 68.2953 -14.4304 33.8950 2.1870 16.6997 6.2213
# 2 -14.4304 45.7193 26.5078 -8.8392 3.6623 -0.4709
# 3 33.8950 26.5078 146.9932 -14.1334 29.1718 5.6450
# 4 2.1870 -8.8392 -14.1334 49.6911 -5.3071 4.5259
# 5 16.6997 3.6623 29.1718 -5.3071 40.4479 -0.3797
# 6 6.2213 -0.4709 5.6450 4.5259 -0.3797 27.5543
#
#
#
# Elastic Compliance Matrix: (Units=1/GPa)
#
#
# Indices 1 2 3 4 5 6 
#
# 1 0.021340 0.010196 -0.005557 -0.001024 -0.005892 -0.003418
# 2 0.010196 0.029883 -0.007169 0.002752 -0.001392 -0.000794
# 3 -0.005557 -0.007169 0.010455 0.001594 -0.004400 -0.001332
# 4 -0.001024 0.002752 0.001594 0.021633 0.001829 -0.003577
# 5 -0.005892 -0.001392 -0.004400 0.001829 0.030717 0.002331
# 6 -0.003418 -0.000794 -0.001332 -0.003577 0.002331 0.037943
#
#
# Mechanical properties :
#
#
# Convention : Reuss Voigt Hill
#
# Bulk Modulus (GPa) = 17.66225 39.21696 28.43960
# Shear Modulus (GPa) = 28.42484 37.87437 33.14960
#
# Velocity S-wave (km/s) = 3.55406 4.10250 3.83809
# Velocity P-wave (km/s) = 4.96895 6.31409 5.68147
#
# Compressibility (1/GPa) = 0.05661794
#
# Stress axis : x y z
#
# Youngs Moduli (GPa) = 46.86084 33.46430 95.64855
#
# Poissons Ratio (x) = -0.34122 0.53155
# Poissons Ratio (y) = -0.47781 0.68568
# Poissons Ratio (z) = 0.26042 0.23990
#
# Static dielectric constant tensor:
#      x y z
#    x 1.886600 0.010340 -0.035260 
#    y 0.010340 1.950650 0.038720 
#    z -0.035260 0.038720 1.827770 
# 
# From -- ./inp_files/433164.got.cif
#   From: 2010.05.17/outbox.cif.g08.bks.cpg/sg2_217_cif.got.tgz:433164.got - 2010.06.03 11:33:40.
