data_PCOD9050358
_publ_section_title
;
Structure prediction by ZEFSAII (Michael W. Deem and Ramdas Pophale) SiO2 
 PCOD9050358
Probable space group: P -1
;
_chemical_formula_sum "Si O2"
_cell_formula_units_Z 13
_cell_length_a 15.699730
_cell_length_b 15.190009
_cell_length_c 8.985810
_cell_angle_alpha 113.264432
_cell_angle_beta 131.472346
_cell_angle_gamma 27.837865
_cell_volume 628.717296
_symmetry_space_group_name_H-M "P -1"
_symmetry_group_IT_number 2
_symmetry_cell_setting 'triclinic'
loop_
_space_group_symop_operation_xyz
x,y,z
-x,-y,-z
loop_
_atom_site_type_symbol
_atom_site_label
_atom_site_fract_x
_atom_site_fract_y
_atom_site_fract_z
Si Si1 0.000000 0.500000 0.500000
Si Si2 0.413958 0.466808 0.801638
Si Si3 0.866606 0.818792 0.541231
Si Si4 0.415459 0.847617 0.040120
Si Si5 0.955371 0.277992 0.978749
Si Si6 0.243280 0.781629 0.242138
Si Si7 0.440464 0.788605 0.689100
O O1 0.148788 0.282710 0.562114
O O2 0.288143 0.336118 0.730063
O O3 0.579485 0.253479 0.924382
O O4 0.492351 0.412597 0.683771
O O5 0.108616 0.677014 0.627346
O O6 0.500000 0.500000 0.000000
O O7 0.609855 0.074975 0.366308
O O8 0.935740 0.788418 0.772869
O O9 0.359119 0.864440 0.816201
O O10 0.198124 0.083515 0.016322
O O11 0.803814 0.291411 0.813090
O O12 0.745741 0.520832 0.862854
O O13 0.271661 0.834156 0.444021
O O14 0.000000 0.000000 0.000000
#
# Coordination Sequence:
#
# PCOD9050358 Si02
#       7
#     1   2   2   2   2   2   2
#     4  10  24  52  72  96 136 188 226 298 342 394
#     4  11  19  40  69  96 138 187 217 281 345 401
#     4  11  24  45  72  96 141 177 235 281 344 404
#     4  11  25  44  72 100 140 180 235 284 343 401
#     4  12  24  46  67 108 139 185 226 280 348 417
#     4  12  22  41  67 102 151 180 221 274 350 414
#     4  12  25  44  68 107 138 180 234 280 337 423
#
# _framework density 20.677019999999999
#
# number of rings (size 3 to 8) (size 9 to 14) (size 15 to 20)
#    0.000    0.615    7.692    0.462    2.154    1.846 
#    0.000    0.769    0.000    0.000    0.000    0.000 
#    0.000    0.000    0.000    0.000    0.000    0.000 
#
# Total GULP energy -72470.719799 kJ/mol
# GULP energy per Si atom -5574.670754 kJ/mol
# Density = 2.062996 g / cm^3
# Si number density = 20.677020 Si / 1000 Ang^3
#
#
#
# Elastic Constant Matrix: (Units=GPa)
#
#
# Indices 1 2 3 4 5 6 
#
# 1 80.6232 52.3800 52.0210 10.9105 7.1491 23.3729
# 2 52.3800 130.1811 34.7590 -21.8815 -17.1373 8.3493
# 3 52.0210 34.7590 58.2941 -11.1771 -15.7392 -10.7126
# 4 10.9105 -21.8815 -11.1771 25.7595 16.5333 -8.5790
# 5 7.1491 -17.1373 -15.7392 16.5333 25.5091 -0.8556
# 6 23.3729 8.3493 -10.7126 -8.5790 -0.8556 54.5167
#
#
#
# Elastic Compliance Matrix: (Units=1/GPa)
#
#
# Indices 1 2 3 4 5 6 
#
# 1 -0.029999 0.008397 0.037001 0.033967 0.015683 0.024437
# 2 0.008397 0.007820 -0.015683 -0.003454 -0.004823 -0.008499
# 3 0.037001 -0.015683 -0.020999 -0.040918 -0.008152 -0.024155
# 4 0.033967 -0.003454 -0.040918 0.038071 -0.062334 -0.017061
# 5 0.015683 -0.004823 -0.008152 -0.062334 0.066389 -0.016354
# 6 0.024437 -0.008499 -0.024155 -0.017061 -0.016354 0.001480
#
#
# Mechanical properties :
#
#
# Convention : Reuss Voigt Hill
#
# Bulk Modulus (GPa) = 61.52425 60.82429 61.17427
# Shear Modulus (GPa) = 571.58428 29.81960 300.70194
#
# Velocity S-wave (km/s) = 16.64436 3.80170 12.07244
# Velocity P-wave (km/s) = 19.97997 6.98218 14.96579
#
# Compressibility (1/GPa) = 0.01625375
#
# Stress axis : x y z
#
# Youngs Moduli (GPa) = -33.33490 127.88091 -47.62037
#
# Poissons Ratio (x) = -1.07387 1.76201
# Poissons Ratio (y) = 0.27993 -0.74681
# Poissons Ratio (z) = 1.23343 2.00550
#
# Static dielectric constant tensor:
#      x y z
#    x 1.711340 -0.010300 -0.027620 
#    y -0.010300 1.781370 -0.032610 
#    z -0.027620 -0.032610 1.731260 
# 
# From -- ./inp_files/315687.got.cif
#   From: 2010.05.17/outbox.cif.g08.bks.cpg/sg2_158_cif.got.tgz:315687.got - 2010.06.03 11:33:40.
