data_PCOD9050053
_publ_section_title
;
Structure prediction by ZEFSAII (Michael W. Deem and Ramdas Pophale) SiO2 
 PCOD9050053
Probable space group: P -1
;
_chemical_formula_sum "Si O2"
_cell_formula_units_Z 12
_cell_length_a 13.189729
_cell_length_b 13.885062
_cell_length_c 5.550106
_cell_angle_alpha 102.064784
_cell_angle_beta 91.080221
_cell_angle_gamma 149.180528
_cell_volume 467.648876
_symmetry_space_group_name_H-M "P -1"
_symmetry_group_IT_number 2
_symmetry_cell_setting 'triclinic'
loop_
_space_group_symop_operation_xyz
x,y,z
-x,-y,-z
loop_
_atom_site_type_symbol
_atom_site_label
_atom_site_fract_x
_atom_site_fract_y
_atom_site_fract_z
Si Si1 0.715912 0.996149 0.160769
Si Si2 0.985556 0.811066 0.371065
Si Si3 0.959356 0.593580 0.796977
Si Si4 0.753998 0.350532 0.171343
Si Si5 0.520388 0.411589 0.084302
Si Si6 0.181178 0.161165 0.294411
O O1 0.500360 0.867085 0.007822
O O2 0.632707 0.813049 0.097378
O O3 0.849502 0.127468 0.482704
O O4 0.904008 0.187081 0.080063
O O5 0.762178 0.585382 0.125197
O O6 0.863408 0.772128 0.553078
O O7 0.120964 0.014353 0.367905
O O8 0.801820 0.451373 0.478623
O O9 0.141449 0.666615 0.789978
O O10 0.857158 0.475190 0.985819
O O11 0.418935 0.346808 0.306129
O O12 0.500000 0.500000 0.000000
O O13 0.000000 0.000000 0.000000
#
# Coordination Sequence:
#
# PCOD9050053 Si02
#       6
#     2   2   2   2   2   2
#     4  12  25  41  68 103 135 176 233 287 345 409
#     4  11  24  40  62  94 126 175 231 286 339 398
#     4  10  24  48  74 105 139 180 227 281 350 424
#     4  10  24  48  76 103 140 180 223 285 356 418
#     4  12  24  41  64  90 133 184 223 280 339 393
#     4  11  21  44  64  84 126 180 232 281 334 394
#
# _framework density 25.660277000000001
#
# number of rings (size 3 to 8) (size 9 to 14) (size 15 to 20)
#    0.000    1.000    3.333    3.000    0.000    8.000 
#    0.000    5.000    0.000    0.000    0.000    0.000 
#    0.000    0.000    0.000    0.000    0.000    0.000 
#
# Total GULP energy -66909.230259 kJ/mol
# GULP energy per Si atom -5575.769188 kJ/mol
# Density = 2.560187 g / cm^3
# Si number density = 25.660277 Si / 1000 Ang^3
#
#
#
# Elastic Constant Matrix: (Units=GPa)
#
#
# Indices 1 2 3 4 5 6 
#
# 1 94.7921 32.4671 22.1566 9.6118 27.5642 14.8876
# 2 32.4671 206.3028 46.3998 7.1270 23.4624 19.7802
# 3 22.1566 46.3998 74.4933 2.7636 32.0862 5.4269
# 4 9.6118 7.1270 2.7636 30.2059 -3.6464 1.6306
# 5 27.5642 23.4624 32.0862 -3.6464 52.1320 14.8047
# 6 14.8876 19.7802 5.4269 1.6306 14.8047 43.8758
#
#
#
# Elastic Compliance Matrix: (Units=1/GPa)
#
#
# Indices 1 2 3 4 5 6 
#
# 1 0.013578 -0.000994 -0.000398 -0.004713 -0.006303 -0.001808
# 2 -0.000994 0.005941 -0.003459 -0.000594 0.000527 -0.002069
# 3 -0.000398 -0.003459 0.020785 -0.002605 -0.012151 0.003320
# 4 -0.004713 -0.000594 -0.002605 0.035958 0.007339 -0.001624
# 5 -0.006303 0.000527 -0.012151 0.007339 0.032494 -0.007833
# 6 -0.001808 -0.002069 0.003320 -0.001624 -0.007833 0.026630
#
#
# Mechanical properties :
#
#
# Convention : Reuss Voigt Hill
#
# Bulk Modulus (GPa) = 32.67760 64.18169 48.42964
# Shear Modulus (GPa) = 32.19837 43.54705 37.87271
#
# Velocity S-wave (km/s) = 3.54615 4.12401 3.84595
# Velocity P-wave (km/s) = 5.43408 6.90963 6.21580
#
# Compressibility (1/GPa) = 0.03060201
#
# Stress axis : x y z
#
# Youngs Moduli (GPa) = 73.65107 168.33448 48.11117
#
# Poissons Ratio (x) = 0.16739 0.01913
# Poissons Ratio (y) = 0.07324 0.16640
# Poissons Ratio (z) = 0.02928 0.58221
#
# Static dielectric constant tensor:
#      x y z
#    x 2.039470 -0.001650 -0.157650 
#    y -0.001650 1.940770 0.429810 
#    z -0.157650 0.429810 1.477030 
# 
# From -- ./inp_files/98302.got.cif
#   From: 2010.05.17/outbox.cif.g08.bks.cpg/sg2_50_cif.got.tgz:98302.got - 2010.06.03 11:33:40.
