data_PCOD9050728
_publ_section_title
;
Structure prediction by ZEFSAII (Michael W. Deem and Ramdas Pophale) SiO2 
 PCOD9050728
Probable space group: P -1
;
_chemical_formula_sum "Si O2"
_cell_formula_units_Z 16
_cell_length_a 23.159777
_cell_length_b 11.236466
_cell_length_c 5.938501
_cell_angle_alpha 69.830624
_cell_angle_beta 122.535377
_cell_angle_gamma 148.581475
_cell_volume 655.845947
_symmetry_space_group_name_H-M "P -1"
_symmetry_group_IT_number 2
_symmetry_cell_setting 'triclinic'
loop_
_space_group_symop_operation_xyz
x,y,z
-x,-y,-z
loop_
_atom_site_type_symbol
_atom_site_label
_atom_site_fract_x
_atom_site_fract_y
_atom_site_fract_z
Si Si1 0.295742 0.343909 0.458325
Si Si2 0.407805 0.273158 0.606660
Si Si3 0.237880 0.427048 0.910540
Si Si4 0.357403 0.816984 0.225211
Si Si5 0.210602 0.790554 0.240241
Si Si6 0.984294 0.364363 0.376049
Si Si7 0.539312 0.267779 0.137273
Si Si8 0.970991 0.052842 0.691836
O O1 0.325459 0.243233 0.597297
O O2 0.255984 0.318991 0.138247
O O3 0.415599 0.618441 0.595438
O O4 0.181154 0.201041 0.479738
O O5 0.500000 0.500000 0.500000
O O6 0.315715 0.035869 0.433356
O O7 0.506249 0.348652 0.908786
O O8 0.268638 0.572956 0.085118
O O9 0.344803 0.616898 0.824657
O O10 0.090779 0.210890 0.678016
O O11 0.279545 0.785603 0.249493
O O12 0.500000 0.000000 0.500000
O O13 0.410121 0.988277 0.026306
O O14 0.106457 0.563455 0.335433
O O15 0.136204 0.776608 0.934825
O O16 0.977424 0.218692 0.587794
O O17 0.000000 0.500000 0.500000
O O18 0.000000 0.000000 0.000000
#
# Coordination Sequence:
#
# PCOD9050728 Si02
#       8
#     2   2   2   2   2   2   2   2
#     4  11  24  46  66 102 140 183 240 296 364 436
#     4  12  25  45  71 104 147 183 246 294 362 446
#     4  11  24  46  66 102 140 183 240 296 364 436
#     4  12  25  45  71 104 147 183 246 294 362 446
#     4  11  28  46  74 114 144 199 244 306 372 433
#     4  11  25  50  78 107 147 193 251 311 368 445
#     4  12  26  43  72 101 140 198 232 296 368 424
#     4  10  25  43  75 101 138 187 240 307 369 425
#
# _framework density 24.395972
#
# number of rings (size 3 to 8) (size 9 to 14) (size 15 to 20)
#    0.000    0.750    2.500    3.750    8.750    1.500 
#    0.000    2.500    0.000    0.000    0.000    0.000 
#    0.000    0.000    0.000    0.000    0.000    0.000 
#
# Total GULP energy -89317.494126 kJ/mol
# GULP energy per Si atom -5582.343383 kJ/mol
# Density = 2.434045 g / cm^3
# Si number density = 24.395972 Si / 1000 Ang^3
#
#
#
# Elastic Constant Matrix: (Units=GPa)
#
#
# Indices 1 2 3 4 5 6 
#
# 1 158.1342 49.8758 25.8262 14.4373 9.8518 20.4509
# 2 49.8758 110.0300 27.5361 0.3097 10.0245 -0.1740
# 3 25.8262 27.5361 68.2224 9.6405 16.2728 -14.4879
# 4 14.4373 0.3097 9.6405 46.4997 -6.7058 5.4633
# 5 9.8518 10.0245 16.2728 -6.7058 29.8965 -1.4285
# 6 20.4509 -0.1740 -14.4879 5.4633 -1.4285 53.7837
#
#
#
# Elastic Compliance Matrix: (Units=1/GPa)
#
#
# Indices 1 2 3 4 5 6 
#
# 1 0.008377 -0.003163 -0.002124 -0.001880 -0.001138 -0.003607
# 2 -0.003163 0.011438 -0.003476 0.001531 -0.000551 0.000133
# 3 -0.002124 -0.003476 0.021904 -0.006291 -0.011132 0.007040
# 4 -0.001880 0.001531 -0.006291 0.025066 0.008996 -0.003282
# 5 -0.001138 -0.000551 -0.011132 0.008996 0.041973 -0.002367
# 6 -0.003607 0.000133 0.007040 -0.003282 -0.002367 0.022132
#
#
# Mechanical properties :
#
#
# Convention : Reuss Voigt Hill
#
# Bulk Modulus (GPa) = 41.33098 60.31809 50.82454
# Shear Modulus (GPa) = 31.95310 41.57920 36.76615
#
# Velocity S-wave (km/s) = 3.62300 4.13285 3.88630
# Velocity P-wave (km/s) = 5.87197 6.89581 6.40438
#
# Compressibility (1/GPa) = 0.02419493
#
# Stress axis : x y z
#
# Youngs Moduli (GPa) = 119.37411 87.42767 45.65332
#
# Poissons Ratio (x) = 0.27649 0.09695
# Poissons Ratio (y) = 0.37752 0.15870
# Poissons Ratio (z) = 0.25350 0.30391
#
# Static dielectric constant tensor:
#      x y z
#    x 2.018750 -0.026170 0.088870 
#    y -0.026170 2.039230 -0.160960 
#    z 0.088870 -0.160960 2.144630 
# 
# From -- ./inp_files/123642.got.cif
#   From: 2010.05.17/outbox.cif.g08.bks.cpg/sg2_62_cif.got.tgz:123642.got - 2010.06.03 11:33:40.
