data_PCOD9050705
_publ_section_title
;
Structure prediction by ZEFSAII (Michael W. Deem and Ramdas Pophale) SiO2 
 PCOD9050705
Probable space group: P -1
;
_chemical_formula_sum "Si O2"
_cell_formula_units_Z 14
_cell_length_a 19.075590
_cell_length_b 8.014871
_cell_length_c 10.119095
_cell_angle_alpha 111.120795
_cell_angle_beta 27.692388
_cell_angle_gamma 121.568308
_cell_volume 591.397495
_symmetry_space_group_name_H-M "P -1"
_symmetry_group_IT_number 2
_symmetry_cell_setting 'triclinic'
loop_
_space_group_symop_operation_xyz
x,y,z
-x,-y,-z
loop_
_atom_site_type_symbol
_atom_site_label
_atom_site_fract_x
_atom_site_fract_y
_atom_site_fract_z
Si Si1 0.425876 0.751343 0.781017
Si Si2 0.160228 0.621515 0.666220
Si Si3 0.649597 0.534385 0.397324
Si Si4 0.126367 0.663450 0.436429
Si Si5 0.984712 0.828237 0.074526
Si Si6 0.473429 0.196305 0.794864
Si Si7 0.104613 0.047521 0.476956
O O1 0.577842 0.691954 0.531285
O O2 0.306453 0.563711 0.830051
O O3 0.456735 0.970958 0.737845
O O4 0.320191 0.729070 0.085060
O O5 0.103411 0.578661 0.597853
O O6 0.353338 0.667385 0.373950
O O7 0.000000 0.500000 0.000000
O O8 0.166008 0.835232 0.750086
O O9 0.811814 0.642487 0.251602
O O10 0.503098 0.330809 0.652817
O O11 0.000000 0.500000 0.500000
O O12 0.090630 0.853075 0.525365
O O13 0.954553 0.842834 0.284143
O O14 0.000000 0.000000 0.000000
O O15 0.303395 0.169705 0.142035
O O16 0.000000 0.000000 0.500000
#
# Coordination Sequence:
#
# PCOD9050705 Si02
#       7
#     2   2   2   2   2   2   2
#     4  10  25  43  72 107 148 197 248 308 374 447
#     4  12  26  46  75 108 148 197 247 305 378 444
#     4  11  24  44  73 109 148 199 244 310 378 437
#     4  11  26  46  72 102 152 192 247 309 380 438
#     4  12  25  46  74 107 149 191 256 307 370 450
#     4  11  26  47  74 107 152 194 256 304 375 452
#     4  11  29  47  75 111 146 199 249 311 378 445
#
# _framework density 23.672744000000002
#
# number of rings (size 3 to 8) (size 9 to 14) (size 15 to 20)
#    0.000    0.857    2.857    2.143    6.000    5.143 
#    0.000    0.000    0.000    0.000    0.000    0.000 
#    0.000    0.000    0.000    0.000    0.000    0.000 
#
# Total GULP energy -78077.240710 kJ/mol
# GULP energy per Si atom -5576.945765 kJ/mol
# Density = 2.361886 g / cm^3
# Si number density = 23.672744 Si / 1000 Ang^3
#
#
#
# Elastic Constant Matrix: (Units=GPa)
#
#
# Indices 1 2 3 4 5 6 
#
# 1 139.5673 15.3772 54.7241 -0.2483 9.9256 20.0071
# 2 15.3772 64.0345 13.3125 -10.9481 9.2334 -2.5522
# 3 54.7241 13.3125 81.4758 -6.9928 10.4530 9.8349
# 4 -0.2483 -10.9481 -6.9928 37.4640 -0.9353 8.5382
# 5 9.9256 9.2334 10.4530 -0.9353 44.1798 -0.3610
# 6 20.0071 -2.5522 9.8349 8.5382 -0.3610 43.1111
#
#
#
# Elastic Compliance Matrix: (Units=1/GPa)
#
#
# Indices 1 2 3 4 5 6 
#
# 1 0.010287 -0.001340 -0.006286 -0.000766 -0.000587 -0.003273
# 2 -0.001340 0.017450 -0.001310 0.004538 -0.002932 0.001031
# 3 -0.006286 -0.001310 0.017510 0.003196 -0.002404 -0.001808
# 4 -0.000766 0.004538 0.003196 0.029965 -0.000948 -0.006048
# 5 -0.000587 -0.002932 -0.002404 -0.000948 0.023936 0.001035
# 6 -0.003273 0.001031 -0.001808 -0.006048 0.001035 0.026395
#
#
# Mechanical properties :
#
#
# Convention : Reuss Voigt Hill
#
# Bulk Modulus (GPa) = 36.52815 50.21169 43.36992
# Shear Modulus (GPa) = 32.77828 38.39524 35.58676
#
# Velocity S-wave (km/s) = 3.72512 4.03167 3.88142
# Velocity P-wave (km/s) = 5.82803 6.55205 6.20062
#
# Compressibility (1/GPa) = 0.02737615
#
# Stress axis : x y z
#
# Youngs Moduli (GPa) = 97.21247 57.30524 57.10878
#
# Poissons Ratio (x) = 0.07680 0.35896
# Poissons Ratio (y) = 0.13029 0.07481
# Poissons Ratio (z) = 0.61104 0.07506
#
# Static dielectric constant tensor:
#      x y z
#    x 1.809680 -0.070660 0.130550 
#    y -0.070660 2.295650 -0.056500 
#    z 0.130550 -0.056500 1.830310 
# 
# From -- ./inp_files/216318.got.cif
#   From: 2010.05.17/outbox.cif.g08.bks.cpg/sg2_109_cif.got.tgz:216318.got - 2010.06.03 11:33:40.
