data_PCOD9050850
_publ_section_title
;
Structure prediction by ZEFSAII (Michael W. Deem and Ramdas Pophale) SiO2 
 PCOD9050850
Probable space group: P -1
;
_chemical_formula_sum "Si O2"
_cell_formula_units_Z 16
_cell_length_a 9.343165
_cell_length_b 13.136373
_cell_length_c 8.658496
_cell_angle_alpha 53.815703
_cell_angle_beta 70.882610
_cell_angle_gamma 58.020536
_cell_volume 727.389525
_symmetry_space_group_name_H-M "P -1"
_symmetry_group_IT_number 2
_symmetry_cell_setting 'triclinic'
loop_
_space_group_symop_operation_xyz
x,y,z
-x,-y,-z
loop_
_atom_site_type_symbol
_atom_site_label
_atom_site_fract_x
_atom_site_fract_y
_atom_site_fract_z
Si Si1 0.463902 0.499227 0.696446
Si Si2 0.100877 0.373878 0.197168
Si Si3 0.193657 0.522340 0.306714
Si Si4 0.819940 0.718240 0.282080
Si Si5 0.248696 0.002625 0.868268
Si Si6 0.380571 0.238446 0.996335
Si Si7 0.989679 0.956046 0.789623
Si Si8 0.870758 0.232669 0.380261
O O1 0.500000 0.500000 0.500000
O O2 0.638403 0.458321 0.761582
O O3 0.398284 0.383266 0.855474
O O4 0.322719 0.652154 0.659147
O O5 0.170704 0.441370 0.240585
O O6 0.971927 0.312656 0.348164
O O7 0.257723 0.250825 0.168790
O O8 0.000000 0.500000 0.000000
O O9 0.200906 0.418461 0.536000
O O10 0.021258 0.663800 0.249429
O O11 0.750696 0.849191 0.304975
O O12 0.715367 0.769134 0.116874
O O13 0.152907 0.956665 0.814664
O O14 0.435435 0.886616 0.939122
O O15 0.138028 0.033690 0.037236
O O16 0.899216 0.098305 0.593243
O O17 0.051847 0.826561 0.763198
#
# Coordination Sequence:
#
# PCOD9050850 Si02
#       8
#     2   2   2   2   2   2   2   2
#     4  12  25  42  72 100 135 169 229 283 323 400
#     4  12  24  45  67  99 138 175 217 281 340 396
#     4  11  26  41  71 101 130 178 224 270 343 394
#     4  11  23  45  67  97 136 176 222 276 333 402
#     4  11  25  42  70  99 135 173 231 274 332 395
#     4  12  25  43  67 102 134 175 225 273 339 394
#     4  10  25  44  69  98 132 181 223 277 334 398
#     4  11  24  47  70  95 138 178 223 274 340 393
#
# _framework density 21.996466999999999
#
# number of rings (size 3 to 8) (size 9 to 14) (size 15 to 20)
#    0.000    0.750    3.750    2.625    8.750    0.500 
#    2.250    1.250    0.000    0.000    0.000    0.000 
#    0.000    0.000    0.000    0.000    0.000    0.000 
#
# Total GULP energy -89568.709082 kJ/mol
# GULP energy per Si atom -5598.044318 kJ/mol
# Density = 2.194640 g / cm^3
# Si number density = 21.996467 Si / 1000 Ang^3
#
#
#
# Elastic Constant Matrix: (Units=GPa)
#
#
# Indices 1 2 3 4 5 6 
#
# 1 133.2656 44.1887 8.2732 -9.8083 24.3720 -5.0580
# 2 44.1887 109.5709 16.5200 -13.1399 22.3388 -16.3405
# 3 8.2732 16.5200 24.5453 -10.7689 10.1692 -6.4244
# 4 -9.8083 -13.1399 -10.7689 33.4350 0.8660 9.0311
# 5 24.3720 22.3388 10.1692 0.8660 37.0209 -2.9019
# 6 -5.0580 -16.3405 -6.4244 9.0311 -2.9019 47.0988
#
#
#
# Elastic Compliance Matrix: (Units=1/GPa)
#
#
# Indices 1 2 3 4 5 6 
#
# 1 0.009421 -0.002805 0.001793 0.002509 -0.005100 -0.000512
# 2 -0.002805 0.012421 -0.003912 0.002159 -0.004405 0.002789
# 3 0.001793 -0.003912 0.056973 0.017062 -0.014678 0.002431
# 4 0.002509 0.002159 0.017062 0.038456 -0.008900 -0.004576
# 5 -0.005100 -0.004405 -0.014678 -0.008900 0.037262 -0.000076
# 6 -0.000512 0.002789 0.002431 -0.004576 -0.000076 0.023349
#
#
# Mechanical properties :
#
#
# Convention : Reuss Voigt Hill
#
# Bulk Modulus (GPa) = 14.49999 45.03839 29.76919
# Shear Modulus (GPa) = 23.72848 36.73760 30.23304
#
# Velocity S-wave (km/s) = 3.28798 4.09119 3.71138
# Velocity P-wave (km/s) = 4.58483 6.54499 5.65056
#
# Compressibility (1/GPa) = 0.06896557
#
# Stress axis : x y z
#
# Youngs Moduli (GPa) = 106.14936 80.51159 17.55229
#
# Poissons Ratio (x) = 0.22585 -0.03146
# Poissons Ratio (y) = 0.29777 0.06866
# Poissons Ratio (z) = -0.19028 0.31492
#
# Static dielectric constant tensor:
#      x y z
#    x 1.756110 0.007460 -0.010540 
#    y 0.007460 1.802320 0.018040 
#    z -0.010540 0.018040 1.850180 
# 
# From -- ./inp_files/185037.got.cif
#   From: 2010.05.17/outbox.cif.g08.bks.cpg/sg2_93_cif.got.tgz:185037.got - 2010.06.03 11:33:40.
