data_PCOD9050036
_publ_section_title
;
Structure prediction by ZEFSAII (Michael W. Deem and Ramdas Pophale) SiO2 
 PCOD9050036
Probable space group: P -1
;
_chemical_formula_sum "Si O2"
_cell_formula_units_Z 12
_cell_length_a 9.336987
_cell_length_b 9.278511
_cell_length_c 12.291606
_cell_angle_alpha 143.004707
_cell_angle_beta 117.715426
_cell_angle_gamma 82.000027
_cell_volume 510.496682
_symmetry_space_group_name_H-M "P -1"
_symmetry_group_IT_number 2
_symmetry_cell_setting 'triclinic'
loop_
_space_group_symop_operation_xyz
x,y,z
-x,-y,-z
loop_
_atom_site_type_symbol
_atom_site_label
_atom_site_fract_x
_atom_site_fract_y
_atom_site_fract_z
Si Si1 0.006909 0.327005 0.733337
Si Si2 0.631786 0.060177 0.316045
Si Si3 0.908361 0.742818 0.039845
Si Si4 0.338067 0.541661 0.829677
Si Si5 0.177454 0.773507 0.741511
Si Si6 0.481989 0.745665 0.409394
O O1 0.013030 0.208848 0.781971
O O2 0.176748 0.368827 0.747001
O O3 0.820110 0.156818 0.504614
O O4 0.019062 0.622168 0.936319
O O5 0.691944 0.170028 0.282444
O O6 0.519144 0.178483 0.418855
O O7 0.516736 0.743059 0.076873
O O8 0.883755 0.990408 0.133892
O O9 0.711345 0.496643 0.828647
O O10 0.278033 0.738753 0.860891
O O11 0.377628 0.357692 0.646602
O O12 0.000000 0.500000 0.500000
O O13 0.500000 0.000000 0.500000
#
# Coordination Sequence:
#
# PCOD9050036 Si02
#       6
#     2   2   2   2   2   2
#     4  10  24  48  77 106 141 195 244 304 361 430
#     4  11  25  48  72 109 143 195 236 301 363 426
#     4  10  24  48  73 108 149 189 245 303 363 429
#     4  12  26  48  76 106 150 190 243 302 364 435
#     4  12  26  47  73 109 148 195 244 294 365 438
#     4  11  26  46  74 113 145 187 249 300 367 433
#
# _framework density 23.506518
#
# number of rings (size 3 to 8) (size 9 to 14) (size 15 to 20)
#    0.000    1.000    3.333    1.500    2.333    8.667 
#    3.000    0.000    0.000    0.000    0.000    0.000 
#    0.000    0.000    0.000    0.000    0.000    0.000 
#
# Total GULP energy -67261.054350 kJ/mol
# GULP energy per Si atom -5605.087862 kJ/mol
# Density = 2.345302 g / cm^3
# Si number density = 23.506518 Si / 1000 Ang^3
#
#
#
# Elastic Constant Matrix: (Units=GPa)
#
#
# Indices 1 2 3 4 5 6 
#
# 1 152.8327 12.0305 40.3982 11.1462 -23.8346 6.5268
# 2 12.0305 96.1719 40.8202 13.0356 -3.5144 -23.1662
# 3 40.3982 40.8202 109.5381 19.1898 -5.5068 1.6376
# 4 11.1462 13.0356 19.1898 43.0389 2.4577 -5.3708
# 5 -23.8346 -3.5144 -5.5068 2.4577 40.1210 6.9875
# 6 6.5268 -23.1662 1.6376 -5.3708 6.9875 26.2971
#
#
#
# Elastic Compliance Matrix: (Units=1/GPa)
#
#
# Indices 1 2 3 4 5 6 
#
# 1 0.008346 -0.000760 -0.002128 -0.001850 0.005487 -0.004444
# 2 -0.000760 0.017076 -0.006484 0.000114 -0.002705 0.016377
# 3 -0.002128 -0.006484 0.013290 -0.004412 0.001537 -0.007321
# 4 -0.001850 0.000114 -0.004412 0.026855 -0.004656 0.007556
# 5 0.005487 -0.002705 0.001537 -0.004656 0.030698 -0.012948
# 6 -0.004444 0.016377 -0.007321 0.007556 -0.012948 0.058997
#
#
# Mechanical properties :
#
#
# Convention : Reuss Voigt Hill
#
# Bulk Modulus (GPa) = 50.08159 60.56003 55.32081
# Shear Modulus (GPa) = 27.67576 39.57764 33.62670
#
# Velocity S-wave (km/s) = 3.43500 4.10773 3.78633
# Velocity P-wave (km/s) = 6.08966 6.95104 6.53456
#
# Compressibility (1/GPa) = 0.01996742
#
# Stress axis : x y z
#
# Youngs Moduli (GPa) = 119.81943 58.56170 75.24334
#
# Poissons Ratio (x) = 0.04449 0.16015
# Poissons Ratio (y) = 0.09104 0.48788
# Poissons Ratio (z) = 0.25503 0.37972
#
# Static dielectric constant tensor:
#      x y z
#    x 2.025870 -0.030640 0.030470 
#    y -0.030640 1.868080 -0.016610 
#    z 0.030470 -0.016610 1.925580 
# 
# From -- ./inp_files/184986.got.cif
#   From: 2010.05.17/outbox.cif.g08.bks.cpg/sg2_93_cif.got.tgz:184986.got - 2010.06.03 11:33:40.
