data_PCOD9050859
_publ_section_title
;
Structure prediction by ZEFSAII (Michael W. Deem and Ramdas Pophale) SiO2 
 PCOD9050859
Probable space group: P -1
;
_chemical_formula_sum "Si O2"
_cell_formula_units_Z 14
_cell_length_a 19.172832
_cell_length_b 8.969442
_cell_length_c 16.642672
_cell_angle_alpha 40.819040
_cell_angle_beta 19.231519
_cell_angle_gamma 42.807085
_cell_volume 613.796611
_symmetry_space_group_name_H-M "P -1"
_symmetry_group_IT_number 2
_symmetry_cell_setting 'triclinic'
loop_
_space_group_symop_operation_xyz
x,y,z
-x,-y,-z
loop_
_atom_site_type_symbol
_atom_site_label
_atom_site_fract_x
_atom_site_fract_y
_atom_site_fract_z
Si Si1 0.833195 0.939345 0.773853
Si Si2 0.849821 0.071809 0.000717
Si Si3 0.610961 0.678188 0.410342
Si Si4 0.802741 0.314142 0.244773
Si Si5 0.464323 0.347834 0.022549
Si Si6 0.103290 0.040303 0.586089
Si Si7 0.388015 0.502573 0.863391
O O1 0.709352 0.723561 0.970800
O O2 0.000000 0.000000 0.500000
O O3 0.969647 0.914070 0.717447
O O4 0.658481 0.152333 0.887305
O O5 0.796591 0.287865 0.025787
O O6 0.635730 0.946549 0.276094
O O7 0.938458 0.150647 0.786778
O O8 0.014383 0.850261 0.932584
O O9 0.793385 0.557234 0.203156
O O10 0.388431 0.642995 0.625902
O O11 0.589191 0.566444 0.566449
O O12 0.752858 0.145125 0.441909
O O13 0.247786 0.222382 0.318079
O O14 0.500000 0.500000 0.000000
O O15 0.451806 0.474614 0.898787
#
# Coordination Sequence:
#
# PCOD9050859 Si02
#       7
#     2   2   2   2   2   2   2
#     4  12  27  46  71 105 147 181 234 290 350 419
#     4  10  25  44  70 101 141 185 235 282 347 419
#     4  11  23  45  70 105 140 184 234 290 349 407
#     4   9  24  42  72  99 137 184 236 278 349 416
#     4  12  28  48  74 103 141 186 233 292 352 419
#     4  10  25  46  72 102 136 188 237 276 355 419
#     4  12  27  45  71 108 145 181 232 297 350 410
#
# _framework density 22.808857
#
# number of rings (size 3 to 8) (size 9 to 14) (size 15 to 20)
#    0.857    0.286    1.429    3.000   12.000    1.714 
#    0.000    0.000    0.000    0.000    0.000    0.000 
#    0.000    0.000    0.000    0.000    0.000    0.000 
#
# Total GULP energy -78135.640342 kJ/mol
# GULP energy per Si atom -5581.117167 kJ/mol
# Density = 2.275694 g / cm^3
# Si number density = 22.808857 Si / 1000 Ang^3
#
#
#
# Elastic Constant Matrix: (Units=GPa)
#
#
# Indices 1 2 3 4 5 6 
#
# 1 111.1770 31.5588 25.0054 5.2329 8.8380 4.5592
# 2 31.5588 147.8917 28.1522 14.8438 -3.1935 31.7368
# 3 25.0054 28.1522 78.4259 1.2214 19.0669 13.1552
# 4 5.2329 14.8438 1.2214 22.2302 1.9518 13.6740
# 5 8.8380 -3.1935 19.0669 1.9518 19.3248 -5.6772
# 6 4.5592 31.7368 13.1552 13.6740 -5.6772 26.4059
#
#
#
# Elastic Compliance Matrix: (Units=1/GPa)
#
#
# Indices 1 2 3 4 5 6 
#
# 1 0.010308 -0.002142 -0.002830 -0.002917 -0.000949 0.003511
# 2 -0.002142 0.009739 -0.000920 0.001080 0.000030 -0.011430
# 3 -0.002830 -0.000920 0.028942 0.023958 -0.039757 -0.033779
# 4 -0.002917 0.001080 0.023958 0.092504 -0.052604 -0.071942
# 5 -0.000949 0.000030 -0.039757 -0.052604 0.118040 0.072554
# 6 0.003511 -0.011430 -0.033779 -0.071942 0.072554 0.120683
#
#
# Mechanical properties :
#
#
# Convention : Reuss Voigt Hill
#
# Bulk Modulus (GPa) = 26.87841 56.32527 41.60184
# Shear Modulus (GPa) = 12.36395 30.44407 21.40401
#
# Velocity S-wave (km/s) = 2.33076 3.65738 3.06667
# Velocity P-wave (km/s) = 4.36498 6.52559 5.55141
#
# Compressibility (1/GPa) = 0.03720458
#
# Stress axis : x y z
#
# Youngs Moduli (GPa) = 97.01095 102.68073 34.55176
#
# Poissons Ratio (x) = 0.21995 0.09780
# Poissons Ratio (y) = 0.20781 0.03178
# Poissons Ratio (z) = 0.27458 0.09444
#
# Static dielectric constant tensor:
#      x y z
#    x 1.858000 -0.013110 -0.001230 
#    y -0.013110 1.853190 0.045450 
#    z -0.001230 0.045450 1.856140 
# 
# From -- ./inp_files/577532.got.cif
#   From: 2010.05.17/outbox.cif.g08.bks.cpg/sg2_289_cif.got.tgz:577532.got - 2010.06.03 11:33:40.
