data_PCOD9050454
_publ_section_title
;
Structure prediction by ZEFSAII (Michael W. Deem and Ramdas Pophale) SiO2 
 PCOD9050454
Probable space group: P -1
;
_chemical_formula_sum "Si O2"
_cell_formula_units_Z 16
_cell_length_a 15.821148
_cell_length_b 12.420081
_cell_length_c 9.326281
_cell_angle_alpha 34.605017
_cell_angle_beta 41.335577
_cell_angle_gamma 60.175504
_cell_volume 650.850582
_symmetry_space_group_name_H-M "P -1"
_symmetry_group_IT_number 2
_symmetry_cell_setting 'triclinic'
loop_
_space_group_symop_operation_xyz
x,y,z
-x,-y,-z
loop_
_atom_site_type_symbol
_atom_site_label
_atom_site_fract_x
_atom_site_fract_y
_atom_site_fract_z
Si Si1 0.083538 0.709368 0.585398
Si Si2 0.515575 0.863158 0.759621
Si Si3 0.276680 0.519565 0.411830
Si Si4 0.869789 0.577880 0.570733
Si Si5 0.364874 0.356841 0.756085
Si Si6 0.257890 0.846494 0.680769
Si Si7 0.115634 0.130224 0.514388
Si Si8 0.343997 0.939632 0.155820
O O1 0.180781 0.659560 0.396603
O O2 0.187948 0.854816 0.401227
O O3 0.992345 0.824862 0.502265
O O4 0.000000 0.500000 0.000000
O O5 0.500000 0.000000 0.500000
O O6 0.665399 0.977236 0.499196
O O7 0.435426 0.640150 0.050336
O O8 0.429384 0.868436 0.007783
O O9 0.198024 0.379917 0.536802
O O10 0.283836 0.437468 0.652061
O O11 0.895835 0.765952 0.435472
O O12 0.000000 0.500000 0.500000
O O13 0.760709 0.372452 0.996118
O O14 0.500000 0.500000 0.500000
O O15 0.259684 0.258313 0.122376
O O16 0.394988 0.177300 0.832236
O O17 0.338632 0.868360 0.404255
O O18 0.121798 0.904693 0.760154
#
# Coordination Sequence:
#
# PCOD9050454 Si02
#       8
#     2   2   2   2   2   2   2   2
#     4  11  21  43  71  97 134 178 232 289 343 412
#     4  11  23  44  68  97 137 177 232 287 351 415
#     4  11  23  42  67  99 138 179 228 286 354 413
#     4  12  26  43  68 103 141 188 228 284 358 412
#     4  11  25  44  69 106 138 178 239 292 346 423
#     4  11  25  45  67 100 138 181 231 287 343 423
#     4  11  25  44  70 100 137 184 234 287 345 421
#     4  10  25  41  71 100 132 184 234 288 352 409
#
# _framework density 24.583216
#
# number of rings (size 3 to 8) (size 9 to 14) (size 15 to 20)
#    0.000    1.000    3.750    2.625    3.500    4.500 
#    0.000    1.875    0.000    0.000    0.000    0.000 
#    0.000    0.000    0.000    0.000    0.000    0.000 
#
# Total GULP energy -89374.118135 kJ/mol
# GULP energy per Si atom -5585.882383 kJ/mol
# Density = 2.452726 g / cm^3
# Si number density = 24.583216 Si / 1000 Ang^3
#
#
#
# Elastic Constant Matrix: (Units=GPa)
#
#
# Indices 1 2 3 4 5 6 
#
# 1 162.5226 16.9535 18.0909 -8.2149 -6.6349 16.4167
# 2 16.9535 72.7224 -7.0318 -6.4254 2.1454 -2.0506
# 3 18.0909 -7.0318 54.2831 -9.1358 0.6857 4.4414
# 4 -8.2149 -6.4254 -9.1358 25.9124 11.2003 -2.4060
# 5 -6.6349 2.1454 0.6857 11.2003 41.1023 -0.5930
# 6 16.4167 -2.0506 4.4414 -2.4060 -0.5930 38.5153
#
#
#
# Elastic Compliance Matrix: (Units=1/GPa)
#
#
# Indices 1 2 3 4 5 6 
#
# 1 0.006951 -0.001948 -0.002336 0.000126 0.001188 -0.002771
# 2 -0.001948 0.015166 0.003476 0.005674 -0.002688 0.001550
# 3 -0.002336 0.003476 0.021272 0.009011 -0.003380 -0.000761
# 4 0.000126 0.005674 0.009011 0.049398 -0.013857 0.002082
# 5 0.001188 -0.002688 -0.003380 -0.013857 0.028484 -0.000687
# 6 -0.002771 0.001550 -0.000761 0.002082 -0.000687 0.027435
#
#
# Mechanical properties :
#
#
# Convention : Reuss Voigt Hill
#
# Bulk Modulus (GPa) = 23.93951 38.39480 31.16715
# Shear Modulus (GPa) = 30.44189 38.54037 34.49113
#
# Velocity S-wave (km/s) = 3.52280 3.96378 3.74978
# Velocity P-wave (km/s) = 5.12894 6.04987 5.60834
#
# Compressibility (1/GPa) = 0.04177195
#
# Stress axis : x y z
#
# Youngs Moduli (GPa) = 143.86283 65.93871 47.00932
#
# Poissons Ratio (x) = 0.12848 0.10982
# Poissons Ratio (y) = 0.28031 -0.16340
# Poissons Ratio (z) = 0.33608 -0.22920
#
# Static dielectric constant tensor:
#      x y z
#    x 2.014170 -0.039250 -0.037980 
#    y -0.039250 1.990110 -0.011860 
#    z -0.037980 -0.011860 2.041160 
# 
# From -- ./inp_files/306172.got.cif
#   From: 2010.05.17/outbox.cif.g08.bks.cpg/sg2_154_cif.got.tgz:306172.got - 2010.06.03 11:33:40.
