data_PCOD9050547
_publ_section_title
;
Structure prediction by ZEFSAII (Michael W. Deem and Ramdas Pophale) SiO2 
 PCOD9050547
Probable space group: P -1
;
_chemical_formula_sum "Si O2"
_cell_formula_units_Z 16
_cell_length_a 16.123475
_cell_length_b 8.494191
_cell_length_c 16.333473
_cell_angle_alpha 33.612992
_cell_angle_beta 135.533419
_cell_angle_gamma 109.855403
_cell_volume 654.129470
_symmetry_space_group_name_H-M "P -1"
_symmetry_group_IT_number 2
_symmetry_cell_setting 'triclinic'
loop_
_space_group_symop_operation_xyz
x,y,z
-x,-y,-z
loop_
_atom_site_type_symbol
_atom_site_label
_atom_site_fract_x
_atom_site_fract_y
_atom_site_fract_z
Si Si1 0.922602 0.496106 0.030797
Si Si2 0.657113 0.538327 0.770619
Si Si3 0.708525 0.903924 0.356780
Si Si4 0.769059 0.264687 0.383364
Si Si5 0.940579 0.752346 0.107860
Si Si6 0.126977 0.319298 0.740059
Si Si7 0.384825 0.411685 0.456935
Si Si8 0.506605 0.331461 0.875359
O O1 0.929360 0.683560 0.034595
O O2 0.749188 0.642414 0.836242
O O3 0.046390 0.054938 0.331819
O O4 0.000000 0.500000 0.000000
O O5 0.589092 0.757125 0.542212
O O6 0.549584 0.493023 0.766365
O O7 0.794138 0.110432 0.023846
O O8 0.594867 0.857658 0.342330
O O9 0.874847 0.479452 0.645407
O O10 0.733148 0.127597 0.339344
O O11 0.637485 0.138719 0.122298
O O12 0.745580 0.637587 0.202600
O O13 0.662488 0.322724 0.356636
O O14 0.920546 0.555900 0.252726
O O15 0.794751 0.194618 0.827759
O O16 0.000000 0.500000 0.500000
O O17 0.500000 0.500000 0.500000
O O18 0.500000 0.000000 0.000000
#
# Coordination Sequence:
#
# PCOD9050547 Si02
#       8
#     2   2   2   2   2   2   2   2
#     4  11  25  45  69 102 136 179 230 281 338 409
#     4  11  23  42  67  96 136 175 224 279 342 404
#     4  11  25  44  66  98 135 179 224 278 342 406
#     4  11  25  42  68  96 143 171 224 283 341 399
#     4  10  25  42  72  96 134 177 230 274 342 405
#     4  11  21  41  68 102 130 175 224 282 336 406
#     4  11  25  46  68  96 136 180 227 278 336 409
#     4  12  25  41  66 103 135 178 227 281 341 399
#
# _framework density 24.459990999999999
#
# number of rings (size 3 to 8) (size 9 to 14) (size 15 to 20)
#    0.000    1.000    2.500    3.750    3.500    5.000 
#    0.000    1.875    0.000    0.000    0.000    0.000 
#    0.000    0.000    0.000    0.000    0.000    0.000 
#
# Total GULP energy -89291.993260 kJ/mol
# GULP energy per Si atom -5580.749579 kJ/mol
# Density = 2.440432 g / cm^3
# Si number density = 24.459991 Si / 1000 Ang^3
#
#
#
# Elastic Constant Matrix: (Units=GPa)
#
#
# Indices 1 2 3 4 5 6 
#
# 1 154.8231 26.3077 18.4506 15.6698 -2.6686 -13.4661
# 2 26.3077 69.4898 21.5814 7.3237 -1.1280 -2.4068
# 3 18.4506 21.5814 59.1098 -3.9782 5.6098 -6.3336
# 4 15.6698 7.3237 -3.9782 21.9766 -2.6472 0.3088
# 5 -2.6686 -1.1280 5.6098 -2.6472 30.0087 4.3889
# 6 -13.4661 -2.4068 -6.3336 0.3088 4.3889 42.8049
#
#
#
# Elastic Compliance Matrix: (Units=1/GPa)
#
#
# Indices 1 2 3 4 5 6 
#
# 1 0.007693 -0.001677 -0.001945 -0.005281 0.000218 0.002054
# 2 -0.001677 0.017641 -0.006488 -0.005691 0.001311 -0.000589
# 3 -0.001945 -0.006488 0.021011 0.006822 -0.004109 0.002504
# 4 -0.005281 -0.005691 0.006822 0.052777 0.002939 -0.001654
# 5 0.000218 0.001311 -0.004109 0.002939 0.035016 -0.004077
# 6 0.002054 -0.000589 0.002504 -0.001654 -0.004077 0.024775
#
#
# Mechanical properties :
#
#
# Convention : Reuss Voigt Hill
#
# Bulk Modulus (GPa) = 38.27781 46.23357 42.25569
# Shear Modulus (GPa) = 26.61816 33.43023 30.02419
#
# Velocity S-wave (km/s) = 3.30242 3.70094 3.50734
# Velocity P-wave (km/s) = 5.49767 6.09962 5.80645
#
# Compressibility (1/GPa) = 0.02612479
#
# Stress axis : x y z
#
# Youngs Moduli (GPa) = 129.99519 56.68552 47.59391
#
# Poissons Ratio (x) = 0.09506 0.09257
# Poissons Ratio (y) = 0.21800 0.30879
# Poissons Ratio (z) = 0.25284 0.36778
#
# Static dielectric constant tensor:
#      x y z
#    x 2.038530 -0.045610 -0.024670 
#    y -0.045610 1.978270 -0.015360 
#    z -0.024670 -0.015360 1.990470 
# 
# From -- ./inp_files/208385.got.cif
#   From: 2010.05.17/outbox.cif.g08.bks.cpg/sg2_105_cif.got.tgz:208385.got - 2010.06.03 11:33:40.
