data_PCOD9050699
_publ_section_title
;
Structure prediction by ZEFSAII (Michael W. Deem and Ramdas Pophale) SiO2 
 PCOD9050699
Probable space group: P -1
;
_chemical_formula_sum "Si O2"
_cell_formula_units_Z 12
_cell_length_a 14.191746
_cell_length_b 9.329145
_cell_length_c 5.077749
_cell_angle_alpha 116.829406
_cell_angle_beta 59.946391
_cell_angle_gamma 122.604892
_cell_volume 474.766752
_symmetry_space_group_name_H-M "P -1"
_symmetry_group_IT_number 2
_symmetry_cell_setting 'triclinic'
loop_
_space_group_symop_operation_xyz
x,y,z
-x,-y,-z
loop_
_atom_site_type_symbol
_atom_site_label
_atom_site_fract_x
_atom_site_fract_y
_atom_site_fract_z
Si Si1 0.176026 0.981806 0.085106
Si Si2 0.403137 0.208795 0.638749
Si Si3 0.793529 0.676548 0.909049
Si Si4 0.311040 0.890030 0.190838
Si Si5 0.334040 0.673271 0.479000
Si Si6 0.008139 0.388877 0.145920
O O1 0.196088 0.934454 0.317346
O O2 0.137729 0.138255 0.187083
O O3 0.094972 0.803494 0.909392
O O4 0.312134 0.071049 0.858575
O O5 0.531063 0.308787 0.666267
O O6 0.408565 0.085945 0.287970
O O7 0.326764 0.323078 0.787701
O O8 0.752277 0.525687 0.622584
O O9 0.873506 0.641511 0.986538
O O10 0.315567 0.775635 0.337739
O O11 0.685871 0.231220 0.156530
O O12 0.000000 0.500000 0.500000
O O13 0.000000 0.500000 0.000000
#
# Coordination Sequence:
#
# PCOD9050699 Si02
#       6
#     2   2   2   2   2   2
#     4  10  25  45  72 101 142 179 235 281 356 404
#     4  10  25  43  72 102 146 186 233 281 351 410
#     4  10  25  49  69 105 143 185 230 291 348 421
#     4  12  24  44  68 106 141 190 232 288 335 414
#     4  12  24  43  71 105 145 187 235 280 343 412
#     4  12  27  49  74 104 133 182 235 297 350 414
#
# _framework density 25.275570999999999
#
# number of rings (size 3 to 8) (size 9 to 14) (size 15 to 20)
#    1.000    0.000    1.667    4.000    4.667    2.667 
#    0.000    5.000    0.000    0.000    0.000    0.000 
#    0.000    0.000    0.000    0.000    0.000    0.000 
#
# Total GULP energy -67086.176031 kJ/mol
# GULP energy per Si atom -5590.514669 kJ/mol
# Density = 2.521804 g / cm^3
# Si number density = 25.275571 Si / 1000 Ang^3
#
#
#
# Elastic Constant Matrix: (Units=GPa)
#
#
# Indices 1 2 3 4 5 6 
#
# 1 234.8043 96.6316 68.2111 2.2868 17.7786 -20.8278
# 2 96.6316 116.5524 28.9070 16.8390 19.3885 -2.7574
# 3 68.2111 28.9070 97.5063 2.2591 32.0506 -18.7803
# 4 2.2868 16.8390 2.2591 24.9040 0.0696 4.8865
# 5 17.7786 19.3885 32.0506 0.0696 47.1062 8.2923
# 6 -20.8278 -2.7574 -18.7803 4.8865 8.2923 49.1175
#
#
#
# Elastic Compliance Matrix: (Units=1/GPa)
#
#
# Indices 1 2 3 4 5 6 
#
# 1 0.008114 -0.006608 -0.004619 0.004047 0.002716 0.000443
# 2 -0.006608 0.016025 0.002191 -0.010600 -0.005746 0.000960
# 3 -0.004619 0.002191 0.018918 -0.004325 -0.013450 0.008099
# 4 0.004047 -0.010600 -0.004325 0.048603 0.006855 -0.006525
# 5 0.002716 -0.005746 -0.013450 0.006855 0.033587 -0.010666
# 6 0.000443 0.000960 0.008099 -0.006525 -0.010666 0.026147
#
#
# Mechanical properties :
#
#
# Convention : Reuss Voigt Hill
#
# Bulk Modulus (GPa) = 40.02213 92.92919 66.47566
# Shear Modulus (GPa) = 28.12236 41.23310 34.67773
#
# Velocity S-wave (km/s) = 3.33923 4.04337 3.70805
# Velocity P-wave (km/s) = 5.54400 7.65798 6.68508
#
# Compressibility (1/GPa) = 0.02498618
#
# Stress axis : x y z
#
# Youngs Moduli (GPa) = 123.24038 62.40304 52.85910
#
# Poissons Ratio (x) = 0.41236 0.24413
# Poissons Ratio (y) = 0.81437 -0.11581
# Poissons Ratio (z) = 0.56919 -0.13672
#
# Static dielectric constant tensor:
#      x y z
#    x 1.909120 -0.103800 0.008760 
#    y -0.103800 1.957260 0.000530 
#    z 0.008760 0.000530 2.025170 
# 
# From -- ./inp_files/61172.got.cif
#   From: 2010.05.17/outbox.cif.g08.bks.cpg/sg2_31_cif.got.tgz:61172.got - 2010.06.03 11:33:40.
