data_PCOD9050665
_publ_section_title
;
Structure prediction by ZEFSAII (Michael W. Deem and Ramdas Pophale) SiO2 
 PCOD9050665
Probable space group: P -1
;
_chemical_formula_sum "Si O2"
_cell_formula_units_Z 16
_cell_length_a 8.738919
_cell_length_b 9.649652
_cell_length_c 16.013672
_cell_angle_alpha 143.486470
_cell_angle_beta 68.895877
_cell_angle_gamma 104.048763
_cell_volume 746.957559
_symmetry_space_group_name_H-M "P -1"
_symmetry_group_IT_number 2
_symmetry_cell_setting 'triclinic'
loop_
_space_group_symop_operation_xyz
x,y,z
-x,-y,-z
loop_
_atom_site_type_symbol
_atom_site_label
_atom_site_fract_x
_atom_site_fract_y
_atom_site_fract_z
Si Si1 0.566900 0.321158 0.094549
Si Si2 0.272558 0.591636 0.188524
Si Si3 0.193170 0.431970 0.944853
Si Si4 0.154136 0.455434 0.507220
Si Si5 0.327938 0.911470 0.712062
Si Si6 0.592949 0.933582 0.534967
Si Si7 0.935439 0.745183 0.397928
Si Si8 0.447841 0.167279 0.213356
O O1 0.397809 0.405438 0.120393
O O2 0.701815 0.482662 0.111616
O O3 0.529190 0.317273 0.198345
O O4 0.617676 0.055068 0.928100
O O5 0.085349 0.579592 0.251199
O O6 0.341317 0.837709 0.321609
O O7 0.262221 0.557604 0.074679
O O8 0.234563 0.156133 0.820074
O O9 0.000000 0.500000 0.000000
O O10 0.211411 0.704320 0.643351
O O11 0.098411 0.313952 0.528853
O O12 0.302676 0.314746 0.361333
O O13 0.000000 0.500000 0.500000
O O14 0.465250 0.839645 0.579761
O O15 0.422006 0.928129 0.788797
O O16 0.755134 0.763829 0.402199
O O17 0.500000 0.000000 0.500000
O O18 0.000000 0.000000 0.500000
#
# Coordination Sequence:
#
# PCOD9050665 Si02
#       8
#     2   2   2   2   2   2   2   2
#     4  11  24  46  77 101 143 190 242 290 359 437
#     4  11  23  46  71 105 144 187 242 300 356 414
#     4  12  28  46  75 107 143 194 246 300 353 435
#     4  12  28  45  71 104 148 184 238 301 360 424
#     4  12  26  47  71 105 145 188 240 298 363 427
#     4  11  25  41  74 107 142 186 243 298 354 433
#     4  10  25  43  70 105 140 189 236 295 355 428
#     4  11  25  47  73 106 140 192 236 293 367 424
#
# _framework density 21.420228000000002
#
# number of rings (size 3 to 8) (size 9 to 14) (size 15 to 20)
#    0.000    0.750    3.750    2.250   10.500    1.000 
#    0.000    1.250    0.000    0.000    0.000    0.000 
#    0.000    0.000    0.000    0.000    0.000    0.000 
#
# Total GULP energy -89533.737248 kJ/mol
# GULP energy per Si atom -5595.858578 kJ/mol
# Density = 2.137147 g / cm^3
# Si number density = 21.420228 Si / 1000 Ang^3
#
#
#
# Elastic Constant Matrix: (Units=GPa)
#
#
# Indices 1 2 3 4 5 6 
#
# 1 111.6745 62.6305 23.5767 1.8827 -24.7765 -11.1280
# 2 62.6305 189.3845 47.8535 -20.4517 -9.3745 4.0577
# 3 23.5767 47.8535 85.9271 2.7436 -5.6716 11.4143
# 4 1.8827 -20.4517 2.7436 37.1081 -2.7240 0.7427
# 5 -24.7765 -9.3745 -5.6716 -2.7240 42.4770 1.4613
# 6 -11.1280 4.0577 11.4143 0.7427 1.4613 29.2964
#
#
#
# Elastic Compliance Matrix: (Units=1/GPa)
#
#
# Indices 1 2 3 4 5 6 
#
# 1 0.013791 -0.004200 -0.001765 -0.002532 0.006504 0.006247
# 2 -0.004200 0.008029 -0.003325 0.004858 -0.000759 -0.001497
# 3 -0.001765 -0.003325 0.014867 -0.002705 0.000253 -0.005946
# 4 -0.002532 0.004858 -0.002705 0.030071 0.001211 -0.001404
# 5 0.006504 -0.000759 0.000253 0.001211 0.027243 0.001088
# 6 0.006247 -0.001497 -0.005946 -0.001404 0.001088 0.039012
#
#
# Mechanical properties :
#
#
# Convention : Reuss Voigt Hill
#
# Bulk Modulus (GPa) = 55.22874 72.78973 64.00924
# Shear Modulus (GPa) = 31.72037 38.63800 35.17919
#
# Velocity S-wave (km/s) = 3.85237 4.25173 4.05697
# Velocity P-wave (km/s) = 6.75478 7.62617 7.20367
#
# Compressibility (1/GPa) = 0.01810652
#
# Stress axis : x y z
#
# Youngs Moduli (GPa) = 72.51092 124.55477 67.26487
#
# Poissons Ratio (x) = 0.52315 0.11870
# Poissons Ratio (y) = 0.30456 0.22366
# Poissons Ratio (z) = 0.12795 0.41415
#
# Static dielectric constant tensor:
#      x y z
#    x 1.765710 0.008360 0.013140 
#    y 0.008360 1.751590 0.020950 
#    z 0.013140 0.020950 1.829860 
# 
# From -- ./inp_files/299103.got.cif
#   From: 2010.05.17/outbox.cif.g08.bks.cpg/sg2_150_cif.got.tgz:299103.got - 2010.06.03 11:33:40.
