data_PCOD9050636
_publ_section_title
;
Structure prediction by ZEFSAII (Michael W. Deem and Ramdas Pophale) SiO2 
 PCOD9050636
Probable space group: P -1
;
_chemical_formula_sum "Si O2"
_cell_formula_units_Z 16
_cell_length_a 14.386872
_cell_length_b 9.619700
_cell_length_c 13.099838
_cell_angle_alpha 94.248687
_cell_angle_beta 150.068122
_cell_angle_gamma 105.542127
_cell_volume 671.735017
_symmetry_space_group_name_H-M "P -1"
_symmetry_group_IT_number 2
_symmetry_cell_setting 'triclinic'
loop_
_space_group_symop_operation_xyz
x,y,z
-x,-y,-z
loop_
_atom_site_type_symbol
_atom_site_label
_atom_site_fract_x
_atom_site_fract_y
_atom_site_fract_z
Si Si1 0.771993 0.904884 0.407963
Si Si2 0.924337 0.350722 0.173035
Si Si3 0.616185 0.297392 0.466527
Si Si4 0.320220 0.232258 0.910498
Si Si5 0.371181 0.535570 0.093652
Si Si6 0.471954 0.033226 0.140278
Si Si7 0.238252 0.793878 0.215439
Si Si8 0.730924 0.657921 0.801548
O O1 0.738853 0.799648 0.267111
O O2 0.625161 0.751720 0.348156
O O3 0.641682 0.988566 0.267512
O O4 0.058876 0.074717 0.711029
O O5 0.214516 0.509829 0.427267
O O6 0.835351 0.454910 0.139772
O O7 0.807644 0.170438 0.121315
O O8 0.785297 0.264411 0.926801
O O9 0.758409 0.332082 0.707796
O O10 0.346898 0.226187 0.231865
O O11 0.578007 0.141748 0.354597
O O12 0.406909 0.422763 0.046599
O O13 0.479552 0.174209 0.085238
O O14 0.284859 0.440117 0.116018
O O15 0.500000 0.000000 0.500000
O O16 0.998278 0.769423 0.011198
O O17 0.500000 0.500000 0.500000
#
# Coordination Sequence:
#
# PCOD9050636 Si02
#       8
#     2   2   2   2   2   2   2   2
#     4  10  25  43  68  98 133 174 221 280 346 410
#     4  11  23  43  66  96 135 182 225 277 336 400
#     4  12  23  42  66  95 133 179 229 278 332 402
#     4  11  23  44  68  99 133 170 223 284 343 407
#     4  11  23  43  70  96 134 180 222 279 340 406
#     4  11  24  41  67  99 131 173 223 278 341 405
#     4  12  25  44  65  97 142 184 228 283 340 399
#     4  12  25  41  69 100 136 184 231 280 334 403
#
# _framework density 23.818916999999999
#
# number of rings (size 3 to 8) (size 9 to 14) (size 15 to 20)
#    0.000    0.750    5.000    2.625    1.750    0.500 
#    0.000    0.000    0.000    8.250    0.000    0.000 
#    0.000    0.000    0.000    0.000    0.000    0.000 
#
# Total GULP energy -89521.832443 kJ/mol
# GULP energy per Si atom -5595.114528 kJ/mol
# Density = 2.376470 g / cm^3
# Si number density = 23.818917 Si / 1000 Ang^3
#
#
#
# Elastic Constant Matrix: (Units=GPa)
#
#
# Indices 1 2 3 4 5 6 
#
# 1 49.3566 16.5805 10.4310 7.8684 -0.0214 -24.5927
# 2 16.5805 79.6087 24.5000 7.9929 9.1261 -19.7395
# 3 10.4310 24.5000 76.5769 5.5168 10.5705 -16.2243
# 4 7.8684 7.9929 5.5168 27.2656 -3.5455 2.4934
# 5 -0.0214 9.1261 10.5705 -3.5455 33.6112 -7.4733
# 6 -24.5927 -19.7395 -16.2243 2.4934 -7.4733 35.7390
#
#
#
# Elastic Compliance Matrix: (Units=1/GPa)
#
#
# Indices 1 2 3 4 5 6 
#
# 1 0.035163 -0.000470 0.001190 -0.012085 0.004332 0.026226
# 2 -0.000470 0.016079 -0.002890 -0.004954 -0.002404 0.007089
# 3 0.001190 -0.002890 0.015798 -0.003660 -0.003241 0.005972
# 4 -0.012085 -0.004954 -0.003660 0.044225 0.003818 -0.015001
# 5 0.004332 -0.002404 -0.003241 0.003818 0.033362 0.006892
# 6 0.026226 0.007089 0.005972 -0.015001 0.006892 0.055141
#
#
# Mechanical properties :
#
#
# Convention : Reuss Voigt Hill
#
# Bulk Modulus (GPa) = 15.94899 34.28505 25.11702
# Shear Modulus (GPa) = 22.22134 29.59187 25.90660
#
# Velocity S-wave (km/s) = 3.05770 3.52855 3.30153
# Velocity P-wave (km/s) = 4.37910 5.57011 5.01012
#
# Compressibility (1/GPa) = 0.06269990
#
# Stress axis : x y z
#
# Youngs Moduli (GPa) = 28.43874 62.19158 63.30085
#
# Poissons Ratio (x) = 0.02924 -0.07531
# Poissons Ratio (y) = 0.01337 0.18293
# Poissons Ratio (z) = -0.03383 0.17972
#
# Static dielectric constant tensor:
#      x y z
#    x 1.918520 0.012390 0.026350 
#    y 0.012390 1.965080 0.006690 
#    z 0.026350 0.006690 1.908110 
# 
# From -- ./inp_files/530036.got.cif
#   From: 2010.05.17/outbox.cif.g08.bks.cpg/sg2_266_cif.got.tgz:530036.got - 2010.06.03 11:33:40.
