data_PCOD9050277
_publ_section_title
;
Structure prediction by ZEFSAII (Michael W. Deem and Ramdas Pophale) SiO2 
 PCOD9050277
Probable space group: P -1
;
_chemical_formula_sum "Si O2"
_cell_formula_units_Z 16
_cell_length_a 18.961726
_cell_length_b 8.753672
_cell_length_c 9.935021
_cell_angle_alpha 136.112238
_cell_angle_beta 125.139216
_cell_angle_gamma 36.222278
_cell_volume 675.475376
_symmetry_space_group_name_H-M "P -1"
_symmetry_group_IT_number 2
_symmetry_cell_setting 'triclinic'
loop_
_space_group_symop_operation_xyz
x,y,z
-x,-y,-z
loop_
_atom_site_type_symbol
_atom_site_label
_atom_site_fract_x
_atom_site_fract_y
_atom_site_fract_z
Si Si1 0.758252 0.779739 0.635410
Si Si2 0.846812 0.393649 0.940184
Si Si3 0.502597 0.247119 0.293220
Si Si4 0.714974 0.083911 0.145093
Si Si5 0.722083 0.600945 0.207427
Si Si6 0.559666 0.507837 0.911908
Si Si7 0.076380 0.229146 0.020966
Si Si8 0.285491 0.529336 0.396233
O O1 0.770368 0.629890 0.413254
O O2 0.873502 0.718594 0.765860
O O3 0.744363 0.622099 0.636856
O O4 0.642013 0.147073 0.744303
O O5 0.812175 0.386165 0.048463
O O6 0.985617 0.203738 0.953430
O O7 0.773010 0.747575 0.040459
O O8 0.804444 0.297411 0.718451
O O9 0.500000 0.500000 0.500000
O O10 0.455579 0.334309 0.146115
O O11 0.414551 0.268308 0.305707
O O12 0.635096 0.933127 0.256020
O O13 0.712193 0.255663 0.375827
O O14 0.578221 0.298151 0.079112
O O15 0.805620 0.027096 0.099312
O O16 0.633511 0.553238 0.108303
O O17 0.000000 0.500000 0.000000
#
# Coordination Sequence:
#
# PCOD9050277 Si02
#       8
#     2   2   2   2   2   2   2   2
#     4  12  28  45  66 113 143 172 234 304 342 405
#     4  11  23  47  72  98 135 188 243 280 331 428
#     4  12  21  44  68 106 144 190 224 275 347 441
#     4  11  23  42  73 101 135 185 229 279 346 410
#     4  12  25  41  75 103 141 190 227 278 364 409
#     4  12  25  43  70 107 150 176 227 288 354 419
#     4  10  24  50  68  95 142 184 236 295 338 408
#     4  12  24  42  73 105 137 186 235 276 354 419
#
# _framework density 23.687023
#
# number of rings (size 3 to 8) (size 9 to 14) (size 15 to 20)
#    0.000    0.500    7.500    1.125    1.750    3.500 
#    0.000    0.625    0.000    0.000    0.000    0.000 
#    0.000    0.000    0.000    0.000    0.000    0.000 
#
# Total GULP energy -89560.406030 kJ/mol
# GULP energy per Si atom -5597.525377 kJ/mol
# Density = 2.363311 g / cm^3
# Si number density = 23.687023 Si / 1000 Ang^3
#
#
#
# Elastic Constant Matrix: (Units=GPa)
#
#
# Indices 1 2 3 4 5 6 
#
# 1 141.2294 13.2463 55.0627 -16.6970 -8.9168 -38.7948
# 2 13.2463 119.4432 41.0855 -14.7684 5.3993 -15.3366
# 3 55.0627 41.0855 165.4388 -37.0589 -0.7370 -20.8196
# 4 -16.6970 -14.7684 -37.0589 37.3860 5.2531 11.8481
# 5 -8.9168 5.3993 -0.7370 5.2531 31.8703 -3.6460
# 6 -38.7948 -15.3366 -20.8196 11.8481 -3.6460 33.5306
#
#
#
# Elastic Compliance Matrix: (Units=1/GPa)
#
#
# Indices 1 2 3 4 5 6 
#
# 1 0.012008 0.000957 -0.002990 -0.002329 0.005097 0.013852
# 2 0.000957 0.009630 -0.001962 0.001278 -0.001195 0.003712
# 3 -0.002990 -0.001962 0.009013 0.007583 -0.001732 -0.001629
# 4 -0.002329 0.001278 0.007583 0.038720 -0.008448 -0.012002
# 5 0.005097 -0.001195 -0.001732 -0.008448 0.035632 0.011135
# 6 0.013852 0.003712 -0.001629 -0.012002 0.011135 0.051988
#
#
# Mechanical properties :
#
#
# Convention : Reuss Voigt Hill
#
# Bulk Modulus (GPa) = 44.12913 71.65561 57.89237
# Shear Modulus (GPa) = 28.97975 41.67184 35.32579
#
# Velocity S-wave (km/s) = 3.50157 4.19891 3.86600
# Velocity P-wave (km/s) = 5.91765 7.33652 6.66495
#
# Compressibility (1/GPa) = 0.02266077
#
# Stress axis : x y z
#
# Youngs Moduli (GPa) = 83.27690 103.84701 110.95158
#
# Poissons Ratio (x) = -0.09939 0.33176
# Poissons Ratio (y) = -0.07970 0.21767
# Poissons Ratio (z) = 0.24901 0.20373
#
# Static dielectric constant tensor:
#      x y z
#    x 1.922190 0.041170 -0.008140 
#    y 0.041170 1.960110 -0.010750 
#    z -0.008140 -0.010750 1.925620 
# 
# From -- ./inp_files/343876.got.cif
#   From: 2010.05.17/outbox.cif.g08.bks.cpg/sg2_172_cif.got.tgz:343876.got - 2010.06.03 11:33:40.
