data_PCOD9050657
_publ_section_title
;
Structure prediction by ZEFSAII (Michael W. Deem and Ramdas Pophale) SiO2 
 PCOD9050657
Probable space group: P -1
;
_chemical_formula_sum "Si O2"
_cell_formula_units_Z 14
_cell_length_a 6.905944
_cell_length_b 10.809812
_cell_length_c 11.452096
_cell_angle_alpha 50.863904
_cell_angle_beta 94.336342
_cell_angle_gamma 81.649839
_cell_volume 640.314825
_symmetry_space_group_name_H-M "P -1"
_symmetry_group_IT_number 2
_symmetry_cell_setting 'triclinic'
loop_
_space_group_symop_operation_xyz
x,y,z
-x,-y,-z
loop_
_atom_site_type_symbol
_atom_site_label
_atom_site_fract_x
_atom_site_fract_y
_atom_site_fract_z
Si Si1 0.968260 0.825079 0.647790
Si Si2 0.637229 0.815409 0.109876
Si Si3 0.717564 0.608469 0.644524
Si Si4 0.036998 0.647835 0.334771
Si Si5 0.579030 0.346919 0.180869
Si Si6 0.574291 0.253375 0.654601
Si Si7 0.656479 0.873490 0.816181
O O1 0.186131 0.701409 0.751006
O O2 0.838222 0.745748 0.598411
O O3 0.841989 0.842800 0.752715
O O4 0.000000 0.000000 0.500000
O O5 0.504593 0.715212 0.234581
O O6 0.837581 0.785930 0.213838
O O7 0.692209 0.780544 0.998208
O O8 0.500000 0.000000 0.000000
O O9 0.878398 0.437129 0.733193
O O10 0.557419 0.612676 0.735126
O O11 0.590570 0.640711 0.500780
O O12 0.206954 0.717302 0.361525
O O13 0.000000 0.500000 0.500000
O O14 0.521084 0.188247 0.216305
O O15 0.500000 0.500000 0.000000
O O16 0.593620 0.065921 0.728384
#
# Coordination Sequence:
#
# PCOD9050657 Si02
#       7
#     2   2   2   2   2   2   2
#     4  11  25  45  73  97 133 185 228 279 334 401
#     4  10  25  45  67 100 141 175 226 274 343 408
#     4  11  26  43  69 103 138 173 234 274 343 403
#     4  12  27  41  72 105 134 181 228 278 343 400
#     4  11  27  43  70  99 138 178 222 288 338 392
#     4  11  24  45  70 100 140 178 224 285 336 404
#     4  10  25  43  69  99 135 178 231 270 341 405
#
# _framework density 21.864246000000001
#
# number of rings (size 3 to 8) (size 9 to 14) (size 15 to 20)
#    0.000    1.143    1.429    2.143   10.000    8.000 
#    0.000    0.000    0.000    0.000    0.000    0.000 
#    0.000    0.000    0.000    0.000    0.000    0.000 
#
# Total GULP energy -78260.727086 kJ/mol
# GULP energy per Si atom -5590.051935 kJ/mol
# Density = 2.181448 g / cm^3
# Si number density = 21.864246 Si / 1000 Ang^3
#
#
#
# Elastic Constant Matrix: (Units=GPa)
#
#
# Indices 1 2 3 4 5 6 
#
# 1 146.0884 28.7298 59.2025 1.8327 12.3746 1.2027
# 2 28.7298 79.2478 17.7462 -3.0253 -0.6399 3.2530
# 3 59.2025 17.7462 112.0286 7.0159 7.3364 -2.7591
# 4 1.8327 -3.0253 7.0159 31.5823 -9.7051 0.2275
# 5 12.3746 -0.6399 7.3364 -9.7051 42.2287 -3.1167
# 6 1.2027 3.2530 -2.7591 0.2275 -3.1167 29.4895
#
#
#
# Elastic Compliance Matrix: (Units=1/GPa)
#
#
# Indices 1 2 3 4 5 6 
#
# 1 0.009283 -0.002389 -0.004376 -0.000452 -0.002155 -0.000749
# 2 -0.002389 0.013912 -0.001215 0.002221 0.001529 -0.001406
# 3 -0.004376 -0.001215 0.011732 -0.002891 -0.001343 0.001290
# 4 -0.000452 0.002221 -0.002891 0.035241 0.008779 0.000159
# 5 -0.002155 0.001529 -0.001343 0.008779 0.026775 0.002556
# 6 -0.000749 -0.001406 0.001290 0.000159 0.002556 0.034486
#
#
# Mechanical properties :
#
#
# Convention : Reuss Voigt Hill
#
# Bulk Modulus (GPa) = 52.72558 60.96908 56.84733
# Shear Modulus (GPa) = 32.52846 36.10584 34.31715
#
# Velocity S-wave (km/s) = 3.86132 4.06811 3.96606
# Velocity P-wave (km/s) = 6.63679 7.07190 6.85780
#
# Compressibility (1/GPa) = 0.01896612
#
# Stress axis : x y z
#
# Youngs Moduli (GPa) = 107.72502 71.88154 85.23600
#
# Poissons Ratio (x) = 0.17175 0.37300
# Poissons Ratio (y) = 0.25739 0.10355
# Poissons Ratio (z) = 0.47142 0.08733
#
# Static dielectric constant tensor:
#      x y z
#    x 1.794450 -0.026570 -0.006350 
#    y -0.026570 1.831830 -0.016820 
#    z -0.006350 -0.016820 1.932340 
# 
# From -- ./inp_files/71149.got.cif
#   From: 2010.05.17/outbox.cif.g08.bks.cpg/sg2_36_cif.got.tgz:71149.got - 2010.06.03 11:33:40.
