data_PCOD9050031
_publ_section_title
;
Structure prediction by ZEFSAII (Michael W. Deem and Ramdas Pophale) SiO2 
 PCOD9050031
Probable space group: P -1
;
_chemical_formula_sum "Si O2"
_cell_formula_units_Z 14
_cell_length_a 11.692747
_cell_length_b 9.200853
_cell_length_c 12.589590
_cell_angle_alpha 152.374101
_cell_angle_beta 102.377362
_cell_angle_gamma 73.548594
_cell_volume 600.292559
_symmetry_space_group_name_H-M "P -1"
_symmetry_group_IT_number 2
_symmetry_cell_setting 'triclinic'
loop_
_space_group_symop_operation_xyz
x,y,z
-x,-y,-z
loop_
_atom_site_type_symbol
_atom_site_label
_atom_site_fract_x
_atom_site_fract_y
_atom_site_fract_z
Si Si1 0.725948 0.100375 0.021252
Si Si2 0.447511 0.329556 0.278451
Si Si3 0.898722 0.183089 0.937302
Si Si4 0.831860 0.975648 0.183526
Si Si5 0.129794 0.058078 0.594529
Si Si6 0.741460 0.333132 0.811671
Si Si7 0.500110 0.632672 0.277657
O O1 0.629833 0.400578 0.150187
O O2 0.745116 0.131986 0.172590
O O3 0.850035 0.082087 0.972854
O O4 0.672415 0.784335 0.784539
O O5 0.500000 0.500000 0.500000
O O6 0.449064 0.584743 0.352893
O O7 0.500000 0.000000 0.000000
O O8 0.805099 0.139195 0.798925
O O9 0.034400 0.034900 0.838431
O O10 0.887654 0.562370 0.169686
O O11 0.831330 0.091515 0.379538
O O12 0.801703 0.623722 0.970764
O O13 0.229210 0.917531 0.439099
O O14 0.000000 0.000000 0.500000
O O15 0.600237 0.460876 0.880591
O O16 0.500000 0.000000 0.500000
#
# Coordination Sequence:
#
# PCOD9050031 Si02
#       7
#     2   2   2   2   2   2   2
#     4  11  25  47  67 108 148 191 239 308 384 439
#     4  10  24  48  73 104 149 197 248 308 379 448
#     4  11  23  41  68 101 143 183 240 297 366 451
#     4  11  22  43  69  99 140 185 235 299 366 442
#     4  11  20  41  70 101 135 187 242 295 362 441
#     4  11  22  41  69  99 134 184 238 294 364 434
#     4  11  25  46  71 105 140 190 251 302 370 446
#
# _framework density 23.321961999999999
#
# number of rings (size 3 to 8) (size 9 to 14) (size 15 to 20)
#    0.000    1.143    4.286    2.143    2.000    2.857 
#    5.143    0.714    0.000    0.000    0.000    0.000 
#    0.000    0.000    0.000    0.000    0.000    0.000 
#
# Total GULP energy -78091.725594 kJ/mol
# GULP energy per Si atom -5577.980400 kJ/mol
# Density = 2.326888 g / cm^3
# Si number density = 23.321962 Si / 1000 Ang^3
#
#
#
# Elastic Constant Matrix: (Units=GPa)
#
#
# Indices 1 2 3 4 5 6 
#
# 1 72.2913 26.1800 24.5995 -4.0699 18.1046 -0.2556
# 2 26.1800 116.5304 48.4018 -7.9607 17.6562 0.7245
# 3 24.5995 48.4018 80.9734 -12.8339 5.8497 -3.5775
# 4 -4.0699 -7.9607 -12.8339 39.0371 -0.1854 12.8246
# 5 18.1046 17.6562 5.8497 -0.1854 28.1251 2.3170
# 6 -0.2556 0.7245 -3.5775 12.8246 2.3170 46.0898
#
#
#
# Elastic Compliance Matrix: (Units=1/GPa)
#
#
# Indices 1 2 3 4 5 6 
#
# 1 0.018163 -0.000710 -0.004301 0.000206 -0.010370 0.000242
# 2 -0.000710 0.012485 -0.006781 0.000391 -0.005923 -0.000538
# 3 -0.004301 -0.006781 0.018129 0.004082 0.003266 0.000190
# 4 0.000206 0.000391 0.004082 0.029661 -0.000379 -0.007922
# 5 -0.010370 -0.005923 0.003266 -0.000379 0.045423 -0.001889
# 6 0.000242 -0.000538 0.000190 -0.007922 -0.001889 0.024021
#
#
# Mechanical properties :
#
#
# Convention : Reuss Voigt Hill
#
# Bulk Modulus (GPa) = 39.69356 52.01750 45.85553
# Shear Modulus (GPa) = 27.79880 34.02467 30.91174
#
# Velocity S-wave (km/s) = 3.45622 3.82371 3.64460
# Velocity P-wave (km/s) = 5.74317 6.46892 6.11682
#
# Compressibility (1/GPa) = 0.02519300
#
# Stress axis : x y z
#
# Youngs Moduli (GPa) = 55.05635 80.09533 55.16005
#
# Poissons Ratio (x) = 0.05690 0.23723
# Poissons Ratio (y) = 0.03911 0.37404
# Poissons Ratio (z) = 0.23678 0.54313
#
# Static dielectric constant tensor:
#      x y z
#    x 2.646350 -0.635790 0.332460 
#    y -0.635790 2.358260 -0.312930 
#    z 0.332460 -0.312930 2.086450 
# 
# From -- ./inp_files/89978.got.cif
#   From: 2010.05.17/outbox.cif.g08.bks.cpg/sg2_45_cif.got.tgz:89978.got - 2010.06.03 11:33:40.
