data_PCOD9050552
_publ_section_title
;
Structure prediction by ZEFSAII (Michael W. Deem and Ramdas Pophale) SiO2 
 PCOD9050552
Probable space group: P -1
;
_chemical_formula_sum "Si O2"
_cell_formula_units_Z 12
_cell_length_a 10.573578
_cell_length_b 10.924880
_cell_length_c 7.079569
_cell_angle_alpha 112.648182
_cell_angle_beta 61.840258
_cell_angle_gamma 140.416954
_cell_volume 459.085401
_symmetry_space_group_name_H-M "P -1"
_symmetry_group_IT_number 2
_symmetry_cell_setting 'triclinic'
loop_
_space_group_symop_operation_xyz
x,y,z
-x,-y,-z
loop_
_atom_site_type_symbol
_atom_site_label
_atom_site_fract_x
_atom_site_fract_y
_atom_site_fract_z
Si Si1 0.700877 0.792642 0.024056
Si Si2 0.290503 0.913069 0.209074
Si Si3 0.643474 0.277813 0.335958
Si Si4 0.581508 0.510892 0.654091
Si Si5 0.264530 0.617867 0.100756
Si Si6 0.892878 0.185924 0.114404
O O1 0.620281 0.647078 0.164522
O O2 0.605622 0.906138 0.628098
O O3 0.857656 0.013558 0.106234
O O4 0.725944 0.715852 0.776980
O O5 0.207422 0.729070 0.266938
O O6 0.136119 0.850216 0.114917
O O7 0.500000 0.000000 0.000000
O O8 0.683127 0.433755 0.522075
O O9 0.503840 0.259220 0.925184
O O10 0.728698 0.192187 0.289609
O O11 0.741376 0.376474 0.120690
O O12 0.500000 0.500000 0.500000
O O13 0.106518 0.399271 0.138254
#
# Coordination Sequence:
#
# PCOD9050552 Si02
#       6
#     2   2   2   2   2   2
#     4  11  22  41  64  86 119 160 197 247 296 351
#     4   8  13  28  55  88 117 147 185 235 290 342
#     4  10  17  35  64  89 119 158 198 242 297 350
#     4  11  23  40  65  84 119 164 200 241 299 354
#     4  10  17  34  63  90 123 152 194 246 301 350
#     4  10  18  34  63  93 118 155 195 246 304 346
#
# _framework density 26.138929000000001
#
# number of rings (size 3 to 8) (size 9 to 14) (size 15 to 20)
#    0.000    2.333    6.667    2.000    0.000    0.667 
#    0.000    5.000   11.000    0.000    0.000    0.000 
#    0.000    0.000    0.000    0.000    0.000    0.000 
#
# Total GULP energy -67075.926245 kJ/mol
# GULP energy per Si atom -5589.660520 kJ/mol
# Density = 2.607944 g / cm^3
# Si number density = 26.138929 Si / 1000 Ang^3
#
#
#
# Elastic Constant Matrix: (Units=GPa)
#
#
# Indices 1 2 3 4 5 6 
#
# 1 72.5143 22.7730 20.3166 9.5002 4.6762 -21.7116
# 2 22.7730 184.7298 39.9602 32.7434 8.4340 -7.8841
# 3 20.3166 39.9602 106.2497 15.8114 18.0693 -17.3653
# 4 9.5002 32.7434 15.8114 23.2771 -7.3027 0.8256
# 5 4.6762 8.4340 18.0693 -7.3027 27.3596 5.7936
# 6 -21.7116 -7.8841 -17.3653 0.8256 5.7936 34.1086
#
#
#
# Elastic Compliance Matrix: (Units=1/GPa)
#
#
# Indices 1 2 3 4 5 6 
#
# 1 0.021559 0.001450 0.004128 -0.019392 -0.016136 0.019371
# 2 0.001450 0.008602 0.001644 -0.017083 -0.009778 0.005823
# 3 0.004128 0.001644 0.018419 -0.024486 -0.023507 0.016971
# 4 -0.019392 -0.017083 -0.024486 0.113089 0.063905 -0.042351
# 5 -0.016136 -0.009778 -0.023507 0.063905 0.083420 -0.040216
# 6 0.019371 0.005823 0.016971 -0.042351 -0.040216 0.059490
#
#
# Mechanical properties :
#
#
# Convention : Reuss Voigt Hill
#
# Bulk Modulus (GPa) = 15.86670 58.84372 37.35521
# Shear Modulus (GPa) = 16.06976 35.64533 25.85754
#
# Velocity S-wave (km/s) = 2.48217 3.69682 3.14862
# Velocity P-wave (km/s) = 3.78130 6.38614 5.24790
#
# Compressibility (1/GPa) = 0.06302508
#
# Stress axis : x y z
#
# Youngs Moduli (GPa) = 46.38351 116.25578 54.29130
#
# Poissons Ratio (x) = -0.16856 -0.22412
# Poissons Ratio (y) = -0.06725 -0.08928
# Poissons Ratio (z) = -0.19148 -0.19117
#
# Static dielectric constant tensor:
#      x y z
#    x 2.110860 -0.017110 -0.043640 
#    y -0.017110 2.130280 0.001110 
#    z -0.043640 0.001110 2.124610 
# 
# From -- ./inp_files/94030.got.cif
#   From: 2010.05.17/outbox.cif.g08.bks.cpg/sg2_48_cif.got.tgz:94030.got - 2010.06.03 11:33:40.
