data_PCOD9050307
_publ_section_title
;
Structure prediction by ZEFSAII (Michael W. Deem and Ramdas Pophale) SiO2 
 PCOD9050307
Probable space group: P -1
;
_chemical_formula_sum "Si O2"
_cell_formula_units_Z 13
_cell_length_a 9.300169
_cell_length_b 14.167836
_cell_length_c 5.417657
_cell_angle_alpha 105.378793
_cell_angle_beta 76.194709
_cell_angle_gamma 59.704173
_cell_volume 531.515434
_symmetry_space_group_name_H-M "P -1"
_symmetry_group_IT_number 2
_symmetry_cell_setting 'triclinic'
loop_
_space_group_symop_operation_xyz
x,y,z
-x,-y,-z
loop_
_atom_site_type_symbol
_atom_site_label
_atom_site_fract_x
_atom_site_fract_y
_atom_site_fract_z
Si Si1 0.604252 0.356744 0.886865
Si Si2 0.689415 0.642326 0.290665
Si Si3 0.991051 0.793750 0.594634
Si Si4 0.000000 0.000000 0.000000
Si Si5 0.598946 0.997013 0.705117
Si Si6 0.417251 0.805922 0.878344
Si Si7 0.990340 0.594487 0.759702
O O1 0.495031 0.330345 0.726131
O O2 0.582472 0.307127 0.116043
O O3 0.820107 0.282126 0.690785
O O4 0.500000 0.500000 0.000000
O O5 0.822279 0.500355 0.226831
O O6 0.814507 0.650043 0.048919
O O7 0.610357 0.742195 0.609675
O O8 0.996295 0.887762 0.826982
O O9 0.983817 0.698803 0.693508
O O10 0.812785 0.877368 0.548605
O O11 0.229649 0.902819 0.874258
O O12 0.594140 0.116398 0.828437
O O13 0.500000 0.000000 0.500000
O O14 0.500000 0.000000 0.000000
O O15 0.000000 0.500000 0.500000
#
# Coordination Sequence:
#
# PCOD9050307 Si02
#       7
#     2   2   2   1   2   2   2
#     4  12  27  47  78 116 156 212 268 349 417 497
#     4  11  25  48  78 112 165 211 274 342 422 493
#     4  11  26  49  80 118 159 214 283 338 419 496
#     4  10  24  50  74 112 158 218 268 338 400 494
#     4  11  30  52  82 120 166 222 279 346 421 497
#     4  11  26  47  79 113 161 211 281 336 413 499
#     4  11  26  48  77 118 161 213 271 343 420 499
#
# _framework density 24.458368
#
# number of rings (size 3 to 8) (size 9 to 14) (size 15 to 20)
#    0.000    0.923    1.538    2.769    8.615    6.154 
#    2.769    2.308    0.000    0.000    0.000    0.000 
#    0.000    0.000    0.000    0.000    0.000    0.000 
#
# Total GULP energy -72622.539148 kJ/mol
# GULP energy per Si atom -5586.349165 kJ/mol
# Density = 2.440270 g / cm^3
# Si number density = 24.458368 Si / 1000 Ang^3
#
#
#
# Elastic Constant Matrix: (Units=GPa)
#
#
# Indices 1 2 3 4 5 6 
#
# 1 157.8878 77.7022 84.3804 8.7554 -14.2021 -25.9474
# 2 77.7022 114.1474 78.2143 12.9098 -15.5840 1.7221
# 3 84.3804 78.2143 133.7907 9.2262 -26.8135 -0.8493
# 4 8.7554 12.9098 9.2262 36.6609 -0.0143 1.7979
# 5 -14.2021 -15.5840 -26.8135 -0.0143 47.0527 11.3849
# 6 -25.9474 1.7221 -0.8493 1.7979 11.3849 53.9066
#
#
#
# Elastic Compliance Matrix: (Units=1/GPa)
#
#
# Indices 1 2 3 4 5 6 
#
# 1 0.012766 -0.005499 -0.005316 -0.000109 -0.002642 0.006799
# 2 -0.005499 0.017343 -0.006202 -0.003061 0.001393 -0.003491
# 3 -0.005316 -0.006202 0.015675 -0.000323 0.006094 -0.003390
# 4 -0.000109 -0.003061 -0.000323 0.028496 -0.001056 -0.000687
# 5 -0.002642 0.001393 0.006094 -0.001056 0.026005 -0.006677
# 6 0.006799 -0.003491 -0.003390 -0.000687 -0.006677 0.023314
#
#
# Mechanical properties :
#
#
# Convention : Reuss Voigt Hill
#
# Bulk Modulus (GPa) = 85.10606 98.49107 91.79857
# Shear Modulus (GPa) = 30.95025 38.55929 34.75477
#
# Velocity S-wave (km/s) = 3.56114 3.97486 3.77367
# Velocity P-wave (km/s) = 7.19589 7.83724 7.52340
#
# Compressibility (1/GPa) = 0.01175004
#
# Stress axis : x y z
#
# Youngs Moduli (GPa) = 78.33038 57.66095 63.79605
#
# Poissons Ratio (x) = 0.31707 0.33913
# Poissons Ratio (y) = 0.43073 0.39568
# Poissons Ratio (z) = 0.41639 0.35763
#
# Static dielectric constant tensor:
#      x y z
#    x 2.081530 0.140500 0.075220 
#    y 0.140500 2.112610 -0.042210 
#    z 0.075220 -0.042210 2.007030 
# 
# From -- ./inp_files/36538.got.cif
#   From: 2010.05.17/outbox.cif.g08.bks.cpg/sg2_19_cif.got.tgz:36538.got - 2010.06.03 11:33:40.
