data_PCOD9050321
_publ_section_title
;
Structure prediction by ZEFSAII (Michael W. Deem and Ramdas Pophale) SiO2 
 PCOD9050321
Probable space group: P -1
;
_chemical_formula_sum "Si O2"
_cell_formula_units_Z 16
_cell_length_a 11.076003
_cell_length_b 8.822786
_cell_length_c 19.460761
_cell_angle_alpha 43.175572
_cell_angle_beta 43.476229
_cell_angle_gamma 29.310962
_cell_volume 613.718966
_symmetry_space_group_name_H-M "P -1"
_symmetry_group_IT_number 2
_symmetry_cell_setting 'triclinic'
loop_
_space_group_symop_operation_xyz
x,y,z
-x,-y,-z
loop_
_atom_site_type_symbol
_atom_site_label
_atom_site_fract_x
_atom_site_fract_y
_atom_site_fract_z
Si Si1 0.684476 0.896747 0.858178
Si Si2 0.050303 0.549209 0.701734
Si Si3 0.881894 0.821678 0.544510
Si Si4 0.650642 0.637533 0.573384
Si Si5 0.408202 0.544660 0.601345
Si Si6 0.207148 0.720577 0.948735
Si Si7 0.545044 0.153623 0.268091
Si Si8 0.887770 0.386885 0.118768
O O1 0.795986 0.775998 0.775480
O O2 0.902281 0.830611 0.834680
O O3 0.406385 0.268913 0.855604
O O4 0.691937 0.624732 0.965751
O O5 0.274736 0.432545 0.697348
O O6 0.001755 0.759775 0.589429
O O7 0.171768 0.218613 0.727702
O O8 0.646985 0.880041 0.642510
O O9 0.088201 0.510775 0.517444
O O10 0.818761 0.070378 0.434536
O O11 0.593651 0.473763 0.604169
O O12 0.559379 0.649360 0.682714
O O13 0.500000 0.000000 0.500000
O O14 0.500000 0.500000 0.500000
O O15 0.436295 0.688953 0.854164
O O16 0.106677 0.796207 0.885375
O O17 0.000000 0.000000 0.000000
O O18 0.000000 0.500000 0.000000
#
# Coordination Sequence:
#
# PCOD9050321 Si02
#       8
#     2   2   2   2   2   2   2   2
#     4  11  26  51  77 112 156 202 251 318 374 458
#     4  12  26  44  72 107 145 196 247 301 375 451
#     4  12  24  44  71 101 145 192 242 303 375 439
#     4  12  24  45  68 101 145 188 236 308 370 446
#     4  12  24  43  71  98 144 188 245 302 367 449
#     4  11  24  48  77 109 146 198 249 311 384 448
#     4  12  26  46  69 107 148 190 248 303 381 451
#     4  10  24  50  77 105 150 198 254 312 380 442
#
# _framework density 26.070564999999998
#
# number of rings (size 3 to 8) (size 9 to 14) (size 15 to 20)
#    0.000    0.500    6.250    2.250    3.500    1.000 
#    6.750    6.250    0.000    0.000    0.000    0.000 
#    0.000    0.000    0.000    0.000    0.000    0.000 
#
# Total GULP energy -89141.233990 kJ/mol
# GULP energy per Si atom -5571.327124 kJ/mol
# Density = 2.601123 g / cm^3
# Si number density = 26.070565 Si / 1000 Ang^3
#
#
#
# Elastic Constant Matrix: (Units=GPa)
#
#
# Indices 1 2 3 4 5 6 
#
# 1 112.6850 30.5502 34.8117 15.0634 5.9514 10.3161
# 2 30.5502 143.5834 52.5131 36.8859 -2.2968 3.0756
# 3 34.8117 52.5131 152.6955 32.1359 8.3275 12.7782
# 4 15.0634 36.8859 32.1359 57.7795 13.2419 -2.2250
# 5 5.9514 -2.2968 8.3275 13.2419 36.0825 -0.6463
# 6 10.3161 3.0756 12.7782 -2.2250 -0.6463 36.9276
#
#
#
# Elastic Compliance Matrix: (Units=1/GPa)
#
#
# Indices 1 2 3 4 5 6 
#
# 1 0.010059 -0.001404 -0.001394 -0.000767 -0.001186 -0.002278
# 2 -0.001404 0.009390 -0.001980 -0.005264 0.003219 0.000034
# 3 -0.001394 -0.001980 0.008432 -0.002979 -0.000795 -0.002557
# 4 -0.000767 -0.005264 -0.002979 0.024586 -0.008490 0.003016
# 5 -0.001186 0.003219 -0.000795 -0.008490 0.031421 0.000377
# 6 -0.002278 0.000034 -0.002557 0.003016 0.000377 0.028787
#
#
# Mechanical properties :
#
#
# Convention : Reuss Voigt Hill
#
# Bulk Modulus (GPa) = 54.56592 71.63490 63.10041
# Shear Modulus (GPa) = 38.95947 45.56385 42.26166
#
# Velocity S-wave (km/s) = 3.86992 4.18510 4.03059
# Velocity P-wave (km/s) = 6.39874 7.13375 6.77622
#
# Compressibility (1/GPa) = 0.01832646
#
# Stress axis : x y z
#
# Youngs Moduli (GPa) = 99.41195 106.49154 118.59780
#
# Poissons Ratio (x) = 0.14948 0.16531
# Poissons Ratio (y) = 0.13954 0.23483
# Poissons Ratio (z) = 0.13856 0.21085
#
# Static dielectric constant tensor:
#      x y z
#    x 2.268150 0.012630 -0.047560 
#    y 0.012630 2.114580 -0.127590 
#    z -0.047560 -0.127590 2.116390 
# 
# From -- ./inp_files/594036.got.cif
#   From: 2010.05.17/outbox.cif.g08.bks.cpg/sg2_298_cif.got.tgz:594036.got - 2010.06.03 11:33:40.
