data_PCOD9050459
_publ_section_title
;
Structure prediction by ZEFSAII (Michael W. Deem and Ramdas Pophale) SiO2 
 PCOD9050459
Probable space group: P -1
;
_chemical_formula_sum "Si O2"
_cell_formula_units_Z 16
_cell_length_a 19.070870
_cell_length_b 6.088711
_cell_length_c 8.158250
_cell_angle_alpha 114.300453
_cell_angle_beta 118.332683
_cell_angle_gamma 63.650846
_cell_volume 722.561967
_symmetry_space_group_name_H-M "P -1"
_symmetry_group_IT_number 2
_symmetry_cell_setting 'triclinic'
loop_
_space_group_symop_operation_xyz
x,y,z
-x,-y,-z
loop_
_atom_site_type_symbol
_atom_site_label
_atom_site_fract_x
_atom_site_fract_y
_atom_site_fract_z
Si Si1 0.832889 0.919288 0.150069
Si Si2 0.772985 0.431371 0.400994
Si Si3 0.370393 0.100706 0.556176
Si Si4 0.096101 0.451662 0.623332
Si Si5 0.481697 0.817860 0.071309
Si Si6 0.091197 0.913196 0.992109
Si Si7 0.673971 0.803115 0.842098
Si Si8 0.737487 0.265252 0.670758
O O1 0.864344 0.817911 0.332344
O O2 0.781100 0.208716 0.214071
O O3 0.906422 0.899978 0.098110
O O4 0.769327 0.793188 0.964326
O O5 0.689864 0.657122 0.342580
O O6 0.853653 0.517522 0.472766
O O7 0.766129 0.354018 0.556960
O O8 0.462314 0.106179 0.703141
O O9 0.355950 0.135476 0.357591
O O10 0.328965 0.883512 0.487746
O O11 0.102962 0.646410 0.832721
O O12 0.000000 0.500000 0.500000
O O13 0.384772 0.970466 0.045793
O O14 0.500000 0.500000 0.000000
O O15 0.500000 0.000000 0.000000
O O16 0.175451 0.881808 0.184148
O O17 0.000000 0.000000 0.000000
O O18 0.682348 0.509080 0.789542
#
# Coordination Sequence:
#
# PCOD9050459 Si02
#       8
#     2   2   2   2   2   2   2   2
#     4  11  23  45  67  98 136 189 234 296 360 430
#     4  10  25  41  71  95 142 181 243 290 367 432
#     4  11  25  47  73 106 142 187 239 294 372 436
#     4  11  26  42  64  97 136 191 239 296 363 433
#     4  12  31  49  78 114 151 194 244 309 370 447
#     4  11  26  41  67 102 140 182 241 300 359 430
#     4  11  25  46  74 101 145 186 243 298 366 444
#     4  11  24  44  72 106 137 191 237 303 370 433
#
# _framework density 22.143429999999999
#
# number of rings (size 3 to 8) (size 9 to 14) (size 15 to 20)
#    0.000    1.000    2.500    1.875   14.000    2.000 
#    0.000    0.000    0.000    0.000    0.000    0.000 
#    0.000    0.000    0.000    0.000    0.000    0.000 
#
# Total GULP energy -89172.788805 kJ/mol
# GULP energy per Si atom -5573.299300 kJ/mol
# Density = 2.209303 g / cm^3
# Si number density = 22.143430 Si / 1000 Ang^3
#
#
#
# Elastic Constant Matrix: (Units=GPa)
#
#
# Indices 1 2 3 4 5 6 
#
# 1 103.0767 35.4717 16.6481 3.4879 10.1775 6.5505
# 2 35.4717 94.4116 12.8764 11.8736 -3.8914 5.2553
# 3 16.6481 12.8764 61.9973 -4.8652 12.8582 13.7477
# 4 3.4879 11.8736 -4.8652 25.7011 -5.1077 -4.6931
# 5 10.1775 -3.8914 12.8582 -5.1077 33.1827 1.7673
# 6 6.5505 5.2553 13.7477 -4.6931 1.7673 32.5703
#
#
#
# Elastic Compliance Matrix: (Units=1/GPa)
#
#
# Indices 1 2 3 4 5 6 
#
# 1 0.011842 -0.004253 -0.001370 -0.000820 -0.003671 -0.001036
# 2 -0.004253 0.013438 -0.002441 -0.005727 0.003013 -0.001271
# 3 -0.001370 -0.002441 0.020219 0.002459 -0.006943 -0.007134
# 4 -0.000820 -0.005727 0.002459 0.044271 0.005114 0.006153
# 5 -0.003671 0.003013 -0.006943 0.005114 0.034985 0.002021
# 6 -0.001036 -0.001271 -0.007134 0.006153 0.002021 0.034904
#
#
# Mechanical properties :
#
#
# Convention : Reuss Voigt Hill
#
# Bulk Modulus (GPa) = 34.04660 43.27534 38.66097
# Shear Modulus (GPa) = 26.94265 31.25678 29.09971
#
# Velocity S-wave (km/s) = 3.49196 3.76115 3.62905
# Velocity P-wave (km/s) = 5.62736 6.20059 5.92092
#
# Compressibility (1/GPa) = 0.02937151
#
# Stress axis : x y z
#
# Youngs Moduli (GPa) = 84.44205 74.41648 49.45737
#
# Poissons Ratio (x) = 0.31649 0.06775
# Poissons Ratio (y) = 0.35913 0.12074
# Poissons Ratio (z) = 0.11568 0.18167
#
# Static dielectric constant tensor:
#      x y z
#    x 1.914260 0.048590 0.019050 
#    y 0.048590 1.916170 0.021250 
#    z 0.019050 0.021250 1.797350 
# 
# From -- ./inp_files/39010.got.cif
#   From: 2010.05.17/outbox.cif.g08.bks.cpg/sg2_20_cif.got.tgz:39010.got - 2010.06.03 11:33:40.
