data_PCOD9050959
_publ_section_title
;
Structure prediction by ZEFSAII (Michael W. Deem and Ramdas Pophale) SiO2 
 PCOD9050959
Probable space group: P -1
;
_chemical_formula_sum "Si O2"
_cell_formula_units_Z 12
_cell_length_a 11.878847
_cell_length_b 9.829537
_cell_length_c 7.908533
_cell_angle_alpha 77.491975
_cell_angle_beta 57.131537
_cell_angle_gamma 40.587701
_cell_volume 471.195944
_symmetry_space_group_name_H-M "P -1"
_symmetry_group_IT_number 2
_symmetry_cell_setting 'triclinic'
loop_
_space_group_symop_operation_xyz
x,y,z
-x,-y,-z
loop_
_atom_site_type_symbol
_atom_site_label
_atom_site_fract_x
_atom_site_fract_y
_atom_site_fract_z
Si Si1 0.907888 0.937226 0.503671
Si Si2 0.837345 0.243153 0.990108
Si Si3 0.466630 0.752457 0.842914
Si Si4 0.922974 0.471991 0.410868
Si Si5 0.566801 0.700199 0.170839
Si Si6 0.301488 0.160327 0.752021
O O1 0.659310 0.159012 0.598620
O O2 0.000000 0.000000 0.500000
O O3 0.048347 0.792983 0.261960
O O4 0.926730 0.785980 0.648455
O O5 0.628758 0.321879 0.088230
O O6 0.752900 0.436144 0.124057
O O7 0.000000 0.000000 0.000000
O O8 0.684794 0.602759 0.601978
O O9 0.290788 0.009632 0.857164
O O10 0.524805 0.729634 0.996874
O O11 0.894422 0.602432 0.244988
O O12 0.000000 0.500000 0.500000
O O13 0.626717 0.802657 0.160707
O O14 0.500000 0.000000 0.500000
#
# Coordination Sequence:
#
# PCOD9050959 Si02
#       6
#     2   2   2   2   2   2
#     4  12  25  46  75 106 147 191 244 294 372 426
#     4  12  29  47  74 112 148 191 245 301 360 445
#     4  11  23  49  72 106 153 187 244 303 359 432
#     4  11  25  46  74 105 148 190 243 305 359 429
#     4  12  25  48  77 106 148 196 239 307 363 429
#     4  10  25  44  74 107 144 193 245 300 358 430
#
# _framework density 25.467110999999999
#
# number of rings (size 3 to 8) (size 9 to 14) (size 15 to 20)
#    0.000    0.667    3.333    4.000    9.333    0.667 
#    0.000    2.500    0.000    0.000    0.000    0.000 
#    0.000    0.000    0.000    0.000    0.000    0.000 
#
# Total GULP energy -67310.686283 kJ/mol
# GULP energy per Si atom -5609.223857 kJ/mol
# Density = 2.540915 g / cm^3
# Si number density = 25.467111 Si / 1000 Ang^3
#
#
#
# Elastic Constant Matrix: (Units=GPa)
#
#
# Indices 1 2 3 4 5 6 
#
# 1 73.1913 10.0336 7.7677 8.3618 -2.5493 15.8544
# 2 10.0336 167.3161 11.5421 8.5771 -3.7117 10.3348
# 3 7.7677 11.5421 90.0878 23.2109 -21.8277 6.5140
# 4 8.3618 8.5771 23.2109 42.4819 -6.9339 5.1665
# 5 -2.5493 -3.7117 -21.8277 -6.9339 32.8610 4.6451
# 6 15.8544 10.3348 6.5140 5.1665 4.6451 44.2886
#
#
#
# Elastic Compliance Matrix: (Units=1/GPa)
#
#
# Indices 1 2 3 4 5 6 
#
# 1 0.015138 -0.000449 -0.000002 -0.002018 0.001436 -0.005229
# 2 -0.000449 0.006149 -0.000371 -0.000738 0.000424 -0.001178
# 3 -0.000002 -0.000371 0.015159 -0.006455 0.008995 -0.002333
# 4 -0.002018 -0.000738 -0.006455 0.028072 0.001622 -0.001601
# 5 0.001436 0.000424 0.008995 0.001622 0.037768 -0.006086
# 6 -0.005229 -0.001178 -0.002333 -0.001601 -0.006086 0.025894
#
#
# Mechanical properties :
#
#
# Convention : Reuss Voigt Hill
#
# Bulk Modulus (GPa) = 28.73413 43.25356 35.99384
# Shear Modulus (GPa) = 35.35422 44.00975 39.68199
#
# Velocity S-wave (km/s) = 3.72994 4.16155 3.95164
# Velocity P-wave (km/s) = 5.46418 6.33343 5.91479
#
# Compressibility (1/GPa) = 0.03480182
#
# Stress axis : x y z
#
# Youngs Moduli (GPa) = 66.05955 162.62157 65.96595
#
# Poissons Ratio (x) = 0.07308 0.00012
# Poissons Ratio (y) = 0.02969 0.02448
# Poissons Ratio (z) = 0.00012 0.06035
#
# Static dielectric constant tensor:
#      x y z
#    x 1.940030 -0.058750 -0.000370 
#    y -0.058750 2.073370 -0.008990 
#    z -0.000370 -0.008990 2.012090 
# 
# From -- ./inp_files/147184.got.cif
#   From: 2010.05.17/outbox.cif.g08.bks.cpg/sg2_74_cif.got.tgz:147184.got - 2010.06.03 11:33:40.
