data_PCOD9050764
_publ_section_title
;
Structure prediction by ZEFSAII (Michael W. Deem and Ramdas Pophale) SiO2 
 PCOD9050764
Probable space group: P -1
;
_chemical_formula_sum "Si O2"
_cell_formula_units_Z 14
_cell_length_a 12.334340
_cell_length_b 6.847498
_cell_length_c 11.174061
_cell_angle_alpha 66.223808
_cell_angle_beta 63.721420
_cell_angle_gamma 45.292855
_cell_volume 595.157608
_symmetry_space_group_name_H-M "P -1"
_symmetry_group_IT_number 2
_symmetry_cell_setting 'triclinic'
loop_
_space_group_symop_operation_xyz
x,y,z
-x,-y,-z
loop_
_atom_site_type_symbol
_atom_site_label
_atom_site_fract_x
_atom_site_fract_y
_atom_site_fract_z
Si Si1 0.384679 0.640073 0.249336
Si Si2 0.852510 0.319123 0.468062
Si Si3 0.679509 0.850238 0.947368
Si Si4 0.094332 0.253828 0.666469
Si Si5 0.121756 0.202945 0.949491
Si Si6 0.807871 0.333785 0.856392
Si Si7 0.353136 0.642633 0.626958
O O1 0.287488 0.605743 0.397611
O O2 0.351971 0.556686 0.160535
O O3 0.559571 0.480227 0.256533
O O4 0.300093 0.965312 0.193403
O O5 0.908778 0.494242 0.420579
O O6 0.770723 0.390146 0.357888
O O7 0.000000 0.000000 0.500000
O O8 0.771721 0.544694 0.925330
O O9 0.719852 0.879247 0.053339
O O10 0.500000 0.000000 0.000000
O O11 0.117602 0.208339 0.809164
O O12 0.932281 0.308034 0.713639
O O13 0.243779 0.975236 0.600889
O O14 0.000000 0.500000 0.000000
O O15 0.112275 0.971839 0.058784
O O16 0.500000 0.500000 0.500000
#
# Coordination Sequence:
#
# PCOD9050764 Si02
#       7
#     2   2   2   2   2   2   2
#     4  10  25  44  66 100 142 177 230 281 344 412
#     4  11  25  45  72 100 137 176 235 286 345 409
#     4  11  26  42  70 101 144 185 226 287 344 406
#     4  12  26  42  77 101 136 188 228 285 352 403
#     4  11  26  44  69 105 141 177 238 283 342 410
#     4  11  25  44  70 104 141 181 232 281 345 414
#     4  10  26  46  69 100 141 179 232 281 343 410
#
# _framework density 23.523181000000001
#
# number of rings (size 3 to 8) (size 9 to 14) (size 15 to 20)
#    0.000    1.143    1.429    2.143   10.000    8.000 
#    0.000    0.000    0.000    0.000    0.000    0.000 
#    0.000    0.000    0.000    0.000    0.000    0.000 
#
# Total GULP energy -78254.712817 kJ/mol
# GULP energy per Si atom -5589.622344 kJ/mol
# Density = 2.346964 g / cm^3
# Si number density = 23.523181 Si / 1000 Ang^3
#
#
#
# Elastic Constant Matrix: (Units=GPa)
#
#
# Indices 1 2 3 4 5 6 
#
# 1 137.6562 30.0124 26.1521 -3.7975 18.7521 5.6890
# 2 30.0124 143.6518 23.6950 -5.2911 -19.1582 20.0013
# 3 26.1521 23.6950 74.4208 -15.2350 -6.0289 11.8686
# 4 -3.7975 -5.2911 -15.2350 34.0730 -1.1647 -8.8715
# 5 18.7521 -19.1582 -6.0289 -1.1647 40.6323 -3.9502
# 6 5.6890 20.0013 11.8686 -8.8715 -3.9502 40.7429
#
#
#
# Elastic Compliance Matrix: (Units=1/GPa)
#
#
# Indices 1 2 3 4 5 6 
#
# 1 0.009091 -0.002170 -0.003152 -0.000940 -0.005718 -0.000045
# 2 -0.002170 0.008656 -0.001127 -0.000074 0.004604 -0.003188
# 3 -0.003152 -0.001127 0.016869 0.006570 0.003405 -0.002160
# 4 -0.000940 -0.000074 0.006570 0.033805 0.002916 0.005897
# 5 -0.005718 0.004604 0.003405 0.002916 0.030116 0.001102
# 6 -0.000045 -0.003188 -0.002160 0.005897 0.001102 0.028135
#
#
# Mechanical properties :
#
#
# Convention : Reuss Voigt Hill
#
# Bulk Modulus (GPa) = 46.04828 57.27197 51.66013
# Shear Modulus (GPa) = 34.05718 41.48094 37.76906
#
# Velocity S-wave (km/s) = 3.80914 4.20385 4.01135
# Velocity P-wave (km/s) = 6.24214 6.92553 6.59270
#
# Compressibility (1/GPa) = 0.02171634
#
# Stress axis : x y z
#
# Youngs Moduli (GPa) = 109.99363 115.53074 59.28018
#
# Poissons Ratio (x) = 0.25075 0.18687
# Poissons Ratio (y) = 0.23874 0.06682
# Poissons Ratio (z) = 0.34674 0.13022
#
# Static dielectric constant tensor:
#      x y z
#    x 1.954430 -0.030610 0.049200 
#    y -0.030610 1.866570 -0.028450 
#    z 0.049200 -0.028450 1.900700 
# 
# From -- ./inp_files/60363.got.cif
#   From: 2010.05.17/outbox.cif.g08.bks.cpg/sg2_31_cif.got.tgz:60363.got - 2010.06.03 11:33:40.
