data_PCOD9050362
_publ_section_title
;
Structure prediction by ZEFSAII (Michael W. Deem and Ramdas Pophale) SiO2 
 PCOD9050362
Probable space group: P -1
;
_chemical_formula_sum "Si O2"
_cell_formula_units_Z 13
_cell_length_a 6.467019
_cell_length_b 8.210257
_cell_length_c 11.382533
_cell_angle_alpha 86.837535
_cell_angle_beta 117.418149
_cell_angle_gamma 69.570329
_cell_volume 485.504753
_symmetry_space_group_name_H-M "P -1"
_symmetry_group_IT_number 2
_symmetry_cell_setting 'triclinic'
loop_
_space_group_symop_operation_xyz
x,y,z
-x,-y,-z
loop_
_atom_site_type_symbol
_atom_site_label
_atom_site_fract_x
_atom_site_fract_y
_atom_site_fract_z
Si Si1 0.874317 0.798761 0.315841
Si Si2 0.208185 0.751713 0.198861
Si Si3 0.558010 0.156028 0.949856
Si Si4 0.521171 0.895870 0.631208
Si Si5 0.693783 0.403227 0.389867
Si Si6 0.125132 0.690587 0.825559
Si Si7 0.000000 0.500000 0.000000
O O1 0.702990 0.732849 0.193897
O O2 0.038766 0.851741 0.261907
O O3 0.075279 0.646564 0.456269
O O4 0.682062 0.963470 0.337217
O O5 0.250925 0.879966 0.109751
O O6 0.477300 0.605540 0.327204
O O7 0.088706 0.633984 0.101289
O O8 0.679928 0.231542 0.077936
O O9 0.500000 0.000000 0.000000
O O10 0.442164 0.729556 0.609725
O O11 0.817923 0.812706 0.751876
O O12 0.500000 0.000000 0.500000
O O13 0.807695 0.353062 0.291001
O O14 0.157254 0.533037 0.930870
#
# Coordination Sequence:
#
# PCOD9050362 Si02
#       7
#     2   2   2   2   2   2   1
#     4  12  29  48  80 121 161 205 266 337 405 469
#     4  11  28  49  82 118 159 210 272 330 400 478
#     4  11  29  49  78 116 165 208 260 334 401 475
#     4  12  27  50  82 116 160 212 268 329 402 480
#     4  12  27  51  84 115 159 213 269 332 402 479
#     4  11  26  51  86 112 156 213 275 322 400 482
#     4  10  24  52  78 116 154 214 264 330 392 476
#
# _framework density 26.776257000000001
#
# number of rings (size 3 to 8) (size 9 to 14) (size 15 to 20)
#    0.000    0.615    3.077    1.846    8.615    5.538 
#    0.000    0.000    0.000    0.000    0.000    0.000 
#    0.000    0.000    0.000    0.000    0.000    0.000 
#
# Total GULP energy -72658.683620 kJ/mol
# GULP energy per Si atom -5589.129509 kJ/mol
# Density = 2.671531 g / cm^3
# Si number density = 26.776257 Si / 1000 Ang^3
#
#
#
# Elastic Constant Matrix: (Units=GPa)
#
#
# Indices 1 2 3 4 5 6 
#
# 1 210.5107 78.3569 102.8410 -13.7194 -28.0380 -4.9169
# 2 78.3569 88.5287 61.1680 -11.3910 5.9313 6.1000
# 3 102.8410 61.1680 190.0973 10.2931 14.7210 -8.3933
# 4 -13.7194 -11.3910 10.2931 31.1752 -4.8005 -1.8989
# 5 -28.0380 5.9313 14.7210 -4.8005 79.7814 -0.5910
# 6 -4.9169 6.1000 -8.3933 -1.8989 -0.5910 78.9861
#
#
#
# Elastic Compliance Matrix: (Units=1/GPa)
#
#
# Indices 1 2 3 4 5 6 
#
# 1 0.009802 -0.005694 -0.004052 0.004370 0.004885 0.000761
# 2 -0.005694 0.019722 -0.003452 0.005321 -0.002526 -0.002135
# 3 -0.004052 -0.003452 0.009205 -0.006536 -0.003253 0.000811
# 4 0.004370 0.005321 -0.006536 0.038831 0.004684 0.000135
# 5 0.004885 -0.002526 -0.003253 0.004684 0.015324 0.000381
# 6 0.000761 -0.002135 0.000811 0.000135 0.000381 0.012965
#
#
# Mechanical properties :
#
#
# Convention : Reuss Voigt Hill
#
# Bulk Modulus (GPa) = 81.08600 108.20760 94.64680
# Shear Modulus (GPa) = 36.66842 54.43995 45.55418
#
# Velocity S-wave (km/s) = 3.70461 4.51393 4.12914
# Velocity P-wave (km/s) = 6.97477 8.22599 7.62608
#
# Compressibility (1/GPa) = 0.01233258
#
# Stress axis : x y z
#
# Youngs Moduli (GPa) = 102.01512 50.70526 108.63424
#
# Poissons Ratio (x) = 0.28870 0.44021
# Poissons Ratio (y) = 0.58085 0.37506
# Poissons Ratio (z) = 0.41339 0.17506
#
# Static dielectric constant tensor:
#      x y z
#    x 2.100460 -0.021540 0.041020 
#    y -0.021540 2.141540 -0.055070 
#    z 0.041020 -0.055070 2.073400 
# 
# From -- ./inp_files/360709.got.cif
#   From: 2010.05.17/outbox.cif.g08.bks.cpg/sg2_181_cif.got.tgz:360709.got - 2010.06.03 11:33:40.
