data_PCOD9050466
_publ_section_title
;
Structure prediction by ZEFSAII (Michael W. Deem and Ramdas Pophale) SiO2 
 PCOD9050466
Probable space group: P -1
;
_chemical_formula_sum "Si O2"
_cell_formula_units_Z 12
_cell_length_a 10.049003
_cell_length_b 8.633211
_cell_length_c 8.288871
_cell_angle_alpha 78.338055
_cell_angle_beta 62.008826
_cell_angle_gamma 120.872131
_cell_volume 442.238387
_symmetry_space_group_name_H-M "P -1"
_symmetry_group_IT_number 2
_symmetry_cell_setting 'triclinic'
loop_
_space_group_symop_operation_xyz
x,y,z
-x,-y,-z
loop_
_atom_site_type_symbol
_atom_site_label
_atom_site_fract_x
_atom_site_fract_y
_atom_site_fract_z
Si Si1 0.282343 0.400581 0.718043
Si Si2 0.533693 0.104837 0.781333
Si Si3 0.877529 0.113793 0.517765
Si Si4 0.051936 0.020243 0.197954
Si Si5 0.248176 0.676567 0.861570
Si Si6 0.634685 0.451486 0.868196
O O1 0.500000 0.500000 0.500000
O O2 0.324878 0.614634 0.691889
O O3 0.077914 0.216069 0.761826
O O4 0.195534 0.235086 0.956626
O O5 0.561956 0.304865 0.779491
O O6 0.743399 0.173344 0.577968
O O7 0.350545 0.921028 0.797270
O O8 0.500000 0.000000 0.000000
O O9 0.125773 0.321765 0.356770
O O10 0.813168 0.962613 0.740637
O O11 0.876089 0.005995 0.381846
O O12 0.320012 0.632505 0.989341
O O13 0.000000 0.500000 0.000000
O O14 0.500000 0.500000 0.000000
#
# Coordination Sequence:
#
# PCOD9050466 Si02
#       6
#     2   2   2   2   2   2
#     4  11  24  46  73 109 159 208 260 317 401 465
#     4  10  25  45  72 111 156 202 263 320 393 467
#     4  11  23  46  78 110 161 201 265 330 387 466
#     4  10  25  41  76 115 153 199 268 317 390 466
#     4  11  26  49  72 109 163 203 259 323 399 471
#     4  11  26  47  81 116 152 203 272 327 391 470
#
# _framework density 27.134685999999999
#
# number of rings (size 3 to 8) (size 9 to 14) (size 15 to 20)
#    0.000    1.333    1.667    1.500   16.333    0.000 
#    0.000    1.667    0.000    0.000    0.000    0.000 
#    0.000    0.000    0.000    0.000    0.000    0.000 
#
# Total GULP energy -67179.263643 kJ/mol
# GULP energy per Si atom -5598.271970 kJ/mol
# Density = 2.707293 g / cm^3
# Si number density = 27.134686 Si / 1000 Ang^3
#
#
#
# Elastic Constant Matrix: (Units=GPa)
#
#
# Indices 1 2 3 4 5 6 
#
# 1 145.9014 59.2766 53.8247 17.8212 -24.1181 2.2363
# 2 59.2766 266.9055 47.4467 21.2629 -37.2010 32.8975
# 3 53.8247 47.4467 121.9344 19.6031 -27.3355 -4.6298
# 4 17.8212 21.2629 19.6031 47.1547 -13.9530 -5.4146
# 5 -24.1181 -37.2010 -27.3355 -13.9530 66.3014 0.6483
# 6 2.2363 32.8975 -4.6298 -5.4146 0.6483 34.9892
#
#
#
# Elastic Compliance Matrix: (Units=1/GPa)
#
#
# Indices 1 2 3 4 5 6 
#
# 1 0.008750 -0.001160 -0.002980 -0.001245 0.001042 -0.000075
# 2 -0.001160 0.005212 -0.001066 -0.001540 0.001790 -0.005238
# 3 -0.002980 -0.001066 0.010861 -0.001946 0.002364 0.002285
# 4 -0.001245 -0.001540 -0.001946 0.024652 0.003019 0.005029
# 5 0.001042 0.001790 0.002364 0.003019 0.018089 -0.001305
# 6 -0.000075 -0.005238 0.002285 0.005029 -0.001305 0.034615
#
#
# Mechanical properties :
#
#
# Convention : Reuss Voigt Hill
#
# Bulk Modulus (GPa) = 69.39250 95.09304 82.24277
# Shear Modulus (GPa) = 42.59160 54.63527 48.61343
#
# Velocity S-wave (km/s) = 3.96616 4.49205 4.23727
# Velocity P-wave (km/s) = 6.82662 7.87564 7.36982
#
# Compressibility (1/GPa) = 0.01441078
#
# Stress axis : x y z
#
# Youngs Moduli (GPa) = 114.28418 191.88113 92.07220
#
# Poissons Ratio (x) = 0.22254 0.27440
# Poissons Ratio (y) = 0.13255 0.09814
# Poissons Ratio (z) = 0.34059 0.20454
#
# Static dielectric constant tensor:
#      x y z
#    x 2.171380 -0.044910 0.150400 
#    y -0.044910 2.242680 -0.113010 
#    z 0.150400 -0.113010 2.303040 
# 
# From -- ./inp_files/238859.got.cif
#   From: 2010.05.17/outbox.cif.g08.bks.cpg/sg2_120_cif.got.tgz:238859.got - 2010.06.03 11:33:40.
