data_PCOD9050008
_publ_section_title
;
Structure prediction by ZEFSAII (Michael W. Deem and Ramdas Pophale) SiO2 
 PCOD9050008
Probable space group: P -1
;
_chemical_formula_sum "Si O2"
_cell_formula_units_Z 16
_cell_length_a 11.298827
_cell_length_b 9.056959
_cell_length_c 10.706507
_cell_angle_alpha 64.790191
_cell_angle_beta 109.752937
_cell_angle_gamma 129.727210
_cell_volume 758.976128
_symmetry_space_group_name_H-M "P -1"
_symmetry_group_IT_number 2
_symmetry_cell_setting 'triclinic'
loop_
_space_group_symop_operation_xyz
x,y,z
-x,-y,-z
loop_
_atom_site_type_symbol
_atom_site_label
_atom_site_fract_x
_atom_site_fract_y
_atom_site_fract_z
Si Si1 0.928375 0.834219 0.640041
Si Si2 0.667421 0.671076 0.054273
Si Si3 0.575033 0.557814 0.337047
Si Si4 0.665869 0.833094 0.503556
Si Si5 0.890013 0.580031 0.047157
Si Si6 0.715055 0.419273 0.777767
Si Si7 0.259815 0.904681 0.044228
Si Si8 0.218772 0.852083 0.772696
O O1 0.798842 0.864072 0.633478
O O2 0.831522 0.596971 0.660671
O O3 0.079568 0.875185 0.744009
O O4 0.000000 0.000000 0.500000
O O5 0.666296 0.626856 0.216822
O O6 0.802215 0.667800 0.041236
O O7 0.500000 0.500000 0.000000
O O8 0.692079 0.882081 0.970018
O O9 0.662933 0.701614 0.433868
O O10 0.496800 0.326419 0.430503
O O11 0.434073 0.580478 0.260760
O O12 0.703105 0.026163 0.371890
O O13 0.847656 0.380754 0.176152
O O14 0.073456 0.743426 0.046171
O O15 0.813727 0.499062 0.912506
O O16 0.675177 0.201823 0.819217
O O17 0.312375 0.928609 0.908649
#
# Coordination Sequence:
#
# PCOD9050008 Si02
#       8
#     2   2   2   2   2   2   2   2
#     4   9  16  29  55  89 110 135 184 248 285 319
#     4  12  25  39  54  83 125 161 187 227 298 355
#     4  10  20  37  55  84 118 150 196 232 285 339
#     4   9  19  33  58  87 108 149 192 246 274 330
#     4  11  21  36  58  86 120 152 184 237 295 349
#     4  10  18  34  60  86 114 143 196 245 280 332
#     4  11  21  36  60  87 116 151 195 241 285 338
#     4  10  17  34  61  88 109 142 196 245 286 329
#
# _framework density 21.081029999999998
#
# number of rings (size 3 to 8) (size 9 to 14) (size 15 to 20)
#    0.000    1.750    5.000    1.125    0.000    1.500 
#    0.000    0.625    0.000    0.750    0.000    0.000 
#    0.000    0.000    0.000    0.000    0.000    0.000 
#
# Total GULP energy -89127.701936 kJ/mol
# GULP energy per Si atom -5570.481371 kJ/mol
# Density = 2.103305 g / cm^3
# Si number density = 21.081030 Si / 1000 Ang^3
#
#
#
# Elastic Constant Matrix: (Units=GPa)
#
#
# Indices 1 2 3 4 5 6 
#
# 1 57.7235 21.9814 13.6664 -13.0687 -1.8077 -1.4242
# 2 21.9814 97.0885 39.8506 -42.1914 3.6458 -5.3188
# 3 13.6664 39.8506 94.8619 -44.2066 10.9840 -6.4323
# 4 -13.0687 -42.1914 -44.2066 48.1989 1.1286 6.1302
# 5 -1.8077 3.6458 10.9840 1.1286 25.1208 1.6716
# 6 -1.4242 -5.3188 -6.4323 6.1302 1.6716 25.9380
#
#
#
# Elastic Compliance Matrix: (Units=1/GPa)
#
#
# Indices 1 2 3 4 5 6 
#
# 1 0.019242 -0.003531 -0.001039 0.001164 0.002323 -0.000350
# 2 -0.003531 0.017519 0.000567 0.014954 -0.003732 0.000245
# 3 -0.001039 0.000567 0.020698 0.019271 -0.010159 0.001292
# 4 0.001164 0.014954 0.019271 0.052595 -0.012629 -0.003707
# 5 0.002323 -0.003732 -0.010159 -0.012629 0.045733 -0.003120
# 6 -0.000350 0.000245 0.001292 -0.003707 -0.003120 0.039982
#
#
# Mechanical properties :
#
#
# Convention : Reuss Voigt Hill
#
# Bulk Modulus (GPa) = 20.22173 44.51895 32.37034
# Shear Modulus (GPa) = 22.70050 31.46324 27.08187
#
# Velocity S-wave (km/s) = 3.28506 3.86747 3.58810
# Velocity P-wave (km/s) = 4.89918 6.41147 5.70565
#
# Compressibility (1/GPa) = 0.04945175
#
# Stress axis : x y z
#
# Youngs Moduli (GPa) = 51.96950 57.08200 48.31444
#
# Poissons Ratio (x) = 0.20154 0.05022
# Poissons Ratio (y) = 0.18348 -0.02738
# Poissons Ratio (z) = 0.05401 -0.03234
#
# Static dielectric constant tensor:
#      x y z
#    x 1.774480 0.064780 0.035870 
#    y 0.064780 1.810810 -0.009570 
#    z 0.035870 -0.009570 1.845280 
# 
# From -- ./inp_files/226476.got.cif
#   From: 2010.05.17/outbox.cif.g08.bks.cpg/sg2_114_cif.got.tgz:226476.got - 2010.06.03 11:33:40.
