data_PCOD9050590
_publ_section_title
;
Structure prediction by ZEFSAII (Michael W. Deem and Ramdas Pophale) SiO2 
 PCOD9050590
Probable space group: P -1
;
_chemical_formula_sum "Si O2"
_cell_formula_units_Z 14
_cell_length_a 15.104096
_cell_length_b 8.395153
_cell_length_c 5.016541
_cell_angle_alpha 114.142161
_cell_angle_beta 65.000435
_cell_angle_gamma 90.737514
_cell_volume 516.146458
_symmetry_space_group_name_H-M "P -1"
_symmetry_group_IT_number 2
_symmetry_cell_setting 'triclinic'
loop_
_space_group_symop_operation_xyz
x,y,z
-x,-y,-z
loop_
_atom_site_type_symbol
_atom_site_label
_atom_site_fract_x
_atom_site_fract_y
_atom_site_fract_z
Si Si1 0.848769 0.938789 0.567691
Si Si2 0.944014 0.188470 0.977339
Si Si3 0.328496 0.960293 0.431822
Si Si4 0.432877 0.625104 0.401465
Si Si5 0.581840 0.724678 0.709992
Si Si6 0.903794 0.421957 0.672108
Si Si7 0.258979 0.269732 0.101447
O O1 0.805051 0.764666 0.585177
O O2 0.937245 0.872815 0.204837
O O3 0.901209 0.027308 0.795832
O O4 0.749289 0.078593 0.713177
O O5 0.921360 0.345696 0.893494
O O6 0.901140 0.260272 0.361719
O O7 0.382229 0.792011 0.407918
O O8 0.396168 0.092159 0.316032
O O9 0.260374 0.095980 0.807521
O O10 0.485316 0.699187 0.641118
O O11 0.367522 0.488652 0.514029
O O12 0.500000 0.500000 0.000000
O O13 0.625820 0.744890 0.967596
O O14 0.801087 0.560969 0.855115
O O15 0.000000 0.500000 0.500000
#
# Coordination Sequence:
#
# PCOD9050590 Si02
#       7
#     2   2   2   2   2   2   2
#     4  10  25  43  65  99 138 184 238 291 360 415
#     4  11  26  43  70 101 141 194 243 300 349 432
#     4  11  25  45  69 100 142 181 232 298 358 427
#     4  11  25  45  73 101 135 180 231 287 364 437
#     4  10  25  44  69 102 135 176 233 287 359 438
#     4  12  25  43  71  99 144 188 243 295 360 419
#     4  11  25  42  66  97 140 181 233 295 361 421
#
# _framework density 27.124081
#
# number of rings (size 3 to 8) (size 9 to 14) (size 15 to 20)
#    0.000    1.143    1.429    2.571    8.000    8.000 
#    0.000    0.000    0.000    0.000    0.000    0.000 
#    0.000    0.000    0.000    0.000    0.000    0.000 
#
# Total GULP energy -78188.465966 kJ/mol
# GULP energy per Si atom -5584.890426 kJ/mol
# Density = 2.706235 g / cm^3
# Si number density = 27.124081 Si / 1000 Ang^3
#
#
#
# Elastic Constant Matrix: (Units=GPa)
#
#
# Indices 1 2 3 4 5 6 
#
# 1 124.7930 41.5988 29.8107 -4.9853 4.2098 -35.0310
# 2 41.5988 167.4168 18.5362 12.1437 -20.2086 -42.1049
# 3 29.8107 18.5362 87.7133 14.9004 -5.8593 -10.3947
# 4 -4.9853 12.1437 14.9004 35.4058 -7.6673 -11.1319
# 5 4.2098 -20.2086 -5.8593 -7.6673 30.0660 -1.5898
# 6 -35.0310 -42.1049 -10.3947 -11.1319 -1.5898 66.5207
#
#
#
# Elastic Compliance Matrix: (Units=1/GPa)
#
#
# Indices 1 2 3 4 5 6 
#
# 1 0.011140 -0.001681 -0.003800 0.004895 -0.001918 0.004982
# 2 -0.001681 0.008253 -0.000203 -0.000324 0.005893 0.004393
# 3 -0.003800 -0.000203 0.013778 -0.006266 0.001430 -0.000991
# 4 0.004895 -0.000324 -0.006266 0.035645 0.007364 0.007535
# 5 -0.001918 0.005893 0.001430 0.007364 0.039917 0.005129
# 6 0.004982 0.004393 -0.000991 0.007535 0.005129 0.021666
#
#
# Mechanical properties :
#
#
# Convention : Reuss Voigt Hill
#
# Bulk Modulus (GPa) = 45.86785 62.20160 54.03473
# Shear Modulus (GPa) = 33.54893 45.73032 39.63962
#
# Velocity S-wave (km/s) = 3.52073 4.11051 3.82700
# Velocity P-wave (km/s) = 5.78571 6.74614 6.28430
#
# Compressibility (1/GPa) = 0.02180176
#
# Stress axis : x y z
#
# Youngs Moduli (GPa) = 89.76424 121.16737 72.58062
#
# Poissons Ratio (x) = 0.20368 0.27583
# Poissons Ratio (y) = 0.15089 0.01476
# Poissons Ratio (z) = 0.34113 0.02465
#
# Static dielectric constant tensor:
#      x y z
#    x 2.136790 0.024420 -0.038190 
#    y 0.024420 2.238600 -0.193900 
#    z -0.038190 -0.193900 2.320700 
# 
# From -- ./inp_files/91108.got.cif
#   From: 2010.05.17/outbox.cif.g08.bks.cpg/sg2_46_cif.got.tgz:91108.got - 2010.06.03 11:33:40.
