data_PCOD9050709
_publ_section_title
;
Structure prediction by ZEFSAII (Michael W. Deem and Ramdas Pophale) SiO2 
 PCOD9050709
Probable space group: P -1
;
_chemical_formula_sum "Si O2"
_cell_formula_units_Z 15
_cell_length_a 10.232931
_cell_length_b 25.410049
_cell_length_c 20.153466
_cell_angle_alpha 18.251697
_cell_angle_beta 21.759378
_cell_angle_gamma 29.313691
_cell_volume 606.121207
_symmetry_space_group_name_H-M "P -1"
_symmetry_group_IT_number 2
_symmetry_cell_setting 'triclinic'
loop_
_space_group_symop_operation_xyz
x,y,z
-x,-y,-z
loop_
_atom_site_type_symbol
_atom_site_label
_atom_site_fract_x
_atom_site_fract_y
_atom_site_fract_z
Si Si1 0.572951 0.076700 0.677776
Si Si2 0.528349 0.367936 0.202709
Si Si3 0.584019 0.343931 0.002613
Si Si4 0.596768 0.585338 0.448662
Si Si5 0.410139 0.550982 0.730745
Si Si6 0.274877 0.752414 0.281427
Si Si7 0.500000 0.000000 0.500000
Si Si8 0.341610 0.976697 0.448076
O O1 0.465025 0.262726 0.521800
O O2 0.491072 0.013732 0.716180
O O3 0.998486 0.080942 0.481502
O O4 0.416011 0.936280 0.970921
O O5 0.586944 0.488883 0.092390
O O6 0.790616 0.224102 0.243768
O O7 0.142649 0.270442 0.505249
O O8 0.500000 0.500000 0.000000
O O9 0.599629 0.389528 0.862929
O O10 0.989871 0.343977 0.834758
O O11 0.387364 0.190297 0.319486
O O12 0.474211 0.571384 0.598097
O O13 0.380358 0.707762 0.359789
O O14 0.575469 0.398740 0.650584
O O15 0.000000 0.500000 0.000000
O O16 0.540429 0.010218 0.384408
#
# Coordination Sequence:
#
# PCOD9050709 Si02
#       8
#     2   2   2   2   2   2   1   2
#     4  11  26  46  68 104 140 189 238 289 355 413
#     4  11  23  44  71 101 137 183 233 286 355 419
#     4  11  24  45  67 104 140 185 230 288 351 421
#     4  10  25  46  69 100 142 182 234 293 354 421
#     4  12  27  44  71 105 142 187 237 289 352 421
#     4  10  25  43  73 102 135 186 233 291 357 418
#     4  12  24  40  72 106 134 184 232 284 358 402
#     4  11  25  43  70 101 144 181 234 297 343 427
#
# _framework density 24.747526000000001
#
# number of rings (size 3 to 8) (size 9 to 14) (size 15 to 20)
#    0.000    1.067    2.667    2.000   11.200    3.200 
#    0.000    0.000    0.000    0.000    0.000    0.000 
#    0.000    0.000    0.000    0.000    0.000    0.000 
#
# Total GULP energy -83589.729522 kJ/mol
# GULP energy per Si atom -5572.648635 kJ/mol
# Density = 2.469120 g / cm^3
# Si number density = 24.747526 Si / 1000 Ang^3
#
#
#
# Elastic Constant Matrix: (Units=GPa)
#
#
# Indices 1 2 3 4 5 6 
#
# 1 151.6034 21.3276 33.1735 -8.5120 42.1853 -2.5477
# 2 21.3276 49.0240 19.0429 -11.7460 12.6572 -4.4029
# 3 33.1735 19.0429 80.3994 -19.9990 39.3736 -10.0750
# 4 -8.5120 -11.7460 -19.9990 30.1249 -16.2272 14.7138
# 5 42.1853 12.6572 39.3736 -16.2272 49.7644 -2.5316
# 6 -2.5477 -4.4029 -10.0750 14.7138 -2.5316 40.6008
#
#
#
# Elastic Compliance Matrix: (Units=1/GPa)
#
#
# Indices 1 2 3 4 5 6 
#
# 1 0.009016 -0.002576 0.000208 -0.003185 -0.008141 0.000985
# 2 -0.002576 0.024298 -0.003540 0.007579 0.001221 -0.001076
# 3 0.000208 -0.003540 0.021943 0.003628 -0.015311 0.002805
# 4 -0.003185 0.007579 0.003628 0.053870 0.014598 -0.017090
# 5 -0.008141 0.001221 -0.015311 0.014598 0.043215 -0.006774
# 6 0.000985 -0.001076 0.002805 -0.017090 -0.006774 0.031042
#
#
# Mechanical properties :
#
#
# Convention : Reuss Voigt Hill
#
# Bulk Modulus (GPa) = 23.01954 47.56831 35.29393
# Shear Modulus (GPa) = 23.84596 37.93021 30.88809
#
# Velocity S-wave (km/s) = 3.10751 3.91920 3.53672
# Velocity P-wave (km/s) = 4.71142 6.30423 5.56511
#
# Compressibility (1/GPa) = 0.04344135
#
# Stress axis : x y z
#
# Youngs Moduli (GPa) = 110.91403 41.15577 45.57307
#
# Poissons Ratio (x) = 0.10602 -0.00947
# Poissons Ratio (y) = 0.28571 0.16131
# Poissons Ratio (z) = -0.02305 0.14567
#
# Static dielectric constant tensor:
#      x y z
#    x 2.088630 0.086810 -0.024290 
#    y 0.086810 2.023940 -0.037440 
#    z -0.024290 -0.037440 2.017280 
# 
# From -- ./inp_files/557538.got.cif
#   From: 2010.05.17/outbox.cif.g08.bks.cpg/sg2_279_cif.got.tgz:557538.got - 2010.06.03 11:33:40.
