data_PCOD9050911
_publ_section_title
;
Structure prediction by ZEFSAII (Michael W. Deem and Ramdas Pophale) SiO2 
 PCOD9050911
Probable space group: P -1
;
_chemical_formula_sum "Si O2"
_cell_formula_units_Z 15
_cell_length_a 9.199748
_cell_length_b 15.513224
_cell_length_c 7.321961
_cell_angle_alpha 57.971524
_cell_angle_beta 101.261992
_cell_angle_gamma 133.043098
_cell_volume 623.590818
_symmetry_space_group_name_H-M "P -1"
_symmetry_group_IT_number 2
_symmetry_cell_setting 'triclinic'
loop_
_space_group_symop_operation_xyz
x,y,z
-x,-y,-z
loop_
_atom_site_type_symbol
_atom_site_label
_atom_site_fract_x
_atom_site_fract_y
_atom_site_fract_z
Si Si1 0.925850 0.115344 0.482331
Si Si2 0.611672 0.191237 0.891216
Si Si3 0.818155 0.098967 0.857804
Si Si4 0.868678 0.851526 0.853268
Si Si5 0.349075 0.723011 0.573511
Si Si6 0.898530 0.496035 0.797617
Si Si7 0.500000 0.000000 0.500000
Si Si8 0.551988 0.423485 0.988769
O O1 0.949666 0.176137 0.619791
O O2 0.728065 0.075564 0.394036
O O3 0.095235 0.189092 0.284719
O O4 0.871578 0.972012 0.676977
O O5 0.750784 0.164266 0.884445
O O6 0.534143 0.207403 0.667718
O O7 0.744821 0.336512 0.865828
O O8 0.408993 0.049662 0.102731
O O9 0.948185 0.087752 0.031557
O O10 0.647642 0.707320 0.028952
O O11 0.408131 0.648071 0.774656
O O12 0.101937 0.607985 0.599543
O O13 0.402121 0.844860 0.572427
O O14 0.753112 0.518984 0.801140
O O15 0.000000 0.500000 0.000000
O O16 0.500000 0.500000 0.000000
#
# Coordination Sequence:
#
# PCOD9050911 Si02
#       8
#     2   2   2   2   2   2   1   2
#     4  11  24  42  69 104 142 184 232 294 361 416
#     4  11  24  44  69 107 139 178 246 297 350 424
#     4  11  25  41  72 109 143 185 237 302 354 423
#     4  11  25  43  68 102 150 187 233 296 360 421
#     4  11  24  45  74 102 139 184 234 298 350 422
#     4  10  25  44  71  95 135 187 234 288 348 428
#     4  12  22  42  74 106 134 180 238 290 350 418
#     4  11  26  46  67 101 141 189 237 284 356 430
#
# _framework density 24.054234999999998
#
# number of rings (size 3 to 8) (size 9 to 14) (size 15 to 20)
#    0.000    1.067    2.667    2.400   11.200    0.000 
#    0.000    0.667    0.000    0.000    0.000    0.000 
#    0.000    0.000    0.000    0.000    0.000    0.000 
#
# Total GULP energy -83689.085753 kJ/mol
# GULP energy per Si atom -5579.272384 kJ/mol
# Density = 2.399949 g / cm^3
# Si number density = 24.054235 Si / 1000 Ang^3
#
#
#
# Elastic Constant Matrix: (Units=GPa)
#
#
# Indices 1 2 3 4 5 6 
#
# 1 137.1713 53.2648 22.5835 -3.2701 -5.2071 -6.9468
# 2 53.2648 127.3921 18.8018 -10.9693 11.0117 -13.8744
# 3 22.5835 18.8018 59.1862 -4.1469 -8.6075 -3.5211
# 4 -3.2701 -10.9693 -4.1469 33.4652 -1.1412 -2.2452
# 5 -5.2071 11.0117 -8.6075 -1.1412 34.6870 -3.1130
# 6 -6.9468 -13.8744 -3.5211 -2.2452 -3.1130 36.3868
#
#
#
# Elastic Compliance Matrix: (Units=1/GPa)
#
#
# Indices 1 2 3 4 5 6 
#
# 1 0.009147 -0.003715 -0.002028 -0.000486 0.002058 0.000280
# 2 -0.003715 0.010656 -0.002186 0.002918 -0.004120 0.002970
# 3 -0.002028 -0.002186 0.019338 0.001746 0.005355 0.001216
# 4 -0.000486 0.002918 0.001746 0.031246 0.000747 0.003181
# 5 0.002058 -0.004120 0.005355 0.000747 0.031990 0.002123
# 6 0.000280 0.002970 0.001216 0.003181 0.002123 0.029164
#
#
# Mechanical properties :
#
#
# Convention : Reuss Voigt Hill
#
# Bulk Modulus (GPa) = 42.94897 57.00553 49.97725
# Shear Modulus (GPa) = 32.22476 36.18110 34.20293
#
# Velocity S-wave (km/s) = 3.66412 3.88254 3.77491
# Velocity P-wave (km/s) = 5.98288 6.62186 6.31046
#
# Compressibility (1/GPa) = 0.02328344
#
# Stress axis : x y z
#
# Youngs Moduli (GPa) = 109.32318 93.84013 51.71267
#
# Poissons Ratio (x) = 0.34857 0.10489
# Poissons Ratio (y) = 0.40608 0.11304
# Poissons Ratio (z) = 0.22175 0.20513
#
# Static dielectric constant tensor:
#      x y z
#    x 2.147150 0.297490 0.515770 
#    y 0.297490 2.252650 0.658910 
#    z 0.515770 0.658910 3.186720 
# 
# From -- ./inp_files/195818.got.cif
#   From: 2010.05.17/outbox.cif.g08.bks.cpg/sg2_98_cif.got.tgz:195818.got - 2010.06.03 11:33:40.
