data_PCOD9050994
_publ_section_title
;
Structure prediction by ZEFSAII (Michael W. Deem and Ramdas Pophale) SiO2 
 PCOD9050994
Probable space group: P -1
;
_chemical_formula_sum "Si O2"
_cell_formula_units_Z 14
_cell_length_a 8.109518
_cell_length_b 11.420803
_cell_length_c 8.279010
_cell_angle_alpha 136.891532
_cell_angle_beta 83.282364
_cell_angle_gamma 100.461480
_cell_volume 515.153615
_symmetry_space_group_name_H-M "P -1"
_symmetry_group_IT_number 2
_symmetry_cell_setting 'triclinic'
loop_
_space_group_symop_operation_xyz
x,y,z
-x,-y,-z
loop_
_atom_site_type_symbol
_atom_site_label
_atom_site_fract_x
_atom_site_fract_y
_atom_site_fract_z
Si Si1 0.470125 0.420630 0.098440
Si Si2 0.208565 0.210511 0.117780
Si Si3 0.233381 0.719642 0.930001
Si Si4 0.954718 0.654226 0.424839
Si Si5 0.477225 0.746119 0.642925
Si Si6 0.268004 0.912905 0.608677
Si Si7 0.176753 0.050133 0.442654
O O1 0.286137 0.330008 0.080152
O O2 0.610221 0.298028 0.988058
O O3 0.506140 0.569283 0.378869
O O4 0.500000 0.500000 0.000000
O O5 0.083070 0.294613 0.333028
O O6 0.369669 0.193816 0.196427
O O7 0.165572 0.024828 0.853341
O O8 0.097699 0.549838 0.799492
O O9 0.310810 0.714789 0.738737
O O10 0.180937 0.904173 0.159548
O O11 0.832923 0.762215 0.441746
O O12 0.142843 0.731427 0.425721
O O13 0.436869 0.876931 0.640941
O O14 0.297013 0.016928 0.543591
O O15 0.000000 0.000000 0.500000
#
# Coordination Sequence:
#
# PCOD9050994 Si02
#       7
#     2   2   2   2   2   2   2
#     4  11  23  42  70 104 136 177 236 290 347 412
#     4  11  22  43  68  98 142 184 230 289 341 414
#     4  11  22  45  73  96 138 192 227 287 351 402
#     4  11  23  46  71 100 143 185 233 284 348 420
#     4  11  22  45  67 102 139 181 240 277 346 419
#     4  11  25  40  65 106 137 184 233 286 347 407
#     4  10  25  45  65 102 144 182 233 282 347 410
#
# _framework density 27.176362000000001
#
# number of rings (size 3 to 8) (size 9 to 14) (size 15 to 20)
#    0.000    1.143    2.857    3.429    2.000    5.143 
#    5.143    4.286    0.000    0.000    0.000    0.000 
#    0.000    0.000    0.000    0.000    0.000    0.000 
#
# Total GULP energy -78529.512485 kJ/mol
# GULP energy per Si atom -5609.250892 kJ/mol
# Density = 2.711451 g / cm^3
# Si number density = 27.176362 Si / 1000 Ang^3
#
#
#
# Elastic Constant Matrix: (Units=GPa)
#
#
# Indices 1 2 3 4 5 6 
#
# 1 78.1382 40.8393 16.9096 3.7619 -8.6837 -6.3674
# 2 40.8393 167.7697 12.7176 -14.3551 10.7745 -0.8487
# 3 16.9096 12.7176 104.7932 6.4609 5.5088 0.0220
# 4 3.7619 -14.3551 6.4609 40.0904 7.8730 -1.3121
# 5 -8.6837 10.7745 5.5088 7.8730 27.7837 5.3186
# 6 -6.3674 -0.8487 0.0220 -1.3121 5.3186 59.2398
#
#
#
# Elastic Compliance Matrix: (Units=1/GPa)
#
#
# Indices 1 2 3 4 5 6 
#
# 1 0.017209 -0.004989 -0.002350 -0.004754 0.008960 0.000869
# 2 -0.004989 0.007953 -0.000126 0.004509 -0.005936 0.000211
# 3 -0.002350 -0.000126 0.010124 -0.000987 -0.002401 -0.000064
# 4 -0.004754 0.004509 -0.000987 0.029489 -0.011634 0.001252
# 5 0.008960 -0.005936 -0.002401 -0.011634 0.045531 -0.003467
# 6 0.000869 0.000211 -0.000064 0.001252 -0.003467 0.017316
#
#
# Mechanical properties :
#
#
# Convention : Reuss Voigt Hill
#
# Bulk Modulus (GPa) = 49.12325 54.62601 51.87463
# Shear Modulus (GPa) = 33.48149 44.10511 38.79330
#
# Velocity S-wave (km/s) = 3.51380 4.03292 3.78228
# Velocity P-wave (km/s) = 5.88025 6.46762 6.18092
#
# Compressibility (1/GPa) = 0.02035696
#
# Stress axis : x y z
#
# Youngs Moduli (GPa) = 58.10867 125.74555 98.77421
#
# Poissons Ratio (x) = 0.62732 0.23208
# Poissons Ratio (y) = 0.28989 0.01245
# Poissons Ratio (z) = 0.13653 0.01585
#
# Static dielectric constant tensor:
#      x y z
#    x 2.161280 -0.042190 0.025110 
#    y -0.042190 2.161310 -0.016820 
#    z 0.025110 -0.016820 2.063760 
# 
# From -- ./inp_files/191071.got.cif
#   From: 2010.05.17/outbox.cif.g08.bks.cpg/sg2_96_cif.got.tgz:191071.got - 2010.06.03 11:33:40.
