data_PCOD9050121
_publ_section_title
;
Structure prediction by ZEFSAII (Michael W. Deem and Ramdas Pophale) SiO2 
 PCOD9050121
Probable space group: P -1
;
_chemical_formula_sum "Si O2"
_cell_formula_units_Z 16
_cell_length_a 8.971651
_cell_length_b 13.150548
_cell_length_c 10.924954
_cell_angle_alpha 46.075283
_cell_angle_beta 137.916970
_cell_angle_gamma 118.443348
_cell_volume 620.209785
_symmetry_space_group_name_H-M "P -1"
_symmetry_group_IT_number 2
_symmetry_cell_setting 'triclinic'
loop_
_space_group_symop_operation_xyz
x,y,z
-x,-y,-z
loop_
_atom_site_type_symbol
_atom_site_label
_atom_site_fract_x
_atom_site_fract_y
_atom_site_fract_z
Si Si1 0.495970 0.550658 0.765148
Si Si2 0.862009 0.756496 0.530216
Si Si3 0.680105 0.969122 0.743727
Si Si4 0.588223 0.027141 0.171498
Si Si5 0.005515 0.450180 0.878496
Si Si6 0.790601 0.656069 0.129471
Si Si7 0.575751 0.324808 0.809995
Si Si8 0.094951 0.771123 0.410256
O O1 0.314490 0.676958 0.579380
O O2 0.809208 0.352470 0.867235
O O3 0.492772 0.473640 0.697378
O O4 0.742074 0.597553 0.891133
O O5 0.623008 0.714615 0.366257
O O6 0.958476 0.608607 0.771625
O O7 0.037401 0.781278 0.508749
O O8 0.791796 0.908608 0.419460
O O9 0.577031 0.989695 0.800612
O O10 0.500000 0.000000 0.500000
O O11 0.871866 0.073557 0.749915
O O12 0.760337 0.804919 0.919260
O O13 0.626965 0.193476 0.045126
O O14 0.500000 0.000000 0.000000
O O15 0.036760 0.450345 0.749976
O O16 0.567722 0.578575 0.078324
O O17 0.891850 0.699264 0.283441
#
# Coordination Sequence:
#
# PCOD9050121 Si02
#       8
#     2   2   2   2   2   2   2   2
#     4  12  24  48  69 104 151 193 252 315 384 434
#     4  11  24  45  72 110 144 191 250 309 373 454
#     4  12  28  48  77 113 155 198 250 317 379 448
#     4  10  24  48  77 106 152 199 249 310 370 453
#     4  12  27  40  72 107 150 196 241 317 382 448
#     4  12  24  47  74 102 146 199 260 307 369 454
#     4  11  24  46  71 102 148 195 250 301 376 452
#     4  12  26  45  79 108 143 200 259 313 371 455
#
# _framework density 25.797722
#
# number of rings (size 3 to 8) (size 9 to 14) (size 15 to 20)
#    0.000    0.500    3.750    4.125    8.750    0.000 
#    2.250    1.250    0.000    0.000    0.000    0.000 
#    0.000    0.000    0.000    0.000    0.000    0.000 
#
# Total GULP energy -89579.098938 kJ/mol
# GULP energy per Si atom -5598.693684 kJ/mol
# Density = 2.573901 g / cm^3
# Si number density = 25.797722 Si / 1000 Ang^3
#
#
#
# Elastic Constant Matrix: (Units=GPa)
#
#
# Indices 1 2 3 4 5 6 
#
# 1 168.4202 40.1845 16.4394 -8.9510 3.4599 18.1432
# 2 40.1845 87.0284 19.7177 -5.6380 4.4343 -8.0821
# 3 16.4394 19.7177 93.5983 -22.2766 17.8251 1.0037
# 4 -8.9510 -5.6380 -22.2766 47.6779 -3.4438 5.3613
# 5 3.4599 4.4343 17.8251 -3.4438 47.6741 -9.7546
# 6 18.1432 -8.0821 1.0037 5.3613 -9.7546 35.2857
#
#
#
# Elastic Compliance Matrix: (Units=1/GPa)
#
#
# Indices 1 2 3 4 5 6 
#
# 1 0.007519 -0.003836 0.000142 0.001534 -0.001219 -0.005319
# 2 -0.003836 0.014325 -0.002840 -0.000922 0.001125 0.005786
# 3 0.000142 -0.002840 0.013733 0.006125 -0.005148 -0.003468
# 4 0.001534 -0.000922 0.006125 0.024498 -0.001641 -0.005350
# 5 -0.001219 0.001125 -0.005148 -0.001641 0.024408 0.008028
# 6 -0.005319 0.005786 -0.003468 -0.005350 0.008028 0.035531
#
#
# Mechanical properties :
#
#
# Convention : Reuss Voigt Hill
#
# Bulk Modulus (GPa) = 44.42764 55.74781 50.08773
# Shear Modulus (GPa) = 35.56567 44.30790 39.93679
#
# Velocity S-wave (km/s) = 3.71703 4.14878 3.93883
# Velocity P-wave (km/s) = 5.97333 6.67880 6.33589
#
# Compressibility (1/GPa) = 0.02250851
#
# Stress axis : x y z
#
# Youngs Moduli (GPa) = 133.00463 69.80574 72.81925
#
# Poissons Ratio (x) = 0.26779 -0.01034
# Poissons Ratio (y) = 0.51023 0.20680
# Poissons Ratio (z) = -0.01889 0.19824
#
# Static dielectric constant tensor:
#      x y z
#    x 1.996960 -0.048370 -0.054100 
#    y -0.048370 2.030980 0.037860 
#    z -0.054100 0.037860 2.116580 
# 
# From -- ./inp_files/395550.got.cif
#   From: 2010.05.17/outbox.cif.g08.bks.cpg/sg2_198_cif.got.tgz:395550.got - 2010.06.03 11:33:40.
