data_PCOD9050575
_publ_section_title
;
Structure prediction by ZEFSAII (Michael W. Deem and Ramdas Pophale) SiO2 
 PCOD9050575
Probable space group: P -1
;
_chemical_formula_sum "Si O2"
_cell_formula_units_Z 16
_cell_length_a 12.474552
_cell_length_b 11.544698
_cell_length_c 8.430316
_cell_angle_alpha 55.928855
_cell_angle_beta 126.922475
_cell_angle_gamma 89.928714
_cell_volume 691.532719
_symmetry_space_group_name_H-M "P -1"
_symmetry_group_IT_number 2
_symmetry_cell_setting 'triclinic'
loop_
_space_group_symop_operation_xyz
x,y,z
-x,-y,-z
loop_
_atom_site_type_symbol
_atom_site_label
_atom_site_fract_x
_atom_site_fract_y
_atom_site_fract_z
Si Si1 0.583661 0.397119 0.309766
Si Si2 0.895976 0.560130 0.204414
Si Si3 0.460068 0.215676 0.536994
Si Si4 0.785902 0.116924 0.486264
Si Si5 0.009069 0.217468 0.477777
Si Si6 0.304957 0.149046 0.995306
Si Si7 0.486315 0.281283 0.862851
Si Si8 0.864273 0.772032 0.762219
O O1 0.475864 0.341159 0.343241
O O2 0.735310 0.234099 0.505119
O O3 0.600816 0.524479 0.337076
O O4 0.500000 0.500000 0.000000
O O5 0.744510 0.725090 0.000267
O O6 0.000000 0.500000 0.500000
O O7 0.884463 0.407369 0.256917
O O8 0.968017 0.615160 0.084866
O O9 0.523225 0.231624 0.752026
O O10 0.290054 0.239578 0.394792
O O11 0.571971 0.034431 0.711480
O O12 0.928190 0.115746 0.524923
O O13 0.823295 0.936110 0.693288
O O14 0.641014 0.196347 0.173783
O O15 0.153823 0.162786 0.767359
O O16 0.065467 0.214695 0.351507
O O17 0.381434 0.211155 0.887457
#
# Coordination Sequence:
#
# PCOD9050575 Si02
#       8
#     2   2   2   2   2   2   2   2
#     4  10  25  43  64  99 139 179 221 285 334 397
#     4  10  25  44  65  99 135 186 225 274 333 405
#     4  12  24  42  72 106 132 177 231 282 338 397
#     4  11  24  43  69 103 138 177 223 281 344 398
#     4  11  24  46  67 100 142 179 220 277 344 407
#     4  11  22  44  71 101 137 175 227 280 336 407
#     4  11  22  43  67 103 138 174 226 278 340 403
#     4  12  24  42  73 102 136 179 229 278 336 408
#
# _framework density 23.13701
#
# number of rings (size 3 to 8) (size 9 to 14) (size 15 to 20)
#    0.000    1.000    2.500    3.750    7.000    1.000 
#    0.000   10.625    0.000    0.000    0.000    0.000 
#    0.000    0.000    0.000    0.000    0.000    0.000 
#
# Total GULP energy -89556.607773 kJ/mol
# GULP energy per Si atom -5597.287986 kJ/mol
# Density = 2.308435 g / cm^3
# Si number density = 23.137010 Si / 1000 Ang^3
#
#
#
# Elastic Constant Matrix: (Units=GPa)
#
#
# Indices 1 2 3 4 5 6 
#
# 1 87.7044 -9.5259 17.1571 4.3741 -11.3362 24.8190
# 2 -9.5259 61.5949 25.3864 -16.3876 1.7024 8.3062
# 3 17.1571 25.3864 57.5879 -12.1810 -4.7435 19.7376
# 4 4.3741 -16.3876 -12.1810 30.7353 8.1959 -6.8619
# 5 -11.3362 1.7024 -4.7435 8.1959 29.2787 -13.1249
# 6 24.8190 8.3062 19.7376 -6.8619 -13.1249 35.8108
#
#
#
# Elastic Compliance Matrix: (Units=1/GPa)
#
#
# Indices 1 2 3 4 5 6 
#
# 1 0.015920 0.004216 -0.003954 -0.004345 0.002051 -0.009913
# 2 0.004216 0.023629 -0.008922 0.009070 -0.005396 -0.003725
# 3 -0.003954 -0.008922 0.026679 0.004833 -0.002469 -0.009873
# 4 -0.004345 0.009070 0.004833 0.043753 -0.012808 0.001933
# 5 0.002051 -0.005396 -0.002469 -0.012808 0.045329 0.015350
# 6 -0.009913 -0.003725 -0.009873 0.001933 0.015350 0.047097
#
#
# Mechanical properties :
#
#
# Convention : Reuss Voigt Hill
#
# Bulk Modulus (GPa) = 20.44646 30.32473 25.38559
# Shear Modulus (GPa) = 21.18390 30.75627 25.97009
#
# Velocity S-wave (km/s) = 3.02915 3.64993 3.35393
# Velocity P-wave (km/s) = 4.59245 5.55857 5.09844
#
# Compressibility (1/GPa) = 0.04890823
#
# Stress axis : x y z
#
# Youngs Moduli (GPa) = 62.81239 42.32140 37.48319
#
# Poissons Ratio (x) = -0.17843 0.14821
# Poissons Ratio (y) = -0.26482 0.33441
# Poissons Ratio (z) = 0.24837 0.37757
#
# Static dielectric constant tensor:
#      x y z
#    x 1.852190 -0.048760 0.019310 
#    y -0.048760 1.864730 -0.013170 
#    z 0.019310 -0.013170 1.897910 
# 
# From -- ./inp_files/261706.got.cif
#   From: 2010.05.17/outbox.cif.g08.bks.cpg/sg2_131_cif.got.tgz:261706.got - 2010.06.03 11:33:40.
