data_PCOD9050571
_publ_section_title
;
Structure prediction by ZEFSAII (Michael W. Deem and Ramdas Pophale) SiO2 
 PCOD9050571
Probable space group: P -1
;
_chemical_formula_sum "Si O2"
_cell_formula_units_Z 16
_cell_length_a 19.900678
_cell_length_b 9.376848
_cell_length_c 12.187197
_cell_angle_alpha 143.325416
_cell_angle_beta 36.207569
_cell_angle_gamma 145.933506
_cell_volume 688.416506
_symmetry_space_group_name_H-M "P -1"
_symmetry_group_IT_number 2
_symmetry_cell_setting 'triclinic'
loop_
_space_group_symop_operation_xyz
x,y,z
-x,-y,-z
loop_
_atom_site_type_symbol
_atom_site_label
_atom_site_fract_x
_atom_site_fract_y
_atom_site_fract_z
Si Si1 0.119493 0.754786 0.433582
Si Si2 0.275660 0.618416 0.456745
Si Si3 0.809832 0.071932 0.084733
Si Si4 0.954399 0.964887 0.664151
Si Si5 0.863350 0.730903 0.977422
Si Si6 0.428903 0.553592 0.775240
Si Si7 0.603048 0.933114 0.611907
Si Si8 0.518893 0.602932 0.163491
O O1 0.139241 0.558517 0.201749
O O2 0.000000 0.500000 0.500000
O O3 0.066319 0.943297 0.570538
O O4 0.252250 0.941479 0.443329
O O5 0.179814 0.333676 0.346389
O O6 0.384801 0.596053 0.369764
O O7 0.183129 0.703324 0.698961
O O8 0.362234 0.836531 0.383183
O O9 0.652599 0.902449 0.165674
O O10 0.906481 0.157578 0.905354
O O11 0.838935 0.851300 0.971406
O O12 0.000000 0.000000 0.500000
O O13 0.727543 0.631393 0.158508
O O14 0.000000 0.000000 0.000000
O O15 0.504260 0.841649 0.789096
O O16 0.470019 0.346696 0.539021
O O17 0.454116 0.561091 0.876840
O O18 0.500000 0.500000 0.000000
#
# Coordination Sequence:
#
# PCOD9050571 Si02
#       8
#     2   2   2   2   2   2   2   2
#     4  12  23  41  71  98 130 188 233 285 362 422
#     4  12  23  45  74  99 138 195 235 286 369 433
#     4  11  23  43  72  98 136 182 237 284 355 427
#     4  12  28  47  65 105 143 182 242 299 351 427
#     4  11  21  42  71 101 135 180 230 287 353 426
#     4  10  25  43  64 107 139 180 235 297 354 416
#     4  11  23  43  68 101 142 175 236 303 349 422
#     4  11  23  43  71  98 139 190 231 287 353 427
#
# _framework density 23.241743
#
# number of rings (size 3 to 8) (size 9 to 14) (size 15 to 20)
#    0.000    0.750    6.250    1.875    3.500    1.000 
#    2.250    0.000    0.000    0.000    0.000    0.000 
#    0.000    0.000    0.000    0.000    0.000    0.000 
#
# Total GULP energy -89174.393179 kJ/mol
# GULP energy per Si atom -5573.399574 kJ/mol
# Density = 2.318884 g / cm^3
# Si number density = 23.241743 Si / 1000 Ang^3
#
#
#
# Elastic Constant Matrix: (Units=GPa)
#
#
# Indices 1 2 3 4 5 6 
#
# 1 75.1624 25.1222 30.6935 0.5799 5.7703 25.6323
# 2 25.1222 78.8661 19.0245 -4.2698 19.1995 -0.0497
# 3 30.6935 19.0245 123.3364 -2.2155 15.5344 -6.1565
# 4 0.5799 -4.2698 -2.2155 30.8218 -3.4086 9.5835
# 5 5.7703 19.1995 15.5344 -3.4086 31.8352 -7.7062
# 6 25.6323 -0.0497 -6.1565 9.5835 -7.7062 31.7321
#
#
#
# Elastic Compliance Matrix: (Units=1/GPa)
#
#
# Indices 1 2 3 4 5 6 
#
# 1 0.026886 -0.005771 -0.006497 0.005785 -0.003814 -0.025661
# 2 -0.005771 0.016564 0.000063 0.000723 -0.008300 0.002466
# 3 -0.006497 0.000063 0.010339 -0.001615 -0.002342 0.007173
# 4 0.005785 0.000723 -0.001615 0.037354 -0.000674 -0.016430
# 5 -0.003814 -0.008300 -0.002342 -0.000674 0.041288 0.012844
# 6 -0.025661 0.002466 0.007173 -0.016430 0.012844 0.061719
#
#
# Mechanical properties :
#
#
# Convention : Reuss Voigt Hill
#
# Bulk Modulus (GPa) = 34.03957 47.44948 40.74453
# Shear Modulus (GPa) = 21.89579 32.37947 27.13763
#
# Velocity S-wave (km/s) = 3.07268 3.73656 3.42076
# Velocity P-wave (km/s) = 5.22170 6.25106 5.75942
#
# Compressibility (1/GPa) = 0.02937758
#
# Stress axis : x y z
#
# Youngs Moduli (GPa) = 37.19427 60.37079 96.72012
#
# Poissons Ratio (x) = 0.34843 0.62840
# Poissons Ratio (y) = 0.21467 -0.00607
# Poissons Ratio (z) = 0.24166 -0.00379
#
# Static dielectric constant tensor:
#      x y z
#    x 1.911320 -0.025020 0.003550 
#    y -0.025020 1.911250 -0.105150 
#    z 0.003550 -0.105150 2.579830 
# 
# From -- ./inp_files/462555.got.cif
#   From: 2010.05.17/outbox.cif.g08.bks.cpg/sg2_232_cif.got.tgz:462555.got - 2010.06.03 11:33:40.
