data_PCOD9050632
_publ_section_title
;
Structure prediction by ZEFSAII (Michael W. Deem and Ramdas Pophale) SiO2 
 PCOD9050632
Probable space group: P -1
;
_chemical_formula_sum "Si O2"
_cell_formula_units_Z 14
_cell_length_a 5.305014
_cell_length_b 9.142650
_cell_length_c 21.886706
_cell_angle_alpha 38.576455
_cell_angle_beta 75.014790
_cell_angle_gamma 88.498098
_cell_volume 611.543155
_symmetry_space_group_name_H-M "P -1"
_symmetry_group_IT_number 2
_symmetry_cell_setting 'triclinic'
loop_
_space_group_symop_operation_xyz
x,y,z
-x,-y,-z
loop_
_atom_site_type_symbol
_atom_site_label
_atom_site_fract_x
_atom_site_fract_y
_atom_site_fract_z
Si Si1 0.732721 0.890112 0.998753
Si Si2 0.964099 0.194285 0.529424
Si Si3 0.596035 0.801514 0.598138
Si Si4 0.779914 0.728923 0.184143
Si Si5 0.158451 0.309402 0.611701
Si Si6 0.472304 0.888589 0.256140
Si Si7 0.311115 0.548009 0.943091
O O1 0.817900 0.792378 0.089685
O O2 0.659641 0.642040 0.046955
O O3 0.921142 0.097959 0.873785
O O4 0.500000 0.000000 0.000000
O O5 0.178175 0.267653 0.435940
O O6 0.810142 0.400173 0.482919
O O7 0.132280 0.203132 0.578884
O O8 0.751025 0.939336 0.603806
O O9 0.342166 0.561312 0.703883
O O10 0.500000 0.000000 0.500000
O O11 0.580606 0.844802 0.196933
O O12 0.852266 0.194689 0.693579
O O13 0.383227 0.252465 0.659464
O O14 0.580336 0.171504 0.174895
O O15 0.500000 0.500000 0.000000
O O16 0.000000 0.500000 0.000000
#
# Coordination Sequence:
#
# PCOD9050632 Si02
#       7
#     2   2   2   2   2   2   2
#     4  11  27  47  75 105 148 196 248 312 370 450
#     4  10  25  43  68 106 145 194 243 309 362 448
#     4  11  24  45  71 103 149 192 246 302 373 445
#     4  11  25  46  71 103 144 196 248 298 379 436
#     4  11  26  45  73 106 145 193 250 302 376 435
#     4  12  25  46  75 105 143 198 243 312 369 450
#     4  12  26  48  74 109 147 187 254 310 377 444
#
# _framework density 22.892906
#
# number of rings (size 3 to 8) (size 9 to 14) (size 15 to 20)
#    0.000    0.857    2.857    2.571    8.000    3.429 
#    0.000    0.000    0.000    0.000    0.000    0.000 
#    0.000    0.000    0.000    0.000    0.000    0.000 
#
# Total GULP energy -78235.681102 kJ/mol
# GULP energy per Si atom -5588.262936 kJ/mol
# Density = 2.284080 g / cm^3
# Si number density = 22.892906 Si / 1000 Ang^3
#
#
#
# Elastic Constant Matrix: (Units=GPa)
#
#
# Indices 1 2 3 4 5 6 
#
# 1 71.3213 8.6274 24.6683 5.4101 1.2076 -2.9157
# 2 8.6274 165.2116 45.3355 -2.5145 -5.1807 7.8554
# 3 24.6683 45.3355 127.9075 -20.1847 -24.7817 0.6535
# 4 5.4101 -2.5145 -20.1847 42.4379 2.2423 6.3276
# 5 1.2076 -5.1807 -24.7817 2.2423 44.9112 8.0115
# 6 -2.9157 7.8554 0.6535 6.3276 8.0115 27.9979
#
#
#
# Elastic Compliance Matrix: (Units=1/GPa)
#
#
# Indices 1 2 3 4 5 6 
#
# 1 0.016141 0.000044 -0.004526 -0.004593 -0.003370 0.003777
# 2 0.000044 0.006813 -0.002564 -0.000562 -0.000311 -0.001631
# 3 -0.004526 -0.002564 0.011893 0.006228 0.006674 -0.003347
# 4 -0.004593 -0.000562 0.006228 0.028058 0.003487 -0.007805
# 5 -0.003370 -0.000311 0.006674 0.003487 0.027446 -0.009061
# 6 0.003777 -0.001631 -0.003347 -0.007805 -0.009061 0.041003
#
#
# Mechanical properties :
#
#
# Convention : Reuss Voigt Hill
#
# Bulk Modulus (GPa) = 48.17957 57.96700 53.07329
# Shear Modulus (GPa) = 32.81630 42.12336 37.46983
#
# Velocity S-wave (km/s) = 3.79023 4.29420 4.05006
# Velocity P-wave (km/s) = 6.34395 7.06843 6.71597
#
# Compressibility (1/GPa) = 0.02075568
#
# Stress axis : x y z
#
# Youngs Moduli (GPa) = 61.95465 146.76984 84.08497
#
# Poissons Ratio (x) = -0.00643 0.38053
# Poissons Ratio (y) = -0.00271 0.21559
# Poissons Ratio (z) = 0.28038 0.37631
#
# Static dielectric constant tensor:
#      x y z
#    x 2.258540 0.306890 -0.145370 
#    y 0.306890 1.986220 -0.086930 
#    z -0.145370 -0.086930 1.922670 
# 
# From -- ./inp_files/81182.got.cif
#   From: 2010.05.17/outbox.cif.g08.bks.cpg/sg2_41_cif.got.tgz:81182.got - 2010.06.03 11:33:40.
