data_PCOD9050242
_publ_section_title
;
Structure prediction by ZEFSAII (Michael W. Deem and Ramdas Pophale) SiO2 
 PCOD9050242
Probable space group: P -1
;
_chemical_formula_sum "Si O2"
_cell_formula_units_Z 16
_cell_length_a 13.706932
_cell_length_b 9.472165
_cell_length_c 10.784843
_cell_angle_alpha 137.783934
_cell_angle_beta 60.061164
_cell_angle_gamma 101.703987
_cell_volume 781.156490
_symmetry_space_group_name_H-M "P -1"
_symmetry_group_IT_number 2
_symmetry_cell_setting 'triclinic'
loop_
_space_group_symop_operation_xyz
x,y,z
-x,-y,-z
loop_
_atom_site_type_symbol
_atom_site_label
_atom_site_fract_x
_atom_site_fract_y
_atom_site_fract_z
Si Si1 0.356990 0.150859 0.804571
Si Si2 0.385007 0.666339 0.531025
Si Si3 0.023585 0.144079 0.967278
Si Si4 0.390294 0.948128 0.372806
Si Si5 0.353167 0.405163 0.622749
Si Si6 0.098266 0.632929 0.035991
Si Si7 0.217234 0.774083 0.488019
Si Si8 0.884837 0.470381 0.775240
O O1 0.475998 0.198764 0.807016
O O2 0.352958 0.930897 0.737985
O O3 0.375507 0.070642 0.597254
O O4 0.244067 0.354042 0.022626
O O5 0.350792 0.544729 0.590859
O O6 0.527048 0.587426 0.377441
O O7 0.310020 0.638785 0.441096
O O8 0.148140 0.006924 0.742487
O O9 0.028609 0.377546 0.169689
O O10 0.000000 0.000000 0.000000
O O11 0.936951 0.186804 0.932344
O O12 0.293406 0.820066 0.354521
O O13 0.369564 0.147422 0.419930
O O14 0.230879 0.493482 0.829816
O O15 0.094730 0.684960 0.217694
O O16 0.000000 0.500000 0.000000
O O17 0.120154 0.662944 0.431697
#
# Coordination Sequence:
#
# PCOD9050242 Si02
#       8
#     2   2   2   2   2   2   2   2
#     4   9  16  32  55  84 115 152 187 228 290 346
#     4   9  19  33  60  89 116 156 193 244 296 357
#     4  11  23  42  63  82 115 158 201 243 292 346
#     4   9  16  31  57  82 116 148 188 235 278 352
#     4  10  17  34  62  85 115 157 201 238 299 349
#     4  10  21  36  57  85 113 155 196 245 287 344
#     4  11  22  38  60  90 116 154 194 241 300 350
#     4  11  22  38  60  88 120 150 196 244 291 352
#
# _framework density 20.482451000000001
#
# number of rings (size 3 to 8) (size 9 to 14) (size 15 to 20)
#    0.000    2.000    3.750    2.250    0.000    1.500 
#    0.000    1.250    0.000    2.250    0.000    0.000 
#    0.000    0.000    0.000    0.000    0.000    0.000 
#
# Total GULP energy -89150.974458 kJ/mol
# GULP energy per Si atom -5571.935904 kJ/mol
# Density = 2.043583 g / cm^3
# Si number density = 20.482451 Si / 1000 Ang^3
#
#
#
# Elastic Constant Matrix: (Units=GPa)
#
#
# Indices 1 2 3 4 5 6 
#
# 1 88.9520 28.0193 12.4014 3.1003 0.8641 -15.6840
# 2 28.0193 118.9503 -0.2910 17.6472 3.2304 -17.5598
# 3 12.4014 -0.2910 19.3471 4.4312 -3.9027 -3.2883
# 4 3.1003 17.6472 4.4312 16.6602 1.9959 -9.1468
# 5 0.8641 3.2304 -3.9027 1.9959 33.6643 5.4879
# 6 -15.6840 -17.5598 -3.2883 -9.1468 5.4879 30.1795
#
#
#
# Elastic Compliance Matrix: (Units=1/GPa)
#
#
# Indices 1 2 3 4 5 6 
#
# 1 0.014978 -0.003606 -0.010918 0.008487 -0.003050 0.007623
# 2 -0.003606 0.011269 0.005486 -0.011805 0.000072 0.001689
# 3 -0.010918 0.005486 0.065626 -0.024926 0.009595 -0.004631
# 4 0.008487 -0.011805 -0.024926 0.092699 -0.011550 0.025021
# 5 -0.003050 0.000072 0.009595 -0.011550 0.033210 -0.010037
# 6 0.007623 0.001689 -0.004631 0.025021 -0.010037 0.046984
#
#
# Mechanical properties :
#
#
# Convention : Reuss Voigt Hill
#
# Bulk Modulus (GPa) = 13.55078 34.16763 23.85921
# Shear Modulus (GPa) = 16.26335 28.57544 22.41939
#
# Velocity S-wave (km/s) = 2.82088 3.73918 3.31201
# Velocity P-wave (km/s) = 4.15211 5.94639 5.12833
#
# Compressibility (1/GPa) = 0.07379648
#
# Stress axis : x y z
#
# Youngs Moduli (GPa) = 66.76473 88.74276 15.23790
#
# Poissons Ratio (x) = 0.31998 0.16637
# Poissons Ratio (y) = 0.24074 -0.08360
# Poissons Ratio (z) = 0.72897 -0.48686
#
# Static dielectric constant tensor:
#      x y z
#    x 1.789120 0.022800 -0.006690 
#    y 0.022800 1.778640 0.016680 
#    z -0.006690 0.016680 1.731860 
# 
# From -- ./inp_files/448316.got.cif
#   From: 2010.05.17/outbox.cif.g08.bks.cpg/sg2_225_cif.got.tgz:448316.got - 2010.06.03 11:33:40.
