data_PCOD9050345
_publ_section_title
;
Structure prediction by ZEFSAII (Michael W. Deem and Ramdas Pophale) SiO2 
 PCOD9050345
Probable space group: P -1
;
_chemical_formula_sum "Si O2"
_cell_formula_units_Z 16
_cell_length_a 9.386378
_cell_length_b 8.593042
_cell_length_c 14.169365
_cell_angle_alpha 75.475654
_cell_angle_beta 44.184150
_cell_angle_gamma 104.587863
_cell_volume 592.571877
_symmetry_space_group_name_H-M "P -1"
_symmetry_group_IT_number 2
_symmetry_cell_setting 'triclinic'
loop_
_space_group_symop_operation_xyz
x,y,z
-x,-y,-z
loop_
_atom_site_type_symbol
_atom_site_label
_atom_site_fract_x
_atom_site_fract_y
_atom_site_fract_z
Si Si1 0.393930 0.131479 0.535287
Si Si2 0.881116 0.783848 0.142424
Si Si3 0.653369 0.078152 0.646468
Si Si4 0.823720 0.755433 0.539244
Si Si5 0.417631 0.568491 0.939199
Si Si6 0.634490 0.093682 0.019557
Si Si7 0.896532 0.216237 0.142134
Si Si8 0.285460 0.557588 0.513983
O O1 0.254661 0.137951 0.510028
O O2 0.623593 0.365842 0.430068
O O3 0.500000 0.000000 0.500000
O O4 0.603840 0.121247 0.257334
O O5 0.935504 0.684160 0.048296
O O6 0.576367 0.655092 0.323505
O O7 0.058891 0.804819 0.140398
O O8 0.824553 0.007534 0.256765
O O9 0.786575 0.294223 0.496932
O O10 0.891835 0.090170 0.567717
O O11 0.507038 0.082387 0.805994
O O12 0.604103 0.625733 0.748786
O O13 0.871185 0.636186 0.455559
O O14 0.425685 0.756576 0.940964
O O15 0.104400 0.389686 0.091337
O O16 0.500000 0.500000 0.000000
O O17 0.500000 0.000000 0.000000
O O18 0.000000 0.000000 0.000000
#
# Coordination Sequence:
#
# PCOD9050345 Si02
#       8
#     2   2   2   2   2   2   2   2
#     4  11  27  47  79 115 163 212 258 322 400 473
#     4  11  20  42  82 105 145 207 256 314 386 454
#     4  10  25  46  81 112 157 209 251 325 402 465
#     4  12  28  49  81 116 163 203 268 324 402 464
#     4  12  31  50  81 120 154 204 270 335 381 468
#     4  11  28  46  77 114 158 200 261 315 400 465
#     4  10  24  51  76 106 154 199 268 315 391 456
#     4  11  23  48  76 112 157 206 261 321 386 469
#
# _framework density 27.000944
#
# number of rings (size 3 to 8) (size 9 to 14) (size 15 to 20)
#    0.000    1.000    5.000    0.750   12.250    5.500 
#    2.250    0.000    0.000    0.000    0.000    0.000 
#    0.000    0.000    0.000    0.000    0.000    0.000 
#
# Total GULP energy -89243.161899 kJ/mol
# GULP energy per Si atom -5577.697619 kJ/mol
# Density = 2.693949 g / cm^3
# Si number density = 27.000944 Si / 1000 Ang^3
#
#
#
# Elastic Constant Matrix: (Units=GPa)
#
#
# Indices 1 2 3 4 5 6 
#
# 1 263.5179 78.7218 58.5971 0.2203 -15.2808 25.2693
# 2 78.7218 121.4724 24.7988 -7.9775 -18.1929 19.2332
# 3 58.5971 24.7988 80.3617 0.7832 -18.4517 16.6592
# 4 0.2203 -7.9775 0.7832 33.1854 4.7111 -6.2072
# 5 -15.2808 -18.1929 -18.4517 4.7111 56.5094 0.4695
# 6 25.2693 19.2332 16.6592 -6.2072 0.4695 57.5749
#
#
#
# Elastic Compliance Matrix: (Units=1/GPa)
#
#
# Indices 1 2 3 4 5 6 
#
# 1 0.005349 -0.002868 -0.002971 -0.000713 -0.000383 -0.000604
# 2 -0.002868 0.010995 -0.000296 0.001910 0.002526 -0.002143
# 3 -0.002971 -0.000296 0.016543 -0.001782 0.004682 -0.003614
# 4 -0.000713 0.001910 -0.001782 0.031722 -0.002835 0.003634
# 5 -0.000383 0.002526 0.004682 -0.002835 0.020192 -0.002501
# 6 -0.000604 -0.002143 -0.003614 0.003634 -0.002501 0.019807
#
#
# Mechanical properties :
#
#
# Convention : Reuss Voigt Hill
#
# Bulk Modulus (GPa) = 48.50466 87.73193 68.11829
# Shear Modulus (GPa) = 40.40462 49.66956 45.03709
#
# Velocity S-wave (km/s) = 3.87255 4.29365 4.08852
# Velocity P-wave (km/s) = 6.16430 7.55932 6.89717
#
# Compressibility (1/GPa) = 0.02061658
#
# Stress axis : x y z
#
# Youngs Moduli (GPa) = 186.96758 90.95372 60.44975
#
# Poissons Ratio (x) = 0.26089 0.17957
# Poissons Ratio (y) = 0.53628 0.01787
# Poissons Ratio (z) = 0.55541 0.02689
#
# Static dielectric constant tensor:
#      x y z
#    x 2.142270 -0.041030 0.174460 
#    y -0.041030 2.464920 0.122400 
#    z 0.174460 0.122400 2.455480 
# 
# From -- ./inp_files/494816.got.cif
#   From: 2010.05.17/outbox.cif.g08.bks.cpg/sg2_248_cif.got.tgz:494816.got - 2010.06.03 11:33:40.
