data_PCOD9050293
_publ_section_title
;
Structure prediction by ZEFSAII (Michael W. Deem and Ramdas Pophale) SiO2 
 PCOD9050293
Probable space group: P -1
;
_chemical_formula_sum "Si O2"
_cell_formula_units_Z 11
_cell_length_a 6.893288
_cell_length_b 5.555520
_cell_length_c 14.738579
_cell_angle_alpha 90.796878
_cell_angle_beta 52.242554
_cell_angle_gamma 87.352048
_cell_volume 445.127402
_symmetry_space_group_name_H-M "P -1"
_symmetry_group_IT_number 2
_symmetry_cell_setting 'triclinic'
loop_
_space_group_symop_operation_xyz
x,y,z
-x,-y,-z
loop_
_atom_site_type_symbol
_atom_site_label
_atom_site_fract_x
_atom_site_fract_y
_atom_site_fract_z
Si Si1 0.068822 0.808609 0.057499
Si Si2 0.964209 0.786993 0.791114
Si Si3 0.384195 0.253940 0.567563
Si Si4 0.500000 0.500000 0.000000
Si Si5 0.074489 0.487356 0.372037
Si Si6 0.369503 0.456244 0.760183
O O1 0.334859 0.670546 0.976267
O O2 0.838267 0.646093 0.119485
O O3 0.087572 0.951655 0.148899
O O4 0.000000 0.000000 0.000000
O O5 0.971187 0.743072 0.680549
O O6 0.230446 0.688487 0.753610
O O7 0.759072 0.618873 0.890975
O O8 0.500000 0.500000 0.500000
O O9 0.413501 0.262560 0.666309
O O10 0.100168 0.300682 0.621552
O O11 0.500000 0.000000 0.500000
O O12 0.362800 0.512332 0.279773
O O13 0.000000 0.500000 0.500000
#
# Coordination Sequence:
#
# PCOD9050293 Si02
#       6
#     2   2   2   1   2   2
#     4  11  26  47  78 108 153 200 253 328 396 467
#     4  10  25  45  74 108 150 190 254 316 386 463
#     4  11  25  48  74 107 157 199 261 329 387 468
#     4  10  24  50  72 110 148 192 260 318 388 470
#     4  11  24  47  76 107 149 203 254 313 392 468
#     4  10  25  45  70 110 147 196 256 314 387 472
#
# _framework density 24.712028
#
# number of rings (size 3 to 8) (size 9 to 14) (size 15 to 20)
#    0.000    1.455    1.818    0.545   10.182    2.182 
#    6.545    0.000    0.000    0.000    0.000    0.000 
#    0.000    0.000    0.000    0.000    0.000    0.000 
#
# Total GULP energy -61267.447716 kJ/mol
# GULP energy per Si atom -5569.767974 kJ/mol
# Density = 2.465578 g / cm^3
# Si number density = 24.712028 Si / 1000 Ang^3
#
#
#
# Elastic Constant Matrix: (Units=GPa)
#
#
# Indices 1 2 3 4 5 6 
#
# 1 211.2226 67.7960 57.7811 17.4333 -35.2853 -22.9428
# 2 67.7960 87.6830 44.3869 10.5503 -12.4176 3.4096
# 3 57.7811 44.3869 113.4360 13.0638 -8.1319 9.9715
# 4 17.4333 10.5503 13.0638 47.5307 3.5250 7.6744
# 5 -35.2853 -12.4176 -8.1319 3.5250 66.3259 10.1953
# 6 -22.9428 3.4096 9.9715 7.6744 10.1953 29.4050
#
#
#
# Elastic Compliance Matrix: (Units=1/GPa)
#
#
# Indices 1 2 3 4 5 6 
#
# 1 0.008502 -0.004906 -0.002644 -0.002767 0.002188 0.008062
# 2 -0.004906 0.017491 -0.003817 -0.000329 0.000953 -0.004806
# 3 -0.002644 -0.003817 0.012254 -0.000651 0.000293 -0.005708
# 4 -0.002767 -0.000329 -0.000651 0.023640 -0.001721 -0.007473
# 5 0.002188 0.000953 0.000293 -0.001721 0.017162 -0.004004
# 6 0.008062 -0.004806 -0.005708 -0.007473 -0.004004 0.046130
#
#
# Mechanical properties :
#
#
# Convention : Reuss Voigt Hill
#
# Bulk Modulus (GPa) = 64.46060 83.58553 74.02307
# Shear Modulus (GPa) = 32.66181 44.81083 38.73632
#
# Velocity S-wave (km/s) = 3.63946 4.26293 3.96347
# Velocity P-wave (km/s) = 6.61832 7.62413 7.13896
#
# Compressibility (1/GPa) = 0.01551335
#
# Stress axis : x y z
#
# Youngs Moduli (GPa) = 117.62046 57.17087 81.60852
#
# Poissons Ratio (x) = 0.28047 0.21580
# Poissons Ratio (y) = 0.57702 0.31148
# Poissons Ratio (z) = 0.31102 0.21821
#
# Static dielectric constant tensor:
#      x y z
#    x 2.059000 -0.015990 0.137390 
#    y -0.015990 2.026930 -0.073100 
#    z 0.137390 -0.073100 2.166300 
# 
# From -- ./inp_files/58731.got.cif
#   From: 2010.05.17/outbox.cif.g08.bks.cpg/sg2_30_cif.got.tgz:58731.got - 2010.06.03 11:33:40.
