data_PCOD9050006
_publ_section_title
;
Structure prediction by ZEFSAII (Michael W. Deem and Ramdas Pophale) SiO2 
 PCOD9050006
Probable space group: P -1
;
_chemical_formula_sum "Si O2"
_cell_formula_units_Z 12
_cell_length_a 8.008638
_cell_length_b 5.039562
_cell_length_c 16.213725
_cell_angle_alpha 64.698147
_cell_angle_beta 72.075784
_cell_angle_gamma 63.631278
_cell_volume 524.407298
_symmetry_space_group_name_H-M "P -1"
_symmetry_group_IT_number 2
_symmetry_cell_setting 'triclinic'
loop_
_space_group_symop_operation_xyz
x,y,z
-x,-y,-z
loop_
_atom_site_type_symbol
_atom_site_label
_atom_site_fract_x
_atom_site_fract_y
_atom_site_fract_z
Si Si1 0.078351 0.175836 0.895593
Si Si2 0.862571 0.920001 0.837937
Si Si3 0.023295 0.636929 0.565179
Si Si4 0.294245 0.175136 0.283257
Si Si5 0.438943 0.209276 0.565186
Si Si6 0.487239 0.214340 0.092670
O O1 0.996441 0.550418 0.870067
O O2 0.304575 0.032553 0.886792
O O3 0.981964 0.100046 0.838517
O O4 0.000000 0.000000 0.000000
O O5 0.798466 0.006406 0.741333
O O6 0.662723 0.925188 0.906384
O O7 0.221647 0.384916 0.596447
O O8 0.000000 0.500000 0.500000
O O9 0.869460 0.642252 0.654307
O O10 0.000000 0.000000 0.500000
O O11 0.386538 0.336163 0.180696
O O12 0.455766 0.971620 0.346683
O O13 0.500000 0.500000 0.500000
O O14 0.500000 0.000000 0.500000
O O15 0.500000 0.500000 0.000000
#
# Coordination Sequence:
#
# PCOD9050006 Si02
#       6
#     2   2   2   2   2   2
#     4  12  23  46  72 100 139 195 246 297 362 425
#     4  10  27  43  69 105 142 186 247 293 367 427
#     4  12  24  46  73 102 145 189 240 305 366 436
#     4  10  25  47  68 110 145 192 244 304 365 444
#     4  12  24  46  73 105 139 190 241 300 374 433
#     4  10  24  48  72 106 148 194 243 304 362 433
#
# _framework density 22.882975999999999
#
# number of rings (size 3 to 8) (size 9 to 14) (size 15 to 20)
#    1.000    0.000    5.000    0.500    2.333    4.667 
#    3.000    0.000    0.000    0.000    0.000    0.000 
#    0.000    0.000    0.000    0.000    0.000    0.000 
#
# Total GULP energy -67014.476583 kJ/mol
# GULP energy per Si atom -5584.539715 kJ/mol
# Density = 2.283089 g / cm^3
# Si number density = 22.882976 Si / 1000 Ang^3
#
#
#
# Elastic Constant Matrix: (Units=GPa)
#
#
# Indices 1 2 3 4 5 6 
#
# 1 147.1063 75.1403 40.7858 6.4243 -1.2875 -53.2125
# 2 75.1403 139.2189 48.2622 -1.3953 -3.8893 -15.5736
# 3 40.7858 48.2622 158.3145 -6.0158 -2.3636 -13.7087
# 4 6.4243 -1.3953 -6.0158 32.3599 -9.9878 -0.7022
# 5 -1.2875 -3.8893 -2.3636 -9.9878 46.9647 4.8607
# 6 -53.2125 -15.5736 -13.7087 -0.7022 4.8607 67.3352
#
#
#
# Elastic Compliance Matrix: (Units=1/GPa)
#
#
# Indices 1 2 3 4 5 6 
#
# 1 0.013696 -0.006082 -0.001032 -0.003557 -0.001900 0.009306
# 2 -0.006082 0.010869 -0.001903 0.001656 0.001275 -0.002755
# 3 -0.001032 -0.001903 0.007249 0.001631 0.000505 0.000201
# 4 -0.003557 0.001656 0.001631 0.034295 0.007652 -0.002291
# 5 -0.001900 0.001275 0.000505 0.007652 0.023279 -0.002704
# 6 0.009306 -0.002755 0.000201 -0.002291 -0.002704 0.021781
#
#
# Mechanical properties :
#
#
# Convention : Reuss Voigt Hill
#
# Bulk Modulus (GPa) = 72.56724 85.89071 79.22897
# Shear Modulus (GPa) = 37.37012 48.02872 42.69942
#
# Velocity S-wave (km/s) = 4.04554 4.58633 4.32440
# Velocity P-wave (km/s) = 7.32141 8.10322 7.72221
#
# Compressibility (1/GPa) = 0.01378032
#
# Stress axis : x y z
#
# Youngs Moduli (GPa) = 73.01625 92.00209 137.94057
#
# Poissons Ratio (x) = 0.55954 0.14235
# Poissons Ratio (y) = 0.44407 0.26253
# Poissons Ratio (z) = 0.07535 0.17510
#
# Static dielectric constant tensor:
#      x y z
#    x 1.911930 0.023680 0.048440 
#    y 0.023680 1.850800 -0.007510 
#    z 0.048440 -0.007510 1.872530 
# 
# From -- ./inp_files/486974.got.cif
#   From: 2010.05.17/outbox.cif.g08.bks.cpg/sg2_244_cif.got.tgz:486974.got - 2010.06.03 11:33:40.
