data_PCOD9050915
_publ_section_title
;
Structure prediction by ZEFSAII (Michael W. Deem and Ramdas Pophale) SiO2 
 PCOD9050915
Probable space group: P -1
;
_chemical_formula_sum "Si O2"
_cell_formula_units_Z 14
_cell_length_a 13.088922
_cell_length_b 10.187985
_cell_length_c 9.589470
_cell_angle_alpha 62.567077
_cell_angle_beta 84.189704
_cell_angle_gamma 134.472505
_cell_volume 601.632738
_symmetry_space_group_name_H-M "P -1"
_symmetry_group_IT_number 2
_symmetry_cell_setting 'triclinic'
loop_
_space_group_symop_operation_xyz
x,y,z
-x,-y,-z
loop_
_atom_site_type_symbol
_atom_site_label
_atom_site_fract_x
_atom_site_fract_y
_atom_site_fract_z
Si Si1 0.992396 0.902529 0.905774
Si Si2 0.640570 0.309669 0.851041
Si Si3 0.272870 0.228988 0.171690
Si Si4 0.318768 0.325653 0.427916
Si Si5 0.634873 0.953140 0.473679
Si Si6 0.048734 0.689588 0.504836
Si Si7 0.711391 0.341836 0.147309
O O1 0.178543 0.160634 0.659761
O O2 0.814394 0.758390 0.921399
O O3 0.920570 0.645129 0.032357
O O4 0.000000 0.000000 0.000000
O O5 0.575763 0.388136 0.752740
O O6 0.849927 0.526751 0.652502
O O7 0.672093 0.352218 0.992079
O O8 0.500000 0.000000 0.000000
O O9 0.210856 0.180121 0.364195
O O10 0.410381 0.272410 0.451249
O O11 0.500000 0.500000 0.000000
O O12 0.815776 0.033239 0.733510
O O13 0.820566 0.186186 0.438122
O O14 0.681408 0.127710 0.261292
O O15 0.452226 0.791430 0.663159
O O16 0.000000 0.500000 0.500000
#
# Coordination Sequence:
#
# PCOD9050915 Si02
#       7
#     2   2   2   2   2   2   2
#     4  12  25  42  73 105 144 191 241 305 367 430
#     4  12  26  44  74 105 141 191 245 304 358 437
#     4  11  23  44  73 102 141 199 239 299 363 438
#     4  11  24  46  71 103 142 187 251 288 367 433
#     4  10  25  44  72 100 142 193 230 304 361 439
#     4  11  24  41  68 102 140 182 244 294 355 435
#     4  11  24  48  68 102 148 186 239 296 374 423
#
# _framework density 23.270008000000001
#
# number of rings (size 3 to 8) (size 9 to 14) (size 15 to 20)
#    0.000    0.857    2.857    4.714    4.000    4.571 
#    0.000    3.571    0.000    0.000    0.000    0.000 
#    0.000    0.000    0.000    0.000    0.000    0.000 
#
# Total GULP energy -78209.156507 kJ/mol
# GULP energy per Si atom -5586.368322 kJ/mol
# Density = 2.321704 g / cm^3
# Si number density = 23.270008 Si / 1000 Ang^3
#
#
#
# Elastic Constant Matrix: (Units=GPa)
#
#
# Indices 1 2 3 4 5 6 
#
# 1 110.9924 24.6489 59.0788 -10.7674 27.1518 -26.0685
# 2 24.6489 87.1716 37.2821 -10.3824 3.6075 -39.8367
# 3 59.0788 37.2821 129.3697 -5.9964 11.7600 -29.0848
# 4 -10.7674 -10.3824 -5.9964 44.6407 -13.4374 6.1897
# 5 27.1518 3.6075 11.7600 -13.4374 43.0752 -10.2212
# 6 -26.0685 -39.8367 -29.0848 6.1897 -10.2212 41.5472
#
#
#
# Elastic Compliance Matrix: (Units=1/GPa)
#
#
# Indices 1 2 3 4 5 6 
#
# 1 0.014213 0.000267 -0.005065 0.000282 -0.006568 0.003970
# 2 0.000267 0.021687 -0.002104 0.003368 0.004403 0.020070
# 3 -0.005065 -0.002104 0.011209 -0.000341 0.000896 0.002923
# 4 0.000282 0.003368 -0.000341 0.025392 0.007867 0.001321
# 5 -0.006568 0.004403 0.000896 0.007867 0.030894 0.007156
# 6 0.003970 0.020070 0.002923 0.001321 0.007156 0.049414
#
#
# Mechanical properties :
#
#
# Convention : Reuss Voigt Hill
#
# Bulk Modulus (GPa) = 30.02485 63.28369 46.65427
# Shear Modulus (GPa) = 28.13531 39.62090 33.87810
#
# Velocity S-wave (km/s) = 3.48096 4.13081 3.81973
# Velocity P-wave (km/s) = 5.39323 7.07148 6.28859
#
# Compressibility (1/GPa) = 0.03330575
#
# Stress axis : x y z
#
# Youngs Moduli (GPa) = 70.35901 46.11139 89.21551
#
# Poissons Ratio (x) = -0.01232 0.45185
# Poissons Ratio (y) = -0.01879 0.18768
# Poissons Ratio (z) = 0.35635 0.09700
#
# Static dielectric constant tensor:
#      x y z
#    x 1.632150 0.153340 -0.151600 
#    y 0.153340 1.746980 0.095920 
#    z -0.151600 0.095920 1.756000 
# 
# From -- ./inp_files/335232.got.cif
#   From: 2010.05.17/outbox.cif.g08.bks.cpg/sg2_168_cif.got.tgz:335232.got - 2010.06.03 11:33:40.
