data_PCOD9050223
_publ_section_title
;
Structure prediction by ZEFSAII (Michael W. Deem and Ramdas Pophale) SiO2 
 PCOD9050223
Probable space group: P -1
;
_chemical_formula_sum "Si O2"
_cell_formula_units_Z 14
_cell_length_a 15.158657
_cell_length_b 13.584567
_cell_length_c 7.019114
_cell_angle_alpha 128.667012
_cell_angle_beta 50.283541
_cell_angle_gamma 150.130870
_cell_volume 544.205422
_symmetry_space_group_name_H-M "P -1"
_symmetry_group_IT_number 2
_symmetry_cell_setting 'triclinic'
loop_
_space_group_symop_operation_xyz
x,y,z
-x,-y,-z
loop_
_atom_site_type_symbol
_atom_site_label
_atom_site_fract_x
_atom_site_fract_y
_atom_site_fract_z
Si Si1 0.963285 0.096315 0.775829
Si Si2 0.452406 0.623279 0.237807
Si Si3 0.197142 0.199521 0.059416
Si Si4 0.121616 0.713622 0.869900
Si Si5 0.372160 0.959444 0.478192
Si Si6 0.715290 0.302907 0.043482
Si Si7 0.617018 0.479943 0.232436
O O1 0.166038 0.301140 0.821131
O O2 0.000000 0.000000 0.500000
O O3 0.883033 0.152680 0.859297
O O4 0.810800 0.915285 0.910267
O O5 0.615630 0.673297 0.153887
O O6 0.536042 0.828173 0.425685
O O7 0.255516 0.389096 0.283861
O O8 0.435992 0.613074 0.017446
O O9 0.000000 0.000000 0.000000
O O10 0.184831 0.796656 0.666267
O O11 0.913806 0.492219 0.899346
O O12 0.235427 0.710810 0.832952
O O13 0.500000 0.000000 0.500000
O O14 0.366888 0.876322 0.192034
O O15 0.615687 0.353148 0.215353
O O16 0.500000 0.500000 0.500000
#
# Coordination Sequence:
#
# PCOD9050223 Si02
#       7
#     2   2   2   2   2   2   2
#     4  11  23  44  72 104 149 195 247 316 374 449
#     4  11  24  45  70 111 145 193 255 309 376 456
#     4  11  23  45  70 100 144 190 248 304 372 446
#     4  10  24  49  73 110 150 198 263 304 380 458
#     4  12  24  45  74 105 151 195 246 315 378 453
#     4  10  24  49  77 110 148 204 252 313 382 453
#     4  11  23  45  73 108 152 193 248 318 378 453
#
# _framework density 25.725580000000001
#
# number of rings (size 3 to 8) (size 9 to 14) (size 15 to 20)
#    0.000    1.143    4.286    1.286    0.000    1.714 
#   15.429    0.000    0.000    0.000    0.000    0.000 
#    0.000    0.000    0.000    0.000    0.000    0.000 
#
# Total GULP energy -78083.756757 kJ/mol
# GULP energy per Si atom -5577.411197 kJ/mol
# Density = 2.566703 g / cm^3
# Si number density = 25.725580 Si / 1000 Ang^3
#
#
#
# Elastic Constant Matrix: (Units=GPa)
#
#
# Indices 1 2 3 4 5 6 
#
# 1 104.9295 52.0521 34.0166 8.3016 -22.5595 -17.1413
# 2 52.0521 194.7606 51.4721 14.8924 5.2055 -13.3621
# 3 34.0166 51.4721 104.7804 11.5242 -12.5235 -14.2650
# 4 8.3016 14.8924 11.5242 55.1850 -6.3804 -4.2101
# 5 -22.5595 5.2055 -12.5235 -6.3804 39.6943 2.4802
# 6 -17.1413 -13.3621 -14.2650 -4.2101 2.4802 49.6038
#
#
#
# Elastic Compliance Matrix: (Units=1/GPa)
#
#
# Indices 1 2 3 4 5 6 
#
# 1 0.013786 -0.003284 -0.001561 0.000254 0.007622 0.003071
# 2 -0.003284 0.006911 -0.002639 -0.001257 -0.003811 0.000052
# 3 -0.001561 -0.002639 0.012092 -0.001083 0.002976 0.001986
# 4 0.000254 -0.001257 -0.001083 0.019061 0.002975 0.000907
# 5 0.007622 -0.003811 0.002976 0.002975 0.031369 0.001147
# 6 0.003071 0.000052 0.001986 0.000907 0.001147 0.021826
#
#
# Mechanical properties :
#
#
# Convention : Reuss Voigt Hill
#
# Bulk Modulus (GPa) = 56.11550 75.50578 65.81064
# Shear Modulus (GPa) = 39.69705 46.69195 43.19450
#
# Velocity S-wave (km/s) = 3.93249 4.26490 4.10206
# Velocity P-wave (km/s) = 6.51765 7.32576 6.93349
#
# Compressibility (1/GPa) = 0.01782039
#
# Stress axis : x y z
#
# Youngs Moduli (GPa) = 72.53866 144.69229 82.69855
#
# Poissons Ratio (x) = 0.47522 0.12909
# Poissons Ratio (y) = 0.23824 0.21824
# Poissons Ratio (z) = 0.11323 0.38185
#
# Static dielectric constant tensor:
#      x y z
#    x 2.034780 0.029700 -0.047430 
#    y 0.029700 1.899820 0.267100 
#    z -0.047430 0.267100 1.696560 
# 
# From -- ./inp_files/348660.got.cif
#   From: 2010.05.17/outbox.cif.g08.bks.cpg/sg2_175_cif.got.tgz:348660.got - 2010.06.03 11:33:40.
