data_PCOD9050077
_publ_section_title
;
Structure prediction by ZEFSAII (Michael W. Deem and Ramdas Pophale) SiO2 
 PCOD9050077
Probable space group: P -1
;
_chemical_formula_sum "Si O2"
_cell_formula_units_Z 16
_cell_length_a 18.019823
_cell_length_b 5.503296
_cell_length_c 11.886626
_cell_angle_alpha 123.765720
_cell_angle_beta 47.999559
_cell_angle_gamma 131.129657
_cell_volume 645.580696
_symmetry_space_group_name_H-M "P -1"
_symmetry_group_IT_number 2
_symmetry_cell_setting 'triclinic'
loop_
_space_group_symop_operation_xyz
x,y,z
-x,-y,-z
loop_
_atom_site_type_symbol
_atom_site_label
_atom_site_fract_x
_atom_site_fract_y
_atom_site_fract_z
Si Si1 0.921520 0.551451 0.935072
Si Si2 0.023258 0.822332 0.695192
Si Si3 0.103568 0.339114 0.439389
Si Si4 0.739333 0.944913 0.820832
Si Si5 0.382895 0.718090 0.590388
Si Si6 0.147439 0.535153 0.768774
Si Si7 0.402126 0.219916 0.282930
Si Si8 0.542480 0.894488 0.167203
O O1 0.956639 0.833150 0.877110
O O2 0.043170 0.598386 0.862619
O O3 0.846129 0.228769 0.852385
O O4 0.854828 0.522902 0.108667
O O5 0.094576 0.626649 0.589545
O O6 0.930525 0.638825 0.648494
O O7 0.109423 0.181341 0.661040
O O8 0.219547 0.325671 0.318257
O O9 0.000000 0.000000 0.500000
O O10 0.699910 0.006497 0.754820
O O11 0.634512 0.856668 0.987077
O O12 0.276291 0.764321 0.667539
O O13 0.370912 0.374457 0.464158
O O14 0.500000 0.000000 0.500000
O O15 0.395242 0.797822 0.730706
O O16 0.476231 0.552718 0.217311
O O17 0.466189 0.012147 0.201299
#
# Coordination Sequence:
#
# PCOD9050077 Si02
#       8
#     2   2   2   2   2   2   2   2
#     4  11  24  43  70 107 151 187 242 302 379 456
#     4  11  23  40  69 100 151 190 242 295 371 449
#     4  11  24  43  63 104 149 187 233 298 368 458
#     4  12  24  45  74 103 147 197 242 309 386 450
#     4  10  24  48  75 104 146 201 252 314 377 450
#     4  11  23  46  69 107 146 192 249 301 374 458
#     4  11  27  45  78 106 150 191 263 314 386 443
#     4  11  25  53  69 110 144 201 256 323 370 456
#
# _framework density 24.783888000000001
#
# number of rings (size 3 to 8) (size 9 to 14) (size 15 to 20)
#    0.000    1.000    3.750    1.500    3.500    3.000 
#    6.750    0.000    0.000    0.000    0.000    0.000 
#    0.000    0.000    0.000    0.000    0.000    0.000 
#
# Total GULP energy -89386.888398 kJ/mol
# GULP energy per Si atom -5586.680525 kJ/mol
# Density = 2.472748 g / cm^3
# Si number density = 24.783888 Si / 1000 Ang^3
#
#
#
# Elastic Constant Matrix: (Units=GPa)
#
#
# Indices 1 2 3 4 5 6 
#
# 1 140.7766 32.1316 52.0095 -9.3678 -16.1891 15.1677
# 2 32.1316 78.6558 28.0981 -0.3042 -12.5458 9.4460
# 3 52.0095 28.0981 134.8947 8.7868 -6.6946 6.4446
# 4 -9.3678 -0.3042 8.7868 29.8602 4.3193 -5.1744
# 5 -16.1891 -12.5458 -6.6946 4.3193 53.2968 2.7829
# 6 15.1677 9.4460 6.4446 -5.1744 2.7829 43.2081
#
#
#
# Elastic Compliance Matrix: (Units=1/GPa)
#
#
# Indices 1 2 3 4 5 6 
#
# 1 0.009430 -0.002155 -0.003210 0.003259 0.001798 -0.002086
# 2 -0.002155 0.015057 -0.001994 -0.000782 0.002834 -0.002514
# 3 -0.003210 -0.001994 0.009332 -0.003832 0.000054 -0.000292
# 4 0.003259 -0.000782 -0.003832 0.036773 -0.002874 0.004187
# 5 0.001798 0.002834 0.000054 -0.002874 0.020368 -0.002915
# 6 -0.002086 -0.002514 -0.000292 0.004187 -0.002915 0.025158
#
#
# Mechanical properties :
#
#
# Convention : Reuss Voigt Hill
#
# Bulk Modulus (GPa) = 52.35371 64.31171 58.33271
# Shear Modulus (GPa) = 36.44204 41.41221 38.92712
#
# Velocity S-wave (km/s) = 3.83873 4.09214 3.96746
# Velocity P-wave (km/s) = 6.38888 6.95218 6.67647
#
# Compressibility (1/GPa) = 0.01910084
#
# Stress axis : x y z
#
# Youngs Moduli (GPa) = 106.04611 66.41327 107.15410
#
# Poissons Ratio (x) = 0.14315 0.34398
# Poissons Ratio (y) = 0.22858 0.21363
# Poissons Ratio (z) = 0.34043 0.13241
#
# Static dielectric constant tensor:
#      x y z
#    x 2.024510 0.003260 0.051020 
#    y 0.003260 2.018280 0.001160 
#    z 0.051020 0.001160 2.015600 
# 
# From -- ./inp_files/459608.got.cif
#   From: 2010.05.17/outbox.cif.g08.bks.cpg/sg2_230_cif.got.tgz:459608.got - 2010.06.03 11:33:40.
