data_PCOD9050165
_publ_section_title
;
Structure prediction by ZEFSAII (Michael W. Deem and Ramdas Pophale) SiO2 
 PCOD9050165
Probable space group: P -1
;
_chemical_formula_sum "Si O2"
_cell_formula_units_Z 13
_cell_length_a 6.821497
_cell_length_b 12.743611
_cell_length_c 7.523268
_cell_angle_alpha 114.040738
_cell_angle_beta 80.983225
_cell_angle_gamma 111.752365
_cell_volume 554.728948
_symmetry_space_group_name_H-M "P -1"
_symmetry_group_IT_number 2
_symmetry_cell_setting 'triclinic'
loop_
_space_group_symop_operation_xyz
x,y,z
-x,-y,-z
loop_
_atom_site_type_symbol
_atom_site_label
_atom_site_fract_x
_atom_site_fract_y
_atom_site_fract_z
Si Si1 0.031955 0.707308 0.094363
Si Si2 0.713485 0.462641 0.086499
Si Si3 0.400588 0.645113 0.363439
Si Si4 0.527279 0.123550 0.685161
Si Si5 0.335353 0.357272 0.341040
Si Si6 0.834978 0.871612 0.994362
Si Si7 0.000000 0.500000 0.500000
O O1 0.233488 0.803006 0.230181
O O2 0.849631 0.606682 0.165075
O O3 0.933287 0.787665 0.043670
O O4 0.130322 0.610444 0.919726
O O5 0.354063 0.573330 0.132331
O O6 0.508105 0.402924 0.191269
O O7 0.513420 0.783691 0.385155
O O8 0.544926 0.617897 0.473687
O O9 0.174376 0.620557 0.467134
O O10 0.360842 0.109593 0.859161
O O11 0.500000 0.000000 0.500000
O O12 0.167868 0.425824 0.399409
O O13 0.239548 0.212906 0.225496
O O14 0.000000 0.000000 0.000000
#
# Coordination Sequence:
#
# PCOD9050165 Si02
#       7
#     2   2   2   2   2   2   1
#     4  10  24  48  81 112 156 205 262 330 396 478
#     4  10  24  53  83 115 158 211 257 328 425 465
#     4  11  27  49  77 118 159 202 266 327 396 482
#     4  11  28  52  77 111 156 214 267 327 389 465
#     4  12  28  51  78 119 164 206 264 330 401 480
#     4  12  29  49  78 112 156 223 266 317 401 472
#     4  12  30  44  76 124 154 202 258 326 396 478
#
# _framework density 23.434867000000001
#
# number of rings (size 3 to 8) (size 9 to 14) (size 15 to 20)
#    0.000    0.923    3.077    1.385   15.077    4.923 
#    0.000    0.769    0.000    0.000    0.000    0.000 
#    0.000    0.000    0.000    0.000    0.000    0.000 
#
# Total GULP energy -72527.023577 kJ/mol
# GULP energy per Si atom -5579.001814 kJ/mol
# Density = 2.338153 g / cm^3
# Si number density = 23.434867 Si / 1000 Ang^3
#
#
#
# Elastic Constant Matrix: (Units=GPa)
#
#
# Indices 1 2 3 4 5 6 
#
# 1 142.8395 57.9265 87.1737 -6.6719 -6.5987 12.7557
# 2 57.9265 160.2341 58.3395 16.8760 -0.5376 35.2685
# 3 87.1737 58.3395 95.3560 9.2596 -14.4149 17.4940
# 4 -6.6719 16.8760 9.2596 51.9638 8.6992 3.0736
# 5 -6.5987 -0.5376 -14.4149 8.6992 50.8322 -11.3780
# 6 12.7557 35.2685 17.4940 3.0736 -11.3780 50.8640
#
#
#
# Elastic Compliance Matrix: (Units=1/GPa)
#
#
# Indices 1 2 3 4 5 6 
#
# 1 0.017797 -0.001198 -0.016825 0.006162 -0.003294 0.001045
# 2 -0.001198 0.009410 -0.003817 -0.001886 -0.001989 -0.005242
# 3 -0.016825 -0.003817 0.030304 -0.007458 0.007317 -0.001469
# 4 0.006162 -0.001886 -0.007458 0.022879 -0.005305 -0.000241
# 5 -0.003294 -0.001989 0.007317 -0.005305 0.023379 0.005239
# 6 0.001045 -0.005242 -0.001469 -0.000241 0.005239 0.024725
#
#
# Mechanical properties :
#
#
# Convention : Reuss Voigt Hill
#
# Bulk Modulus (GPa) = 72.31017 89.47879 80.89448
# Shear Modulus (GPa) = 28.28283 43.73133 36.00708
#
# Velocity S-wave (km/s) = 3.47777 4.32450 3.92404
# Velocity P-wave (km/s) = 6.85925 7.94983 7.42459
#
# Compressibility (1/GPa) = 0.01382931
#
# Stress axis : x y z
#
# Youngs Moduli (GPa) = 56.18800 106.27320 32.99911
#
# Poissons Ratio (x) = 0.12733 0.55522
# Poissons Ratio (y) = 0.06732 0.12597
# Poissons Ratio (z) = 0.94538 0.40569
#
# Static dielectric constant tensor:
#      x y z
#    x 2.101930 -0.140550 0.214510 
#    y -0.140550 1.979000 -0.148410 
#    z 0.214510 -0.148410 2.344430 
# 
# From -- ./inp_files/131946.got.cif
#   From: 2010.05.17/outbox.cif.g08.bks.cpg/sg2_66_cif.got.tgz:131946.got - 2010.06.03 11:33:40.
