data_PCOD9050177
_publ_section_title
;
Structure prediction by ZEFSAII (Michael W. Deem and Ramdas Pophale) SiO2 
 PCOD9050177
Probable space group: P -1
;
_chemical_formula_sum "Si O2"
_cell_formula_units_Z 13
_cell_length_a 12.728372
_cell_length_b 12.005686
_cell_length_c 9.821184
_cell_angle_alpha 143.366775
_cell_angle_beta 128.166205
_cell_angle_gamma 36.859768
_cell_volume 535.961262
_symmetry_space_group_name_H-M "P -1"
_symmetry_group_IT_number 2
_symmetry_cell_setting 'triclinic'
loop_
_space_group_symop_operation_xyz
x,y,z
-x,-y,-z
loop_
_atom_site_type_symbol
_atom_site_label
_atom_site_fract_x
_atom_site_fract_y
_atom_site_fract_z
Si Si1 0.470318 0.779543 0.516936
Si Si2 0.202950 0.695425 0.811970
Si Si3 0.339280 0.925090 0.259164
Si Si4 0.905212 0.986540 0.205100
Si Si5 0.230398 0.669559 0.320130
Si Si6 0.000000 0.500000 0.500000
Si Si7 0.456970 0.884446 0.014502
O O1 0.643146 0.498770 0.362483
O O2 0.428738 0.883397 0.432483
O O3 0.315964 0.786001 0.451347
O O4 0.503373 0.932215 0.783444
O O5 0.078142 0.938577 0.857121
O O6 0.123309 0.575160 0.677209
O O7 0.286845 0.753728 0.048133
O O8 0.452295 0.843486 0.132592
O O9 0.172043 0.209437 0.385296
O O10 0.864211 0.190580 0.478097
O O11 0.738019 0.998776 0.076867
O O12 0.082792 0.735354 0.159394
O O13 0.388460 0.382133 0.183281
#
# Coordination Sequence:
#
# PCOD9050177 Si02
#       7
#     2   2   2   2   2   1   2
#     4  12  24  42  67 103 134 180 225 272 333 405
#     4  11  24  43  66  99 138 176 221 278 335 395
#     4  11  24  42  64  98 137 179 220 268 341 394
#     4  10  24  49  68 101 132 178 227 274 344 393
#     4  11  24  47  73  93 139 177 221 286 331 397
#     4  12  24  40  66  98 138 174 222 284 318 402
#     4  11  24  43  69 100 135 177 223 279 332 399
#
# _framework density 24.255486000000001
#
# number of rings (size 3 to 8) (size 9 to 14) (size 15 to 20)
#    0.000    0.923    4.615    2.769    0.000    4.308 
#    2.769    1.538    0.000    0.000    0.000    0.000 
#    0.000    0.000    0.000    0.000    0.000    0.000 
#
# Total GULP energy -72564.168164 kJ/mol
# GULP energy per Si atom -5581.859090 kJ/mol
# Density = 2.420028 g / cm^3
# Si number density = 24.255486 Si / 1000 Ang^3
#
#
#
# Elastic Constant Matrix: (Units=GPa)
#
#
# Indices 1 2 3 4 5 6 
#
# 1 47.6630 32.6129 38.4082 -7.4407 20.6017 -3.8960
# 2 32.6129 103.9407 38.0736 -8.8893 19.3657 -3.8470
# 3 38.4082 38.0736 119.0215 -18.9401 34.6866 -3.2641
# 4 -7.4407 -8.8893 -18.9401 37.7927 -2.6592 -3.1761
# 5 20.6017 19.3657 34.6866 -2.6592 42.4153 -9.5284
# 6 -3.8960 -3.8470 -3.2641 -3.1761 -9.5284 32.8265
#
#
#
# Elastic Compliance Matrix: (Units=1/GPa)
#
#
# Indices 1 2 3 4 5 6 
#
# 1 0.034623 -0.006858 -0.006296 0.001494 -0.008354 0.000399
# 2 -0.006858 0.012563 -0.001299 0.000889 -0.001229 0.000259
# 3 -0.006296 -0.001299 0.013784 0.004719 -0.007613 -0.001282
# 4 0.001494 0.000889 0.004719 0.029393 -0.002504 0.002868
# 5 -0.008354 -0.001229 -0.007613 -0.002504 0.036141 0.008356
# 6 0.000399 0.000259 -0.001282 0.002868 0.008356 0.033116
#
#
# Mechanical properties :
#
#
# Convention : Reuss Voigt Hill
#
# Bulk Modulus (GPa) = 31.18796 54.31273 42.75034
# Shear Modulus (GPa) = 25.09855 33.37561 29.23708
#
# Velocity S-wave (km/s) = 3.22025 3.71348 3.47563
# Velocity P-wave (km/s) = 5.16844 6.38961 5.81119
#
# Compressibility (1/GPa) = 0.03206366
#
# Stress axis : x y z
#
# Youngs Moduli (GPa) = 28.88220 79.59789 72.55046
#
# Poissons Ratio (x) = 0.54592 0.45676
# Poissons Ratio (y) = 0.19809 0.09424
# Poissons Ratio (z) = 0.18184 0.10339
#
# Static dielectric constant tensor:
#      x y z
#    x 1.958440 -0.028580 -0.052170 
#    y -0.028580 1.964240 0.006710 
#    z -0.052170 0.006710 1.911160 
# 
# From -- ./inp_files/453552.got.cif
#   From: 2010.05.17/outbox.cif.g08.bks.cpg/sg2_227_cif.got.tgz:453552.got - 2010.06.03 11:33:40.
