data_PCOD9050285
_publ_section_title
;
Structure prediction by ZEFSAII (Michael W. Deem and Ramdas Pophale) SiO2 
 PCOD9050285
Probable space group: P -1
;
_chemical_formula_sum "Si O2"
_cell_formula_units_Z 14
_cell_length_a 18.151168
_cell_length_b 10.948850
_cell_length_c 9.047914
_cell_angle_alpha 66.786435
_cell_angle_beta 47.786387
_cell_angle_gamma 30.178786
_cell_volume 579.262343
_symmetry_space_group_name_H-M "P -1"
_symmetry_group_IT_number 2
_symmetry_cell_setting 'triclinic'
loop_
_space_group_symop_operation_xyz
x,y,z
-x,-y,-z
loop_
_atom_site_type_symbol
_atom_site_label
_atom_site_fract_x
_atom_site_fract_y
_atom_site_fract_z
Si Si1 0.377591 0.702003 0.929676
Si Si2 0.907436 0.202225 0.784518
Si Si3 0.334402 0.321107 0.914871
Si Si4 0.008093 0.464603 0.832872
Si Si5 0.799873 0.822651 0.562906
Si Si6 0.643805 0.437631 0.422904
Si Si7 0.066177 0.178011 0.347750
O O1 0.257833 0.720289 0.007557
O O2 0.201535 0.997288 0.105277
O O3 0.500000 0.500000 0.000000
O O4 0.532489 0.586433 0.660733
O O5 0.942851 0.197150 0.566855
O O6 0.808155 0.451481 0.869844
O O7 0.124915 0.896689 0.707003
O O8 0.336226 0.443370 0.739784
O O9 0.575044 0.017606 0.780128
O O10 0.220573 0.325174 0.002376
O O11 0.070055 0.534590 0.648193
O O12 0.158703 0.191741 0.660039
O O13 0.000000 0.500000 0.000000
O O14 0.795284 0.943690 0.635986
O O15 0.000000 0.500000 0.500000
O O16 0.500000 0.500000 0.500000
#
# Coordination Sequence:
#
# PCOD9050285 Si02
#       7
#     2   2   2   2   2   2   2
#     4  12  26  45  71 111 149 189 246 303 363 432
#     4  12  25  46  77 110 146 195 246 299 370 436
#     4  12  26  45  80 107 147 197 245 297 376 433
#     4  11  28  47  72 106 149 192 242 310 364 431
#     4  10  24  50  71 102 141 189 248 295 356 436
#     4  12  27  45  74 112 150 194 244 300 371 437
#     4  11  24  47  72 103 149 189 244 300 357 440
#
# _framework density 24.168669000000001
#
# number of rings (size 3 to 8) (size 9 to 14) (size 15 to 20)
#    0.000    0.571    4.286    2.571    4.000    2.857 
#    5.143    0.000    0.000    0.000    0.000    0.000 
#    0.000    0.000    0.000    0.000    0.000    0.000 
#
# Total GULP energy -78244.270811 kJ/mol
# GULP energy per Si atom -5588.876486 kJ/mol
# Density = 2.411366 g / cm^3
# Si number density = 24.168669 Si / 1000 Ang^3
#
#
#
# Elastic Constant Matrix: (Units=GPa)
#
#
# Indices 1 2 3 4 5 6 
#
# 1 92.5316 2.6031 27.3051 6.6380 15.1509 -4.9004
# 2 2.6031 90.5521 28.4450 3.4884 -11.8125 -1.9024
# 3 27.3051 28.4450 140.8097 -7.8747 16.0553 -9.3816
# 4 6.6380 3.4884 -7.8747 49.4440 -3.4512 -1.6864
# 5 15.1509 -11.8125 16.0553 -3.4512 57.2393 0.9947
# 6 -4.9004 -1.9024 -9.3816 -1.6864 0.9947 29.3042
#
#
#
# Elastic Compliance Matrix: (Units=1/GPa)
#
#
# Indices 1 2 3 4 5 6 
#
# 1 0.012090 0.000051 -0.002069 -0.002103 -0.002759 0.001335
# 2 0.000051 0.012453 -0.002991 -0.001140 0.003332 -0.000319
# 3 -0.002069 -0.002991 0.008644 0.001778 -0.002429 0.002412
# 4 -0.002103 -0.001140 0.001778 0.020990 0.001065 0.001315
# 5 -0.002759 0.003332 -0.002429 0.001065 0.019662 -0.001629
# 6 0.001335 -0.000319 0.002412 0.001315 -0.001629 0.035231
#
#
# Mechanical properties :
#
#
# Convention : Reuss Voigt Hill
#
# Bulk Modulus (GPa) = 43.15723 48.95553 46.05638
# Shear Modulus (GPa) = 39.42923 44.90016 42.16470
#
# Velocity S-wave (km/s) = 4.04346 4.31488 4.18137
# Velocity P-wave (km/s) = 6.30039 6.71744 6.51225
#
# Compressibility (1/GPa) = 0.02317109
#
# Stress axis : x y z
#
# Youngs Moduli (GPa) = 82.71626 80.30067 115.68474
#
# Poissons Ratio (x) = -0.00413 0.23933
# Poissons Ratio (y) = -0.00426 0.34597
# Poissons Ratio (z) = 0.17112 0.24015
#
# Static dielectric constant tensor:
#      x y z
#    x 2.056540 0.104100 0.099110 
#    y 0.104100 2.053750 0.035560 
#    z 0.099110 0.035560 1.980500 
# 
# From -- ./inp_files/333101.got.cif
#   From: 2010.05.17/outbox.cif.g08.bks.cpg/sg2_167_cif.got.tgz:333101.got - 2010.06.03 11:33:40.
