data_PCOD9050852
_publ_section_title
;
Structure prediction by ZEFSAII (Michael W. Deem and Ramdas Pophale) SiO2 
 PCOD9050852
Probable space group: P -1
;
_chemical_formula_sum "Si O2"
_cell_formula_units_Z 16
_cell_length_a 12.383185
_cell_length_b 8.552547
_cell_length_c 11.838305
_cell_angle_alpha 124.681865
_cell_angle_beta 109.094682
_cell_angle_gamma 43.747442
_cell_volume 705.111476
_symmetry_space_group_name_H-M "P -1"
_symmetry_group_IT_number 2
_symmetry_cell_setting 'triclinic'
loop_
_space_group_symop_operation_xyz
x,y,z
-x,-y,-z
loop_
_atom_site_type_symbol
_atom_site_label
_atom_site_fract_x
_atom_site_fract_y
_atom_site_fract_z
Si Si1 0.387683 0.208413 0.876149
Si Si2 0.145968 0.801143 0.051942
Si Si3 0.652557 0.904095 0.406192
Si Si4 0.819410 0.715988 0.988513
Si Si5 0.128569 0.736541 0.278013
Si Si6 0.644015 0.221295 0.029996
Si Si7 0.380681 0.440734 0.647842
Si Si8 0.782259 0.124382 0.426981
O O1 0.450354 0.064303 0.719360
O O2 0.222238 0.510139 0.927453
O O3 0.323967 0.121958 0.903502
O O4 0.510152 0.216430 0.972718
O O5 0.112986 0.842725 0.190977
O O6 0.293345 0.771046 0.063546
O O7 0.000000 0.000000 0.000000
O O8 0.545990 0.154020 0.553738
O O9 0.754224 0.940851 0.385654
O O10 0.717796 0.640011 0.384280
O O11 0.796056 0.557185 0.837836
O O12 0.000000 0.500000 0.000000
O O13 0.797942 0.938345 0.012385
O O14 0.224307 0.745320 0.406503
O O15 0.954807 0.921426 0.346815
O O16 0.608261 0.434936 0.189410
O O17 0.322105 0.641565 0.606208
#
# Coordination Sequence:
#
# PCOD9050852 Si02
#       8
#     2   2   2   2   2   2   2   2
#     4  11  24  41  67 104 140 178 237 300 347 427
#     4  11  23  42  71  98 136 181 231 290 363 415
#     4  11  25  42  71 100 143 185 237 288 357 428
#     4  11  23  42  70 101 139 184 237 290 360 424
#     4  10  25  44  69  99 135 184 239 291 347 434
#     4  12  24  42  72 106 142 180 238 300 359 418
#     4  11  25  43  71 102 141 190 229 288 363 427
#     4  11  24  48  68  97 145 188 234 292 356 423
#
# _framework density 22.691448000000001
#
# number of rings (size 3 to 8) (size 9 to 14) (size 15 to 20)
#    0.000    1.000    1.250    5.625    5.250    1.000 
#    0.000    1.250    0.000    0.000    0.000    0.000 
#    0.000    0.000    0.000    0.000    0.000    0.000 
#
# Total GULP energy -89275.474237 kJ/mol
# GULP energy per Si atom -5579.717140 kJ/mol
# Density = 2.263980 g / cm^3
# Si number density = 22.691448 Si / 1000 Ang^3
#
#
#
# Elastic Constant Matrix: (Units=GPa)
#
#
# Indices 1 2 3 4 5 6 
#
# 1 128.5102 24.5997 40.2321 -21.9122 -6.3633 29.0446
# 2 24.5997 89.1275 22.5143 -8.7473 2.3373 17.5936
# 3 40.2321 22.5143 146.1961 -10.1693 -8.5590 6.7611
# 4 -21.9122 -8.7473 -10.1693 25.0720 6.5697 -2.7896
# 5 -6.3633 2.3373 -8.5590 6.5697 33.4279 -1.8248
# 6 29.0446 17.5936 6.7611 -2.7896 -1.8248 34.0154
#
#
#
# Elastic Compliance Matrix: (Units=1/GPa)
#
#
# Indices 1 2 3 4 5 6 
#
# 1 0.012024 -0.000081 -0.002303 0.008665 -0.000494 -0.009083
# 2 -0.000081 0.013344 -0.001615 0.003873 -0.002468 -0.006327
# 3 -0.002303 -0.001615 0.007778 0.000290 0.001684 0.001370
# 4 0.008665 0.003873 0.000290 0.050591 -0.008806 -0.005783
# 5 -0.000494 -0.002468 0.001684 -0.008806 0.032285 0.002374
# 6 -0.009083 -0.006327 0.001370 -0.005783 0.002374 0.039807
#
#
# Mechanical properties :
#
#
# Convention : Reuss Voigt Hill
#
# Bulk Modulus (GPa) = 39.76366 59.83622 49.79994
# Shear Modulus (GPa) = 29.03457 36.93557 32.98507
#
# Velocity S-wave (km/s) = 3.58094 4.03889 3.81679
# Velocity P-wave (km/s) = 5.88721 6.94096 6.43569
#
# Compressibility (1/GPa) = 0.02514859
#
# Stress axis : x y z
#
# Youngs Moduli (GPa) = 83.16935 74.94078 128.56872
#
# Poissons Ratio (x) = 0.00604 0.29603
# Poissons Ratio (y) = 0.00670 0.20768
# Poissons Ratio (z) = 0.19150 0.12105
#
# Static dielectric constant tensor:
#      x y z
#    x 2.070630 0.269430 -0.096640 
#    y 0.269430 2.220980 -0.171670 
#    z -0.096640 -0.171670 1.898510 
# 
# From -- ./inp_files/420061.got.cif
#   From: 2010.05.17/outbox.cif.g08.bks.cpg/sg2_211_cif.got.tgz:420061.got - 2010.06.03 11:33:40.
