data_PCOD9050862
_publ_section_title
;
Structure prediction by ZEFSAII (Michael W. Deem and Ramdas Pophale) SiO2 
 PCOD9050862
Probable space group: P -1
;
_chemical_formula_sum "Si O2"
_cell_formula_units_Z 14
_cell_length_a 10.248486
_cell_length_b 11.224415
_cell_length_c 9.759534
_cell_angle_alpha 109.047564
_cell_angle_beta 134.818503
_cell_angle_gamma 53.281942
_cell_volume 629.365295
_symmetry_space_group_name_H-M "P -1"
_symmetry_group_IT_number 2
_symmetry_cell_setting 'triclinic'
loop_
_space_group_symop_operation_xyz
x,y,z
-x,-y,-z
loop_
_atom_site_type_symbol
_atom_site_label
_atom_site_fract_x
_atom_site_fract_y
_atom_site_fract_z
Si Si1 0.038151 0.311245 0.348782
Si Si2 0.616293 0.358588 0.635201
Si Si3 0.135661 0.827073 0.489364
Si Si4 0.963598 0.646175 0.953315
Si Si5 0.639995 0.629647 0.285609
Si Si6 0.739336 0.906374 0.075814
Si Si7 0.240382 0.809198 0.853095
O O1 0.829456 0.463315 0.314979
O O2 0.972938 0.189243 0.256989
O O3 0.247394 0.275825 0.578184
O O4 0.067061 0.348711 0.229454
O O5 0.500000 0.500000 0.500000
O O6 0.715262 0.217758 0.551205
O O7 0.456309 0.371228 0.638679
O O8 0.821242 0.349728 0.856561
O O9 0.277463 0.749564 0.700976
O O10 0.939901 0.804313 0.293640
O O11 0.000000 0.000000 0.500000
O O12 0.763549 0.794270 0.934056
O O13 0.000000 0.500000 0.000000
O O14 0.445502 0.699791 0.058620
O O15 0.786486 0.029888 0.102243
O O16 0.500000 0.000000 0.000000
#
# Coordination Sequence:
#
# PCOD9050862 Si02
#       7
#     2   2   2   2   2   2   2
#     4  11  25  42  67 104 142 177 237 280 355 401
#     4  11  22  41  68 100 135 180 234 277 340 414
#     4   9  22  42  66  97 132 181 222 276 338 411
#     4  11  25  43  68 102 139 181 235 286 341 419
#     4  11  25  42  68 106 137 186 229 288 343 416
#     4  10  25  44  70 103 137 184 235 282 347 416
#     4  11  23  44  72  95 145 179 226 288 349 401
#
# _framework density 22.244634000000001
#
# number of rings (size 3 to 8) (size 9 to 14) (size 15 to 20)
#    0.000    1.429    1.429    2.143    6.000    6.286 
#    2.571    0.714    0.000    0.000    0.000    0.000 
#    0.000    0.000    0.000    0.000    0.000    0.000 
#
# Total GULP energy -78257.332746 kJ/mol
# GULP energy per Si atom -5589.809482 kJ/mol
# Density = 2.219400 g / cm^3
# Si number density = 22.244634 Si / 1000 Ang^3
#
#
#
# Elastic Constant Matrix: (Units=GPa)
#
#
# Indices 1 2 3 4 5 6 
#
# 1 144.9884 67.9230 53.9140 14.3704 -13.6657 -16.5745
# 2 67.9230 93.4268 7.7770 17.1919 -0.5103 -11.4655
# 3 53.9140 7.7770 128.7342 5.6041 -7.5557 -8.4375
# 4 14.3704 17.1919 5.6041 24.6677 -1.0711 1.6565
# 5 -13.6657 -0.5103 -7.5557 -1.0711 37.8996 11.2689
# 6 -16.5745 -11.4655 -8.4375 1.6565 11.2689 48.2737
#
#
#
# Elastic Compliance Matrix: (Units=1/GPa)
#
#
# Indices 1 2 3 4 5 6 
#
# 1 0.013448 -0.009224 -0.004808 -0.000212 0.003532 0.000769
# 2 -0.009224 0.019178 0.003088 -0.009059 -0.003625 0.003085
# 3 -0.004808 0.003088 0.009718 -0.001618 -0.000053 0.000849
# 4 -0.000212 -0.009059 -0.001618 0.047752 0.002215 -0.004663
# 5 0.003532 -0.003625 -0.000053 0.002215 0.029640 -0.006653
# 6 0.000769 0.003085 0.000849 -0.004663 -0.006653 0.023573
#
#
# Mechanical properties :
#
#
# Convention : Reuss Voigt Hill
#
# Bulk Modulus (GPa) = 48.88378 69.59748 59.24063
# Shear Modulus (GPa) = 29.06704 38.00392 33.53548
#
# Velocity S-wave (km/s) = 3.61875 4.13783 3.88696
# Velocity P-wave (km/s) = 6.28361 7.36098 6.84353
#
# Compressibility (1/GPa) = 0.02045668
#
# Stress axis : x y z
#
# Youngs Moduli (GPa) = 74.36139 52.14245 102.90273
#
# Poissons Ratio (x) = 0.48096 0.49474
# Poissons Ratio (y) = 0.68591 -0.31778
# Poissons Ratio (z) = 0.35752 -0.16103
#
# Static dielectric constant tensor:
#      x y z
#    x 1.825750 0.025130 -0.002540 
#    y 0.025130 1.862820 -0.001860 
#    z -0.002540 -0.001860 1.874070 
# 
# From -- ./inp_files/188833.got.cif
#   From: 2010.05.17/outbox.cif.g08.bks.cpg/sg2_95_cif.got.tgz:188833.got - 2010.06.03 11:33:40.
