data_PCOD9050425
_publ_section_title
;
Structure prediction by ZEFSAII (Michael W. Deem and Ramdas Pophale) SiO2 
 PCOD9050425
Probable space group: P -1
;
_chemical_formula_sum "Si O2"
_cell_formula_units_Z 14
_cell_length_a 7.163730
_cell_length_b 5.056044
_cell_length_c 17.873213
_cell_angle_alpha 86.021160
_cell_angle_beta 73.773009
_cell_angle_gamma 116.827999
_cell_volume 540.044348
_symmetry_space_group_name_H-M "P -1"
_symmetry_group_IT_number 2
_symmetry_cell_setting 'triclinic'
loop_
_space_group_symop_operation_xyz
x,y,z
-x,-y,-z
loop_
_atom_site_type_symbol
_atom_site_label
_atom_site_fract_x
_atom_site_fract_y
_atom_site_fract_z
Si Si1 0.550448 0.097064 0.302288
Si Si2 0.207083 0.375697 0.617670
Si Si3 0.594460 0.296745 0.130190
Si Si4 0.969391 0.064533 0.233000
Si Si5 0.010500 0.182358 0.068337
Si Si6 0.349073 0.641456 0.115477
Si Si7 0.375810 0.728784 0.459194
O O1 0.718685 0.358045 0.335121
O O2 0.515937 0.228189 0.227364
O O3 0.707894 0.961773 0.261881
O O4 0.347555 0.865958 0.381731
O O5 0.017650 0.084379 0.687973
O O6 0.176759 0.470821 0.535561
O O7 0.434442 0.358067 0.581074
O O8 0.427719 0.990093 0.110372
O O9 0.827772 0.295317 0.095409
O O10 0.549869 0.570843 0.109171
O O11 0.997971 0.977649 0.146590
O O12 0.149346 0.423899 0.199962
O O13 0.241475 0.494740 0.050995
O O14 0.000000 0.000000 0.000000
O O15 0.500000 0.000000 0.500000
#
# Coordination Sequence:
#
# PCOD9050425 Si02
#       7
#     2   2   2   2   2   2   2
#     4   9  18  31  58  84 122 166 213 256 319 376
#     4   9  15  28  57  82 119 162 211 255 315 381
#     4  11  24  41  67  94 132 172 214 265 321 384
#     4   8  19  34  56  86 119 162 208 258 317 371
#     4   9  22  44  67  95 131 168 215 268 323 383
#     4  10  25  41  64  98 128 170 217 263 324 384
#     4   8  15  27  46  92 117 155 213 256 308 381
#
# _framework density 25.923794999999998
#
# number of rings (size 3 to 8) (size 9 to 14) (size 15 to 20)
#    0.857    2.000    0.000    0.000    8.000    2.286 
#    0.000    1.429    0.000    1.714    0.000    0.000 
#    0.000    0.000    0.000    0.000    0.000    0.000 
#
# Total GULP energy -78067.336195 kJ/mol
# GULP energy per Si atom -5576.238300 kJ/mol
# Density = 2.586479 g / cm^3
# Si number density = 25.923795 Si / 1000 Ang^3
#
#
#
# Elastic Constant Matrix: (Units=GPa)
#
#
# Indices 1 2 3 4 5 6 
#
# 1 105.2696 4.4302 26.6209 -3.3989 -5.2633 -4.1440
# 2 4.4302 62.3697 34.6331 -11.1252 -10.1545 -3.7090
# 3 26.6209 34.6331 157.5285 -11.6425 -9.3921 -4.2107
# 4 -3.3989 -11.1252 -11.6425 47.8017 4.9513 -6.8959
# 5 -5.2633 -10.1545 -9.3921 4.9513 22.7799 -7.9732
# 6 -4.1440 -3.7090 -4.2107 -6.8959 -7.9732 27.5600
#
#
#
# Elastic Compliance Matrix: (Units=1/GPa)
#
#
# Indices 1 2 3 4 5 6 
#
# 1 0.010124 0.000877 -0.001635 0.000577 0.002746 0.002329
# 2 0.000877 0.020531 -0.003678 0.003860 0.009073 0.005924
# 3 -0.001635 -0.003678 0.007602 0.000893 0.001278 0.001014
# 4 0.000577 0.003860 0.000893 0.023051 -0.000567 0.006347
# 5 0.002746 0.009073 0.001278 -0.000567 0.055431 0.017724
# 6 0.002329 0.005924 0.001014 0.006347 0.017724 0.044302
#
#
# Mechanical properties :
#
#
# Convention : Reuss Voigt Hill
#
# Bulk Modulus (GPa) = 34.02915 50.72623 42.37769
# Shear Modulus (GPa) = 27.82307 36.92721 32.37514
#
# Velocity S-wave (km/s) = 3.27962 3.77829 3.53775
# Velocity P-wave (km/s) = 5.24370 6.21642 5.75066
#
# Compressibility (1/GPa) = 0.02938657
#
# Stress axis : x y z
#
# Youngs Moduli (GPa) = 98.77915 48.70649 131.54073
#
# Poissons Ratio (x) = -0.04274 0.21508
# Poissons Ratio (y) = -0.08667 0.48375
# Poissons Ratio (z) = 0.16151 0.17912
#
# Static dielectric constant tensor:
#      x y z
#    x 2.321880 -0.396360 -0.571230 
#    y -0.396360 2.746590 0.911820 
#    z -0.571230 0.911820 3.846020 
# 
# From -- ./inp_files/552112.got.cif
#   From: 2010.05.17/outbox.cif.g08.bks.cpg/sg2_277_cif.got.tgz:552112.got - 2010.06.03 11:33:40.
