data_PCOD9050562
_publ_section_title
;
Structure prediction by ZEFSAII (Michael W. Deem and Ramdas Pophale) SiO2 
 PCOD9050562
Probable space group: P -1
;
_chemical_formula_sum "Si O2"
_cell_formula_units_Z 15
_cell_length_a 22.265360
_cell_length_b 5.441641
_cell_length_c 10.049000
_cell_angle_alpha 115.700490
_cell_angle_beta 144.663772
_cell_angle_gamma 63.163626
_cell_volume 623.285408
_symmetry_space_group_name_H-M "P -1"
_symmetry_group_IT_number 2
_symmetry_cell_setting 'triclinic'
loop_
_space_group_symop_operation_xyz
x,y,z
-x,-y,-z
loop_
_atom_site_type_symbol
_atom_site_label
_atom_site_fract_x
_atom_site_fract_y
_atom_site_fract_z
Si Si1 0.328490 0.264983 0.966729
Si Si2 0.839984 0.671618 0.824318
Si Si3 0.511309 0.232744 0.862520
Si Si4 0.097330 0.406692 0.554199
Si Si5 0.329040 0.056212 0.633011
Si Si6 0.342962 0.503084 0.434533
Si Si7 0.058312 0.788455 0.306623
Si Si8 0.500000 0.500000 0.500000
O O1 0.210685 0.396692 0.827630
O O2 0.317490 0.252017 0.784608
O O3 0.422811 0.404163 0.222641
O O4 0.373097 0.937105 0.002240
O O5 0.758894 0.834753 0.609181
O O6 0.764547 0.610830 0.793523
O O7 0.895305 0.395129 0.780454
O O8 0.931377 0.829412 0.071899
O O9 0.445402 0.048748 0.785771
O O10 0.442407 0.280194 0.614650
O O11 0.500000 0.500000 0.000000
O O12 0.086183 0.606974 0.450261
O O13 0.000000 0.500000 0.500000
O O14 0.094809 0.084079 0.438273
O O15 0.321505 0.737413 0.565049
O O16 0.390689 0.609602 0.415152
#
# Coordination Sequence:
#
# PCOD9050562 Si02
#       8
#     2   2   2   2   2   2   2   1
#     4  12  25  47  73 106 154 198 258 311 386 460
#     4  10  25  42  80 111 147 192 257 337 381 451
#     4  11  22  39  71 105 136 187 251 309 371 454
#     4  12  29  51  78 112 159 214 256 316 394 472
#     4  11  21  44  71 108 141 197 246 313 375 463
#     4  11  24  44  69 108 152 195 252 310 395 460
#     4  11  26  50  78 118 149 198 271 324 387 446
#     4  12  28  44  66 106 152 202 238 316 386 474
#
# _framework density 24.066020999999999
#
# number of rings (size 3 to 8) (size 9 to 14) (size 15 to 20)
#    0.000    0.800    4.000    2.400    5.600    2.667 
#    0.000    0.000    0.000    0.000    0.000    0.000 
#    0.000    0.000    0.000    0.000    0.000    0.000 
#
# Total GULP energy -83510.095222 kJ/mol
# GULP energy per Si atom -5567.339681 kJ/mol
# Density = 2.401125 g / cm^3
# Si number density = 24.066021 Si / 1000 Ang^3
#
#
#
# Elastic Constant Matrix: (Units=GPa)
#
#
# Indices 1 2 3 4 5 6 
#
# 1 53.9161 35.6027 35.7973 20.0245 11.3271 -35.0135
# 2 35.6027 22.4815 33.2671 -45.9035 6.8691 37.9140
# 3 35.7973 33.2671 171.1368 -10.6199 21.2770 0.9439
# 4 20.0245 -45.9035 -10.6199 -0.9211 0.2327 42.6960
# 5 11.3271 6.8691 21.2770 0.2327 39.2448 -10.8247
# 6 -35.0135 37.9140 0.9439 42.6960 -10.8247 3.3142
#
#
#
# Elastic Compliance Matrix: (Units=1/GPa)
#
#
# Indices 1 2 3 4 5 6 
#
# 1 0.013960 0.003614 -0.002625 0.007489 -0.004147 -0.003131
# 2 0.003614 0.011695 -0.003769 -0.007667 0.001693 0.009766
# 3 -0.002625 -0.003769 0.007515 0.000361 -0.002915 -0.000928
# 4 0.007489 -0.007667 0.000361 0.012573 0.002224 0.012016
# 5 -0.004147 0.001693 -0.002915 0.002224 0.028757 0.002931
# 6 -0.003131 0.009766 -0.000928 0.012016 0.002931 0.011980
#
#
# Mechanical properties :
#
#
# Convention : Reuss Voigt Hill
#
# Bulk Modulus (GPa) = 36.21972 50.76318 43.49145
# Shear Modulus (GPa) = 49.38571 17.85207 33.61889
#
# Velocity S-wave (km/s) = 4.53492 2.72655 3.74163
# Velocity P-wave (km/s) = 6.51947 5.57236 6.06443
#
# Compressibility (1/GPa) = 0.02760927
#
# Stress axis : x y z
#
# Youngs Moduli (GPa) = 71.63092 85.51004 133.06592
#
# Poissons Ratio (x) = -0.30904 0.34932
# Poissons Ratio (y) = -0.25888 0.50157
# Poissons Ratio (z) = 0.18804 0.32231
#
# Static dielectric constant tensor:
#      x y z
#    x 1.981580 0.054470 0.002240 
#    y 0.054470 2.037690 0.010700 
#    z 0.002240 0.010700 1.933130 
# 
# From -- ./inp_files/473496.got.cif
#   From: 2010.05.17/outbox.cif.g08.bks.cpg/sg2_237_cif.got.tgz:473496.got - 2010.06.03 11:33:40.
