data_PCOD9050626
_publ_section_title
;
Structure prediction by ZEFSAII (Michael W. Deem and Ramdas Pophale) SiO2 
 PCOD9050626
Probable space group: P -1
;
_chemical_formula_sum "Si O2"
_cell_formula_units_Z 15
_cell_length_a 11.853164
_cell_length_b 8.602167
_cell_length_c 10.712250
_cell_angle_alpha 61.234099
_cell_angle_beta 84.556728
_cell_angle_gamma 129.932548
_cell_volume 586.974100
_symmetry_space_group_name_H-M "P -1"
_symmetry_group_IT_number 2
_symmetry_cell_setting 'triclinic'
loop_
_space_group_symop_operation_xyz
x,y,z
-x,-y,-z
loop_
_atom_site_type_symbol
_atom_site_label
_atom_site_fract_x
_atom_site_fract_y
_atom_site_fract_z
Si Si1 0.978410 0.086084 0.143704
Si Si2 0.265512 0.512099 0.491366
Si Si3 0.000000 0.500000 0.500000
Si Si4 0.241633 0.964201 0.014773
Si Si5 0.992768 0.369569 0.262142
Si Si6 0.280720 0.231890 0.117212
Si Si7 0.604951 0.968972 0.432961
Si Si8 0.645530 0.625466 0.679925
O O1 0.975473 0.187977 0.236137
O O2 0.185634 0.268794 0.033215
O O3 0.847834 0.752899 0.299688
O O4 0.891885 0.091252 0.039773
O O5 0.975098 0.358092 0.418222
O O6 0.481393 0.782597 0.396849
O O7 0.253715 0.388790 0.413071
O O8 0.180274 0.599441 0.472243
O O9 0.193548 0.704394 0.091020
O O10 0.201021 0.952998 0.172348
O O11 0.445320 0.290036 0.853238
O O12 0.818460 0.274767 0.271263
O O13 0.234145 0.207807 0.273304
O O14 0.500000 0.500000 0.000000
O O15 0.611626 0.782679 0.571110
O O16 0.500000 0.000000 0.500000
#
# Coordination Sequence:
#
# PCOD9050626 Si02
#       8
#     2   2   1   2   2   2   2   2
#     4  12  24  45  74 104 143 194 243 294 359 435
#     4  12  25  46  76 105 144 192 241 301 360 430
#     4  12  28  46  68 112 146 188 236 306 360 424
#     4  11  25  47  73 104 146 189 242 291 364 431
#     4  12  27  45  72 110 146 186 243 299 361 422
#     4  10  25  43  68 102 141 190 237 292 359 426
#     4  12  25  44  71 109 142 184 242 295 354 424
#     4  11  24  49  74 106 144 193 240 295 365 431
#
# _framework density 25.554790000000001
#
# number of rings (size 3 to 8) (size 9 to 14) (size 15 to 20)
#    0.000    0.533    4.000    3.600    3.733    3.200 
#    0.000    8.667    0.000    0.000    0.000    0.000 
#    0.000    0.000    0.000    0.000    0.000    0.000 
#
# Total GULP energy -83625.112728 kJ/mol
# GULP energy per Si atom -5575.007515 kJ/mol
# Density = 2.549663 g / cm^3
# Si number density = 25.554790 Si / 1000 Ang^3
#
#
#
# Elastic Constant Matrix: (Units=GPa)
#
#
# Indices 1 2 3 4 5 6 
#
# 1 116.6087 29.5434 15.4182 3.1445 -3.7547 -3.5005
# 2 29.5434 163.1718 45.4749 12.3869 2.5604 -1.9365
# 3 15.4182 45.4749 48.8565 -13.5397 -0.5976 0.0455
# 4 3.1445 12.3869 -13.5397 55.2325 5.2926 -7.7565
# 5 -3.7547 2.5604 -0.5976 5.2926 30.6844 -0.4353
# 6 -3.5005 -1.9365 0.0455 -7.7565 -0.4353 48.2871
#
#
#
# Elastic Compliance Matrix: (Units=1/GPa)
#
#
# Indices 1 2 3 4 5 6 
#
# 1 0.009202 -0.000997 -0.002210 -0.000900 0.001328 0.000497
# 2 -0.000997 0.009313 -0.009578 -0.004404 -0.000332 -0.000400
# 3 -0.002210 -0.009578 0.033005 0.010583 -0.000638 0.001119
# 4 -0.000900 -0.004404 0.010583 0.022531 -0.003375 0.003337
# 5 0.001328 -0.000332 -0.000638 -0.003375 0.033348 -0.000158
# 6 0.000497 -0.000400 0.001119 0.003337 -0.000158 0.021263
#
#
# Mechanical properties :
#
#
# Convention : Reuss Voigt Hill
#
# Bulk Modulus (GPa) = 38.53471 56.61221 47.57346
# Shear Modulus (GPa) = 30.69720 42.72081 36.70901
#
# Velocity S-wave (km/s) = 3.46964 4.09312 3.79421
# Velocity P-wave (km/s) = 5.58240 6.67379 6.15235
#
# Compressibility (1/GPa) = 0.02595063
#
# Stress axis : x y z
#
# Youngs Moduli (GPa) = 108.66742 107.37436 30.29873
#
# Poissons Ratio (x) = 0.10705 0.06695
# Poissons Ratio (y) = 0.10834 0.29021
# Poissons Ratio (z) = 0.24011 1.02845
#
# Static dielectric constant tensor:
#      x y z
#    x 1.969440 0.038120 -0.311870 
#    y 0.038120 1.917710 0.458280 
#    z -0.311870 0.458280 0.365910 
# 
# From -- ./inp_files/419175.got.cif
#   From: 2010.05.17/outbox.cif.g08.bks.cpg/sg2_210_cif.got.tgz:419175.got - 2010.06.03 11:33:40.
