data_PCOD9050204
_publ_section_title
;
Structure prediction by ZEFSAII (Michael W. Deem and Ramdas Pophale) SiO2 
 PCOD9050204
Probable space group: P -1
;
_chemical_formula_sum "Si O2"
_cell_formula_units_Z 16
_cell_length_a 14.535881
_cell_length_b 11.801106
_cell_length_c 8.175108
_cell_angle_alpha 144.131513
_cell_angle_beta 100.734926
_cell_angle_gamma 59.761319
_cell_volume 638.078161
_symmetry_space_group_name_H-M "P -1"
_symmetry_group_IT_number 2
_symmetry_cell_setting 'triclinic'
loop_
_space_group_symop_operation_xyz
x,y,z
-x,-y,-z
loop_
_atom_site_type_symbol
_atom_site_label
_atom_site_fract_x
_atom_site_fract_y
_atom_site_fract_z
Si Si1 0.102322 0.447103 0.850649
Si Si2 0.378802 0.597554 0.886116
Si Si3 0.860478 0.975233 0.842377
Si Si4 0.435033 0.883156 0.819402
Si Si5 0.472674 0.269231 0.984855
Si Si6 0.261713 0.726697 0.315803
Si Si7 0.030413 0.060687 0.819801
Si Si8 0.690069 0.882611 0.237048
O O1 0.140592 0.233034 0.484585
O O2 0.212031 0.349310 0.893638
O O3 0.000000 0.500000 0.000000
O O4 0.051846 0.683112 0.000551
O O5 0.484666 0.344359 0.542386
O O6 0.444157 0.718857 0.100046
O O7 0.319913 0.562531 0.980067
O O8 0.267844 0.768492 0.929497
O O9 0.953744 0.983553 0.777446
O O10 0.902504 0.929430 0.990183
O O11 0.447726 0.792217 0.899923
O O12 0.313831 0.096413 0.939261
O O13 0.500000 0.000000 0.000000
O O14 0.350482 0.545225 0.275295
O O15 0.427276 0.105993 0.757647
O O16 0.129755 0.866904 0.497833
O O17 0.273849 0.937441 0.517197
#
# Coordination Sequence:
#
# PCOD9050204 Si02
#       8
#     2   2   2   2   2   2   2   2
#     4  12  25  46  73 109 149 191 248 305 365 437
#     4  12  24  45  75 110 149 188 248 300 373 441
#     4  11  27  50  76 111 143 197 249 311 367 443
#     4  10  24  49  71 107 146 192 245 298 364 446
#     4  11  26  44  76 104 148 198 237 304 369 441
#     4  12  25  46  75 106 147 194 242 312 358 446
#     4  11  27  50  77 104 149 196 253 304 375 430
#     4  11  25  45  70 109 146 194 240 296 374 430
#
# _framework density 25.075296999999999
#
# number of rings (size 3 to 8) (size 9 to 14) (size 15 to 20)
#    0.000    0.750    3.750    1.875    5.250    1.500 
#    9.000    0.000    0.000    0.000    0.000    0.000 
#    0.000    0.000    0.000    0.000    0.000    0.000 
#
# Total GULP energy -89331.543833 kJ/mol
# GULP energy per Si atom -5583.221490 kJ/mol
# Density = 2.501822 g / cm^3
# Si number density = 25.075297 Si / 1000 Ang^3
#
#
#
# Elastic Constant Matrix: (Units=GPa)
#
#
# Indices 1 2 3 4 5 6 
#
# 1 136.7279 38.1837 27.4118 -10.3064 -4.7641 0.4607
# 2 38.1837 202.6720 30.1655 9.1371 0.8417 -20.7966
# 3 27.4118 30.1655 61.5564 -7.2799 20.0223 4.8391
# 4 -10.3064 9.1371 -7.2799 29.2396 7.8141 5.5679
# 5 -4.7641 0.8417 20.0223 7.8141 19.4539 -3.2837
# 6 0.4607 -20.7966 4.8391 5.5679 -3.2837 48.9502
#
#
#
# Elastic Compliance Matrix: (Units=1/GPa)
#
#
# Indices 1 2 3 4 5 6 
#
# 1 0.009305 -0.000299 -0.008291 -0.002213 0.011994 0.001661
# 2 -0.000299 0.007632 -0.010483 -0.010547 0.015726 0.006536
# 3 -0.008291 -0.010483 0.057358 0.039800 -0.079963 -0.019937
# 4 -0.002213 -0.010547 0.039800 0.070130 -0.072806 -0.021256
# 5 0.011994 0.015726 -0.079963 -0.072806 0.170980 0.034225
# 6 0.001661 0.006536 -0.019937 -0.021256 0.034225 0.029875
#
#
# Mechanical properties :
#
#
# Convention : Reuss Voigt Hill
#
# Bulk Modulus (GPa) = 27.66296 65.83092 46.74694
# Shear Modulus (GPa) = 12.64303 39.87509 26.25906
#
# Velocity S-wave (km/s) = 2.24788 3.99207 3.23957
# Velocity P-wave (km/s) = 4.21820 6.89632 5.71631
#
# Compressibility (1/GPa) = 0.03614943
#
# Stress axis : x y z
#
# Youngs Moduli (GPa) = 107.47064 131.03503 17.43434
#
# Poissons Ratio (x) = 0.03913 0.14454
# Poissons Ratio (y) = 0.03210 0.18277
# Poissons Ratio (z) = 0.89100 1.37367
#
# Static dielectric constant tensor:
#      x y z
#    x 2.133870 0.097230 0.318130 
#    y 0.097230 2.198430 0.118180 
#    z 0.318130 0.118180 2.509630 
# 
# From -- ./inp_files/308804.got.cif
#   From: 2010.05.17/outbox.cif.g08.bks.cpg/sg2_155_cif.got.tgz:308804.got - 2010.06.03 11:33:40.
