data_PCOD9050052
_publ_section_title
;
Structure prediction by ZEFSAII (Michael W. Deem and Ramdas Pophale) SiO2 
 PCOD9050052
Probable space group: P -1
;
_chemical_formula_sum "Si O2"
_cell_formula_units_Z 12
_cell_length_a 9.049982
_cell_length_b 8.690624
_cell_length_c 9.723711
_cell_angle_alpha 132.842565
_cell_angle_beta 95.606766
_cell_angle_gamma 75.253125
_cell_volume 539.203381
_symmetry_space_group_name_H-M "P -1"
_symmetry_group_IT_number 2
_symmetry_cell_setting 'triclinic'
loop_
_space_group_symop_operation_xyz
x,y,z
-x,-y,-z
loop_
_atom_site_type_symbol
_atom_site_label
_atom_site_fract_x
_atom_site_fract_y
_atom_site_fract_z
Si Si1 0.939797 0.703682 0.013339
Si Si2 0.555250 0.267941 0.783392
Si Si3 0.891323 0.529689 0.378128
Si Si4 0.447651 0.474356 0.636138
Si Si5 0.102523 0.983584 0.363532
Si Si6 0.425989 0.173356 0.982491
O O1 0.002569 0.907256 0.190202
O O2 0.755844 0.779259 0.029845
O O3 0.000000 0.500000 0.000000
O O4 0.015166 0.608859 0.820285
O O5 0.481654 0.273854 0.628382
O O6 0.737132 0.198629 0.734369
O O7 0.500000 0.500000 0.000000
O O8 0.507292 0.120288 0.808818
O O9 0.736151 0.456581 0.342547
O O10 0.000000 0.500000 0.500000
O O11 0.857272 0.786849 0.504055
O O12 0.500000 0.500000 0.500000
O O13 0.535338 0.619417 0.818411
O O14 0.000000 0.000000 0.500000
O O15 0.500000 0.000000 0.000000
#
# Coordination Sequence:
#
# PCOD9050052 Si02
#       6
#     2   2   2   2   2   2
#     4  12  24  50  79 108 157 200 251 326 384 461
#     4  10  24  48  74 104 150 197 250 310 381 455
#     4  12  29  47  75 114 153 197 257 318 382 460
#     4  11  25  47  71 103 152 192 248 318 371 448
#     4  12  28  47  81 113 148 205 257 308 395 460
#     4  11  26  45  77 109 144 204 253 309 392 452
#
# _framework density 22.255056
#
# number of rings (size 3 to 8) (size 9 to 14) (size 15 to 20)
#    0.000    0.667    1.667    6.000    9.333    1.333 
#    0.000    0.000    0.000    0.000    0.000    0.000 
#    0.000    0.000    0.000    0.000    0.000    0.000 
#
# Total GULP energy -66983.211489 kJ/mol
# GULP energy per Si atom -5581.934291 kJ/mol
# Density = 2.220440 g / cm^3
# Si number density = 22.255056 Si / 1000 Ang^3
#
#
#
# Elastic Constant Matrix: (Units=GPa)
#
#
# Indices 1 2 3 4 5 6 
#
# 1 205.2613 44.9377 69.2881 -25.8808 -18.8385 -33.7527
# 2 44.9377 105.0470 34.2584 -39.5945 -27.3868 -8.4582
# 3 69.2881 34.2584 171.3121 -31.7703 -14.9378 -0.1157
# 4 -25.8808 -39.5945 -31.7703 59.4999 9.5847 -1.8015
# 5 -18.8385 -27.3868 -14.9378 9.5847 46.3816 -9.6893
# 6 -33.7527 -8.4582 -0.1157 -1.8015 -9.6893 34.8023
#
#
#
# Elastic Compliance Matrix: (Units=1/GPa)
#
#
# Indices 1 2 3 4 5 6 
#
# 1 0.007671 -0.000296 -0.002443 0.001510 0.003605 0.008441
# 2 -0.000296 0.016015 -0.000661 0.008983 0.008618 0.006467
# 3 -0.002443 -0.000661 0.007397 0.002373 0.000012 -0.002379
# 4 0.001510 0.008983 0.002373 0.024426 0.002826 0.005707
# 5 0.003605 0.008618 0.000012 0.002826 0.030506 0.014231
# 6 0.008441 0.006467 -0.002379 0.005707 0.014231 0.042742
#
#
# Mechanical properties :
#
#
# Convention : Reuss Voigt Hill
#
# Bulk Modulus (GPa) = 41.18165 86.50988 63.84576
# Shear Modulus (GPa) = 34.80640 50.34586 42.57613
#
# Velocity S-wave (km/s) = 3.95901 4.76144 4.37864
# Velocity P-wave (km/s) = 6.28036 8.31774 7.36979
#
# Compressibility (1/GPa) = 0.02428266
#
# Stress axis : x y z
#
# Youngs Moduli (GPa) = 130.36682 62.44009 135.18570
#
# Poissons Ratio (x) = 0.01848 0.33028
# Poissons Ratio (y) = 0.03858 0.08938
# Poissons Ratio (z) = 0.31851 0.04129
#
# Static dielectric constant tensor:
#      x y z
#    x 1.783350 0.073430 0.014740 
#    y 0.073430 2.050910 0.048880 
#    z 0.014740 0.048880 1.781830 
# 
# From -- ./inp_files/150598.got.cif
#   From: 2010.05.17/outbox.cif.g08.bks.cpg/sg2_76_cif.got.tgz:150598.got - 2010.06.03 11:33:40.
