data_PCOD9050341
_publ_section_title
;
Structure prediction by ZEFSAII (Michael W. Deem and Ramdas Pophale) SiO2 
 PCOD9050341
Probable space group: P -1
;
_chemical_formula_sum "Si O2"
_cell_formula_units_Z 16
_cell_length_a 7.484748
_cell_length_b 10.870144
_cell_length_c 11.616180
_cell_angle_alpha 91.376254
_cell_angle_beta 92.231998
_cell_angle_gamma 50.171262
_cell_volume 725.246797
_symmetry_space_group_name_H-M "P -1"
_symmetry_group_IT_number 2
_symmetry_cell_setting 'triclinic'
loop_
_space_group_symop_operation_xyz
x,y,z
-x,-y,-z
loop_
_atom_site_type_symbol
_atom_site_label
_atom_site_fract_x
_atom_site_fract_y
_atom_site_fract_z
Si Si1 0.470059 0.128856 0.916838
Si Si2 0.019855 0.114593 0.077904
Si Si3 0.185196 0.708922 0.391272
Si Si4 0.031446 0.685907 0.738451
Si Si5 0.752155 0.835039 0.513778
Si Si6 0.325729 0.417201 0.545326
Si Si7 0.966671 0.290981 0.848901
Si Si8 0.788157 0.610858 0.909227
O O1 0.721435 0.018973 0.864251
O O2 0.237255 0.216431 0.835901
O O3 0.423615 0.258088 0.011073
O O4 0.500000 0.000000 0.000000
O O5 0.875741 0.239484 0.181986
O O6 0.984209 0.227040 0.974737
O O7 0.000000 0.000000 0.000000
O O8 0.260329 0.539269 0.440695
O O9 0.396078 0.700955 0.436198
O O10 0.933428 0.832539 0.443383
O O11 0.129955 0.749089 0.256222
O O12 0.846789 0.808820 0.643128
O O13 0.881649 0.668715 0.822520
O O14 0.215437 0.526487 0.662249
O O15 0.756057 0.686631 0.479622
O O16 0.500000 0.000000 0.500000
O O17 0.782008 0.483188 0.846124
O O18 0.000000 0.500000 0.000000
#
# Coordination Sequence:
#
# PCOD9050341 Si02
#       8
#     2   2   2   2   2   2   2   2
#     4   9  18  35  57  81 123 166 199 254 315 372
#     4  11  24  40  57  94 136 166 206 265 334 393
#     4  10  22  43  67  93 133 169 220 272 329 380
#     4  11  21  42  66  92 131 171 219 265 325 389
#     4  11  25  41  69 102 128 170 221 275 330 391
#     4  10  23  45  68  94 131 175 220 277 322 387
#     4  10  20  38  63  90 119 170 217 257 321 397
#     4  10  17  34  62  90 116 163 222 254 308 387
#
# _framework density 22.061454000000001
#
# number of rings (size 3 to 8) (size 9 to 14) (size 15 to 20)
#    0.000    1.750    3.750    3.000    1.750    2.500 
#    4.500    5.000    0.000    0.000    0.000    0.000 
#    0.000    0.000    0.000    0.000    0.000    0.000 
#
# Total GULP energy -89072.455112 kJ/mol
# GULP energy per Si atom -5567.028445 kJ/mol
# Density = 2.201124 g / cm^3
# Si number density = 22.061454 Si / 1000 Ang^3
#
#
#
# Elastic Constant Matrix: (Units=GPa)
#
#
# Indices 1 2 3 4 5 6 
#
# 1 55.6345 10.1553 16.7745 10.9488 15.3187 -8.8748
# 2 10.1553 75.0825 15.4734 21.5015 5.0169 -8.4274
# 3 16.7745 15.4734 105.1643 15.2138 13.3104 3.0256
# 4 10.9488 21.5015 15.2138 23.6936 0.2778 7.4619
# 5 15.3187 5.0169 13.3104 0.2778 24.7238 -0.4996
# 6 -8.8748 -8.4274 3.0256 7.4619 -0.4996 34.0932
#
#
#
# Elastic Compliance Matrix: (Units=1/GPa)
#
#
# Indices 1 2 3 4 5 6 
#
# 1 0.028378 0.005009 -0.000274 -0.021388 -0.017948 0.013068
# 2 0.005009 0.021958 0.000323 -0.026252 -0.007189 0.012343
# 3 -0.000274 0.000323 0.011327 -0.007550 -0.005898 0.000569
# 4 -0.021388 -0.026252 -0.007550 0.090221 0.021007 -0.030825
# 5 -0.017948 -0.007189 -0.005898 0.021007 0.055769 -0.009706
# 6 0.013068 0.012343 0.000569 -0.030825 -0.009706 0.042338
#
#
# Mechanical properties :
#
#
# Convention : Reuss Voigt Hill
#
# Bulk Modulus (GPa) = 13.93149 35.63196 24.78172
# Shear Modulus (GPa) = 18.95361 29.40067 24.17714
#
# Velocity S-wave (km/s) = 2.93427 3.65454 3.31403
# Velocity P-wave (km/s) = 4.22001 5.83042 5.08932
#
# Compressibility (1/GPa) = 0.07177985
#
# Stress axis : x y z
#
# Youngs Moduli (GPa) = 35.23834 45.54121 88.28136
#
# Poissons Ratio (x) = -0.22812 0.02417
# Poissons Ratio (y) = -0.17651 -0.02848
# Poissons Ratio (z) = 0.00965 -0.01469
#
# Static dielectric constant tensor:
#      x y z
#    x 1.713290 0.089700 0.147740 
#    y 0.089700 1.888470 0.051890 
#    z 0.147740 0.051890 1.707210 
# 
# From -- ./inp_files/390451.got.cif
#   From: 2010.05.17/outbox.cif.g08.bks.cpg/sg2_196_cif.got.tgz:390451.got - 2010.06.03 11:33:40.
