data_PCOD9050401
_publ_section_title
;
Structure prediction by ZEFSAII (Michael W. Deem and Ramdas Pophale) SiO2 
 PCOD9050401
Probable space group: P -1
;
_chemical_formula_sum "Si O2"
_cell_formula_units_Z 16
_cell_length_a 7.948903
_cell_length_b 12.519035
_cell_length_c 14.296558
_cell_angle_alpha 57.264030
_cell_angle_beta 77.339860
_cell_angle_gamma 123.973459
_cell_volume 659.379958
_symmetry_space_group_name_H-M "P -1"
_symmetry_group_IT_number 2
_symmetry_cell_setting 'triclinic'
loop_
_space_group_symop_operation_xyz
x,y,z
-x,-y,-z
loop_
_atom_site_type_symbol
_atom_site_label
_atom_site_fract_x
_atom_site_fract_y
_atom_site_fract_z
Si Si1 0.240173 0.095254 0.001247
Si Si2 0.581099 0.972589 0.619643
Si Si3 0.309691 0.501451 0.477756
Si Si4 0.142158 0.816714 0.014921
Si Si5 0.507923 0.697980 0.628355
Si Si6 0.282125 0.978640 0.214881
Si Si7 0.288306 0.043699 0.704507
Si Si8 0.239098 0.404297 0.313702
O O1 0.520253 0.353773 0.872466
O O2 0.310124 0.006008 0.982005
O O3 0.116266 0.984954 0.170668
O O4 0.000000 0.000000 0.000000
O O5 0.693211 0.975630 0.701143
O O6 0.376030 0.963785 0.682602
O O7 0.890121 0.218302 0.421990
O O8 0.455205 0.789569 0.654220
O O9 0.500000 0.500000 0.500000
O O10 0.452009 0.722609 0.380400
O O11 0.311907 0.475168 0.380137
O O12 0.951216 0.278994 0.650315
O O13 0.380265 0.852488 0.939645
O O14 0.083684 0.864841 0.902985
O O15 0.827051 0.572106 0.213889
O O16 0.699579 0.856640 0.437485
O O17 0.694591 0.703333 0.658564
#
# Coordination Sequence:
#
# PCOD9050401 Si02
#       8
#     2   2   2   2   2   2   2   2
#     4  12  22  40  65 101 133 162 220 273 342 394
#     4  10  26  45  63  96 131 181 230 260 321 401
#     4  11  20  39  66  95 131 165 213 274 342 385
#     4  11  25  41  66 103 132 170 219 278 331 397
#     4  12  24  46  67  93 139 182 220 268 326 386
#     4  10  25  40  64  97 133 174 212 280 330 387
#     4  11  24  41  70  97 127 179 220 273 328 388
#     4  11  23  39  67  94 133 169 217 278 328 395
#
# _framework density 24.265221
#
# number of rings (size 3 to 8) (size 9 to 14) (size 15 to 20)
#    0.000    1.000    3.750    2.625    3.500    3.500 
#    2.250    0.625    0.000    0.000    0.000    0.000 
#    0.000    0.000    0.000    0.000    0.000    0.000 
#
# Total GULP energy -89229.258903 kJ/mol
# GULP energy per Si atom -5576.828681 kJ/mol
# Density = 2.420999 g / cm^3
# Si number density = 24.265221 Si / 1000 Ang^3
#
#
#
# Elastic Constant Matrix: (Units=GPa)
#
#
# Indices 1 2 3 4 5 6 
#
# 1 44.3206 10.9603 8.6872 14.8231 18.7475 6.8798
# 2 10.9603 83.0168 14.8297 0.6867 21.0310 -20.4373
# 3 8.6872 14.8297 103.5495 8.2516 15.7432 8.3021
# 4 14.8231 0.6867 8.2516 24.4832 -1.0762 5.5937
# 5 18.7475 21.0310 15.7432 -1.0762 37.8487 4.3455
# 6 6.8798 -20.4373 8.3021 5.5937 4.3455 26.3194
#
#
#
# Elastic Compliance Matrix: (Units=1/GPa)
#
#
# Indices 1 2 3 4 5 6 
#
# 1 0.039910 -0.001087 0.002165 -0.025010 -0.020400 -0.003276
# 2 -0.001087 0.020721 -0.002247 -0.004295 -0.012465 0.020054
# 3 0.002165 -0.002247 0.011091 -0.004194 -0.004069 -0.004246
# 4 -0.025010 -0.004295 -0.004194 0.061052 0.019597 -0.011686
# 5 -0.020400 -0.012465 -0.004069 0.019597 0.047431 -0.015060
# 6 -0.003276 0.020054 -0.004246 -0.011686 -0.015060 0.060732
#
#
# Mechanical properties :
#
#
# Convention : Reuss Voigt Hill
#
# Bulk Modulus (GPa) = 14.41288 33.31571 23.86429
# Shear Modulus (GPa) = 18.76858 30.82425 24.79641
#
# Velocity S-wave (km/s) = 2.78416 3.56800 3.20017
# Velocity P-wave (km/s) = 4.03584 5.54381 4.84881
#
# Compressibility (1/GPa) = 0.06938240
#
# Stress axis : x y z
#
# Youngs Moduli (GPa) = 25.05651 48.26025 90.16651
#
# Poissons Ratio (x) = 0.05248 -0.19518
# Poissons Ratio (y) = 0.02725 0.20258
# Poissons Ratio (z) = -0.05424 0.10843
#
# Static dielectric constant tensor:
#      x y z
#    x 2.041840 -0.027240 0.071760 
#    y -0.027240 1.918640 -0.002640 
#    z 0.071760 -0.002640 2.097150 
# 
# From -- ./inp_files/240302.got.cif
#   From: 2010.05.17/outbox.cif.g08.bks.cpg/sg2_121_cif.got.tgz:240302.got - 2010.06.03 11:33:40.
