data_PCOD9050014
_publ_section_title
;
Structure prediction by ZEFSAII (Michael W. Deem and Ramdas Pophale) SiO2 
 PCOD9050014
Probable space group: P -1
;
_chemical_formula_sum "Si O2"
_cell_formula_units_Z 14
_cell_length_a 6.709835
_cell_length_b 15.260877
_cell_length_c 6.100608
_cell_angle_alpha 65.590526
_cell_angle_beta 111.206466
_cell_angle_gamma 111.310607
_cell_volume 513.215718
_symmetry_space_group_name_H-M "P -1"
_symmetry_group_IT_number 2
_symmetry_cell_setting 'triclinic'
loop_
_space_group_symop_operation_xyz
x,y,z
-x,-y,-z
loop_
_atom_site_type_symbol
_atom_site_label
_atom_site_fract_x
_atom_site_fract_y
_atom_site_fract_z
Si Si1 0.690402 0.865495 0.321450
Si Si2 0.000000 0.000000 0.000000
Si Si3 0.664843 0.101756 0.535720
Si Si4 0.091047 0.415796 0.340091
Si Si5 0.500000 0.500000 0.500000
Si Si6 0.023612 0.779283 0.798349
Si Si7 0.408096 0.590977 0.789037
Si Si8 0.269124 0.291196 0.870459
O O1 0.461710 0.854644 0.370065
O O2 0.789873 0.969119 0.129251
O O3 0.857403 0.846847 0.596006
O O4 0.684058 0.784856 0.209425
O O5 0.122544 0.927569 0.253465
O O6 0.747672 0.168054 0.283231
O O7 0.500000 0.000000 0.500000
O O8 0.270664 0.514489 0.250360
O O9 0.053453 0.326130 0.248572
O O10 0.853523 0.424847 0.299796
O O11 0.241066 0.392286 0.633179
O O12 0.476888 0.591526 0.563949
O O13 0.965205 0.754851 0.053786
O O14 0.546174 0.681015 0.898555
O O15 0.500000 0.500000 0.000000
#
# Coordination Sequence:
#
# PCOD9050014 Si02
#       8
#     2   1   2   2   1   2   2   2
#     4  10  25  46  73 111 148 193 256 302 368 456
#     4  10  24  48  72 110 146 186 254 304 364 446
#     4  11  26  47  77 108 151 199 244 311 370 440
#     4  11  26  48  73 111 148 193 256 310 367 464
#     4  12  24  46  72 104 150 182 256 302 372 450
#     4  10  25  48  71 111 148 197 251 305 373 444
#     4  12  27  47  74 109 146 201 246 312 380 443
#     4  11  25  50  73 105 154 199 247 312 378 442
#
# _framework density 27.278979
#
# number of rings (size 3 to 8) (size 9 to 14) (size 15 to 20)
#    0.000    1.143    2.857    0.857    6.000    2.857 
#   10.286    0.000    0.000    0.000    0.000    0.000 
#    0.000    0.000    0.000    0.000    0.000    0.000 
#
# Total GULP energy -77965.761454 kJ/mol
# GULP energy per Si atom -5568.982961 kJ/mol
# Density = 2.721689 g / cm^3
# Si number density = 27.278979 Si / 1000 Ang^3
#
#
#
# Elastic Constant Matrix: (Units=GPa)
#
#
# Indices 1 2 3 4 5 6 
#
# 1 237.0404 42.1056 61.1539 15.6977 -24.8132 0.3539
# 2 42.1056 97.3995 33.5048 33.0349 -13.0863 12.1098
# 3 61.1539 33.5048 88.2406 -1.4014 -24.7093 -3.1553
# 4 15.6977 33.0349 -1.4014 54.9872 4.5274 -2.8991
# 5 -24.8132 -13.0863 -24.7093 4.5274 57.0948 -1.0407
# 6 0.3539 12.1098 -3.1553 -2.8991 -1.0407 48.3854
#
#
#
# Elastic Compliance Matrix: (Units=1/GPa)
#
#
# Indices 1 2 3 4 5 6 
#
# 1 0.005346 -0.000602 -0.003258 -0.001328 0.000878 -0.000162
# 2 -0.000602 0.017080 -0.005908 -0.010669 0.001846 -0.005255
# 3 -0.003258 -0.005908 0.017240 0.004717 0.004372 0.003003
# 4 -0.001328 -0.010669 0.004717 0.025571 -0.002928 0.004457
# 5 0.000878 0.001846 0.004372 -0.002928 0.020445 0.000081
# 6 -0.000162 -0.005255 0.003003 0.004457 0.000081 0.022448
#
#
# Mechanical properties :
#
#
# Convention : Reuss Voigt Hill
#
# Bulk Modulus (GPa) = 49.67602 77.35655 63.51628
# Shear Modulus (GPa) = 37.20901 51.15455 44.18178
#
# Velocity S-wave (km/s) = 3.69727 4.33510 4.02883
# Velocity P-wave (km/s) = 6.03956 7.31277 6.70645
#
# Compressibility (1/GPa) = 0.02013044
#
# Stress axis : x y z
#
# Youngs Moduli (GPa) = 187.05064 58.54949 58.00428
#
# Poissons Ratio (x) = 0.03524 0.18895
# Poissons Ratio (y) = 0.11259 0.34270
# Poissons Ratio (z) = 0.60932 0.34592
#
# Static dielectric constant tensor:
#      x y z
#    x -0.985550 -2.734950 1.564560 
#    y -2.734950 -0.357290 1.424260 
#    z 1.564560 1.424260 1.333370 
# 
# From -- ./inp_files/7755.got.cif
#   From: 2010.05.17/outbox.cif.g08.bks.cpg/sg2_4_cif.got.tgz:7755.got - 2010.06.03 11:33:40.
