data_PCOD9050249
_publ_section_title
;
Structure prediction by ZEFSAII (Michael W. Deem and Ramdas Pophale) SiO2 
 PCOD9050249
Probable space group: P -1
;
_chemical_formula_sum "Si O2"
_cell_formula_units_Z 12
_cell_length_a 13.975269
_cell_length_b 5.029553
_cell_length_c 9.485830
_cell_angle_alpha 52.333945
_cell_angle_beta 85.265044
_cell_angle_gamma 70.772968
_cell_volume 492.029736
_symmetry_space_group_name_H-M "P -1"
_symmetry_group_IT_number 2
_symmetry_cell_setting 'triclinic'
loop_
_space_group_symop_operation_xyz
x,y,z
-x,-y,-z
loop_
_atom_site_type_symbol
_atom_site_label
_atom_site_fract_x
_atom_site_fract_y
_atom_site_fract_z
Si Si1 0.237125 0.209963 0.568778
Si Si2 0.608248 0.401989 0.098870
Si Si3 0.072979 0.198805 0.984856
Si Si4 0.885409 0.235659 0.396651
Si Si5 0.490553 0.420627 0.365859
Si Si6 0.285449 0.570387 0.197570
O O1 0.180136 0.605861 0.507782
O O2 0.275005 0.245298 0.395163
O O3 0.324758 0.008382 0.735839
O O4 0.163558 0.981662 0.628687
O O5 0.571280 0.525517 0.223505
O O6 0.500000 0.500000 0.000000
O O7 0.680156 0.510413 0.944027
O O8 0.108843 0.416187 0.793185
O O9 0.000000 0.500000 0.000000
O O10 0.178474 0.896810 0.118545
O O11 0.000000 0.000000 0.000000
O O12 0.000000 0.000000 0.500000
O O13 0.500000 0.500000 0.500000
O O14 0.379770 0.638624 0.241680
O O15 0.500000 0.000000 0.500000
#
# Coordination Sequence:
#
# PCOD9050249 Si02
#       6
#     2   2   2   2   2   2
#     4  12  25  47  76 107 151 196 246 307 376 439
#     4  10  24  49  76 112 150 198 251 309 372 446
#     4  12  26  47  74 113 148 194 252 306 369 447
#     4  12  26  48  72 107 151 196 248 309 370 441
#     4  11  25  48  76 109 150 197 247 307 374 443
#     4  11  25  49  78 111 151 201 249 312 374 445
#
# _framework density 24.388770999999998
#
# number of rings (size 3 to 8) (size 9 to 14) (size 15 to 20)
#    0.000    0.667    3.333    3.500    2.333    1.333 
#    3.000    5.000    0.000    0.000    0.000    0.000 
#    0.000    0.000    0.000    0.000    0.000    0.000 
#
# Total GULP energy -67081.910331 kJ/mol
# GULP energy per Si atom -5590.159194 kJ/mol
# Density = 2.433326 g / cm^3
# Si number density = 24.388771 Si / 1000 Ang^3
#
#
#
# Elastic Constant Matrix: (Units=GPa)
#
#
# Indices 1 2 3 4 5 6 
#
# 1 94.7418 74.7381 37.8926 -7.6886 28.4126 -20.1784
# 2 74.7381 141.1979 39.9608 17.3698 22.2070 2.6970
# 3 37.8926 39.9608 169.8170 12.4217 9.6476 -15.1949
# 4 -7.6886 17.3698 12.4217 52.7668 -18.2999 4.3052
# 5 28.4126 22.2070 9.6476 -18.2999 42.9077 -7.3308
# 6 -20.1784 2.6970 -15.1949 4.3052 -7.3308 48.2538
#
#
#
# Elastic Compliance Matrix: (Units=1/GPa)
#
#
# Indices 1 2 3 4 5 6 
#
# 1 0.025997 -0.013187 -0.001928 0.005769 -0.005856 0.009597
# 2 -0.013187 0.015914 -0.000594 -0.007813 -0.003809 -0.006472
# 3 -0.001928 -0.000594 0.006764 -0.001981 -0.000534 0.001452
# 4 0.005769 -0.007813 -0.001981 0.027021 0.012486 0.001711
# 5 -0.005856 -0.003809 -0.000534 0.012486 0.034905 0.001785
# 6 0.009597 -0.006472 0.001452 0.001711 0.001785 0.025674
#
#
# Mechanical properties :
#
#
# Convention : Reuss Voigt Hill
#
# Bulk Modulus (GPa) = 57.94598 78.99330 68.46964
# Shear Modulus (GPa) = 28.82736 45.66333 37.24534
#
# Velocity S-wave (km/s) = 3.44174 4.33171 3.91212
# Velocity P-wave (km/s) = 6.29325 7.58141 6.96717
#
# Compressibility (1/GPa) = 0.01725745
#
# Stress axis : x y z
#
# Youngs Moduli (GPa) = 38.46545 62.83720 147.84390
#
# Poissons Ratio (x) = 0.82863 0.28511
# Poissons Ratio (y) = 0.50724 0.08776
# Poissons Ratio (z) = 0.07418 0.03730
#
# Static dielectric constant tensor:
#      x y z
#    x 1.978980 -0.077080 -0.076860 
#    y -0.077080 2.163080 -0.034420 
#    z -0.076860 -0.034420 1.991870 
# 
# From -- ./inp_files/288304.got.cif
#   From: 2010.05.17/outbox.cif.g08.bks.cpg/sg2_145_cif.got.tgz:288304.got - 2010.06.03 11:33:40.
