data_PCOD9050917
_publ_section_title
;
Structure prediction by ZEFSAII (Michael W. Deem and Ramdas Pophale) SiO2 
 PCOD9050917
Probable space group: P -1
;
_chemical_formula_sum "Si O2"
_cell_formula_units_Z 12
_cell_length_a 15.524623
_cell_length_b 9.257676
_cell_length_c 8.908735
_cell_angle_alpha 45.952095
_cell_angle_beta 38.294638
_cell_angle_gamma 60.228851
_cell_volume 566.826216
_symmetry_space_group_name_H-M "P -1"
_symmetry_group_IT_number 2
_symmetry_cell_setting 'triclinic'
loop_
_space_group_symop_operation_xyz
x,y,z
-x,-y,-z
loop_
_atom_site_type_symbol
_atom_site_label
_atom_site_fract_x
_atom_site_fract_y
_atom_site_fract_z
Si Si1 0.565846 0.554758 0.109724
Si Si2 0.407824 0.231795 0.758825
Si Si3 0.850238 0.439752 0.665466
Si Si4 0.874291 0.019175 0.767546
Si Si5 0.430943 0.067439 0.386085
Si Si6 0.122335 0.135020 0.819980
O O1 0.438730 0.393437 0.461626
O O2 0.600721 0.673647 0.133203
O O3 0.704458 0.446232 0.953396
O O4 0.533135 0.709863 0.906435
O O5 0.533195 0.093783 0.670125
O O6 0.271056 0.078701 0.029081
O O7 0.849028 0.633238 0.424393
O O8 0.000000 0.500000 0.500000
O O9 0.857669 0.236133 0.708172
O O10 0.912457 0.879560 0.950647
O O11 0.000000 0.000000 0.500000
O O12 0.267098 0.046008 0.655148
O O13 0.500000 0.000000 0.500000
O O14 0.000000 0.000000 0.000000
#
# Coordination Sequence:
#
# PCOD9050917 Si02
#       6
#     2   2   2   2   2   2
#     4  10  25  44  72 101 144 187 235 290 355 425
#     4  11  24  45  67 108 141 183 238 293 354 417
#     4  11  23  43  72 100 138 190 232 287 356 422
#     4  12  26  45  69 103 143 180 238 296 348 421
#     4  11  23  44  73 104 139 184 238 293 350 419
#     4  11  24  44  70 104 138 188 233 285 358 420
#
# _framework density 21.17051
#
# number of rings (size 3 to 8) (size 9 to 14) (size 15 to 20)
#    0.000    1.000    3.333    2.500    2.333    2.667 
#    0.000    0.000    0.000    0.000    0.000    0.000 
#    0.000    0.000    0.000    0.000    0.000    0.000 
#
# Total GULP energy -66920.993670 kJ/mol
# GULP energy per Si atom -5576.749472 kJ/mol
# Density = 2.112232 g / cm^3
# Si number density = 21.170510 Si / 1000 Ang^3
#
#
#
# Elastic Constant Matrix: (Units=GPa)
#
#
# Indices 1 2 3 4 5 6 
#
# 1 89.3979 55.8201 60.4962 9.6712 -9.4664 -4.8413
# 2 55.8201 153.2824 84.3765 11.6292 0.8786 14.2881
# 3 60.4962 84.3765 169.5639 16.9875 0.4192 1.4627
# 4 9.6712 11.6292 16.9875 43.2878 7.1388 1.0891
# 5 -9.4664 0.8786 0.4192 7.1388 37.0678 -8.9546
# 6 -4.8413 14.2881 1.4627 1.0891 -8.9546 34.3608
#
#
#
# Elastic Compliance Matrix: (Units=1/GPa)
#
#
# Indices 1 2 3 4 5 6 
#
# 1 0.018301 -0.005017 -0.003853 -0.002544 0.006950 0.006720
# 2 -0.005017 0.010868 -0.003585 0.000243 -0.002959 -0.005852
# 3 -0.003853 -0.003585 0.009225 -0.001715 -0.000561 0.000463
# 4 -0.002544 0.000243 -0.001715 0.025371 -0.006200 -0.002806
# 5 0.006950 -0.002959 -0.000561 -0.006200 0.032666 0.010943
# 6 0.006720 -0.005852 0.000463 -0.002806 0.010943 0.035404
#
#
# Mechanical properties :
#
#
# Convention : Reuss Voigt Hill
#
# Bulk Modulus (GPa) = 74.15722 90.40331 82.28026
# Shear Modulus (GPa) = 31.00960 37.04671 34.02816
#
# Velocity S-wave (km/s) = 3.83136 4.18774 4.01351
# Velocity P-wave (km/s) = 7.39439 8.13499 7.77352
#
# Compressibility (1/GPa) = 0.01348486
#
# Stress axis : x y z
#
# Youngs Moduli (GPa) = 54.64188 92.01176 108.39760
#
# Poissons Ratio (x) = 0.46160 0.41768
# Poissons Ratio (y) = 0.27413 0.38858
# Poissons Ratio (z) = 0.21055 0.32984
#
# Static dielectric constant tensor:
#      x y z
#    x 1.749190 -0.071640 0.015750 
#    y -0.071640 1.904140 0.063990 
#    z 0.015750 0.063990 1.799330 
# 
# From -- ./inp_files/293837.got.cif
#   From: 2010.05.17/outbox.cif.g08.bks.cpg/sg2_147_cif.got.tgz:293837.got - 2010.06.03 11:33:40.
