data_PCOD9050691
_publ_section_title
;
Structure prediction by ZEFSAII (Michael W. Deem and Ramdas Pophale) SiO2 
 PCOD9050691
Probable space group: P -1
;
_chemical_formula_sum "Si O2"
_cell_formula_units_Z 16
_cell_length_a 8.829344
_cell_length_b 9.454311
_cell_length_c 21.114441
_cell_angle_alpha 133.551570
_cell_angle_beta 117.700338
_cell_angle_gamma 99.415271
_cell_volume 742.852351
_symmetry_space_group_name_H-M "P -1"
_symmetry_group_IT_number 2
_symmetry_cell_setting 'triclinic'
loop_
_space_group_symop_operation_xyz
x,y,z
-x,-y,-z
loop_
_atom_site_type_symbol
_atom_site_label
_atom_site_fract_x
_atom_site_fract_y
_atom_site_fract_z
Si Si1 0.218040 0.955502 0.214412
Si Si2 0.808291 0.629568 0.657610
Si Si3 0.194536 0.276371 0.043609
Si Si4 0.122558 0.381768 0.195722
Si Si5 0.920021 0.599837 0.175944
Si Si6 0.254322 0.158471 0.727960
Si Si7 0.233128 0.740456 0.570299
Si Si8 0.379391 0.182410 0.894039
O O1 0.023967 0.809779 0.071027
O O2 0.065611 0.748052 0.182652
O O3 0.303463 0.250707 0.339110
O O4 0.472959 0.045548 0.280265
O O5 0.771539 0.420715 0.537863
O O6 0.722154 0.503332 0.673105
O O7 0.121111 0.943359 0.811438
O O8 0.096558 0.976314 0.950442
O O9 0.468710 0.512641 0.134709
O O10 0.240109 0.431876 0.165721
O O11 0.028407 0.520982 0.214896
O O12 0.924082 0.812093 0.278525
O O13 0.623008 0.285852 0.003663
O O14 0.286156 0.057419 0.766831
O O15 0.189858 0.927513 0.596470
O O16 0.000000 0.500000 0.500000
O O17 0.500000 0.500000 0.000000
#
# Coordination Sequence:
#
# PCOD9050691 Si02
#       8
#     2   2   2   2   2   2   2   2
#     4  11  21  39  68  90 120 161 213 261 306 364
#     4  11  22  43  60  90 130 169 205 243 313 376
#     4  10  22  41  62  98 126 155 204 267 316 353
#     4  10  23  38  61  93 132 162 198 254 315 381
#     4  11  20  37  66  98 118 162 205 254 322 361
#     4  11  21  38  61  95 128 155 206 265 303 355
#     4  12  25  39  61  93 124 164 211 263 299 359
#     4  10  17  34  64  90 123 147 199 260 302 349
#
# _framework density 21.538599999999999
#
# number of rings (size 3 to 8) (size 9 to 14) (size 15 to 20)
#    0.000    1.250    5.000    3.375    1.750    3.000 
#    0.000    5.625    0.000    0.000    0.000    0.000 
#    0.000    0.000    0.000    0.000    0.000    0.000 
#
# Total GULP energy -89166.605955 kJ/mol
# GULP energy per Si atom -5572.912872 kJ/mol
# Density = 2.148958 g / cm^3
# Si number density = 21.538600 Si / 1000 Ang^3
#
#
#
# Elastic Constant Matrix: (Units=GPa)
#
#
# Indices 1 2 3 4 5 6 
#
# 1 139.5755 40.3986 22.5745 7.2481 -7.9102 -2.5237
# 2 40.3986 70.4931 19.9125 6.1314 4.4860 -1.9501
# 3 22.5745 19.9125 35.4497 7.2551 -9.2756 0.1781
# 4 7.2481 6.1314 7.2551 13.5482 0.4881 -9.3775
# 5 -7.9102 4.4860 -9.2756 0.4881 37.3595 5.8930
# 6 -2.5237 -1.9501 0.1781 -9.3775 5.8930 42.0680
#
#
#
# Elastic Compliance Matrix: (Units=1/GPa)
#
#
# Indices 1 2 3 4 5 6 
#
# 1 0.009045 -0.004494 -0.002343 -0.001859 0.001951 -0.000343
# 2 -0.004494 0.020008 -0.009969 -0.000024 -0.006073 0.001545
# 3 -0.002343 -0.009969 0.043559 -0.023463 0.013060 -0.007847
# 4 -0.001859 -0.000024 -0.023463 0.105126 -0.011539 0.025037
# 5 0.001951 -0.006073 0.013060 -0.011539 0.032460 -0.007339
# 6 -0.000343 0.001545 -0.007847 0.025037 -0.007339 0.030464
#
#
# Mechanical properties :
#
#
# Convention : Reuss Voigt Hill
#
# Bulk Modulus (GPa) = 25.64029 45.69882 35.66955
# Shear Modulus (GPa) = 17.40491 29.43731 23.42111
#
# Velocity S-wave (km/s) = 2.84576 3.70093 3.30115
# Velocity P-wave (km/s) = 4.76739 6.28695 5.57915
#
# Compressibility (1/GPa) = 0.03900112
#
# Stress axis : x y z
#
# Youngs Moduli (GPa) = 110.55682 49.97897 22.95721
#
# Poissons Ratio (x) = 0.22460 0.05379
# Poissons Ratio (y) = 0.49682 0.22886
# Poissons Ratio (z) = 0.25904 0.49824
#
# Static dielectric constant tensor:
#      x y z
#    x 1.855550 0.019590 -0.108180 
#    y 0.019590 1.766980 -0.057990 
#    z -0.108180 -0.057990 1.947660 
# 
# From -- ./inp_files/588140.got.cif
#   From: 2010.05.17/outbox.cif.g08.bks.cpg/sg2_295_cif.got.tgz:588140.got - 2010.06.03 11:33:40.
