data_PCOD9050969
_publ_section_title
;
Structure prediction by ZEFSAII (Michael W. Deem and Ramdas Pophale) SiO2 
 PCOD9050969
Probable space group: P -1
;
_chemical_formula_sum "Si O2"
_cell_formula_units_Z 13
_cell_length_a 11.888010
_cell_length_b 9.187203
_cell_length_c 8.526579
_cell_angle_alpha 121.772211
_cell_angle_beta 80.005265
_cell_angle_gamma 134.982581
_cell_volume 528.548757
_symmetry_space_group_name_H-M "P -1"
_symmetry_group_IT_number 2
_symmetry_cell_setting 'triclinic'
loop_
_space_group_symop_operation_xyz
x,y,z
-x,-y,-z
loop_
_atom_site_type_symbol
_atom_site_label
_atom_site_fract_x
_atom_site_fract_y
_atom_site_fract_z
Si Si1 0.677682 0.927900 0.103552
Si Si2 0.605375 0.483756 0.264319
Si Si3 0.742952 0.240957 0.556829
Si Si4 0.016651 0.639864 0.927795
Si Si5 0.092357 0.113940 0.874623
Si Si6 0.520596 0.274562 0.503000
Si Si7 0.000000 0.000000 0.500000
O O1 0.745231 0.826580 0.107849
O O2 0.709553 0.105742 0.327087
O O3 0.796985 0.097635 0.019960
O O4 0.486872 0.706156 0.966882
O O5 0.565761 0.330091 0.341449
O O6 0.515798 0.570580 0.352632
O O7 0.803297 0.738450 0.357043
O O8 0.664153 0.341251 0.608308
O O9 0.932723 0.461918 0.694701
O O10 0.642868 0.020975 0.586939
O O11 0.000000 0.500000 0.000000
O O12 0.904169 0.678224 0.024897
O O13 0.976515 0.921997 0.649317
O O14 0.000000 0.000000 0.000000
#
# Coordination Sequence:
#
# PCOD9050969 Si02
#       7
#     2   2   2   2   2   2   1
#     4  11  25  46  74 106 148 194 253 306 369 449
#     4  11  26  47  75 106 144 193 253 308 367 448
#     4  11  24  45  72 108 147 195 242 306 377 443
#     4  11  25  42  72 109 152 197 241 308 379 446
#     4  10  26  46  73 110 149 195 248 308 370 442
#     4  10  25  44  75  99 148 193 242 302 373 443
#     4  12  28  44  80 114 142 192 258 312 364 442
#
# _framework density 24.595649000000002
#
# number of rings (size 3 to 8) (size 9 to 14) (size 15 to 20)
#    0.000    1.231    0.000    3.231   17.231    6.769 
#    0.000    0.000    0.000    0.000    0.000    0.000 
#    0.000    0.000    0.000    0.000    0.000    0.000 
#
# Total GULP energy -72537.263243 kJ/mol
# GULP energy per Si atom -5579.789480 kJ/mol
# Density = 2.453967 g / cm^3
# Si number density = 24.595649 Si / 1000 Ang^3
#
#
#
# Elastic Constant Matrix: (Units=GPa)
#
#
# Indices 1 2 3 4 5 6 
#
# 1 72.1112 59.4474 46.9807 8.1025 12.0412 -14.0270
# 2 59.4474 119.7661 17.0214 0.9389 13.7199 -13.5719
# 3 46.9807 17.0214 116.7831 5.4377 37.9340 11.8949
# 4 8.1025 0.9389 5.4377 30.8500 10.5398 6.8620
# 5 12.0412 13.7199 37.9340 10.5398 36.1508 4.6333
# 6 -14.0270 -13.5719 11.8949 6.8620 4.6333 49.6267
#
#
#
# Elastic Compliance Matrix: (Units=1/GPa)
#
#
# Indices 1 2 3 4 5 6 
#
# 1 0.047319 -0.020763 -0.022942 -0.017490 0.019524 0.013791
# 2 -0.020763 0.018249 0.009514 0.007994 -0.011920 -0.003151
# 3 -0.022942 0.009514 0.024587 0.011632 -0.023988 -0.009145
# 4 -0.017490 0.007994 0.011632 0.044047 -0.021016 -0.009674
# 5 0.019524 -0.011920 -0.023988 -0.021016 0.056256 0.005662
# 6 0.013791 -0.003151 -0.009145 -0.009674 0.005662 0.026188
#
#
# Mechanical properties :
#
#
# Convention : Reuss Voigt Hill
#
# Bulk Modulus (GPa) = 45.92987 61.72881 53.82934
# Shear Modulus (GPa) = 17.10656 35.67289 26.38972
#
# Velocity S-wave (km/s) = 2.64012 3.81251 3.27913
# Velocity P-wave (km/s) = 5.29227 6.67325 6.02247
#
# Compressibility (1/GPa) = 0.02177232
#
# Stress axis : x y z
#
# Youngs Moduli (GPa) = 21.13335 54.79616 40.67147
#
# Poissons Ratio (x) = 1.13775 0.93307
# Poissons Ratio (y) = 0.43880 -0.38693
# Poissons Ratio (z) = 0.48483 -0.52130
#
# Static dielectric constant tensor:
#      x y z
#    x 1.937220 0.070910 -0.026940 
#    y 0.070910 2.112110 -0.025620 
#    z -0.026940 -0.025620 1.945560 
# 
# From -- ./inp_files/237328.got.cif
#   From: 2010.05.17/outbox.cif.g08.bks.cpg/sg2_119_cif.got.tgz:237328.got - 2010.06.03 11:33:40.
