data_PCOD9050634
_publ_section_title
;
Structure prediction by ZEFSAII (Michael W. Deem and Ramdas Pophale) SiO2 
 PCOD9050634
Probable space group: P -1
;
_chemical_formula_sum "Si O2"
_cell_formula_units_Z 16
_cell_length_a 8.875715
_cell_length_b 11.861911
_cell_length_c 13.788006
_cell_angle_alpha 50.645630
_cell_angle_beta 109.383747
_cell_angle_gamma 70.118340
_cell_volume 694.586838
_symmetry_space_group_name_H-M "P -1"
_symmetry_group_IT_number 2
_symmetry_cell_setting 'triclinic'
loop_
_space_group_symop_operation_xyz
x,y,z
-x,-y,-z
loop_
_atom_site_type_symbol
_atom_site_label
_atom_site_fract_x
_atom_site_fract_y
_atom_site_fract_z
Si Si1 0.530508 0.698720 0.069808
Si Si2 0.122477 0.560905 0.040514
Si Si3 0.408417 0.038777 0.717300
Si Si4 0.631079 0.134378 0.357676
Si Si5 0.170823 0.724802 0.772917
Si Si6 0.108943 0.567462 0.536452
Si Si7 0.794267 0.961261 0.904477
Si Si8 0.014485 0.108270 0.813277
O O1 0.682303 0.473685 0.165837
O O2 0.663105 0.619701 0.244792
O O3 0.532568 0.844238 0.927391
O O4 0.244262 0.876273 0.933444
O O5 0.169577 0.642439 0.918974
O O6 0.955895 0.746677 0.986073
O O7 0.397957 0.342608 0.256273
O O8 0.000000 0.500000 0.000000
O O9 0.462227 0.946141 0.672179
O O10 0.519155 0.115247 0.730814
O O11 0.119258 0.226943 0.558188
O O12 0.700326 0.206489 0.249540
O O13 0.885279 0.939244 0.571567
O O14 0.000000 0.500000 0.500000
O O15 0.129363 0.682724 0.400505
O O16 0.869195 0.886597 0.072987
O O17 0.849924 0.090837 0.824715
#
# Coordination Sequence:
#
# PCOD9050634 Si02
#       8
#     2   2   2   2   2   2   2   2
#     4  11  21  41  69  96 125 163 215 268 320 373
#     4  12  24  41  66  94 135 175 207 260 323 380
#     4  11  22  41  66  91 131 163 209 267 315 377
#     4  11  23  41  63  97 125 166 214 264 316 372
#     4  11  24  39  68  97 126 164 217 266 318 376
#     4  11  23  40  68  98 122 163 218 270 318 369
#     4  11  23  45  63  92 135 175 211 256 319 387
#     4  10  25  43  68  93 129 172 213 264 317 377
#
# _framework density 23.035278000000002
#
# number of rings (size 3 to 8) (size 9 to 14) (size 15 to 20)
#    0.000    1.000    3.750    2.625    3.500    2.500 
#    0.000    8.125    0.000    0.000    0.000    0.000 
#    0.000    0.000    0.000    0.000    0.000    0.000 
#
# Total GULP energy -89467.411694 kJ/mol
# GULP energy per Si atom -5591.713231 kJ/mol
# Density = 2.298285 g / cm^3
# Si number density = 23.035278 Si / 1000 Ang^3
#
#
#
# Elastic Constant Matrix: (Units=GPa)
#
#
# Indices 1 2 3 4 5 6 
#
# 1 48.5435 -1.7511 19.8743 4.2896 14.8417 12.5717
# 2 -1.7511 79.5139 -0.4274 -2.4759 -0.4809 1.4824
# 3 19.8743 -0.4274 118.6031 5.2635 11.3622 2.3401
# 4 4.2896 -2.4759 5.2635 24.9618 5.6122 5.1523
# 5 14.8417 -0.4809 11.3622 5.6122 21.6613 1.6685
# 6 12.5717 1.4824 2.3401 5.1523 1.6685 34.7862
#
#
#
# Elastic Compliance Matrix: (Units=1/GPa)
#
#
# Indices 1 2 3 4 5 6 
#
# 1 0.030049 0.000777 -0.003131 0.001839 -0.018631 -0.010061
# 2 0.000777 0.012654 -0.000081 0.001461 -0.000510 -0.001007
# 3 -0.003131 -0.000081 0.009224 -0.001017 -0.002492 0.000784
# 4 0.001839 0.001461 -0.001017 0.044082 -0.011605 -0.006631
# 5 -0.018631 -0.000510 -0.002492 -0.011605 0.062799 0.005629
# 6 -0.010061 -0.001007 0.000784 -0.006631 0.005629 0.033085
#
#
# Mechanical properties :
#
#
# Convention : Reuss Voigt Hill
#
# Bulk Modulus (GPa) = 21.25001 31.33911 26.29456
# Shear Modulus (GPa) = 23.53496 31.54617 27.54057
#
# Velocity S-wave (km/s) = 3.19986 3.70465 3.46147
# Velocity P-wave (km/s) = 4.78510 5.65099 5.23597
#
# Compressibility (1/GPa) = 0.04705880
#
# Stress axis : x y z
#
# Youngs Moduli (GPa) = 33.27878 79.02464 108.41035
#
# Poissons Ratio (x) = -0.06141 0.33941
# Poissons Ratio (y) = -0.02586 0.00875
# Poissons Ratio (z) = 0.10419 0.00638
#
# Static dielectric constant tensor:
#      x y z
#    x 1.879240 0.014250 0.014240 
#    y 0.014250 1.903410 -0.030540 
#    z 0.014240 -0.030540 1.866070 
# 
# From -- ./inp_files/500063.got.cif
#   From: 2010.05.17/outbox.cif.g08.bks.cpg/sg2_251_cif.got.tgz:500063.got - 2010.06.03 11:33:40.
