data_PCOD9050203
_publ_section_title
;
Structure prediction by ZEFSAII (Michael W. Deem and Ramdas Pophale) SiO2 
 PCOD9050203
Probable space group: P -1
;
_chemical_formula_sum "Si O2"
_cell_formula_units_Z 16
_cell_length_a 11.567328
_cell_length_b 10.735970
_cell_length_c 9.342791
_cell_angle_alpha 65.571046
_cell_angle_beta 125.739673
_cell_angle_gamma 121.387635
_cell_volume 793.862853
_symmetry_space_group_name_H-M "P -1"
_symmetry_group_IT_number 2
_symmetry_cell_setting 'triclinic'
loop_
_space_group_symop_operation_xyz
x,y,z
-x,-y,-z
loop_
_atom_site_type_symbol
_atom_site_label
_atom_site_fract_x
_atom_site_fract_y
_atom_site_fract_z
Si Si1 0.765030 0.371531 0.781684
Si Si2 0.260065 0.454038 0.895184
Si Si3 0.386516 0.077217 0.326979
Si Si4 0.936487 0.968353 0.805858
Si Si5 0.364451 0.602586 0.603303
Si Si6 0.490995 0.358625 0.781112
Si Si7 0.947907 0.661491 0.943296
Si Si8 0.732290 0.850257 0.079096
O O1 0.742800 0.357780 0.603977
O O2 0.599787 0.333604 0.752171
O O3 0.866958 0.538286 0.825783
O O4 0.868436 0.284877 0.954403
O O5 0.281646 0.547067 0.721390
O O6 0.271392 0.300104 0.929685
O O7 0.398085 0.549824 0.053268
O O8 0.110913 0.412499 0.908326
O O9 0.223961 0.010357 0.325259
O O10 0.481070 0.252325 0.337380
O O11 0.500000 0.000000 0.500000
O O12 0.335117 0.068388 0.126263
O O13 0.896751 0.797548 0.826584
O O14 0.090611 0.063923 0.788427
O O15 0.000000 0.000000 0.000000
O O16 0.403079 0.467274 0.627885
O O17 0.375878 0.206391 0.835765
#
# Coordination Sequence:
#
# PCOD9050203 Si02
#       8
#     2   2   2   2   2   2   2   2
#     4  10  23  34  58  87 117 158 189 241 293 349
#     4  10  17  34  62  83 112 147 197 247 284 333
#     4  11  21  33  56  91 119 141 190 252 292 331
#     4  10  20  35  59  84 112 156 195 234 291 349
#     4  11  20  34  59  88 114 147 195 253 290 327
#     4  10  18  37  58  83 117 152 197 234 291 344
#     4  10  20  40  57  82 121 155 195 233 294 356
#     4  10  18  35  61  86 107 159 195 236 285 347
#
# _framework density 20.154613000000001
#
# number of rings (size 3 to 8) (size 9 to 14) (size 15 to 20)
#    0.000    1.750    5.000    1.875    3.500    0.500 
#    0.000    1.875    0.000    3.750    0.000    0.000 
#    0.000    0.000    0.000    0.000    0.000    0.000 
#
# Total GULP energy -89223.563516 kJ/mol
# GULP energy per Si atom -5576.472720 kJ/mol
# Density = 2.010874 g / cm^3
# Si number density = 20.154613 Si / 1000 Ang^3
#
#
#
# Elastic Constant Matrix: (Units=GPa)
#
#
# Indices 1 2 3 4 5 6 
#
# 1 69.0113 29.1846 26.6336 -5.6455 16.6341 23.4199
# 2 29.1846 49.0225 22.0025 -3.5008 3.9297 21.0212
# 3 26.6336 22.0025 67.8391 0.9297 13.9215 11.8667
# 4 -5.6455 -3.5008 0.9297 19.1276 -1.4880 -1.3509
# 5 16.6341 3.9297 13.9215 -1.4880 32.4108 1.4632
# 6 23.4199 21.0212 11.8667 -1.3509 1.4632 33.3036
#
#
#
# Elastic Compliance Matrix: (Units=1/GPa)
#
#
# Indices 1 2 3 4 5 6 
#
# 1 0.025826 -0.007719 -0.003662 0.004807 -0.010013 -0.011350
# 2 -0.007719 0.033580 -0.006221 0.003472 0.003334 -0.013557
# 3 -0.003662 -0.006221 0.019517 -0.003651 -0.005902 -0.000341
# 4 0.004807 0.003472 -0.003651 0.054462 0.001276 -0.002118
# 5 -0.010013 0.003334 -0.005902 0.001276 0.037937 0.005425
# 6 -0.011350 -0.013557 -0.000341 -0.002118 0.005425 0.046363
#
#
# Mechanical properties :
#
#
# Convention : Reuss Voigt Hill
#
# Bulk Modulus (GPa) = 22.87272 37.94603 30.40938
# Shear Modulus (GPa) = 18.69425 24.17187 21.43306
#
# Velocity S-wave (km/s) = 3.04886 3.46688 3.26457
# Velocity P-wave (km/s) = 4.87518 5.90712 5.41578
#
# Compressibility (1/GPa) = 0.04372020
#
# Stress axis : x y z
#
# Youngs Moduli (GPa) = 38.72027 29.77949 51.23769
#
# Poissons Ratio (x) = 0.22987 0.18761
# Poissons Ratio (y) = 0.29888 0.31875
# Poissons Ratio (z) = 0.14178 0.18526
#
# Static dielectric constant tensor:
#      x y z
#    x 1.771260 0.022830 0.010800 
#    y 0.022830 1.742540 -0.011480 
#    z 0.010800 -0.011480 1.709770 
# 
# From -- ./inp_files/257221.got.cif
#   From: 2010.05.17/outbox.cif.g08.bks.cpg/sg2_129_cif.got.tgz:257221.got - 2010.06.03 11:33:40.
