data_PCOD9050766
_publ_section_title
;
Structure prediction by ZEFSAII (Michael W. Deem and Ramdas Pophale) SiO2 
 PCOD9050766
Probable space group: P -1
;
_chemical_formula_sum "Si O2"
_cell_formula_units_Z 16
_cell_length_a 9.179010
_cell_length_b 15.398495
_cell_length_c 21.269763
_cell_angle_alpha 21.457590
_cell_angle_beta 48.655342
_cell_angle_gamma 46.872151
_cell_volume 799.289994
_symmetry_space_group_name_H-M "P -1"
_symmetry_group_IT_number 2
_symmetry_cell_setting 'triclinic'
loop_
_space_group_symop_operation_xyz
x,y,z
-x,-y,-z
loop_
_atom_site_type_symbol
_atom_site_label
_atom_site_fract_x
_atom_site_fract_y
_atom_site_fract_z
Si Si1 0.398472 0.410931 0.648968
Si Si2 0.195322 0.126584 0.658565
Si Si3 0.511975 0.218115 0.094422
Si Si4 0.209647 0.911080 0.424028
Si Si5 0.427088 0.765945 0.734814
Si Si6 0.232353 0.944535 0.989121
Si Si7 0.245567 0.673704 0.299139
Si Si8 0.263299 0.940513 0.533507
O O1 0.500000 0.500000 0.500000
O O2 0.245005 0.649474 0.558272
O O3 0.569404 0.322625 0.711618
O O4 0.292736 0.200179 0.804510
O O5 0.242348 0.391718 0.475887
O O6 0.959643 0.187013 0.700802
O O7 0.322916 0.935683 0.801067
O O8 0.268874 0.991995 0.662145
O O9 0.624512 0.202965 0.006168
O O10 0.333416 0.080297 0.240082
O O11 0.429108 0.504642 0.940005
O O12 0.294963 0.870875 0.498138
O O13 0.973021 0.024548 0.414654
O O14 0.373421 0.769289 0.673974
O O15 0.643670 0.823918 0.643405
O O16 0.261016 0.804595 0.141009
O O17 0.000000 0.000000 0.000000
#
# Coordination Sequence:
#
# PCOD9050766 Si02
#       8
#     2   2   2   2   2   2   2   2
#     4  12  25  46  70 100 136 185 227 281 349 407
#     4  11  23  44  71 103 138 182 225 285 348 397
#     4  12  24  44  67 101 141 176 225 280 339 402
#     4  11  24  46  67  94 142 177 222 278 343 398
#     4  11  25  42  72  99 134 178 231 275 334 407
#     4  12  27  44  68 105 136 178 232 286 339 410
#     4  11  25  44  72 102 141 177 232 285 341 412
#     4  10  25  44  66 101 127 183 226 278 335 397
#
# _framework density 20.017766000000002
#
# number of rings (size 3 to 8) (size 9 to 14) (size 15 to 20)
#    0.000    0.750    5.000    0.750   10.500    0.500 
#    2.250    0.000    0.000    0.000    0.000    0.000 
#    0.000    0.000    0.000    0.000    0.000    0.000 
#
# Total GULP energy -89426.623573 kJ/mol
# GULP energy per Si atom -5589.163973 kJ/mol
# Density = 1.997220 g / cm^3
# Si number density = 20.017766 Si / 1000 Ang^3
#
#
#
# Elastic Constant Matrix: (Units=GPa)
#
#
# Indices 1 2 3 4 5 6 
#
# 1 38.1760 26.5861 35.9764 11.0427 3.7155 15.2095
# 2 26.5861 99.1265 34.0776 9.2722 -6.4027 -6.6153
# 3 35.9764 34.0776 104.8217 -5.4881 3.3428 1.5745
# 4 11.0427 9.2722 -5.4881 37.9641 5.0866 -0.1305
# 5 3.7155 -6.4027 3.3428 5.0866 27.5731 8.4497
# 6 15.2095 -6.6153 1.5745 -0.1305 8.4497 31.6362
#
#
#
# Elastic Compliance Matrix: (Units=1/GPa)
#
#
# Indices 1 2 3 4 5 6 
#
# 1 0.083846 -0.013938 -0.025144 -0.025666 0.006691 -0.043866
# 2 -0.013938 0.014644 -0.000185 0.000150 0.002482 0.009110
# 3 -0.025144 -0.000185 0.018757 0.010745 -0.004717 0.012420
# 4 -0.025666 0.000150 0.010745 0.036573 -0.008963 0.014381
# 5 0.006691 0.002482 -0.004717 -0.008963 0.042404 -0.013826
# 6 -0.043866 0.009110 0.012420 0.014381 -0.013826 0.057737
#
#
# Mechanical properties :
#
#
# Convention : Reuss Voigt Hill
#
# Bulk Modulus (GPa) = 25.83194 48.37825 37.10510
# Shear Modulus (GPa) = 14.47590 29.13364 21.80477
#
# Velocity S-wave (km/s) = 2.69207 3.81910 3.30399
# Velocity P-wave (km/s) = 4.75347 6.60813 5.75599
#
# Compressibility (1/GPa) = 0.03871176
#
# Stress axis : x y z
#
# Youngs Moduli (GPa) = 11.92658 68.28560 53.31469
#
# Poissons Ratio (x) = 0.95178 1.34056
# Poissons Ratio (y) = 0.16624 0.00988
# Poissons Ratio (z) = 0.29989 0.01265
#
# Static dielectric constant tensor:
#      x y z
#    x 1.680650 0.018770 0.002980 
#    y 0.018770 1.748370 -0.008380 
#    z 0.002980 -0.008380 1.690850 
# 
# From -- ./inp_files/381808.got.cif
#   From: 2010.05.17/outbox.cif.g08.bks.cpg/sg2_191_cif.got.tgz:381808.got - 2010.06.03 11:33:40.
