data_PCOD9050570
_publ_section_title
;
Structure prediction by ZEFSAII (Michael W. Deem and Ramdas Pophale) SiO2 
 PCOD9050570
Probable space group: P -1
;
_chemical_formula_sum "Si O2"
_cell_formula_units_Z 16
_cell_length_a 12.373146
_cell_length_b 8.366347
_cell_length_c 12.095428
_cell_angle_alpha 129.498404
_cell_angle_beta 131.583042
_cell_angle_gamma 80.060639
_cell_volume 651.651814
_symmetry_space_group_name_H-M "P -1"
_symmetry_group_IT_number 2
_symmetry_cell_setting 'triclinic'
loop_
_space_group_symop_operation_xyz
x,y,z
-x,-y,-z
loop_
_atom_site_type_symbol
_atom_site_label
_atom_site_fract_x
_atom_site_fract_y
_atom_site_fract_z
Si Si1 0.730556 0.905501 0.728682
Si Si2 0.920555 0.229008 0.842762
Si Si3 0.624212 0.716045 0.039325
Si Si4 0.273861 0.427483 0.623424
Si Si5 0.755927 0.749592 0.923704
Si Si6 0.081233 0.269440 0.644761
Si Si7 0.623852 0.230805 0.547389
Si Si8 0.743174 0.230342 0.403346
O O1 0.739569 0.737018 0.563222
O O2 0.747542 0.828085 0.828821
O O3 0.560110 0.916566 0.615077
O O4 0.871479 0.149792 0.899911
O O5 0.752543 0.133330 0.621591
O O6 0.000000 0.500000 0.000000
O O7 0.058868 0.154894 0.873064
O O8 0.757545 0.630910 0.128841
O O9 0.662111 0.953099 0.232106
O O10 0.447645 0.514882 0.837088
O O11 0.658878 0.806808 0.976240
O O12 0.140755 0.321884 0.581635
O O13 0.272453 0.656391 0.671191
O O14 0.677727 0.473090 0.751290
O O15 0.934771 0.332703 0.599050
O O16 0.000000 0.000000 0.500000
O O17 0.653051 0.297061 0.467917
#
# Coordination Sequence:
#
# PCOD9050570 Si02
#       8
#     2   2   2   2   2   2   2   2
#     4  12  24  42  73 101 136 178 220 282 346 397
#     4  10  25  43  64 100 135 177 222 280 328 400
#     4  11  24  44  71 102 137 179 224 279 335 402
#     4  12  24  44  70 102 135 179 229 275 337 404
#     4  11  22  45  69 102 138 171 222 277 345 404
#     4  10  25  46  67  96 135 186 224 278 335 395
#     4  11  22  45  69 102 138 171 222 277 345 404
#     4  11  24  44  71 102 137 179 224 279 335 402
#
# _framework density 24.552990000000001
#
# number of rings (size 3 to 8) (size 9 to 14) (size 15 to 20)
#    0.000    1.000    2.500    3.750    7.000    0.000 
#    0.000    5.000    0.000    0.000    0.000    0.000 
#    0.000    0.000    0.000    0.000    0.000    0.000 
#
# Total GULP energy -89502.583294 kJ/mol
# GULP energy per Si atom -5593.911456 kJ/mol
# Density = 2.449711 g / cm^3
# Si number density = 24.552990 Si / 1000 Ang^3
#
#
#
# Elastic Constant Matrix: (Units=GPa)
#
#
# Indices 1 2 3 4 5 6 
#
# 1 114.6980 9.7933 22.4577 14.2443 11.5631 27.4845
# 2 9.7933 48.7330 3.3305 -1.0839 0.5191 12.7934
# 3 22.4577 3.3305 67.2411 5.0835 5.8225 -10.5130
# 4 14.2443 -1.0839 5.0835 27.9316 5.2718 5.3607
# 5 11.5631 0.5191 5.8225 5.2718 46.1430 -4.7089
# 6 27.4845 12.7934 -10.5130 5.3607 -4.7089 35.8395
#
#
#
# Elastic Compliance Matrix: (Units=1/GPa)
#
#
# Indices 1 2 3 4 5 6 
#
# 1 0.013515 0.000968 -0.006009 -0.002671 -0.003615 -0.012548
# 2 0.000968 0.023479 -0.003295 0.003389 -0.001581 -0.010805
# 3 -0.006009 -0.003295 0.019067 -0.002949 0.000689 0.011909
# 4 -0.002671 0.003389 -0.002949 0.039885 -0.004222 -0.006547
# 5 -0.003615 -0.001581 0.000689 -0.004222 0.023735 0.007289
# 6 -0.012548 -0.010805 0.011909 -0.006547 0.007289 0.046812
#
#
# Mechanical properties :
#
#
# Convention : Reuss Voigt Hill
#
# Bulk Modulus (GPa) = 25.38700 33.53724 29.46212
# Shear Modulus (GPa) = 25.47170 34.98887 30.23029
#
# Velocity S-wave (km/s) = 3.22439 3.77906 3.51269
# Velocity P-wave (km/s) = 4.92183 5.72106 5.33643
#
# Compressibility (1/GPa) = 0.03939024
#
# Stress axis : x y z
#
# Youngs Moduli (GPa) = 73.98948 42.59068 52.44601
#
# Poissons Ratio (x) = -0.04122 0.31514
# Poissons Ratio (y) = -0.07162 0.17280
# Poissons Ratio (z) = 0.44460 0.14033
#
# Static dielectric constant tensor:
#      x y z
#    x 1.911020 0.003770 0.010740 
#    y 0.003770 1.983660 -0.046830 
#    z 0.010740 -0.046830 1.975140 
# 
# From -- ./inp_files/419841.got.cif
#   From: 2010.05.17/outbox.cif.g08.bks.cpg/sg2_210_cif.got.tgz:419841.got - 2010.06.03 11:33:40.
