data_PCOD9050405
_publ_section_title
;
Structure prediction by ZEFSAII (Michael W. Deem and Ramdas Pophale) SiO2 
 PCOD9050405
Probable space group: P -1
;
_chemical_formula_sum "Si O2"
_cell_formula_units_Z 14
_cell_length_a 9.117009
_cell_length_b 8.023342
_cell_length_c 12.806743
_cell_angle_alpha 54.025514
_cell_angle_beta 69.919244
_cell_angle_gamma 48.380968
_cell_volume 565.063089
_symmetry_space_group_name_H-M "P -1"
_symmetry_group_IT_number 2
_symmetry_cell_setting 'triclinic'
loop_
_space_group_symop_operation_xyz
x,y,z
-x,-y,-z
loop_
_atom_site_type_symbol
_atom_site_label
_atom_site_fract_x
_atom_site_fract_y
_atom_site_fract_z
Si Si1 0.580923 0.154890 0.550412
Si Si2 0.744122 0.118976 0.867160
Si Si3 0.213238 0.250384 0.502437
Si Si4 0.063572 0.369508 0.855313
Si Si5 0.906813 0.951699 0.236950
Si Si6 0.281283 0.590289 0.031446
Si Si7 0.376998 0.432875 0.702224
O O1 0.386911 0.261436 0.489031
O O2 0.499898 0.205095 0.668701
O O3 0.648810 0.327869 0.437049
O O4 0.745279 0.856981 0.585214
O O5 0.523333 0.307268 0.811309
O O6 0.881859 0.131998 0.745542
O O7 0.779021 0.240572 0.911923
O O8 0.815536 0.845660 0.001246
O O9 0.230241 0.029568 0.647802
O O10 0.000000 0.500000 0.500000
O O11 0.093576 0.217519 0.794481
O O12 0.170824 0.497091 0.760345
O O13 0.832408 0.535194 0.881496
O O14 0.820402 0.226849 0.109627
O O15 0.500000 0.500000 0.000000
#
# Coordination Sequence:
#
# PCOD9050405 Si02
#       7
#     2   2   2   2   2   2   2
#     4  10  25  40  66  96 129 175 225 270 323 392
#     4   9  19  34  63  92 124 176 203 265 328 387
#     4  11  22  44  68  92 122 178 234 271 316 382
#     4   9  18  37  63  90 131 169 206 268 325 389
#     4   9  18  37  62  89 122 163 222 268 306 386
#     4   9  19  35  62  97 125 166 223 259 320 391
#     4  11  20  41  63  97 142 166 207 276 338 384
#
# _framework density 24.775993
#
# number of rings (size 3 to 8) (size 9 to 14) (size 15 to 20)
#    0.000    2.286    1.429    3.000    2.000    0.000 
#    2.571    7.143   12.571    0.000    0.000    0.000 
#    0.000    0.000    0.000    0.000    0.000    0.000 
#
# Total GULP energy -78044.768774 kJ/mol
# GULP energy per Si atom -5574.626341 kJ/mol
# Density = 2.471960 g / cm^3
# Si number density = 24.775993 Si / 1000 Ang^3
#
#
#
# Elastic Constant Matrix: (Units=GPa)
#
#
# Indices 1 2 3 4 5 6 
#
# 1 138.2041 14.7789 38.4104 4.4401 -49.7161 -34.5782
# 2 14.7789 70.1287 0.6573 13.9317 3.6427 -9.7719
# 3 38.4104 0.6573 92.8485 1.1819 -24.1607 -3.9601
# 4 4.4401 13.9317 1.1819 19.2012 -3.0184 3.1680
# 5 -49.7161 3.6427 -24.1607 -3.0184 51.4575 15.3556
# 6 -34.5782 -9.7719 -3.9601 3.1680 15.3556 31.9825
#
#
#
# Elastic Compliance Matrix: (Units=1/GPa)
#
#
# Indices 1 2 3 4 5 6 
#
# 1 0.014200 -0.001571 -0.002996 -0.002208 0.009223 0.010292
# 2 -0.001571 0.019456 -0.000684 -0.016291 -0.006881 0.009079
# 3 -0.002996 -0.000684 0.013017 0.001817 0.004639 -0.004244
# 4 -0.002208 -0.016291 0.001817 0.068830 0.009426 -0.018483
# 5 0.009223 -0.006881 0.004639 0.009426 0.034225 -0.008922
# 6 0.010292 0.009079 -0.004244 -0.018483 -0.008922 0.050758
#
#
# Mechanical properties :
#
#
# Convention : Reuss Voigt Hill
#
# Bulk Modulus (GPa) = 27.64595 45.43050 36.53822
# Shear Modulus (GPa) = 22.41700 37.01724 29.71712
#
# Velocity S-wave (km/s) = 3.01123 3.86952 3.46704
# Velocity P-wave (km/s) = 4.82417 6.19198 5.55037
#
# Compressibility (1/GPa) = 0.03617166
#
# Stress axis : x y z
#
# Youngs Moduli (GPa) = 70.42126 51.39888 76.81973
#
# Poissons Ratio (x) = 0.08074 0.23017
# Poissons Ratio (y) = 0.11062 0.05253
# Poissons Ratio (z) = 0.21100 0.03515
#
# Static dielectric constant tensor:
#      x y z
#    x 2.151600 -0.204840 -0.133170 
#    y -0.204840 2.150280 0.023990 
#    z -0.133170 0.023990 1.986800 
# 
# From -- ./inp_files/200567.got.cif
#   From: 2010.05.17/outbox.cif.g08.bks.cpg/sg2_101_cif.got.tgz:200567.got - 2010.06.03 11:33:40.
