data_PCOD9050518
_publ_section_title
;
Structure prediction by ZEFSAII (Michael W. Deem and Ramdas Pophale) SiO2 
 PCOD9050518
Probable space group: P -1
;
_chemical_formula_sum "Si O2"
_cell_formula_units_Z 16
_cell_length_a 14.844250
_cell_length_b 12.528868
_cell_length_c 6.153850
_cell_angle_alpha 56.085641
_cell_angle_beta 93.340356
_cell_angle_gamma 127.161526
_cell_volume 686.393297
_symmetry_space_group_name_H-M "P -1"
_symmetry_group_IT_number 2
_symmetry_cell_setting 'triclinic'
loop_
_space_group_symop_operation_xyz
x,y,z
-x,-y,-z
loop_
_atom_site_type_symbol
_atom_site_label
_atom_site_fract_x
_atom_site_fract_y
_atom_site_fract_z
Si Si1 0.283771 0.267220 0.761140
Si Si2 0.668264 0.080544 0.989758
Si Si3 0.805503 0.002272 0.287499
Si Si4 0.463163 0.857238 0.837429
Si Si5 0.478170 0.579376 0.104590
Si Si6 0.083968 0.634097 0.552156
Si Si7 0.140167 0.182368 0.242073
Si Si8 0.947260 0.644188 0.871573
O O1 0.197509 0.077563 0.847163
O O2 0.359005 0.421224 0.414525
O O3 0.398114 0.313670 0.852200
O O4 0.190868 0.250643 0.928020
O O5 0.788590 0.197660 0.723868
O O6 0.558095 0.948285 0.953545
O O7 0.656498 0.200141 0.990187
O O8 0.692931 0.991822 0.267752
O O9 0.785387 0.869538 0.608784
O O10 0.935711 0.199165 0.135833
O O11 0.500000 0.000000 0.500000
O O12 0.457980 0.710320 0.902177
O O13 0.500000 0.500000 0.000000
O O14 0.000000 0.500000 0.500000
O O15 0.011260 0.674463 0.619497
O O16 0.107454 0.540891 0.830280
O O17 0.146706 0.329560 0.180415
O O18 0.000000 0.000000 0.500000
#
# Coordination Sequence:
#
# PCOD9050518 Si02
#       8
#     2   2   2   2   2   2   2   2
#     4  11  25  44  74  98 144 191 235 298 373 431
#     4  11  26  45  73 103 137 190 250 290 370 432
#     4  11  23  44  71  98 140 189 239 299 357 441
#     4  11  28  47  75 104 142 187 248 309 358 442
#     4  11  26  48  72 107 143 186 244 302 377 436
#     4  11  24  45  71 100 143 191 233 298 368 436
#     4  10  25  42  68 105 140 183 240 290 355 437
#     4  10  25  43  67 105 140 184 241 291 358 437
#
# _framework density 23.31025
#
# number of rings (size 3 to 8) (size 9 to 14) (size 15 to 20)
#    0.000    1.250    2.500    0.750   10.500    4.000 
#    4.500    0.000    0.000    0.000    0.000    0.000 
#    0.000    0.000    0.000    0.000    0.000    0.000 
#
# Total GULP energy -89352.192532 kJ/mol
# GULP energy per Si atom -5584.512033 kJ/mol
# Density = 2.325719 g / cm^3
# Si number density = 23.310250 Si / 1000 Ang^3
#
#
#
# Elastic Constant Matrix: (Units=GPa)
#
#
# Indices 1 2 3 4 5 6 
#
# 1 118.0303 46.3522 73.1987 2.4002 -2.0237 -41.6038
# 2 46.3522 95.3071 26.1926 10.0389 -5.7289 -26.2960
# 3 73.1987 26.1926 122.8318 -4.7384 -15.7890 -27.7299
# 4 2.4002 10.0389 -4.7384 21.8870 -5.9164 3.5863
# 5 -2.0237 -5.7289 -15.7890 -5.9164 51.2825 5.1381
# 6 -41.6038 -26.2960 -27.7299 3.5863 5.1381 56.8090
#
#
#
# Elastic Compliance Matrix: (Units=1/GPa)
#
#
# Indices 1 2 3 4 5 6 
#
# 1 0.018465 -0.004102 -0.009016 -0.004408 -0.003800 0.007845
# 2 -0.004102 0.014302 0.000089 -0.006678 0.000287 0.004056
# 3 -0.009016 0.000089 0.014218 0.005356 0.004688 -0.000384
# 4 -0.004408 -0.006678 0.005356 0.053757 0.007712 -0.007796
# 5 -0.003800 0.000287 0.004688 0.007712 0.021999 -0.002839
# 6 0.007845 0.004056 -0.000384 -0.007796 -0.002839 0.025787
#
#
# Mechanical properties :
#
#
# Convention : Reuss Voigt Hill
#
# Bulk Modulus (GPa) = 47.78531 69.73957 58.76244
# Shear Modulus (GPa) = 27.53892 38.69075 33.11484
#
# Velocity S-wave (km/s) = 3.44089 4.07851 3.77319
# Velocity P-wave (km/s) = 6.02748 7.22232 6.65178
#
# Compressibility (1/GPa) = 0.02092693
#
# Stress axis : x y z
#
# Youngs Moduli (GPa) = 54.15788 69.91842 70.33438
#
# Poissons Ratio (x) = 0.28681 0.63416
# Poissons Ratio (y) = 0.22216 -0.00629
# Poissons Ratio (z) = 0.48831 -0.00626
#
# Static dielectric constant tensor:
#      x y z
#    x 1.918400 0.024250 0.061550 
#    y 0.024250 1.894980 0.040150 
#    z 0.061550 0.040150 1.976120 
# 
# From -- ./inp_files/94449.got.cif
#   From: 2010.05.17/outbox.cif.g08.bks.cpg/sg2_48_cif.got.tgz:94449.got - 2010.06.03 11:33:40.
