data_PCOD9050366
_publ_section_title
;
Structure prediction by ZEFSAII (Michael W. Deem and Ramdas Pophale) SiO2 
 PCOD9050366
Probable space group: P -1
;
_chemical_formula_sum "Si O2"
_cell_formula_units_Z 14
_cell_length_a 7.163187
_cell_length_b 19.429885
_cell_length_c 4.903686
_cell_angle_alpha 57.295949
_cell_angle_beta 72.054848
_cell_angle_gamma 61.223605
_cell_volume 502.309666
_symmetry_space_group_name_H-M "P -1"
_symmetry_group_IT_number 2
_symmetry_cell_setting 'triclinic'
loop_
_space_group_symop_operation_xyz
x,y,z
-x,-y,-z
loop_
_atom_site_type_symbol
_atom_site_label
_atom_site_fract_x
_atom_site_fract_y
_atom_site_fract_z
Si Si1 0.616925 0.419091 0.326630
Si Si2 0.032497 0.562706 0.578426
Si Si3 0.757665 0.906965 0.299555
Si Si4 0.949238 0.152345 0.232739
Si Si5 0.532227 0.263893 0.915147
Si Si6 0.645553 0.097431 0.820426
Si Si7 0.081842 0.334200 0.091871
O O1 0.279437 0.543431 0.559602
O O2 0.490051 0.359361 0.596223
O O3 0.844243 0.345003 0.263584
O O4 0.500000 0.500000 0.000000
O O5 0.080671 0.414935 0.124823
O O6 0.000000 0.500000 0.500000
O O7 0.935960 0.654514 0.250547
O O8 0.923320 0.882171 0.027656
O O9 0.843616 0.091213 0.556506
O O10 0.700633 0.010464 0.169914
O O11 0.544828 0.901678 0.289036
O O12 0.120669 0.155256 0.370742
O O13 0.740980 0.238700 0.063364
O O14 0.585194 0.185324 0.840645
O O15 0.325664 0.269966 0.162610
#
# Coordination Sequence:
#
# PCOD9050366 Si02
#       7
#     2   2   2   2   2   2   2
#     4  10  28  55  84 117 159 211 281 339 414 496
#     4  10  24  52  81 108 148 199 260 339 404 483
#     4  11  28  50  85 120 168 219 283 336 402 498
#     4  12  27  51  81 120 166 221 276 343 406 495
#     4  12  29  50  81 120 166 221 269 345 420 486
#     4  11  28  50  84 123 167 223 276 338 416 486
#     4  10  27  50  80 113 160 201 270 341 412 493
#
# _framework density 27.871251000000001
#
# number of rings (size 3 to 8) (size 9 to 14) (size 15 to 20)
#    0.857    0.286    1.429    1.286    8.000    6.286 
#    0.000    0.714    3.143    0.000    0.000    0.000 
#    0.000    0.000    0.000    0.000    0.000    0.000 
#
# Total GULP energy -78376.498398 kJ/mol
# GULP energy per Si atom -5598.321314 kJ/mol
# Density = 2.780782 g / cm^3
# Si number density = 27.871251 Si / 1000 Ang^3
#
#
#
# Elastic Constant Matrix: (Units=GPa)
#
#
# Indices 1 2 3 4 5 6 
#
# 1 179.4885 61.6543 61.5766 -5.9446 4.6927 -2.3486
# 2 61.6543 111.3129 47.0055 10.1321 -0.8836 -1.4522
# 3 61.5766 47.0055 106.5071 -5.1267 27.4080 7.0946
# 4 -5.9446 10.1321 -5.1267 48.5714 3.0702 10.9846
# 5 4.6927 -0.8836 27.4080 3.0702 54.6268 -1.7363
# 6 -2.3486 -1.4522 7.0946 10.9846 -1.7363 48.0802
#
#
#
# Elastic Compliance Matrix: (Units=1/GPa)
#
#
# Indices 1 2 3 4 5 6 
#
# 1 0.007775 -0.002926 -0.003448 0.000999 0.000978 0.000607
# 2 -0.002926 0.013385 -0.005490 -0.004455 0.003543 0.002217
# 3 -0.003448 -0.005490 0.016408 0.003876 -0.008368 -0.003943
# 4 0.000999 -0.004455 0.003876 0.023680 -0.003630 -0.006199
# 5 0.000978 0.003543 -0.008368 -0.003630 0.022779 0.003042
# 6 0.000607 0.002217 -0.003943 -0.006199 0.003042 0.023003
#
#
# Mechanical properties :
#
#
# Convention : Reuss Voigt Hill
#
# Bulk Modulus (GPa) = 72.24772 81.97571 77.11171
# Shear Modulus (GPa) = 36.93617 45.39383 41.16500
#
# Velocity S-wave (km/s) = 3.64434 4.04009 3.84731
# Velocity P-wave (km/s) = 6.60958 7.15816 6.88933
#
# Compressibility (1/GPa) = 0.01384127
#
# Stress axis : x y z
#
# Youngs Moduli (GPa) = 128.62487 74.71122 60.94690
#
# Poissons Ratio (x) = 0.21857 0.21013
# Poissons Ratio (y) = 0.37629 0.33458
# Poissons Ratio (z) = 0.44346 0.41015
#
# Static dielectric constant tensor:
#      x y z
#    x 2.145220 0.060960 -0.062690 
#    y 0.060960 2.326740 -0.152750 
#    z -0.062690 -0.152750 2.240500 
# 
# From -- ./inp_files/56097.got.cif
#   From: 2010.05.17/outbox.cif.g08.bks.cpg/sg2_29_cif.got.tgz:56097.got - 2010.06.03 11:33:40.
