data_PCOD9050838
_publ_section_title
;
Structure prediction by ZEFSAII (Michael W. Deem and Ramdas Pophale) SiO2 
 PCOD9050838
Probable space group: P -1
;
_chemical_formula_sum "Si O2"
_cell_formula_units_Z 16
_cell_length_a 28.102209
_cell_length_b 8.989016
_cell_length_c 5.081377
_cell_angle_alpha 96.358028
_cell_angle_beta 80.374944
_cell_angle_gamma 149.930776
_cell_volume 632.595480
_symmetry_space_group_name_H-M "P -1"
_symmetry_group_IT_number 2
_symmetry_cell_setting 'triclinic'
loop_
_space_group_symop_operation_xyz
x,y,z
-x,-y,-z
loop_
_atom_site_type_symbol
_atom_site_label
_atom_site_fract_x
_atom_site_fract_y
_atom_site_fract_z
Si Si1 0.636915 0.735611 0.845659
Si Si2 0.920903 0.881757 0.716466
Si Si3 0.914951 0.205597 0.694397
Si Si4 0.374363 0.867864 0.767530
Si Si5 0.821631 0.509486 0.258838
Si Si6 0.541658 0.770775 0.734811
Si Si7 0.710366 0.667375 0.474304
Si Si8 0.809831 0.156345 0.093983
O O1 0.563845 0.547808 0.121225
O O2 0.639299 0.572279 0.704317
O O3 0.602258 0.778805 0.702296
O O4 0.747902 0.053444 0.887149
O O5 0.832305 0.623080 0.546724
O O6 0.940686 0.110840 0.756081
O O7 0.894211 0.753434 0.006359
O O8 0.000000 0.000000 0.500000
O O9 0.000000 0.500000 0.500000
O O10 0.812243 0.912821 0.577779
O O11 0.893564 0.273318 0.945580
O O12 0.282790 0.730539 0.797823
O O13 0.337145 0.605815 0.661680
O O14 0.413791 0.993384 0.048487
O O15 0.449707 0.134078 0.539095
O O16 0.838240 0.379109 0.267685
O O17 0.738935 0.860127 0.259445
#
# Coordination Sequence:
#
# PCOD9050838 Si02
#       8
#     2   2   2   2   2   2   2   2
#     4  10  25  44  69 102 138 178 232 287 341 407
#     4  12  27  47  72 105 136 179 235 290 342 410
#     4  11  26  46  68 101 140 181 228 286 346 412
#     4  12  25  45  71 101 140 186 228 282 346 407
#     4  12  25  46  73 100 140 183 232 281 346 410
#     4  11  26  45  72 103 138 183 234 286 339 411
#     4  11  26  44  70  98 140 182 229 282 348 415
#     4  11  25  44  72  98 138 186 228 282 349 409
#
# _framework density 25.292625000000001
#
# number of rings (size 3 to 8) (size 9 to 14) (size 15 to 20)
#    0.000    0.750    2.500    3.375   10.500    2.500 
#    0.000    0.000    0.000    0.000    0.000    0.000 
#    0.000    0.000    0.000    0.000    0.000    0.000 
#
# Total GULP energy -89680.338789 kJ/mol
# GULP energy per Si atom -5605.021174 kJ/mol
# Density = 2.523506 g / cm^3
# Si number density = 25.292625 Si / 1000 Ang^3
#
#
#
# Elastic Constant Matrix: (Units=GPa)
#
#
# Indices 1 2 3 4 5 6 
#
# 1 124.8748 45.8410 35.2551 -3.2177 -26.0514 -25.3899
# 2 45.8410 104.5301 30.6773 13.1291 -7.9551 -28.5490
# 3 35.2551 30.6773 96.7301 -1.5507 -6.2438 -17.2640
# 4 -3.2177 13.1291 -1.5507 51.7044 -9.8352 -3.7356
# 5 -26.0514 -7.9551 -6.2438 -9.8352 39.3955 6.5924
# 6 -25.3899 -28.5490 -17.2640 -3.7356 6.5924 66.1722
#
#
#
# Elastic Compliance Matrix: (Units=1/GPa)
#
#
# Indices 1 2 3 4 5 6 
#
# 1 0.012097 -0.003992 -0.002302 0.003221 0.007336 0.001769
# 2 -0.003992 0.013306 -0.002307 -0.003793 -0.001865 0.003579
# 3 -0.002302 -0.002307 0.012160 0.000893 -0.000064 0.001351
# 4 0.003221 -0.003793 0.000893 0.021871 0.006902 0.000380
# 5 0.007336 -0.001865 -0.000064 0.006902 0.031701 -0.000775
# 6 0.001769 0.003579 0.001351 0.000380 -0.000775 0.017786
#
#
# Mechanical properties :
#
#
# Convention : Reuss Voigt Hill
#
# Bulk Modulus (GPa) = 49.11564 61.07576 55.09570
# Shear Modulus (GPa) = 37.61905 45.74520 41.68212
#
# Velocity S-wave (km/s) = 3.86080 4.25742 4.06395
# Velocity P-wave (km/s) = 6.27180 6.95468 6.62205
#
# Compressibility (1/GPa) = 0.02036011
#
# Stress axis : x y z
#
# Youngs Moduli (GPa) = 82.66709 75.15125 82.23707
#
# Poissons Ratio (x) = 0.30003 0.18929
# Poissons Ratio (y) = 0.33004 0.18975
# Poissons Ratio (z) = 0.19028 0.17340
#
# Static dielectric constant tensor:
#      x y z
#    x 2.045250 0.038350 -0.098170 
#    y 0.038350 2.092920 0.151670 
#    z -0.098170 0.151670 2.232340 
# 
# From -- ./inp_files/37928.got.cif
#   From: 2010.05.17/outbox.cif.g08.bks.cpg/sg2_19_cif.got.tgz:37928.got - 2010.06.03 11:33:40.
