data_PCOD9050741
_publ_section_title
;
Structure prediction by ZEFSAII (Michael W. Deem and Ramdas Pophale) SiO2 
 PCOD9050741
Probable space group: P -1
;
_chemical_formula_sum "Si O2"
_cell_formula_units_Z 16
_cell_length_a 18.741342
_cell_length_b 8.595325
_cell_length_c 14.326023
_cell_angle_alpha 150.810780
_cell_angle_beta 142.564135
_cell_angle_gamma 39.047238
_cell_volume 656.501444
_symmetry_space_group_name_H-M "P -1"
_symmetry_group_IT_number 2
_symmetry_cell_setting 'triclinic'
loop_
_space_group_symop_operation_xyz
x,y,z
-x,-y,-z
loop_
_atom_site_type_symbol
_atom_site_label
_atom_site_fract_x
_atom_site_fract_y
_atom_site_fract_z
Si Si1 0.304182 0.338167 0.135625
Si Si2 0.973771 0.612627 0.423853
Si Si3 0.917526 0.828778 0.134765
Si Si4 0.588639 0.083526 0.506389
Si Si5 0.228853 0.723999 0.951551
Si Si6 0.801450 0.675363 0.625322
Si Si7 0.664821 0.436422 0.499565
Si Si8 0.555054 0.869621 0.148698
O O1 0.343173 0.624727 0.271354
O O2 0.304080 0.461743 0.309388
O O3 0.410265 0.997097 0.050159
O O4 0.173536 0.287324 0.952020
O O5 0.078058 0.409228 0.355993
O O6 0.000000 0.500000 0.500000
O O7 0.845633 0.538115 0.236447
O O8 0.992572 0.975524 0.628859
O O9 0.827088 0.085670 0.102741
O O10 0.000000 0.500000 0.000000
O O11 0.452308 0.256967 0.491638
O O12 0.682845 0.773644 0.488158
O O13 0.572374 0.977352 0.328667
O O14 0.370524 0.512932 0.984587
O O15 0.203567 0.009663 0.150738
O O16 0.775642 0.409130 0.530555
O O17 0.615559 0.114237 0.281990
#
# Coordination Sequence:
#
# PCOD9050741 Si02
#       8
#     2   2   2   2   2   2   2   2
#     4   9  19  40  67  98 126 176 218 256 322 379
#     4  10  25  44  62  89 124 172 216 261 321 382
#     4  11  24  42  70  95 125 168 228 271 305 392
#     4   9  19  36  67  95 131 175 209 259 323 384
#     4  11  24  42  65  97 130 172 213 270 328 371
#     4  12  22  41  65  97 133 169 213 272 323 386
#     4   9  19  39  64  97 130 170 213 267 321 373
#     4   9  20  42  70  92 134 172 214 263 315 396
#
# _framework density 24.371611999999999
#
# number of rings (size 3 to 8) (size 9 to 14) (size 15 to 20)
#    0.000    2.000    1.250    3.750    7.000    0.500 
#    6.750    2.500    0.000    0.000    0.000    0.000 
#    0.000    0.000    0.000    0.000    0.000    0.000 
#
# Total GULP energy -89498.515547 kJ/mol
# GULP energy per Si atom -5593.657222 kJ/mol
# Density = 2.431614 g / cm^3
# Si number density = 24.371612 Si / 1000 Ang^3
#
#
#
# Elastic Constant Matrix: (Units=GPa)
#
#
# Indices 1 2 3 4 5 6 
#
# 1 104.2208 20.6682 5.2593 1.3501 12.7013 -21.9714
# 2 20.6682 91.0593 -6.7584 13.1254 -7.5725 -17.4409
# 3 5.2593 -6.7584 73.9872 14.5003 21.7198 -10.0292
# 4 1.3501 13.1254 14.5003 26.9872 -7.9351 -11.1107
# 5 12.7013 -7.5725 21.7198 -7.9351 29.5527 -0.7262
# 6 -21.9714 -17.4409 -10.0292 -11.1107 -0.7262 22.7122
#
#
#
# Elastic Compliance Matrix: (Units=1/GPa)
#
#
# Indices 1 2 3 4 5 6 
#
# 1 0.013495 -0.001069 0.002418 0.002398 -0.006857 0.014256
# 2 -0.001069 0.013875 0.003288 -0.004672 0.000560 0.008805
# 3 0.002418 0.003288 0.025472 -0.020309 -0.024238 0.005402
# 4 0.002398 -0.004672 -0.020309 0.069813 0.032057 0.024942
# 5 -0.006857 0.000560 -0.024238 0.032057 0.063369 0.000802
# 6 0.014256 0.008805 0.005402 0.024942 0.000802 0.079194
#
#
# Mechanical properties :
#
#
# Convention : Reuss Voigt Hill
#
# Bulk Modulus (GPa) = 16.09867 34.17840 25.13854
# Shear Modulus (GPa) = 18.07339 32.52363 25.29851
#
# Velocity S-wave (km/s) = 2.72614 3.65703 3.22535
# Velocity P-wave (km/s) = 4.06558 5.64678 4.92012
#
# Compressibility (1/GPa) = 0.06211692
#
# Stress axis : x y z
#
# Youngs Moduli (GPa) = 74.10219 72.07233 39.25851
#
# Poissons Ratio (x) = 0.07704 -0.09494
# Poissons Ratio (y) = 0.07921 -0.12908
# Poissons Ratio (z) = -0.17921 -0.23698
#
# Static dielectric constant tensor:
#      x y z
#    x 2.040040 0.054180 -0.002850 
#    y 0.054180 1.957580 0.001220 
#    z -0.002850 0.001220 1.930410 
# 
# From -- ./inp_files/186499.got.cif
#   From: 2010.05.17/outbox.cif.g08.bks.cpg/sg2_94_cif.got.tgz:186499.got - 2010.06.03 11:33:40.
