data_PCOD9050367
_publ_section_title
;
Structure prediction by ZEFSAII (Michael W. Deem and Ramdas Pophale) SiO2 
 PCOD9050367
Probable space group: P -1
;
_chemical_formula_sum "Si O2"
_cell_formula_units_Z 10
_cell_length_a 11.841059
_cell_length_b 7.415284
_cell_length_c 5.708549
_cell_angle_alpha 90.530876
_cell_angle_beta 127.035121
_cell_angle_gamma 108.027564
_cell_volume 367.621469
_symmetry_space_group_name_H-M "P -1"
_symmetry_group_IT_number 2
_symmetry_cell_setting 'triclinic'
loop_
_space_group_symop_operation_xyz
x,y,z
-x,-y,-z
loop_
_atom_site_type_symbol
_atom_site_label
_atom_site_fract_x
_atom_site_fract_y
_atom_site_fract_z
Si Si1 0.658408 0.481159 0.745814
Si Si2 0.866248 0.437743 0.637933
Si Si3 0.050887 0.821463 0.606172
Si Si4 0.485473 0.097591 0.736698
Si Si5 0.179751 0.082202 0.151113
O O1 0.500000 0.500000 0.500000
O O2 0.712117 0.398186 0.584159
O O3 0.618115 0.320048 0.896221
O O4 0.683008 0.887688 0.494114
O O5 0.914902 0.629264 0.537657
O O6 0.879564 0.258533 0.516530
O O7 0.000000 0.500000 0.000000
O O8 0.179651 0.917981 0.966192
O O9 0.779756 0.705671 0.917031
O O10 0.000000 0.000000 0.500000
O O11 0.500000 0.000000 0.500000
O O12 0.500000 0.000000 0.000000
O O13 0.000000 0.000000 0.000000
#
# Coordination Sequence:
#
# PCOD9050367 Si02
#       5
#     2   2   2   2   2
#     4  10  24  52  82 116 174 234 286 359 450 537
#     4  11  25  49  79 122 176 225 294 361 450 534
#     4  11  26  46  81 128 172 227 290 370 444 523
#     4  11  29  56  82 120 176 230 292 366 453 529
#     4  11  24  52  85 124 171 228 297 367 437 535
#
# _framework density 27.201895
#
# number of rings (size 3 to 8) (size 9 to 14) (size 15 to 20)
#    0.000    1.200    2.000    1.200    2.800    3.200 
#    7.200    9.000    0.000    0.000    0.000    0.000 
#    0.000    0.000    0.000    0.000    0.000    0.000 
#
# Total GULP energy -56066.867111 kJ/mol
# GULP energy per Si atom -5606.686711 kJ/mol
# Density = 2.713998 g / cm^3
# Si number density = 27.201895 Si / 1000 Ang^3
#
#
#
# Elastic Constant Matrix: (Units=GPa)
#
#
# Indices 1 2 3 4 5 6 
#
# 1 217.2415 101.2898 83.6285 -11.7098 0.4619 -3.6128
# 2 101.2898 256.0315 81.0667 -22.4416 -18.7610 29.2882
# 3 83.6285 81.0667 160.6893 -23.8109 -2.9204 -2.6213
# 4 -11.7098 -22.4416 -23.8109 68.9277 -1.3168 -11.9116
# 5 0.4619 -18.7610 -2.9204 -1.3168 50.5165 -3.3429
# 6 -3.6128 29.2882 -2.6213 -11.9116 -3.3429 69.3996
#
#
#
# Elastic Compliance Matrix: (Units=1/GPa)
#
#
# Indices 1 2 3 4 5 6 
#
# 1 0.006461 -0.002000 -0.002386 -0.000220 -0.000879 0.001010
# 2 -0.002000 0.005717 -0.001770 0.000532 0.001894 -0.002401
# 3 -0.002386 -0.001770 0.008715 0.002261 0.000016 0.001341
# 4 -0.000220 0.000532 0.002261 0.015895 0.000918 0.002622
# 5 -0.000879 0.001894 0.000016 0.000918 0.020552 0.000303
# 6 0.001010 -0.002401 0.001341 0.002622 0.000303 0.015991
#
#
# Mechanical properties :
#
#
# Convention : Reuss Voigt Hill
#
# Bulk Modulus (GPa) = 116.51147 129.54804 123.02975
# Shear Modulus (GPa) = 56.49625 62.30059 59.39842
#
# Velocity S-wave (km/s) = 4.56227 4.79090 4.67798
# Velocity P-wave (km/s) = 8.40699 8.85052 8.63161
#
# Compressibility (1/GPa) = 0.00858285
#
# Stress axis : x y z
#
# Youngs Moduli (GPa) = 154.78056 174.90756 114.74947
#
# Poissons Ratio (x) = 0.34979 0.27374
# Poissons Ratio (y) = 0.30954 0.20305
# Poissons Ratio (z) = 0.36924 0.30950
#
# Static dielectric constant tensor:
#      x y z
#    x 2.136040 0.048440 -0.041140 
#    y 0.048440 2.139940 -0.012580 
#    z -0.041140 -0.012580 2.184710 
# 
# From -- ./inp_files/59055.got.cif
#   From: 2010.05.17/outbox.cif.g08.bks.cpg/sg2_30_cif.got.tgz:59055.got - 2010.06.03 11:33:40.
