data_PCOD9050957
_publ_section_title
;
Structure prediction by ZEFSAII (Michael W. Deem and Ramdas Pophale) SiO2 
 PCOD9050957
Probable space group: P -1
;
_chemical_formula_sum "Si O2"
_cell_formula_units_Z 12
_cell_length_a 9.775975
_cell_length_b 16.069951
_cell_length_c 7.662266
_cell_angle_alpha 62.797565
_cell_angle_beta 65.305655
_cell_angle_gamma 31.364308
_cell_volume 556.244001
_symmetry_space_group_name_H-M "P -1"
_symmetry_group_IT_number 2
_symmetry_cell_setting 'triclinic'
loop_
_space_group_symop_operation_xyz
x,y,z
-x,-y,-z
loop_
_atom_site_type_symbol
_atom_site_label
_atom_site_fract_x
_atom_site_fract_y
_atom_site_fract_z
Si Si1 0.567610 0.061028 0.503319
Si Si2 0.321659 0.799629 0.848550
Si Si3 0.363954 0.168805 0.870543
Si Si4 0.212530 0.543325 0.941428
Si Si5 0.866277 0.209811 0.357049
Si Si6 0.426683 0.741936 0.220878
O O1 0.354289 0.184325 0.651618
O O2 0.500000 0.000000 0.500000
O O3 0.593307 0.137256 0.291006
O O4 0.848148 0.914584 0.594578
O O5 0.585268 0.601479 0.885805
O O6 0.127345 0.863558 0.741023
O O7 0.243926 0.822612 0.069221
O O8 0.529481 0.172149 0.847323
O O9 0.082654 0.317099 0.970204
O O10 0.500000 0.000000 0.000000
O O11 0.252187 0.631902 0.795465
O O12 0.297864 0.442786 0.818544
O O13 0.688302 0.253133 0.558389
#
# Coordination Sequence:
#
# PCOD9050957 Si02
#       6
#     2   2   2   2   2   2
#     4  12  27  45  72 108 146 189 242 294 362 426
#     4  10  25  45  70 109 139 188 240 291 356 419
#     4  12  23  46  72 103 146 193 232 297 355 421
#     4  10  25  45  73 105 149 181 246 288 358 428
#     4  12  23  49  73 104 146 189 237 299 352 426
#     4  10  25  44  74 105 143 189 240 291 361 414
#
# _framework density 21.573264999999999
#
# number of rings (size 3 to 8) (size 9 to 14) (size 15 to 20)
#    1.000    0.000    3.333    3.000    0.000    2.667 
#    3.000    0.000    0.000    0.000    0.000    0.000 
#    0.000    0.000    0.000    0.000    0.000    0.000 
#
# Total GULP energy -67057.785169 kJ/mol
# GULP energy per Si atom -5588.148764 kJ/mol
# Density = 2.152416 g / cm^3
# Si number density = 21.573265 Si / 1000 Ang^3
#
#
#
# Elastic Constant Matrix: (Units=GPa)
#
#
# Indices 1 2 3 4 5 6 
#
# 1 153.9734 52.8470 68.2391 10.5036 -8.4514 18.4784
# 2 52.8470 98.5476 23.4857 1.4215 -18.6325 -0.3378
# 3 68.2391 23.4857 116.6860 -4.3169 -13.0046 12.7117
# 4 10.5036 1.4215 -4.3169 44.1423 11.1500 4.7495
# 5 -8.4514 -18.6325 -13.0046 11.1500 37.5796 -0.6206
# 6 18.4784 -0.3378 12.7117 4.7495 -0.6206 36.7415
#
#
#
# Elastic Compliance Matrix: (Units=1/GPa)
#
#
# Indices 1 2 3 4 5 6 
#
# 1 0.011018 -0.004835 -0.005304 -0.002328 -0.001121 -0.003469
# 2 -0.004835 0.013861 0.000408 -0.001137 0.006308 0.002672
# 3 -0.005304 0.000408 0.012141 0.001967 0.002599 -0.001740
# 4 -0.002328 -0.001137 0.001967 0.025808 -0.008113 -0.002993
# 5 -0.001121 0.006308 0.002599 -0.008113 0.032814 0.001326
# 6 -0.003469 0.002672 -0.001740 -0.002993 0.001326 0.029998
#
#
# Mechanical properties :
#
#
# Convention : Reuss Voigt Hill
#
# Bulk Modulus (GPa) = 56.95117 73.15007 65.05062
# Shear Modulus (GPa) = 33.12229 38.66837 35.89533
#
# Velocity S-wave (km/s) = 3.92259 4.23829 4.08349
# Velocity P-wave (km/s) = 6.85360 7.61132 7.24238
#
# Compressibility (1/GPa) = 0.01755890
#
# Stress axis : x y z
#
# Youngs Moduli (GPa) = 90.75937 72.14388 82.36217
#
# Poissons Ratio (x) = 0.34881 0.43681
# Poissons Ratio (y) = 0.43881 -0.03356
# Poissons Ratio (z) = 0.48135 -0.02940
#
# Static dielectric constant tensor:
#      x y z
#    x 1.785110 -0.012850 0.032570 
#    y -0.012850 1.822510 -0.004670 
#    z 0.032570 -0.004670 1.769320 
# 
# From -- ./inp_files/151724.got.cif
#   From: 2010.05.17/outbox.cif.g08.bks.cpg/sg2_76_cif.got.tgz:151724.got - 2010.06.03 11:33:40.
