data_PCOD9050482
_publ_section_title
;
Structure prediction by ZEFSAII (Michael W. Deem and Ramdas Pophale) SiO2 
 PCOD9050482
Probable space group: P -1
;
_chemical_formula_sum "Si O2"
_cell_formula_units_Z 16
_cell_length_a 14.031535
_cell_length_b 9.074086
_cell_length_c 8.768403
_cell_angle_alpha 82.105334
_cell_angle_beta 63.186033
_cell_angle_gamma 51.562202
_cell_volume 763.926722
_symmetry_space_group_name_H-M "P -1"
_symmetry_group_IT_number 2
_symmetry_cell_setting 'triclinic'
loop_
_space_group_symop_operation_xyz
x,y,z
-x,-y,-z
loop_
_atom_site_type_symbol
_atom_site_label
_atom_site_fract_x
_atom_site_fract_y
_atom_site_fract_z
Si Si1 0.474339 0.155553 0.616229
Si Si2 0.108031 0.873246 0.805609
Si Si3 0.405038 0.457705 0.381718
Si Si4 0.319921 0.121581 0.988974
Si Si5 0.609960 0.697818 0.875557
Si Si6 0.737266 0.095204 0.542601
Si Si7 0.863387 0.971834 0.800139
Si Si8 0.679291 0.357848 0.073303
O O1 0.424513 0.343967 0.534176
O O2 0.364324 0.188158 0.809440
O O3 0.615986 0.082412 0.607065
O O4 0.500000 0.000000 0.500000
O O5 0.168813 0.966682 0.666977
O O6 0.229422 0.686892 0.837982
O O7 0.022451 0.861734 0.739948
O O8 0.000000 0.000000 0.000000
O O9 0.340061 0.409754 0.306097
O O10 0.330396 0.680285 0.425638
O O11 0.555786 0.363597 0.219406
O O12 0.454449 0.898295 0.949161
O O13 0.302462 0.244089 0.128954
O O14 0.191337 0.127368 0.061834
O O15 0.615984 0.556205 0.008887
O O16 0.824021 0.992427 0.648205
O O17 0.773493 0.186070 0.907729
#
# Coordination Sequence:
#
# PCOD9050482 Si02
#       8
#     2   2   2   2   2   2   2   2
#     4  12  24  37  60  97 138 160 193 262 322 380
#     4  10  25  42  64  91 123 168 219 263 303 362
#     4  12  22  38  63  98 130 156 206 268 320 374
#     4  11  23  38  61  97 132 169 200 245 335 383
#     4  11  21  37  61  93 129 161 201 260 320 380
#     4  12  24  41  68  96 123 165 213 264 315 370
#     4  11  22  42  66  89 127 169 215 255 299 383
#     4  11  20  40  63  94 124 165 208 264 316 358
#
# _framework density 20.944417999999999
#
# number of rings (size 3 to 8) (size 9 to 14) (size 15 to 20)
#    0.000    0.750    5.000    4.125    3.500    0.000 
#    0.000    0.625    0.000    0.750    0.000    0.000 
#    0.000    0.000    0.000    0.000    0.000    0.000 
#
# Total GULP energy -89451.293528 kJ/mol
# GULP energy per Si atom -5590.705846 kJ/mol
# Density = 2.089675 g / cm^3
# Si number density = 20.944418 Si / 1000 Ang^3
#
#
#
# Elastic Constant Matrix: (Units=GPa)
#
#
# Indices 1 2 3 4 5 6 
#
# 1 75.3774 10.3703 7.2718 -11.2515 17.0977 11.2042
# 2 10.3703 47.7473 17.5745 -18.2161 11.5516 13.6828
# 3 7.2718 17.5745 89.4820 -22.1030 7.8275 -7.1596
# 4 -11.2515 -18.2161 -22.1030 43.2463 4.2748 13.6371
# 5 17.0977 11.5516 7.8275 4.2748 34.2784 -5.5483
# 6 11.2042 13.6828 -7.1596 13.6371 -5.5483 26.2882
#
#
#
# Elastic Compliance Matrix: (Units=1/GPa)
#
#
# Indices 1 2 3 4 5 6 
#
# 1 0.231689 0.451245 0.003069 0.514603 -0.444773 -0.693606
# 2 0.451245 0.970540 0.003136 1.075922 -0.921613 -1.449279
# 3 0.003069 0.003136 0.013452 0.012134 -0.008359 -0.007335
# 4 0.514603 1.075922 0.012134 1.235386 -1.040990 -1.636601
# 5 -0.444773 -0.921613 -0.008359 -1.040990 0.920125 1.401197
# 6 -0.693606 -1.449279 -0.007335 -1.636601 1.401197 2.230725
#
#
# Mechanical properties :
#
#
# Convention : Reuss Voigt Hill
#
# Bulk Modulus (GPa) = 0.46936 31.44889 15.95912
# Shear Modulus (GPa) = 0.92640 32.58860 16.75750
#
# Velocity S-wave (km/s) = 0.66579 3.94884 2.83166
# Velocity P-wave (km/s) = 0.90312 5.98658 4.28105
#
# Compressibility (1/GPa) = 2.13057826
#
# Stress axis : x y z
#
# Youngs Moduli (GPa) = 4.31613 1.03035 74.34029
#
# Poissons Ratio (x) = -0.46494 -0.22811
# Poissons Ratio (y) = -1.94763 -0.23313
# Poissons Ratio (z) = -0.01324 -0.00323
#
# Static dielectric constant tensor:
#      x y z
#    x 1.789620 -0.000740 0.039100 
#    y -0.000740 1.742280 0.016310 
#    z 0.039100 0.016310 1.798210 
# 
# From -- ./inp_files/175326.got.cif
#   From: 2010.05.17/outbox.cif.g08.bks.cpg/sg2_88_cif.got.tgz:175326.got - 2010.06.03 11:33:40.
