data_PCOD9050755
_publ_section_title
;
Structure prediction by ZEFSAII (Michael W. Deem and Ramdas Pophale) SiO2 
 PCOD9050755
Probable space group: P -1
;
_chemical_formula_sum "Si O2"
_cell_formula_units_Z 16
_cell_length_a 14.152366
_cell_length_b 14.880743
_cell_length_c 11.075386
_cell_angle_alpha 112.705410
_cell_angle_beta 133.038494
_cell_angle_gamma 30.654800
_cell_volume 731.749339
_symmetry_space_group_name_H-M "P -1"
_symmetry_group_IT_number 2
_symmetry_cell_setting 'triclinic'
loop_
_space_group_symop_operation_xyz
x,y,z
-x,-y,-z
loop_
_atom_site_type_symbol
_atom_site_label
_atom_site_fract_x
_atom_site_fract_y
_atom_site_fract_z
Si Si1 0.454041 0.508698 0.257710
Si Si2 0.072804 0.523611 0.685794
Si Si3 0.525163 0.250561 0.116313
Si Si4 0.599397 0.079305 0.336066
Si Si5 0.745358 0.620328 0.611607
Si Si6 0.070024 0.817870 0.290262
Si Si7 0.802475 0.409781 0.361885
Si Si8 0.767402 0.811987 0.047657
O O1 0.379234 0.449494 0.123342
O O2 0.220541 0.719425 0.241300
O O3 0.704980 0.330741 0.482703
O O4 0.565242 0.490602 0.227872
O O5 0.141140 0.581434 0.715034
O O6 0.000000 0.500000 0.500000
O O7 0.827656 0.665887 0.640531
O O8 0.346935 0.314065 0.892452
O O9 0.549430 0.175987 0.223219
O O10 0.836749 0.054307 0.234953
O O11 0.529199 0.187863 0.449061
O O12 0.369948 0.146392 0.166705
O O13 0.904604 0.832394 0.470694
O O14 0.731070 0.546522 0.460064
O O15 0.996391 0.416644 0.811363
O O16 0.910946 0.820144 0.159463
O O17 0.500000 0.000000 0.000000
#
# Coordination Sequence:
#
# PCOD9050755 Si02
#       8
#     2   2   2   2   2   2   2   2
#     4  11  24  40  64  95 134 167 218 261 312 384
#     4  10  25  44  65  90 135 172 210 266 327 381
#     4  12  23  41  66  99 123 173 216 259 320 383
#     4  12  24  35  72  98 123 158 218 273 322 380
#     4  11  21  39  63  95 125 162 210 264 325 375
#     4  11  23  38  64 101 133 163 206 274 324 372
#     4  11  24  46  61  90 135 174 204 267 322 373
#     4  12  18  37  63  96 129 157 199 268 331 367
#
# _framework density 21.865411999999999
#
# number of rings (size 3 to 8) (size 9 to 14) (size 15 to 20)
#    0.000    0.750    6.250    1.500    5.250    1.000 
#    0.000    3.125    0.000    0.000    0.000    0.000 
#    0.000    0.000    0.000    0.000    0.000    0.000 
#
# Total GULP energy -89379.774078 kJ/mol
# GULP energy per Si atom -5586.235880 kJ/mol
# Density = 2.181565 g / cm^3
# Si number density = 21.865412 Si / 1000 Ang^3
#
#
#
# Elastic Constant Matrix: (Units=GPa)
#
#
# Indices 1 2 3 4 5 6 
#
# 1 101.7792 4.8078 17.4866 10.3624 -20.5824 6.8926
# 2 4.8078 53.5030 6.8714 31.6852 -11.4659 -4.4778
# 3 17.4866 6.8714 42.2084 6.3412 -3.3718 -8.6774
# 4 10.3624 31.6852 6.3412 -1.9799 3.3835 -9.6810
# 5 -20.5824 -11.4659 -3.3718 3.3835 25.2261 1.6953
# 6 6.8926 -4.4778 -8.6774 -9.6810 1.6953 17.4041
#
#
#
# Elastic Compliance Matrix: (Units=1/GPa)
#
#
# Indices 1 2 3 4 5 6 
#
# 1 0.011755 -0.004245 -0.005894 0.008199 0.006091 -0.004719
# 2 -0.004245 0.007647 0.000362 0.020057 -0.003660 0.015342
# 3 -0.005894 0.000362 0.029715 -0.004448 -0.001076 0.014873
# 4 0.008199 0.020057 -0.004448 -0.029397 0.020407 -0.018644
# 5 0.006091 -0.003660 -0.001076 0.020407 0.039826 0.003582
# 6 -0.004719 0.015342 0.014873 -0.018644 0.003582 0.059970
#
#
# Mechanical properties :
#
#
# Convention : Reuss Voigt Hill
#
# Bulk Modulus (GPa) = 33.82537 28.42469 31.12503
# Shear Modulus (GPa) = 33.57392 19.35171 26.46282
#
# Velocity S-wave (km/s) = 3.92277 2.97819 3.48265
# Velocity P-wave (km/s) = 6.00174 4.98540 5.51702
#
# Compressibility (1/GPa) = 0.02956361
#
# Stress axis : x y z
#
# Youngs Moduli (GPa) = 85.07024 130.76460 33.65289
#
# Poissons Ratio (x) = 0.55504 0.19836
# Poissons Ratio (y) = 0.36109 -0.01218
# Poissons Ratio (z) = 0.50143 -0.04734
#
# Static dielectric constant tensor:
#      x y z
#    x 1.840850 0.020560 0.020500 
#    y 0.020560 1.839620 0.043020 
#    z 0.020500 0.043020 1.808390 
# 
# From -- ./inp_files/454875.got.cif
#   From: 2010.05.17/outbox.cif.g08.bks.cpg/sg2_228_cif.got.tgz:454875.got - 2010.06.03 11:33:40.
