data_PCOD9050930
_publ_section_title
;
Structure prediction by ZEFSAII (Michael W. Deem and Ramdas Pophale) SiO2 
 PCOD9050930
Probable space group: P -1
;
_chemical_formula_sum "Si O2"
_cell_formula_units_Z 15
_cell_length_a 8.867248
_cell_length_b 10.949966
_cell_length_c 7.655906
_cell_angle_alpha 125.973930
_cell_angle_beta 94.950917
_cell_angle_gamma 85.253142
_cell_volume 598.869792
_symmetry_space_group_name_H-M "P -1"
_symmetry_group_IT_number 2
_symmetry_cell_setting 'triclinic'
loop_
_space_group_symop_operation_xyz
x,y,z
-x,-y,-z
loop_
_atom_site_type_symbol
_atom_site_label
_atom_site_fract_x
_atom_site_fract_y
_atom_site_fract_z
Si Si1 0.500000 0.500000 0.500000
Si Si2 0.511835 0.032274 0.819720
Si Si3 0.066296 0.472949 0.793715
Si Si4 0.241371 0.751135 0.896267
Si Si5 0.742681 0.377168 0.589627
Si Si6 0.220083 0.942592 0.547039
Si Si7 0.928671 0.967704 0.765261
Si Si8 0.290323 0.259349 0.467357
O O1 0.603633 0.495215 0.692788
O O2 0.377337 0.383820 0.475714
O O3 0.353540 0.041521 0.714532
O O4 0.591954 0.881582 0.618605
O O5 0.615067 0.176198 0.936533
O O6 0.500000 0.000000 0.000000
O O7 0.152000 0.618188 0.861286
O O8 0.194792 0.339229 0.681182
O O9 0.912748 0.434055 0.640789
O O10 0.000000 0.500000 0.000000
O O11 0.304295 0.686882 0.662584
O O12 0.119710 0.892137 0.000028
O O13 0.739290 0.237173 0.602780
O O14 0.154193 0.994273 0.399200
O O15 0.095756 0.950405 0.694437
O O16 0.848911 0.821887 0.710739
#
# Coordination Sequence:
#
# PCOD9050930 Si02
#       8
#     1   2   2   2   2   2   2   2
#     4  12  24  46  70 110 142 190 246 296 378 424
#     4  11  23  45  72 113 150 185 244 307 373 437
#     4  12  27  49  73 107 149 199 251 297 370 444
#     4  11  24  43  70 111 140 191 249 304 364 440
#     4  12  24  47  76 102 147 194 242 314 360 434
#     4  11  22  45  74 103 150 194 235 305 368 432
#     4  10  25  44  72 110 144 190 253 292 371 446
#     4  11  24  44  75 105 150 191 244 303 365 441
#
# _framework density 25.047180999999998
#
# number of rings (size 3 to 8) (size 9 to 14) (size 15 to 20)
#    0.000    0.800    5.333    1.200    1.867    3.733 
#    4.800    2.000    0.000    0.000    0.000    0.000 
#    0.000    0.000    0.000    0.000    0.000    0.000 
#
# Total GULP energy -83625.119346 kJ/mol
# GULP energy per Si atom -5575.007956 kJ/mol
# Density = 2.499017 g / cm^3
# Si number density = 25.047181 Si / 1000 Ang^3
#
#
#
# Elastic Constant Matrix: (Units=GPa)
#
#
# Indices 1 2 3 4 5 6 
#
# 1 139.5908 39.6347 39.2069 2.4522 39.9439 28.5889
# 2 39.6347 91.0245 36.7517 5.9781 15.0124 26.3289
# 3 39.2069 36.7517 84.0454 -0.3828 16.7309 16.4133
# 4 2.4522 5.9781 -0.3828 42.7017 8.6274 6.7028
# 5 39.9439 15.0124 16.7309 8.6274 48.8506 3.5346
# 6 28.5889 26.3289 16.4133 6.7028 3.5346 45.4383
#
#
#
# Elastic Compliance Matrix: (Units=1/GPa)
#
#
# Indices 1 2 3 4 5 6 
#
# 1 0.011590 -0.001419 -0.002075 0.002035 -0.008300 -0.005375
# 2 -0.001419 0.015572 -0.004655 -0.000877 -0.001427 -0.006209
# 3 -0.002075 -0.004655 0.015733 0.001676 -0.002432 -0.001738
# 4 0.002035 -0.000877 0.001676 0.025405 -0.006119 -0.004649
# 5 -0.008300 -0.001427 -0.002432 -0.006119 0.029207 0.005558
# 6 -0.005375 -0.006209 -0.001738 -0.004649 0.005558 0.029869
#
#
# Mechanical properties :
#
#
# Convention : Reuss Voigt Hill
#
# Bulk Modulus (GPa) = 37.59745 60.64970 49.12358
# Shear Modulus (GPa) = 32.77848 40.66927 36.72388
#
# Velocity S-wave (km/s) = 3.62148 4.03390 3.83324
# Velocity P-wave (km/s) = 5.70351 6.77961 6.26471
#
# Compressibility (1/GPa) = 0.02659755
#
# Stress axis : x y z
#
# Youngs Moduli (GPa) = 86.28412 64.21735 63.56071
#
# Poissons Ratio (x) = 0.09111 0.13188
# Poissons Ratio (y) = 0.12241 0.29588
# Poissons Ratio (z) = 0.17902 0.29894
#
# Static dielectric constant tensor:
#      x y z
#    x 1.648280 0.221890 0.191390 
#    y 0.221890 1.784070 -0.162400 
#    z 0.191390 -0.162400 1.976830 
# 
# From -- ./inp_files/183341.got.cif
#   From: 2010.05.17/outbox.cif.g08.bks.cpg/sg2_92_cif.got.tgz:183341.got - 2010.06.03 11:33:40.
