data_PCOD9050384
_publ_section_title
;
Structure prediction by ZEFSAII (Michael W. Deem and Ramdas Pophale) SiO2 
 PCOD9050384
Probable space group: P -1
;
_chemical_formula_sum "Si O2"
_cell_formula_units_Z 16
_cell_length_a 9.516327
_cell_length_b 5.259385
_cell_length_c 15.158920
_cell_angle_alpha 81.793873
_cell_angle_beta 97.154358
_cell_angle_gamma 75.200997
_cell_volume 715.676057
_symmetry_space_group_name_H-M "P -1"
_symmetry_group_IT_number 2
_symmetry_cell_setting 'triclinic'
loop_
_space_group_symop_operation_xyz
x,y,z
-x,-y,-z
loop_
_atom_site_type_symbol
_atom_site_label
_atom_site_fract_x
_atom_site_fract_y
_atom_site_fract_z
Si Si1 0.541204 0.251990 0.948877
Si Si2 0.410432 0.176303 0.325905
Si Si3 0.430974 0.374377 0.731258
Si Si4 0.905686 0.337771 0.290834
Si Si5 0.864487 0.025274 0.925343
Si Si6 0.122932 0.440401 0.172958
Si Si7 0.819463 0.642904 0.561825
Si Si8 0.028007 0.151276 0.581538
O O1 0.477776 0.317304 0.841012
O O2 0.715657 0.164799 0.956448
O O3 0.500000 0.500000 0.000000
O O4 0.500000 0.000000 0.000000
O O5 0.506539 0.384900 0.311005
O O6 0.264613 0.286532 0.248695
O O7 0.334532 0.200158 0.415926
O O8 0.498557 0.887589 0.309655
O O9 0.254068 0.472919 0.710993
O O10 0.970369 0.407289 0.201538
O O11 0.039849 0.345823 0.366894
O O12 0.902100 0.033885 0.322366
O O13 0.878149 0.250432 0.844241
O O14 0.857612 0.736741 0.905103
O O15 0.000000 0.000000 0.000000
O O16 0.856392 0.708561 0.461608
O O17 0.860770 0.321500 0.583571
O O18 0.000000 0.000000 0.500000
#
# Coordination Sequence:
#
# PCOD9050384 Si02
#       8
#     2   2   2   2   2   2   2   2
#     4  12  26  45  66  90 131 176 213 263 337 392
#     4  11  23  43  67  92 131 177 216 263 326 388
#     4  12  26  44  65  98 135 169 220 275 327 393
#     4  10  25  37  69  96 133 167 221 271 330 374
#     4  12  26  43  65  94 128 164 223 273 324 389
#     4  11  23  44  65  95 124 172 219 271 318 388
#     4   9  21  40  71  93 131 175 222 259 325 388
#     4   9  19  40  66 100 130 168 220 268 315 392
#
# _framework density 22.356483000000001
#
# number of rings (size 3 to 8) (size 9 to 14) (size 15 to 20)
#    0.000    1.250    2.500    1.875   14.000    0.000 
#    0.000    1.250    0.000    0.000    0.000    0.000 
#    0.000    0.000    0.000    0.000    0.000    0.000 
#
# Total GULP energy -89229.326808 kJ/mol
# GULP energy per Si atom -5576.832925 kJ/mol
# Density = 2.230560 g / cm^3
# Si number density = 22.356483 Si / 1000 Ang^3
#
#
#
# Elastic Constant Matrix: (Units=GPa)
#
#
# Indices 1 2 3 4 5 6 
#
# 1 137.0126 55.5728 33.7923 -0.7408 -22.9008 -27.9855
# 2 55.5728 133.7918 24.8524 11.7554 -24.9486 -10.7439
# 3 33.7923 24.8524 34.7835 9.4173 -26.4098 -8.9251
# 4 -0.7408 11.7554 9.4173 32.2680 -2.2605 -4.4573
# 5 -22.9008 -24.9486 -26.4098 -2.2605 35.9171 4.6521
# 6 -27.9855 -10.7439 -8.9251 -4.4573 4.6521 39.5017
#
#
#
# Elastic Compliance Matrix: (Units=1/GPa)
#
#
# Indices 1 2 3 4 5 6 
#
# 1 0.012529 -0.003662 -0.013087 0.005967 -0.004597 0.006138
# 2 -0.003662 0.010048 0.001524 -0.003882 0.005601 -0.000615
# 3 -0.013087 0.001524 0.091391 -0.023132 0.058156 0.002333
# 4 0.005967 -0.003882 -0.023132 0.038863 -0.013970 0.003976
# 5 -0.004597 0.005601 0.058156 -0.013970 0.070486 0.001529
# 6 0.006138 -0.000615 0.002333 0.003976 0.001529 0.030293
#
#
# Mechanical properties :
#
#
# Convention : Reuss Voigt Hill
#
# Bulk Modulus (GPa) = 11.97325 59.33589 35.65457
# Shear Modulus (GPa) = 16.03077 34.29539 25.16308
#
# Velocity S-wave (km/s) = 2.68069 3.92091 3.35854
# Velocity P-wave (km/s) = 3.86635 6.86269 5.56979
#
# Compressibility (1/GPa) = 0.08351954
#
# Stress axis : x y z
#
# Youngs Moduli (GPa) = 79.81356 99.51843 10.94194
#
# Poissons Ratio (x) = 0.36443 0.14319
# Poissons Ratio (y) = 0.29227 -0.01667
# Poissons Ratio (z) = 1.04449 -0.15164
#
# Static dielectric constant tensor:
#      x y z
#    x 1.869660 0.171880 -0.064080 
#    y 0.171880 2.206760 -0.032060 
#    z -0.064080 -0.032060 1.951340 
# 
# From -- ./inp_files/52434.got.cif
#   From: 2010.05.17/outbox.cif.g08.bks.cpg/sg2_27_cif.got.tgz:52434.got - 2010.06.03 11:33:40.
