data_PCOD9050280
_publ_section_title
;
Structure prediction by ZEFSAII (Michael W. Deem and Ramdas Pophale) SiO2 
 PCOD9050280
Probable space group: P -1
;
_chemical_formula_sum "Si O2"
_cell_formula_units_Z 16
_cell_length_a 8.967136
_cell_length_b 14.231138
_cell_length_c 8.508963
_cell_angle_alpha 110.420344
_cell_angle_beta 136.695381
_cell_angle_gamma 74.716546
_cell_volume 697.878483
_symmetry_space_group_name_H-M "P -1"
_symmetry_group_IT_number 2
_symmetry_cell_setting 'triclinic'
loop_
_space_group_symop_operation_xyz
x,y,z
-x,-y,-z
loop_
_atom_site_type_symbol
_atom_site_label
_atom_site_fract_x
_atom_site_fract_y
_atom_site_fract_z
Si Si1 0.757652 0.491144 0.001746
Si Si2 0.802892 0.224499 0.327336
Si Si3 0.445071 0.642285 0.011211
Si Si4 0.763064 0.748743 0.512929
Si Si5 0.960505 0.809487 0.035805
Si Si6 0.130117 0.632798 0.270418
Si Si7 0.391836 0.906558 0.279601
Si Si8 0.732583 0.008383 0.101168
O O1 0.562162 0.566872 0.937370
O O2 0.974916 0.555583 0.195101
O O3 0.760996 0.409151 0.095661
O O4 0.732043 0.432820 0.784521
O O5 0.750465 0.293517 0.476603
O O6 0.829614 0.106554 0.318284
O O7 0.028889 0.255268 0.441073
O O8 0.627062 0.258779 0.081308
O O9 0.612903 0.656200 0.293443
O O10 0.601944 0.836571 0.384016
O O11 0.833180 0.777008 0.760240
O O12 0.985150 0.710281 0.101054
O O13 0.199211 0.849662 0.190746
O O14 0.847969 0.900531 0.101524
O O15 0.500000 0.000000 0.500000
O O16 0.288109 0.949370 0.066536
O O17 0.500000 0.000000 0.000000
#
# Coordination Sequence:
#
# PCOD9050280 Si02
#       8
#     2   2   2   2   2   2   2   2
#     4  10  24  50  69 106 140 182 243 294 359 424
#     4  12  26  45  74 107 146 184 240 292 357 423
#     4  11  24  47  77 103 137 187 244 290 358 426
#     4  12  22  45  76 102 141 191 237 291 341 429
#     4  12  27  49  72 106 149 193 237 284 357 428
#     4  11  26  47  71 104 148 183 232 302 359 413
#     4  12  24  45  72 102 143 193 242 280 346 425
#     4  12  28  44  71 110 146 185 234 291 354 417
#
# _framework density 22.926628000000001
#
# number of rings (size 3 to 8) (size 9 to 14) (size 15 to 20)
#    0.000    0.500    5.000    2.625    5.250    2.500 
#    9.000    0.000    0.000    0.000    0.000    0.000 
#    0.000    0.000    0.000    0.000    0.000    0.000 
#
# Total GULP energy -89366.793479 kJ/mol
# GULP energy per Si atom -5585.424592 kJ/mol
# Density = 2.287445 g / cm^3
# Si number density = 22.926628 Si / 1000 Ang^3
#
#
#
# Elastic Constant Matrix: (Units=GPa)
#
#
# Indices 1 2 3 4 5 6 
#
# 1 83.0742 29.5173 7.6055 18.1733 1.8766 -10.2218
# 2 29.5173 101.8983 34.7456 27.6816 -6.7646 -15.9179
# 3 7.6055 34.7456 95.1600 20.1914 -13.7052 -10.2618
# 4 18.1733 27.6816 20.1914 33.8649 -7.7995 -4.5180
# 5 1.8766 -6.7646 -13.7052 -7.7995 23.5352 6.2516
# 6 -10.2218 -15.9179 -10.2618 -4.5180 6.2516 32.8114
#
#
#
# Elastic Compliance Matrix: (Units=1/GPa)
#
#
# Indices 1 2 3 4 5 6 
#
# 1 0.014947 -0.002437 0.000938 -0.007181 -0.004702 0.003675
# 2 -0.002437 0.014430 -0.003010 -0.008422 -0.001371 0.004402
# 3 0.000938 -0.003010 0.013394 -0.004704 0.004919 0.001436
# 4 -0.007181 -0.008422 -0.004704 0.045194 0.011383 -0.003740
# 5 -0.004702 -0.001371 0.004919 0.011383 0.051452 -0.008827
# 6 0.003675 0.004402 0.001436 -0.003740 -0.008827 0.035373
#
#
# Mechanical properties :
#
#
# Convention : Reuss Voigt Hill
#
# Bulk Modulus (GPa) = 29.62655 47.09661 38.36158
# Shear Modulus (GPa) = 25.63311 31.92657 28.77984
#
# Velocity S-wave (km/s) = 3.34735 3.73574 3.54687
# Velocity P-wave (km/s) = 5.28111 6.26056 5.79158
#
# Compressibility (1/GPa) = 0.03375350
#
# Stress axis : x y z
#
# Youngs Moduli (GPa) = 66.90464 69.29815 74.65890
#
# Poissons Ratio (x) = 0.16887 -0.07003
# Poissons Ratio (y) = 0.16303 0.22472
# Poissons Ratio (z) = -0.06275 0.20859
#
# Static dielectric constant tensor:
#      x y z
#    x 1.831880 -0.005790 -0.032880 
#    y -0.005790 1.804370 -0.011550 
#    z -0.032880 -0.011550 1.819930 
# 
# From -- ./inp_files/208572.got.cif
#   From: 2010.05.17/outbox.cif.g08.bks.cpg/sg2_105_cif.got.tgz:208572.got - 2010.06.03 11:33:40.
