data_PCOD9050440
_publ_section_title
;
Structure prediction by ZEFSAII (Michael W. Deem and Ramdas Pophale) SiO2 
 PCOD9050440
Probable space group: P -1
;
_chemical_formula_sum "Si O2"
_cell_formula_units_Z 16
_cell_length_a 11.940786
_cell_length_b 12.448449
_cell_length_c 5.547495
_cell_angle_alpha 86.798831
_cell_angle_beta 89.532614
_cell_angle_gamma 119.342616
_cell_volume 717.091267
_symmetry_space_group_name_H-M "P -1"
_symmetry_group_IT_number 2
_symmetry_cell_setting 'triclinic'
loop_
_space_group_symop_operation_xyz
x,y,z
-x,-y,-z
loop_
_atom_site_type_symbol
_atom_site_label
_atom_site_fract_x
_atom_site_fract_y
_atom_site_fract_z
Si Si1 0.104400 0.545545 0.199025
Si Si2 0.520013 0.131418 0.295553
Si Si3 0.607979 0.274777 0.793525
Si Si4 0.429675 0.489759 0.253714
Si Si5 0.939860 0.252250 0.660137
Si Si6 0.716925 0.045227 0.392421
Si Si7 0.147527 0.314011 0.337975
Si Si8 0.063561 0.920436 0.910703
O O1 0.243655 0.665659 0.133567
O O2 0.052906 0.615564 0.364284
O O3 0.127604 0.430130 0.252644
O O4 0.000000 0.500000 0.000000
O O5 0.577576 0.208880 0.538235
O O6 0.609529 0.067914 0.258807
O O7 0.371585 0.041308 0.379145
O O8 0.528128 0.198156 0.036047
O O9 0.591160 0.393062 0.751050
O O10 0.500000 0.500000 0.500000
O O11 0.295367 0.362448 0.285836
O O12 0.500000 0.500000 0.000000
O O13 0.832436 0.173694 0.473433
O O14 0.087131 0.283392 0.609447
O O15 0.899828 0.158744 0.895453
O O16 0.802377 0.999407 0.248840
O O17 0.052555 0.188220 0.223011
O O18 0.000000 0.000000 0.000000
#
# Coordination Sequence:
#
# PCOD9050440 Si02
#       8
#     2   2   2   2   2   2   2   2
#     4  11  21  39  71 102 137 174 225 293 364 415
#     4  11  24  44  70 106 143 180 237 292 365 424
#     4  11  25  43  69 106 138 184 236 291 354 430
#     4  11  26  48  69  98 141 186 237 292 349 425
#     4  11  22  43  68  98 139 175 232 290 357 423
#     4  10  25  41  68 100 140 189 229 299 354 426
#     4  10  25  41  68 103 129 181 231 290 352 415
#     4  11  25  46  67  98 141 187 243 289 347 431
#
# _framework density 22.312363000000001
#
# number of rings (size 3 to 8) (size 9 to 14) (size 15 to 20)
#    0.000    1.250    2.500    1.875    5.250    6.000 
#    4.500    0.000    0.000    0.000    0.000    0.000 
#    0.000    0.000    0.000    0.000    0.000    0.000 
#
# Total GULP energy -89095.086082 kJ/mol
# GULP energy per Si atom -5568.442880 kJ/mol
# Density = 2.226158 g / cm^3
# Si number density = 22.312363 Si / 1000 Ang^3
#
#
#
# Elastic Constant Matrix: (Units=GPa)
#
#
# Indices 1 2 3 4 5 6 
#
# 1 124.6829 40.2031 52.3550 2.8317 -30.7365 19.2500
# 2 40.2031 91.9584 29.7098 12.3974 -18.1299 7.2241
# 3 52.3550 29.7098 87.0445 -7.0985 -13.0467 13.5164
# 4 2.8317 12.3974 -7.0985 30.1933 -2.0470 -1.9801
# 5 -30.7365 -18.1299 -13.0467 -2.0470 42.1161 -5.7591
# 6 19.2500 7.2241 13.5164 -1.9801 -5.7591 40.9448
#
#
#
# Elastic Compliance Matrix: (Units=1/GPa)
#
#
# Indices 1 2 3 4 5 6 
#
# 1 0.013320 -0.002186 -0.005945 -0.001514 0.006443 -0.003081
# 2 -0.002186 0.014519 -0.003657 -0.006413 0.003184 -0.000189
# 3 -0.005945 -0.003657 0.017005 0.005885 -0.000629 -0.001977
# 4 -0.001514 -0.006413 0.005885 0.037391 0.000008 0.001710
# 5 0.006443 0.003184 -0.000629 0.000008 0.029732 0.000799
# 6 -0.003081 -0.000189 -0.001977 0.001710 0.000799 0.026753
#
#
# Mechanical properties :
#
#
# Convention : Reuss Voigt Hill
#
# Bulk Modulus (GPa) = 47.01939 60.91353 53.96646
# Shear Modulus (GPa) = 29.51863 34.74537 32.13200
#
# Velocity S-wave (km/s) = 3.64121 3.95045 3.79898
# Velocity P-wave (km/s) = 6.22872 6.94029 6.59411
#
# Compressibility (1/GPa) = 0.02126782
#
# Stress axis : x y z
#
# Youngs Moduli (GPa) = 75.07518 68.87580 58.80704
#
# Poissons Ratio (x) = 0.15057 0.34959
# Poissons Ratio (y) = 0.16413 0.21506
# Poissons Ratio (z) = 0.44630 0.25188
#
# Static dielectric constant tensor:
#      x y z
#    x 1.947960 -0.019410 -0.009600 
#    y -0.019410 1.819890 -0.045410 
#    z -0.009600 -0.045410 1.777650 
# 
# From -- ./inp_files/70485.got.cif
#   From: 2010.05.17/outbox.cif.g08.bks.cpg/sg2_36_cif.got.tgz:70485.got - 2010.06.03 11:33:40.
