data_PCOD9050398
_publ_section_title
;
Structure prediction by ZEFSAII (Michael W. Deem and Ramdas Pophale) SiO2 
 PCOD9050398
Probable space group: P -1
;
_chemical_formula_sum "Si O2"
_cell_formula_units_Z 14
_cell_length_a 11.650269
_cell_length_b 9.035859
_cell_length_c 10.094084
_cell_angle_alpha 118.075087
_cell_angle_beta 124.624027
_cell_angle_gamma 36.025449
_cell_volume 514.148035
_symmetry_space_group_name_H-M "P -1"
_symmetry_group_IT_number 2
_symmetry_cell_setting 'triclinic'
loop_
_space_group_symop_operation_xyz
x,y,z
-x,-y,-z
loop_
_atom_site_type_symbol
_atom_site_label
_atom_site_fract_x
_atom_site_fract_y
_atom_site_fract_z
Si Si1 0.382190 0.428691 0.594616
Si Si2 0.128248 0.144689 0.956414
Si Si3 0.700481 0.562111 0.140706
Si Si4 0.681494 0.672842 0.909229
Si Si5 0.256024 0.908547 0.661674
Si Si6 0.757751 0.173380 0.879780
Si Si7 0.030134 0.525804 0.380444
O O1 0.323169 0.454309 0.725131
O O2 0.283543 0.682825 0.567418
O O3 0.633909 0.230679 0.689492
O O4 0.266069 0.369526 0.433380
O O5 0.875819 0.366681 0.897485
O O6 0.180345 0.986273 0.796815
O O7 0.203083 0.264286 0.030975
O O8 0.266386 0.957343 0.089694
O O9 0.931743 0.444115 0.220819
O O10 0.599050 0.772545 0.049256
O O11 0.652735 0.431381 0.980813
O O12 0.488219 0.775637 0.744377
O O13 0.105965 0.181722 0.608941
O O14 0.000000 0.000000 0.000000
O O15 0.000000 0.500000 0.500000
#
# Coordination Sequence:
#
# PCOD9050398 Si02
#       7
#     2   2   2   2   2   2   2
#     4  11  23  39  63  94 122 167 212 247 314 381
#     4  11  23  36  63  99 127 159 203 267 315 360
#     4  11  20  40  61  94 125 157 210 255 305 374
#     4  11  23  37  62 102 124 156 215 260 306 377
#     4  12  21  40  68  87 125 169 208 259 315 359
#     4  12  22  38  65  93 128 158 205 265 311 361
#     4  10  25  40  62  89 126 165 212 253 312 380
#
# _framework density 27.229513000000001
#
# number of rings (size 3 to 8) (size 9 to 14) (size 15 to 20)
#    0.000    0.857    5.714    2.143    4.000    0.000 
#    0.000    0.714    6.286    2.571    0.000    0.000 
#    0.000    0.000    0.000    0.000    0.000    0.000 
#
# Total GULP energy -78003.107456 kJ/mol
# GULP energy per Si atom -5571.650533 kJ/mol
# Density = 2.716754 g / cm^3
# Si number density = 27.229513 Si / 1000 Ang^3
#
#
#
# Elastic Constant Matrix: (Units=GPa)
#
#
# Indices 1 2 3 4 5 6 
#
# 1 116.8173 32.5400 17.8090 -6.0431 30.2944 6.7390
# 2 32.5400 100.9560 14.7463 -30.7222 1.8461 9.4356
# 3 17.8090 14.7463 51.0855 -13.8400 30.4056 -16.7469
# 4 -6.0431 -30.7222 -13.8400 32.3182 2.0955 2.8958
# 5 30.2944 1.8461 30.4056 2.0955 55.1279 -16.5336
# 6 6.7390 9.4356 -16.7469 2.8958 -16.5336 47.1806
#
#
#
# Elastic Compliance Matrix: (Units=1/GPa)
#
#
# Indices 1 2 3 4 5 6 
#
# 1 0.011575 -0.003334 0.000108 -0.000167 -0.007357 -0.003516
# 2 -0.003334 0.015852 -0.000772 0.014458 0.000024 -0.003847
# 3 0.000108 -0.000772 0.037798 0.016255 -0.019815 0.005614
# 4 -0.000167 0.014458 0.016255 0.052881 -0.012818 -0.004835
# 5 -0.007357 0.000024 -0.019815 -0.012818 0.035801 0.007345
# 6 -0.003516 -0.003847 0.005614 -0.004835 0.007345 0.027330
#
#
# Mechanical properties :
#
#
# Convention : Reuss Voigt Hill
#
# Bulk Modulus (GPa) = 17.47356 44.33882 30.90619
# Shear Modulus (GPa) = 24.00303 40.50956 32.25630
#
# Velocity S-wave (km/s) = 2.97224 3.86127 3.44555
# Velocity P-wave (km/s) = 4.26732 6.01647 5.21574
#
# Compressibility (1/GPa) = 0.05722934
#
# Stress axis : x y z
#
# Youngs Moduli (GPa) = 86.39554 63.08542 26.45646
#
# Poissons Ratio (x) = 0.21034 -0.00287
# Poissons Ratio (y) = 0.28806 0.02041
# Poissons Ratio (z) = -0.00936 0.04867
#
# Static dielectric constant tensor:
#      x y z
#    x 2.357690 -0.094350 -0.032380 
#    y -0.094350 2.340390 -0.102340 
#    z -0.032380 -0.102340 2.239540 
# 
# From -- ./inp_files/220158.got.cif
#   From: 2010.05.17/outbox.cif.g08.bks.cpg/sg2_111_cif.got.tgz:220158.got - 2010.06.03 11:33:40.
