data_PCOD9050156
_publ_section_title
;
Structure prediction by ZEFSAII (Michael W. Deem and Ramdas Pophale) SiO2 
 PCOD9050156
Probable space group: P -1
;
_chemical_formula_sum "Si O2"
_cell_formula_units_Z 16
_cell_length_a 9.177110
_cell_length_b 18.221831
_cell_length_c 5.798391
_cell_angle_alpha 114.380293
_cell_angle_beta 127.833734
_cell_angle_gamma 56.678726
_cell_volume 635.670939
_symmetry_space_group_name_H-M "P -1"
_symmetry_group_IT_number 2
_symmetry_cell_setting 'triclinic'
loop_
_space_group_symop_operation_xyz
x,y,z
-x,-y,-z
loop_
_atom_site_type_symbol
_atom_site_label
_atom_site_fract_x
_atom_site_fract_y
_atom_site_fract_z
Si Si1 0.317396 0.306677 0.249695
Si Si2 0.449012 0.914077 0.817368
Si Si3 0.958794 0.419510 0.258447
Si Si4 0.228189 0.817824 0.351304
Si Si5 0.401572 0.105468 0.560427
Si Si6 0.656672 0.537794 0.789588
Si Si7 0.956484 0.775519 0.359958
Si Si8 0.302461 0.668970 0.869289
O O1 0.553769 0.244375 0.401541
O O2 0.303972 0.401353 0.279817
O O3 0.170439 0.333664 0.363629
O O4 0.191404 0.269676 0.916100
O O5 0.239086 0.912590 0.519624
O O6 0.579281 0.865212 0.646813
O O7 0.482025 0.882384 0.079094
O O8 0.500000 0.000000 0.000000
O O9 0.792914 0.390193 0.169220
O O10 0.000000 0.500000 0.500000
O O11 0.857816 0.457942 0.964203
O O12 0.027965 0.819621 0.278683
O O13 0.261804 0.761122 0.077066
O O14 0.169539 0.152171 0.478610
O O15 0.500000 0.000000 0.500000
O O16 0.500000 0.500000 0.500000
O O17 0.534747 0.607064 0.963429
O O18 0.166586 0.701418 0.553415
#
# Coordination Sequence:
#
# PCOD9050156 Si02
#       8
#     2   2   2   2   2   2   2   2
#     4  12  24  45  70  98 146 189 250 305 373 445
#     4  10  24  48  80 111 151 197 242 302 383 450
#     4  12  24  42  65  99 140 190 245 305 377 441
#     4  12  26  46  73 108 150 189 253 313 371 453
#     4  10  24  48  80 111 151 196 244 304 377 454
#     4  12  24  44  67  99 144 188 247 315 375 444
#     4  12  26  46  73 108 148 191 254 302 379 452
#     4  12  26  43  70 110 140 191 256 309 374 451
#
# _framework density 25.170252999999999
#
# number of rings (size 3 to 8) (size 9 to 14) (size 15 to 20)
#    0.000    0.500    3.750    4.500    7.000    0.000 
#    0.000    5.000    0.000    0.000    0.000    0.000 
#    0.000    0.000    0.000    0.000    0.000    0.000 
#
# Total GULP energy -89192.537540 kJ/mol
# GULP energy per Si atom -5574.533596 kJ/mol
# Density = 2.511296 g / cm^3
# Si number density = 25.170253 Si / 1000 Ang^3
#
#
#
# Elastic Constant Matrix: (Units=GPa)
#
#
# Indices 1 2 3 4 5 6 
#
# 1 96.9489 7.3362 15.6506 0.3846 -5.2357 -18.7178
# 2 7.3362 64.6021 19.7482 17.9627 8.4575 -15.6843
# 3 15.6506 19.7482 145.4117 24.5105 12.3713 0.9182
# 4 0.3846 17.9627 24.5105 39.3109 -3.9593 0.7606
# 5 -5.2357 8.4575 12.3713 -3.9593 45.1967 10.4896
# 6 -18.7178 -15.6843 0.9182 0.7606 10.4896 40.0593
#
#
#
# Elastic Compliance Matrix: (Units=1/GPa)
#
#
# Indices 1 2 3 4 5 6 
#
# 1 0.011601 0.000183 -0.001464 0.000664 0.000521 0.005377
# 2 0.000183 0.022291 -0.000673 -0.010731 -0.007455 0.010984
# 3 -0.001464 -0.000673 0.008206 -0.005055 -0.002652 -0.000345
# 4 0.000664 -0.010731 -0.005055 0.034419 0.007998 -0.006523
# 5 0.000521 -0.007455 -0.002652 0.007998 0.027309 -0.009918
# 6 0.005377 0.010984 -0.000345 -0.006523 -0.009918 0.034505
#
#
# Mechanical properties :
#
#
# Convention : Reuss Voigt Hill
#
# Bulk Modulus (GPa) = 26.18550 43.60363 34.89457
# Shear Modulus (GPa) = 32.26472 42.52856 37.39664
#
# Velocity S-wave (km/s) = 3.58419 4.11498 3.85872
# Velocity P-wave (km/s) = 5.24924 6.31969 5.80917
#
# Compressibility (1/GPa) = 0.03818907
#
# Stress axis : x y z
#
# Youngs Moduli (GPa) = 86.20180 44.86120 121.86397
#
# Poissons Ratio (x) = -0.00819 0.17835
# Poissons Ratio (y) = -0.01574 0.08204
# Poissons Ratio (z) = 0.12616 0.03020
#
# Static dielectric constant tensor:
#      x y z
#    x 2.127410 0.105630 -0.046220 
#    y 0.105630 2.239960 0.086770 
#    z -0.046220 0.086770 2.077360 
# 
# From -- ./inp_files/48054.got.cif
#   From: 2010.05.17/outbox.cif.g08.bks.cpg/sg2_25_cif.got.tgz:48054.got - 2010.06.03 11:33:40.
