data_PCOD9050806
_publ_section_title
;
Structure prediction by ZEFSAII (Michael W. Deem and Ramdas Pophale) SiO2 
 PCOD9050806
Probable space group: P -1
;
_chemical_formula_sum "Si O2"
_cell_formula_units_Z 16
_cell_length_a 14.120254
_cell_length_b 9.655643
_cell_length_c 11.936743
_cell_angle_alpha 115.350732
_cell_angle_beta 52.056139
_cell_angle_gamma 71.897458
_cell_volume 687.473544
_symmetry_space_group_name_H-M "P -1"
_symmetry_group_IT_number 2
_symmetry_cell_setting 'triclinic'
loop_
_space_group_symop_operation_xyz
x,y,z
-x,-y,-z
loop_
_atom_site_type_symbol
_atom_site_label
_atom_site_fract_x
_atom_site_fract_y
_atom_site_fract_z
Si Si1 0.131248 0.156186 0.201007
Si Si2 0.940429 0.722908 0.284561
Si Si3 0.532971 0.292639 0.373530
Si Si4 0.796081 0.567239 0.423448
Si Si5 0.644068 0.549986 0.035386
Si Si6 0.180569 0.933214 0.318971
Si Si7 0.411932 0.136010 0.989839
Si Si8 0.630784 0.022389 0.429439
O O1 0.912165 0.375083 0.377973
O O2 0.131437 0.087414 0.300751
O O3 0.202686 0.259011 0.183291
O O4 0.312975 0.886864 0.905490
O O5 0.946372 0.541052 0.258334
O O6 0.151727 0.590993 0.103871
O O7 0.801823 0.969954 0.555448
O O8 0.849309 0.796363 0.252411
O O9 0.500000 0.500000 0.500000
O O10 0.303507 0.464503 0.586150
O O11 0.636610 0.095460 0.331064
O O12 0.588648 0.877731 0.698042
O O13 0.648402 0.364465 0.943857
O O14 0.623767 0.662763 0.970710
O O15 0.487173 0.754907 0.316421
O O16 0.000000 0.000000 0.500000
O O17 0.500000 0.000000 0.000000
O O18 0.500000 0.000000 0.500000
#
# Coordination Sequence:
#
# PCOD9050806 Si02
#       8
#     2   2   2   2   2   2   2   2
#     4  11  24  45  71  97 137 181 225 278 346 408
#     4  11  23  43  69 102 137 183 222 278 348 405
#     4  11  26  46  67 102 133 177 237 289 338 399
#     4  11  23  42  69  98 134 177 231 275 339 406
#     4  11  24  44  66 103 141 175 230 282 343 405
#     4  10  25  44  68 105 140 175 222 279 349 419
#     4  11  23  39  66 100 132 178 221 269 331 406
#     4  12  24  44  70  98 136 178 239 280 331 405
#
# _framework density 23.273623000000001
#
# number of rings (size 3 to 8) (size 9 to 14) (size 15 to 20)
#    0.000    1.000    3.750    2.250    3.500    5.500 
#    2.250    0.000    0.000    0.000    0.000    0.000 
#    0.000    0.000    0.000    0.000    0.000    0.000 
#
# Total GULP energy -89312.310553 kJ/mol
# GULP energy per Si atom -5582.019410 kJ/mol
# Density = 2.322065 g / cm^3
# Si number density = 23.273623 Si / 1000 Ang^3
#
#
#
# Elastic Constant Matrix: (Units=GPa)
#
#
# Indices 1 2 3 4 5 6 
#
# 1 144.4964 42.9436 12.8532 6.3949 -15.4758 -13.5028
# 2 42.9436 101.2648 5.5441 0.1087 -6.7858 -11.9285
# 3 12.8532 5.5441 60.2200 0.8635 6.1690 1.1387
# 4 6.3949 0.1087 0.8635 32.7393 -1.0008 2.9516
# 5 -15.4758 -6.7858 6.1690 -1.0008 38.6684 10.7492
# 6 -13.5028 -11.9285 1.1387 2.9516 10.7492 52.5723
#
#
#
# Elastic Compliance Matrix: (Units=1/GPa)
#
#
# Indices 1 2 3 4 5 6 
#
# 1 0.008497 -0.003196 -0.001803 -0.001607 0.002804 0.001013
# 2 -0.003196 0.011477 -0.000449 0.000456 0.000347 0.001697
# 3 -0.001803 -0.000449 0.017399 -0.000194 -0.003523 -0.000211
# 4 -0.001607 0.000456 -0.000194 0.031091 0.000893 -0.002233
# 5 0.002804 0.000347 -0.003523 0.000893 0.029051 -0.005115
# 6 0.001013 0.001697 -0.000211 -0.002233 -0.005115 0.020842
#
#
# Mechanical properties :
#
#
# Convention : Reuss Voigt Hill
#
# Bulk Modulus (GPa) = 37.76492 47.62925 42.69709
# Shear Modulus (GPa) = 36.21136 41.10534 38.65835
#
# Velocity S-wave (km/s) = 3.94877 4.20715 4.08000
# Velocity P-wave (km/s) = 6.08704 6.64150 6.37030
#
# Compressibility (1/GPa) = 0.02647960
#
# Stress axis : x y z
#
# Youngs Moduli (GPa) = 117.69153 87.12743 57.47303
#
# Poissons Ratio (x) = 0.27842 0.10361
# Poissons Ratio (y) = 0.37609 0.02579
# Poissons Ratio (z) = 0.21216 0.03910
#
# Static dielectric constant tensor:
#      x y z
#    x 1.884080 -0.018920 -0.053730 
#    y -0.018920 1.857480 0.003040 
#    z -0.053730 0.003040 1.782120 
# 
# From -- ./inp_files/447781.got.cif
#   From: 2010.05.17/outbox.cif.g08.bks.cpg/sg2_224_cif.got.tgz:447781.got - 2010.06.03 11:33:40.
