data_PCOD9050469
_publ_section_title
;
Structure prediction by ZEFSAII (Michael W. Deem and Ramdas Pophale) SiO2 
 PCOD9050469
Probable space group: P -1
;
_chemical_formula_sum "Si O2"
_cell_formula_units_Z 14
_cell_length_a 11.507131
_cell_length_b 9.592537
_cell_length_c 11.341299
_cell_angle_alpha 58.701058
_cell_angle_beta 120.915163
_cell_angle_gamma 141.352062
_cell_volume 654.225162
_symmetry_space_group_name_H-M "P -1"
_symmetry_group_IT_number 2
_symmetry_cell_setting 'triclinic'
loop_
_space_group_symop_operation_xyz
x,y,z
-x,-y,-z
loop_
_atom_site_type_symbol
_atom_site_label
_atom_site_fract_x
_atom_site_fract_y
_atom_site_fract_z
Si Si1 0.279210 0.630334 0.828187
Si Si2 0.467183 0.909451 0.153621
Si Si3 0.093311 0.801253 0.560076
Si Si4 0.396972 0.327004 0.407720
Si Si5 0.827109 0.562414 0.875759
Si Si6 0.159928 0.971171 0.752475
Si Si7 0.244499 0.405654 0.680502
O O1 0.151695 0.672612 0.694833
O O2 0.272957 0.482064 0.795845
O O3 0.483845 0.895387 0.826071
O O4 0.220799 0.522337 0.976373
O O5 0.267953 0.652317 0.165368
O O6 0.639045 0.923018 0.238617
O O7 0.500000 0.000000 0.000000
O O8 0.026889 0.845702 0.622561
O O9 0.928776 0.646256 0.447459
O O10 0.260481 0.058496 0.483410
O O11 0.500000 0.500000 0.500000
O O12 0.275449 0.357111 0.255916
O O13 0.566500 0.407374 0.378335
O O14 0.050905 0.767267 0.879064
O O15 0.191075 0.171656 0.736844
#
# Coordination Sequence:
#
# PCOD9050469 Si02
#       7
#     2   2   2   2   2   2   2
#     4  10  25  42  62  95 139 163 203 270 327 374
#     4   9  20  41  60  90 126 162 207 258 305 376
#     4  11  23  43  63  95 127 167 218 265 308 379
#     4  12  22  40  70  95 120 166 223 265 302 376
#     4  11  22  42  68  96 125 168 217 261 312 380
#     4  11  21  39  70  94 118 169 221 255 312 376
#     4  12  23  41  67  95 128 169 213 262 323 374
#
# _framework density 21.399360999999999
#
# number of rings (size 3 to 8) (size 9 to 14) (size 15 to 20)
#    0.000    1.143    4.286    2.571    0.000    6.857 
#    0.000    4.286    0.000    0.000    0.000    0.000 
#    0.000    0.000    0.000    0.000    0.000    0.000 
#
# Total GULP energy -78112.105581 kJ/mol
# GULP energy per Si atom -5579.436113 kJ/mol
# Density = 2.135066 g / cm^3
# Si number density = 21.399361 Si / 1000 Ang^3
#
#
#
# Elastic Constant Matrix: (Units=GPa)
#
#
# Indices 1 2 3 4 5 6 
#
# 1 51.2976 45.7713 21.5176 0.2567 -21.5961 1.1662
# 2 45.7713 96.5577 39.4186 -4.9362 -23.8496 -0.7506
# 3 21.5176 39.4186 104.0327 -6.6775 -4.0084 7.7603
# 4 0.2567 -4.9362 -6.6775 36.9420 -3.1848 -14.9373
# 5 -21.5961 -23.8496 -4.0084 -3.1848 34.8062 4.7514
# 6 1.1662 -0.7506 7.7603 -14.9373 4.7514 40.3075
#
#
#
# Elastic Compliance Matrix: (Units=1/GPa)
#
#
# Indices 1 2 3 4 5 6 
#
# 1 0.039508 -0.014462 -0.002027 -0.002850 0.014629 -0.003803
# 2 -0.014462 0.020333 -0.004506 0.003348 0.004421 0.002384
# 3 -0.002027 -0.004506 0.011805 0.000603 -0.002691 -0.001757
# 4 -0.002850 0.003348 0.000603 0.032621 0.001958 0.011887
# 5 0.014629 0.004421 -0.002691 0.001958 0.041246 -0.003959
# 6 -0.003803 0.002384 -0.001757 0.011887 -0.003959 0.030174
#
#
# Mechanical properties :
#
#
# Convention : Reuss Voigt Hill
#
# Bulk Modulus (GPa) = 33.72050 51.70034 42.71042
# Shear Modulus (GPa) = 21.97190 32.08984 27.03087
#
# Velocity S-wave (km/s) = 3.20778 3.87663 3.55796
# Velocity P-wave (km/s) = 5.43247 6.65206 6.07296
#
# Compressibility (1/GPa) = 0.02965555
#
# Stress axis : x y z
#
# Youngs Moduli (GPa) = 25.31117 49.18065 84.70952
#
# Poissons Ratio (x) = 0.71127 0.17174
# Poissons Ratio (y) = 0.36606 0.38167
# Poissons Ratio (z) = 0.05132 0.22159
#
# Static dielectric constant tensor:
#      x y z
#    x 1.786280 0.026430 0.067480 
#    y 0.026430 1.813650 0.026120 
#    z 0.067480 0.026120 1.913200 
# 
# From -- ./inp_files/281464.got.cif
#   From: 2010.05.17/outbox.cif.g08.bks.cpg/sg2_141_cif.got.tgz:281464.got - 2010.06.03 11:33:40.
