data_PCOD9050446
_publ_section_title
;
Structure prediction by ZEFSAII (Michael W. Deem and Ramdas Pophale) SiO2 
 PCOD9050446
Probable space group: P -1
;
_chemical_formula_sum "Si O2"
_cell_formula_units_Z 16
_cell_length_a 18.816150
_cell_length_b 11.835796
_cell_length_c 9.430897
_cell_angle_alpha 128.326976
_cell_angle_beta 48.506634
_cell_angle_gamma 155.777665
_cell_volume 644.577836
_symmetry_space_group_name_H-M "P -1"
_symmetry_group_IT_number 2
_symmetry_cell_setting 'triclinic'
loop_
_space_group_symop_operation_xyz
x,y,z
-x,-y,-z
loop_
_atom_site_type_symbol
_atom_site_label
_atom_site_fract_x
_atom_site_fract_y
_atom_site_fract_z
Si Si1 0.260467 0.850172 0.696893
Si Si2 0.669927 0.638088 0.317792
Si Si3 0.163441 0.051131 0.946499
Si Si4 0.749126 0.436407 0.993625
Si Si5 0.117829 0.671916 0.120733
Si Si6 0.437261 0.854047 0.285156
Si Si7 0.789875 0.669588 0.641459
Si Si8 0.833150 0.954836 0.606253
O O1 0.377996 0.934557 0.480686
O O2 0.052682 0.530861 0.702108
O O3 0.248273 0.006439 0.840174
O O4 0.355759 0.911268 0.761052
O O5 0.500000 0.500000 0.500000
O O6 0.714386 0.721745 0.160577
O O7 0.827921 0.916739 0.417350
O O8 0.661991 0.456951 0.208423
O O9 0.153713 0.142862 0.165575
O O10 0.957362 0.756053 0.936232
O O11 0.771987 0.322424 0.966818
O O12 0.634437 0.261000 0.867198
O O13 0.222835 0.958248 0.209168
O O14 0.000000 0.500000 0.000000
O O15 0.333417 0.605544 0.331559
O O16 0.955702 0.800861 0.447413
O O17 0.715606 0.680772 0.627304
#
# Coordination Sequence:
#
# PCOD9050446 Si02
#       8
#     2   2   2   2   2   2   2   2
#     4  10  25  41  69 101 139 181 232 286 349 412
#     4  12  27  43  67 109 144 175 232 299 356 406
#     4  11  23  45  72 101 137 187 237 284 345 431
#     4  11  24  45  76  99 136 189 236 285 345 425
#     4  11  25  46  70  99 141 185 235 282 343 423
#     4  11  23  44  68 103 137 181 235 290 347 415
#     4  11  22  42  76  96 138 183 234 284 347 416
#     4  11  24  42  69 108 134 183 232 290 343 416
#
# _framework density 24.822448999999999
#
# number of rings (size 3 to 8) (size 9 to 14) (size 15 to 20)
#    0.000    1.000    3.750    2.625    5.250    3.500 
#    2.250    1.250    0.000    0.000    0.000    0.000 
#    0.000    0.000    0.000    0.000    0.000    0.000 
#
# Total GULP energy -89548.982687 kJ/mol
# GULP energy per Si atom -5596.811418 kJ/mol
# Density = 2.476595 g / cm^3
# Si number density = 24.822449 Si / 1000 Ang^3
#
#
#
# Elastic Constant Matrix: (Units=GPa)
#
#
# Indices 1 2 3 4 5 6 
#
# 1 136.3018 33.1356 73.3458 -1.6617 -28.4177 -2.3831
# 2 33.1356 59.6337 22.2889 -8.5513 -9.8204 2.0886
# 3 73.3458 22.2889 151.8059 16.5377 -22.6499 5.7364
# 4 -1.6617 -8.5513 16.5377 40.0201 1.3602 -0.7325
# 5 -28.4177 -9.8204 -22.6499 1.3602 57.5034 2.3740
# 6 -2.3831 2.0886 5.7364 -0.7325 2.3740 40.4618
#
#
#
# Elastic Compliance Matrix: (Units=1/GPa)
#
#
# Indices 1 2 3 4 5 6 
#
# 1 0.011540 -0.003962 -0.004756 0.001520 0.003059 0.001407
# 2 -0.003962 0.020361 -0.001417 0.004722 0.000893 -0.001050
# 3 -0.004756 -0.001417 0.009891 -0.004671 0.001488 -0.001781
# 4 0.001520 0.004722 -0.004671 0.028043 -0.000990 0.001074
# 5 0.003059 0.000893 0.001488 -0.000990 0.019716 -0.001252
# 6 0.001407 -0.001050 -0.001781 0.001074 -0.001252 0.025197
#
#
# Mechanical properties :
#
#
# Convention : Reuss Voigt Hill
#
# Bulk Modulus (GPa) = 46.46297 67.25356 56.85826
# Shear Modulus (GPa) = 35.16351 42.19512 38.67932
#
# Velocity S-wave (km/s) = 3.76786 4.12743 3.95174
# Velocity P-wave (km/s) = 6.13904 7.06165 6.61644
#
# Compressibility (1/GPa) = 0.02152252
#
# Stress axis : x y z
#
# Youngs Moduli (GPa) = 86.65374 49.11330 101.09696
#
# Poissons Ratio (x) = 0.19460 0.48084
# Poissons Ratio (y) = 0.34334 0.14322
# Poissons Ratio (z) = 0.41215 0.06958
#
# Static dielectric constant tensor:
#      x y z
#    x 2.010360 0.055170 -0.011300 
#    y 0.055170 2.066990 -0.044560 
#    z -0.011300 -0.044560 1.945920 
# 
# From -- ./inp_files/333717.got.cif
#   From: 2010.05.17/outbox.cif.g08.bks.cpg/sg2_167_cif.got.tgz:333717.got - 2010.06.03 11:33:40.
