data_PCOD9050883
_publ_section_title
;
Structure prediction by ZEFSAII (Michael W. Deem and Ramdas Pophale) SiO2 
 PCOD9050883
Probable space group: P -1
;
_chemical_formula_sum "Si O2"
_cell_formula_units_Z 16
_cell_length_a 9.113562
_cell_length_b 6.864948
_cell_length_c 13.755347
_cell_angle_alpha 108.264850
_cell_angle_beta 100.805384
_cell_angle_gamma 111.273379
_cell_volume 716.079796
_symmetry_space_group_name_H-M "P -1"
_symmetry_group_IT_number 2
_symmetry_cell_setting 'triclinic'
loop_
_space_group_symop_operation_xyz
x,y,z
-x,-y,-z
loop_
_atom_site_type_symbol
_atom_site_label
_atom_site_fract_x
_atom_site_fract_y
_atom_site_fract_z
Si Si1 0.105635 0.593049 0.428628
Si Si2 0.404282 0.634046 0.224720
Si Si3 0.720951 0.892252 0.427785
Si Si4 0.799792 0.897675 0.957435
Si Si5 0.771782 0.070918 0.786102
Si Si6 0.087043 0.253245 0.723699
Si Si7 0.360184 0.286317 0.895353
Si Si8 0.680888 0.668575 0.586980
O O1 0.199792 0.444330 0.385500
O O2 0.000000 0.500000 0.500000
O O3 0.984055 0.611967 0.333440
O O4 0.249330 0.848989 0.512330
O O5 0.533607 0.711011 0.342925
O O6 0.301622 0.366129 0.138485
O O7 0.535510 0.781673 0.178876
O O8 0.275313 0.738669 0.231540
O O9 0.850496 0.886469 0.363155
O O10 0.764028 0.820861 0.525517
O O11 0.768576 0.056308 0.899393
O O12 0.740725 0.890378 0.060025
O O13 0.000000 0.000000 0.000000
O O14 0.654034 0.822323 0.689631
O O15 0.947074 0.117047 0.765444
O O16 0.249993 0.376371 0.831716
O O17 0.500000 0.500000 0.000000
O O18 0.500000 0.500000 0.500000
#
# Coordination Sequence:
#
# PCOD9050883 Si02
#       8
#     2   2   2   2   2   2   2   2
#     4  12  24  42  69 100 136 188 231 275 342 407
#     4  10  25  44  70  98 137 183 220 283 353 406
#     4  11  23  45  65  97 147 180 230 281 338 414
#     4  11  23  45  72  99 132 171 232 291 345 411
#     4  12  25  41  66 103 134 175 231 278 342 405
#     4  11  22  42  68  98 137 178 224 286 341 405
#     4   9  21  47  71  94 133 177 220 286 349 403
#     4  12  26  41  66  98 140 186 228 278 337 410
#
# _framework density 22.343879999999999
#
# number of rings (size 3 to 8) (size 9 to 14) (size 15 to 20)
#    0.000    1.000    3.750    2.625    3.500    2.000 
#    2.250    0.000    0.000    0.000    0.000    0.000 
#    0.000    0.000    0.000    0.000    0.000    0.000 
#
# Total GULP energy -89308.875906 kJ/mol
# GULP energy per Si atom -5581.804744 kJ/mol
# Density = 2.229302 g / cm^3
# Si number density = 22.343880 Si / 1000 Ang^3
#
#
#
# Elastic Constant Matrix: (Units=GPa)
#
#
# Indices 1 2 3 4 5 6 
#
# 1 57.3567 9.1807 14.0020 -4.9887 3.4028 10.0894
# 2 9.1807 67.5781 20.0339 -12.1316 2.1459 -0.3780
# 3 14.0020 20.0339 109.8375 -26.8758 15.2991 2.3284
# 4 -4.9887 -12.1316 -26.8758 37.5724 10.2854 -3.4162
# 5 3.4028 2.1459 15.2991 10.2854 42.2058 -2.8148
# 6 10.0894 -0.3780 2.3284 -3.4162 -2.8148 41.4927
#
#
#
# Elastic Compliance Matrix: (Units=1/GPa)
#
#
# Indices 1 2 3 4 5 6 
#
# 1 0.019095 -0.001974 -0.001627 0.000678 -0.001322 -0.004604
# 2 -0.001974 0.016336 -0.001546 0.004296 -0.001092 0.000995
# 3 -0.001627 -0.001546 0.013214 0.010708 -0.007187 0.000034
# 4 0.000678 0.004296 0.010708 0.039651 -0.013710 0.001608
# 5 -0.001322 -0.001092 -0.007187 -0.013710 0.029910 0.001615
# 6 -0.004604 0.000995 0.000034 0.001608 0.001615 0.025469
#
#
# Mechanical properties :
#
#
# Convention : Reuss Voigt Hill
#
# Bulk Modulus (GPa) = 26.07440 35.68951 30.88195
# Shear Modulus (GPa) = 29.98477 37.02455 33.50466
#
# Velocity S-wave (km/s) = 3.66726 4.07508 3.87654
# Velocity P-wave (km/s) = 5.44304 6.17651 5.82134
#
# Compressibility (1/GPa) = 0.03835180
#
# Stress axis : x y z
#
# Youngs Moduli (GPa) = 52.36977 61.21605 75.67667
#
# Poissons Ratio (x) = 0.12084 0.12310
# Poissons Ratio (y) = 0.10338 0.11698
# Poissons Ratio (z) = 0.08519 0.09462
#
# Static dielectric constant tensor:
#      x y z
#    x 1.832310 0.064920 -0.018010 
#    y 0.064920 1.874220 -0.050690 
#    z -0.018010 -0.050690 1.914630 
# 
# From -- ./inp_files/282975.got.cif
#   From: 2010.05.17/outbox.cif.g08.bks.cpg/sg2_142_cif.got.tgz:282975.got - 2010.06.03 11:33:40.
