data_PCOD9050890
_publ_section_title
;
Structure prediction by ZEFSAII (Michael W. Deem and Ramdas Pophale) SiO2 
 PCOD9050890
Probable space group: P -1
;
_chemical_formula_sum "Si O2"
_cell_formula_units_Z 16
_cell_length_a 12.395622
_cell_length_b 17.086923
_cell_length_c 9.132893
_cell_angle_alpha 31.206481
_cell_angle_beta 126.607233
_cell_angle_gamma 136.250922
_cell_volume 691.802205
_symmetry_space_group_name_H-M "P -1"
_symmetry_group_IT_number 2
_symmetry_cell_setting 'triclinic'
loop_
_space_group_symop_operation_xyz
x,y,z
-x,-y,-z
loop_
_atom_site_type_symbol
_atom_site_label
_atom_site_fract_x
_atom_site_fract_y
_atom_site_fract_z
Si Si1 0.802964 0.334456 0.238428
Si Si2 0.443974 0.886124 0.368757
Si Si3 0.844191 0.909230 0.119088
Si Si4 0.258881 0.016174 0.358176
Si Si5 0.367936 0.753555 0.212660
Si Si6 0.961407 0.890100 0.790208
Si Si7 0.979795 0.390759 0.805398
Si Si8 0.334750 0.493786 0.363916
O O1 0.708985 0.221772 0.485284
O O2 0.956386 0.494456 0.179350
O O3 0.827053 0.195548 0.386460
O O4 0.703694 0.400974 0.959061
O O5 0.580073 0.920159 0.534721
O O6 0.428514 0.770994 0.398379
O O7 0.500836 0.078494 0.039144
O O8 0.792762 0.710979 0.430758
O O9 0.889916 0.026503 0.112995
O O10 0.719216 0.908795 0.908376
O O11 0.000000 0.000000 0.000000
O O12 0.166882 0.088073 0.261418
O O13 0.203983 0.750552 0.095523
O O14 0.324661 0.576691 0.376617
O O15 0.921772 0.701126 0.006975
O O16 0.000000 0.000000 0.500000
O O17 0.000000 0.500000 0.500000
O O18 0.500000 0.500000 0.500000
#
# Coordination Sequence:
#
# PCOD9050890 Si02
#       8
#     2   2   2   2   2   2   2   2
#     4  12  26  47  80 107 147 196 246 307 365 441
#     4  11  24  47  73 105 142 198 238 300 369 441
#     4  10  25  44  71 103 149 192 239 302 366 430
#     4  11  24  45  74 107 143 196 248 296 367 444
#     4  11  27  45  74 106 149 188 244 305 365 433
#     4  11  25  45  70 108 145 197 238 303 369 435
#     4  12  26  47  74 111 144 187 250 303 363 428
#     4  12  28  47  70 113 147 191 246 307 367 437
#
# _framework density 23.127994999999999
#
# number of rings (size 3 to 8) (size 9 to 14) (size 15 to 20)
#    0.000    0.750    2.500    3.375    8.750    4.500 
#    0.000    1.875    0.000    0.000    0.000    0.000 
#    0.000    0.000    0.000    0.000    0.000    0.000 
#
# Total GULP energy -89489.306427 kJ/mol
# GULP energy per Si atom -5593.081652 kJ/mol
# Density = 2.307535 g / cm^3
# Si number density = 23.127995 Si / 1000 Ang^3
#
#
#
# Elastic Constant Matrix: (Units=GPa)
#
#
# Indices 1 2 3 4 5 6 
#
# 1 66.1879 4.6742 14.0115 -11.0036 3.4046 -8.0844
# 2 4.6742 114.9439 -8.2585 10.4000 3.7383 -8.9986
# 3 14.0115 -8.2585 86.4832 2.8621 4.6829 6.1471
# 4 -11.0036 10.4000 2.8621 48.0772 -4.8686 -2.4316
# 5 3.4046 3.7383 4.6829 -4.8686 38.7381 -8.1266
# 6 -8.0844 -8.9986 6.1471 -2.4316 -8.1266 30.6588
#
#
#
# Elastic Compliance Matrix: (Units=1/GPa)
#
#
# Indices 1 2 3 4 5 6 
#
# 1 0.017348 -0.000975 -0.003498 0.004748 0.000757 0.005567
# 2 -0.000975 0.009188 0.001024 -0.002262 -0.000824 0.001837
# 3 -0.003498 0.001024 0.012718 -0.002229 -0.002448 -0.003997
# 4 0.004748 -0.002262 -0.002229 0.023087 0.003784 0.003869
# 5 0.000757 -0.000824 -0.002448 0.003784 0.028331 0.008258
# 6 0.005567 0.001837 -0.003997 0.003869 0.008258 0.037921
#
#
# Mechanical properties :
#
#
# Convention : Reuss Voigt Hill
#
# Bulk Modulus (GPa) = 30.90456 32.05216 31.47836
# Shear Modulus (GPa) = 34.18178 40.64068 37.41123
#
# Velocity S-wave (km/s) = 3.84857 4.19645 4.02627
# Velocity P-wave (km/s) = 5.75674 6.11302 5.93755
#
# Compressibility (1/GPa) = 0.03235768
#
# Stress axis : x y z
#
# Youngs Moduli (GPa) = 57.64331 108.83275 78.62984
#
# Poissons Ratio (x) = 0.10613 0.27501
# Poissons Ratio (y) = 0.05621 -0.08054
# Poissons Ratio (z) = 0.20161 -0.11148
#
# Static dielectric constant tensor:
#      x y z
#    x 1.809060 0.028900 -0.013220 
#    y 0.028900 1.893080 -0.000300 
#    z -0.013220 -0.000300 1.843160 
# 
# From -- ./inp_files/278695.got.cif
#   From: 2010.05.17/outbox.cif.g08.bks.cpg/sg2_140_cif.got.tgz:278695.got - 2010.06.03 11:33:40.
