data_PCOD9050048
_publ_section_title
;
Structure prediction by ZEFSAII (Michael W. Deem and Ramdas Pophale) SiO2 
 PCOD9050048
Probable space group: P -1
;
_chemical_formula_sum "Si O2"
_cell_formula_units_Z 15
_cell_length_a 5.618574
_cell_length_b 11.957599
_cell_length_c 12.180235
_cell_angle_alpha 76.712760
_cell_angle_beta 89.947334
_cell_angle_gamma 125.619377
_cell_volume 637.948430
_symmetry_space_group_name_H-M "P -1"
_symmetry_group_IT_number 2
_symmetry_cell_setting 'triclinic'
loop_
_space_group_symop_operation_xyz
x,y,z
-x,-y,-z
loop_
_atom_site_type_symbol
_atom_site_label
_atom_site_fract_x
_atom_site_fract_y
_atom_site_fract_z
Si Si1 0.577515 0.067308 0.604126
Si Si2 0.126573 0.480530 0.751216
Si Si3 0.324814 0.637335 0.504830
Si Si4 0.838930 0.751555 0.316404
Si Si5 0.514800 0.269005 0.871677
Si Si6 0.522065 0.327725 0.110207
Si Si7 0.500000 0.000000 0.000000
Si Si8 0.840283 0.169742 0.173092
O O1 0.632441 0.218077 0.557742
O O2 0.879458 0.113129 0.652799
O O3 0.500000 0.000000 0.500000
O O4 0.312869 0.952885 0.707779
O O5 0.323544 0.616408 0.640285
O O6 0.109961 0.355095 0.717933
O O7 0.262546 0.519357 0.864157
O O8 0.783783 0.415040 0.779931
O O9 0.587403 0.657241 0.429669
O O10 0.000000 0.500000 0.500000
O O11 0.748441 0.801377 0.200355
O O12 0.488603 0.316311 0.981377
O O13 0.575195 0.152698 0.918610
O O14 0.679062 0.249528 0.157749
O O15 0.192747 0.262824 0.167280
O O16 0.751345 0.090352 0.074547
#
# Coordination Sequence:
#
# PCOD9050048 Si02
#       8
#     2   2   2   2   2   2   1   2
#     4  12  29  48  76 109 157 203 261 323 396 463
#     4  12  26  48  75 110 153 202 254 323 391 472
#     4  12  25  48  73 111 149 200 260 319 390 468
#     4  12  26  44  80 107 149 202 257 323 386 474
#     4  11  26  48  76 111 148 200 259 320 395 470
#     4  11  29  47  78 113 162 200 265 323 397 465
#     4  10  24  48  74 100 154 194 258 314 386 462
#     4  11  27  49  75 115 150 212 256 328 388 467
#
# _framework density 23.512871000000001
#
# number of rings (size 3 to 8) (size 9 to 14) (size 15 to 20)
#    0.000    0.533    2.667    3.200   13.067    2.133 
#    0.000    0.000    0.000    0.000    0.000    0.000 
#    0.000    0.000    0.000    0.000    0.000    0.000 
#
# Total GULP energy -83624.024856 kJ/mol
# GULP energy per Si atom -5574.934990 kJ/mol
# Density = 2.345935 g / cm^3
# Si number density = 23.512871 Si / 1000 Ang^3
#
#
#
# Elastic Constant Matrix: (Units=GPa)
#
#
# Indices 1 2 3 4 5 6 
#
# 1 92.8873 40.1650 50.9086 4.6291 -3.9690 16.0151
# 2 40.1650 92.4619 32.0995 31.6441 -1.9300 13.1394
# 3 50.9086 32.0995 129.4594 4.6078 11.9621 -1.1442
# 4 4.6291 31.6441 4.6078 46.0788 5.3937 19.2120
# 5 -3.9690 -1.9300 11.9621 5.3937 35.1151 -3.0646
# 6 16.0151 13.1394 -1.1442 19.2120 -3.0646 28.4115
#
#
#
# Elastic Compliance Matrix: (Units=1/GPa)
#
#
# Indices 1 2 3 4 5 6 
#
# 1 0.019536 -0.007505 -0.006405 0.009578 0.001272 -0.014139
# 2 -0.007505 0.018956 -0.001488 -0.014998 0.003521 0.005925
# 3 -0.006405 -0.001488 0.011062 -0.001080 -0.003968 0.005047
# 4 0.009578 -0.014998 -0.001080 0.044492 -0.008786 -0.029540
# 5 0.001272 0.003521 -0.003968 -0.008786 0.032118 0.006900
# 6 -0.014139 0.005925 0.005047 -0.029540 0.006900 0.061349
#
#
# Mechanical properties :
#
#
# Convention : Reuss Voigt Hill
#
# Bulk Modulus (GPa) = 53.31038 62.35054 57.83046
# Shear Modulus (GPa) = 22.26551 34.69679 28.48115
#
# Velocity S-wave (km/s) = 3.08059 3.84559 3.48415
# Velocity P-wave (km/s) = 5.94773 6.80391 6.39018
#
# Compressibility (1/GPa) = 0.01875807
#
# Stress axis : x y z
#
# Youngs Moduli (GPa) = 51.18755 52.75259 90.40156
#
# Poissons Ratio (x) = 0.39591 0.57901
# Poissons Ratio (y) = 0.38416 0.13454
# Poissons Ratio (z) = 0.32785 0.07851
#
# Static dielectric constant tensor:
#      x y z
#    x 2.108370 -0.075830 -0.048030 
#    y -0.075830 1.893640 0.036840 
#    z -0.048030 0.036840 2.008060 
# 
# From -- ./inp_files/364327.got.cif
#   From: 2010.05.17/outbox.cif.g08.bks.cpg/sg2_183_cif.got.tgz:364327.got - 2010.06.03 11:33:40.
