data_PCOD9050215
_publ_section_title
;
Structure prediction by ZEFSAII (Michael W. Deem and Ramdas Pophale) SiO2 
 PCOD9050215
Probable space group: P -1
;
_chemical_formula_sum "Si O2"
_cell_formula_units_Z 12
_cell_length_a 13.552191
_cell_length_b 6.571610
_cell_length_c 14.344185
_cell_angle_alpha 103.292183
_cell_angle_beta 152.883811
_cell_angle_gamma 66.553288
_cell_volume 510.072641
_symmetry_space_group_name_H-M "P -1"
_symmetry_group_IT_number 2
_symmetry_cell_setting 'triclinic'
loop_
_space_group_symop_operation_xyz
x,y,z
-x,-y,-z
loop_
_atom_site_type_symbol
_atom_site_label
_atom_site_fract_x
_atom_site_fract_y
_atom_site_fract_z
Si Si1 0.406934 0.283323 0.684890
Si Si2 0.512346 0.272084 0.436725
Si Si3 0.336830 0.937777 0.929627
Si Si4 0.988209 0.286557 0.412612
Si Si5 0.204219 0.791418 0.522235
Si Si6 0.750842 0.990060 0.781444
O O1 0.540790 0.139902 0.874186
O O2 0.338168 0.554932 0.665358
O O3 0.146995 0.279594 0.455023
O O4 0.568729 0.178560 0.720156
O O5 0.500000 0.500000 0.500000
O O6 0.631826 0.237823 0.432995
O O7 0.672674 0.061117 0.617176
O O8 0.848274 0.975113 0.439388
O O9 0.258356 0.730625 0.815222
O O10 0.500000 0.000000 0.000000
O O11 0.068861 0.154884 0.732383
O O12 0.000000 0.500000 0.500000
O O13 0.736103 0.753148 0.773129
O O14 0.000000 0.000000 0.000000
#
# Coordination Sequence:
#
# PCOD9050215 Si02
#       6
#     2   2   2   2   2   2
#     4  12  24  47  75 107 148 198 242 302 372 439
#     4  11  22  46  71 104 147 186 237 300 366 428
#     4  10  26  49  74 108 145 193 251 304 365 436
#     4  10  26  50  74 105 147 192 246 310 368 431
#     4  10  24  49  72 107 149 195 239 305 366 438
#     4  11  24  42  75 108 142 190 243 298 360 443
#
# _framework density 23.526060000000001
#
# number of rings (size 3 to 8) (size 9 to 14) (size 15 to 20)
#    1.000    0.333    3.333    1.000    2.333    4.000 
#    3.000    0.833    0.000    0.000    0.000    0.000 
#    0.000    0.000    0.000    0.000    0.000    0.000 
#
# Total GULP energy -66897.055968 kJ/mol
# GULP energy per Si atom -5574.754664 kJ/mol
# Density = 2.347251 g / cm^3
# Si number density = 23.526060 Si / 1000 Ang^3
#
#
#
# Elastic Constant Matrix: (Units=GPa)
#
#
# Indices 1 2 3 4 5 6 
#
# 1 152.3363 30.5446 60.5547 8.9476 22.4691 18.5412
# 2 30.5446 133.5265 38.1076 15.9181 6.2593 -15.8186
# 3 60.5547 38.1076 139.1242 27.5244 27.2483 13.1991
# 4 8.9476 15.9181 27.5244 40.9291 14.2527 -6.6759
# 5 22.4691 6.2593 27.2483 14.2527 47.1725 5.7561
# 6 18.5412 -15.8186 13.1991 -6.6759 5.7561 35.1806
#
#
#
# Elastic Compliance Matrix: (Units=1/GPa)
#
#
# Indices 1 2 3 4 5 6 
#
# 1 0.008707 -0.001662 -0.002685 0.000651 -0.002101 -0.003861
# 2 -0.001662 0.009272 -0.002249 -0.000976 0.000469 0.005627
# 3 -0.002685 -0.002249 0.011031 -0.005809 -0.002499 -0.004428
# 4 0.000651 -0.000976 -0.005809 0.032743 -0.007802 0.008888
# 5 -0.002101 0.000469 -0.002499 -0.007802 0.026370 -0.003540
# 6 -0.003861 0.005627 -0.004428 0.008888 -0.003540 0.036917
#
#
# Mechanical properties :
#
#
# Convention : Reuss Voigt Hill
#
# Bulk Modulus (GPa) = 63.21925 75.93343 69.57634
# Shear Modulus (GPa) = 34.84197 44.37512 39.60855
#
# Velocity S-wave (km/s) = 3.85254 4.34777 4.10762
# Velocity P-wave (km/s) = 6.83519 7.58620 7.22047
#
# Compressibility (1/GPa) = 0.01581797
#
# Stress axis : x y z
#
# Youngs Moduli (GPa) = 114.85405 107.85049 90.64972
#
# Poissons Ratio (x) = 0.17923 0.24343
# Poissons Ratio (y) = 0.19086 0.20387
# Poissons Ratio (z) = 0.30843 0.24255
#
# Static dielectric constant tensor:
#      x y z
#    x 1.873170 0.012350 0.036660 
#    y 0.012350 1.968890 0.053220 
#    z 0.036660 0.053220 2.016270 
# 
# From -- ./inp_files/571773.got.cif
#   From: 2010.05.17/outbox.cif.g08.bks.cpg/sg2_286_cif.got.tgz:571773.got - 2010.06.03 11:33:40.
