data_PCOD9050477
_publ_section_title
;
Structure prediction by ZEFSAII (Michael W. Deem and Ramdas Pophale) SiO2 
 PCOD9050477
Probable space group: P -1
;
_chemical_formula_sum "Si O2"
_cell_formula_units_Z 16
_cell_length_a 9.288116
_cell_length_b 17.533340
_cell_length_c 5.016204
_cell_angle_alpha 106.646705
_cell_angle_beta 122.338079
_cell_angle_gamma 62.328867
_cell_volume 610.470788
_symmetry_space_group_name_H-M "P -1"
_symmetry_group_IT_number 2
_symmetry_cell_setting 'triclinic'
loop_
_space_group_symop_operation_xyz
x,y,z
-x,-y,-z
loop_
_atom_site_type_symbol
_atom_site_label
_atom_site_fract_x
_atom_site_fract_y
_atom_site_fract_z
Si Si1 0.220169 0.266370 0.692928
Si Si2 0.155642 0.857288 0.192587
Si Si3 0.919243 0.619065 0.832035
Si Si4 0.580700 0.414949 0.320809
Si Si5 0.400796 0.954947 0.551124
Si Si6 0.360982 0.768109 0.822703
Si Si7 0.225384 0.118074 0.908182
Si Si8 0.237173 0.505347 0.745215
O O1 0.150963 0.346386 0.912868
O O2 0.442972 0.231754 0.890334
O O3 0.143440 0.301047 0.359296
O O4 0.162257 0.193507 0.699051
O O5 0.243523 0.925598 0.245602
O O6 0.252746 0.835192 0.556392
O O7 0.941419 0.877440 0.057938
O O8 0.236725 0.782758 0.978619
O O9 0.841561 0.551957 0.562742
O O10 0.132850 0.558408 0.952414
O O11 0.500000 0.500000 0.500000
O O12 0.605671 0.324061 0.369939
O O13 0.758037 0.418063 0.357453
O O14 0.432073 0.435497 0.957039
O O15 0.500000 0.000000 0.500000
O O16 0.297324 0.025565 0.742093
O O17 0.587300 0.879544 0.772242
#
# Coordination Sequence:
#
# PCOD9050477 Si02
#       8
#     2   2   2   2   2   2   2   2
#     4  12  25  46  72 103 148 187 244 296 376 423
#     4  12  29  49  77 112 151 191 249 297 366 440
#     4  11  26  43  71 101 138 191 242 308 355 438
#     4  11  25  42  69  95 146 194 243 305 367 425
#     4  11  26  51  80 108 153 191 241 298 370 439
#     4  12  27  48  73 106 149 197 244 304 367 437
#     4  11  28  46  77 114 145 197 240 300 366 443
#     4  10  25  42  64 100 136 187 250 297 369 421
#
# _framework density 26.20928
#
# number of rings (size 3 to 8) (size 9 to 14) (size 15 to 20)
#    0.000    0.750    2.500    2.625   14.000    1.500 
#    0.000    0.000    0.000    0.000    0.000    0.000 
#    0.000    0.000    0.000    0.000    0.000    0.000 
#
# Total GULP energy -89569.317006 kJ/mol
# GULP energy per Si atom -5598.082313 kJ/mol
# Density = 2.614963 g / cm^3
# Si number density = 26.209280 Si / 1000 Ang^3
#
#
#
# Elastic Constant Matrix: (Units=GPa)
#
#
# Indices 1 2 3 4 5 6 
#
# 1 154.5724 37.4400 29.3300 4.6215 6.8719 -24.7202
# 2 37.4400 75.7612 14.1077 8.4021 10.4543 -1.1904
# 3 29.3300 14.1077 78.9979 -0.2599 -8.1820 -14.0647
# 4 4.6215 8.4021 -0.2599 42.1043 0.6074 -9.8824
# 5 6.8719 10.4543 -8.1820 0.6074 35.9264 5.2067
# 6 -24.7202 -1.1904 -14.0647 -9.8824 5.2067 54.9881
#
#
#
# Elastic Compliance Matrix: (Units=1/GPa)
#
#
# Indices 1 2 3 4 5 6 
#
# 1 0.008297 -0.003531 -0.002001 0.000600 -0.001517 0.003393
# 2 -0.003531 0.016319 -0.002420 -0.003301 -0.004273 -0.002042
# 3 -0.002001 -0.002420 0.014733 0.001364 0.004031 0.002680
# 4 0.000600 -0.003301 0.001364 0.025559 -0.000021 0.005143
# 5 -0.001517 -0.004273 0.004031 -0.000021 0.030671 -0.002651
# 6 0.003393 -0.002042 0.002680 0.005143 -0.002651 0.021528
#
#
# Mechanical properties :
#
#
# Convention : Reuss Voigt Hill
#
# Bulk Modulus (GPa) = 42.65543 52.34299 47.49921
# Shear Modulus (GPa) = 35.50511 41.83400 38.66956
#
# Velocity S-wave (km/s) = 3.68459 3.99952 3.84528
# Velocity P-wave (km/s) = 5.86616 6.42983 6.15445
#
# Compressibility (1/GPa) = 0.02344367
#
# Stress axis : x y z
#
# Youngs Moduli (GPa) = 120.53136 61.27894 67.87632
#
# Poissons Ratio (x) = 0.21640 0.13580
# Poissons Ratio (y) = 0.42564 0.16427
# Poissons Ratio (z) = 0.24115 0.14830
#
# Static dielectric constant tensor:
#      x y z
#    x 2.170310 0.036030 0.032240 
#    y 0.036030 2.091950 -0.017380 
#    z 0.032240 -0.017380 2.092940 
# 
# From -- ./inp_files/48741.got.cif
#   From: 2010.05.17/outbox.cif.g08.bks.cpg/sg2_25_cif.got.tgz:48741.got - 2010.06.03 11:33:40.
