data_PCOD9050625
_publ_section_title
;
Structure prediction by ZEFSAII (Michael W. Deem and Ramdas Pophale) SiO2 
 PCOD9050625
Probable space group: P -1
;
_chemical_formula_sum "Si O2"
_cell_formula_units_Z 14
_cell_length_a 23.815466
_cell_length_b 9.894344
_cell_length_c 9.737818
_cell_angle_alpha 129.609271
_cell_angle_beta 23.508537
_cell_angle_gamma 135.799862
_cell_volume 636.477278
_symmetry_space_group_name_H-M "P -1"
_symmetry_group_IT_number 2
_symmetry_cell_setting 'triclinic'
loop_
_space_group_symop_operation_xyz
x,y,z
-x,-y,-z
loop_
_atom_site_type_symbol
_atom_site_label
_atom_site_fract_x
_atom_site_fract_y
_atom_site_fract_z
Si Si1 0.503709 0.702963 0.160274
Si Si2 0.607225 0.927087 0.797111
Si Si3 0.201765 0.574697 0.938068
Si Si4 0.954038 0.157175 0.127778
Si Si5 0.319455 0.970045 0.862000
Si Si6 0.336535 0.381615 0.717370
Si Si7 0.117427 0.012771 0.122563
O O1 0.335372 0.641962 0.565484
O O2 0.650741 0.821693 0.006578
O O3 0.500000 0.500000 0.000000
O O4 0.534077 0.841399 0.051277
O O5 0.634073 0.755348 0.549434
O O6 0.778208 0.101680 0.532583
O O7 0.500000 0.000000 0.000000
O O8 0.195536 0.782196 0.100193
O O9 0.274465 0.521827 0.873566
O O10 0.062039 0.377416 0.073127
O O11 0.953705 0.117037 0.938312
O O12 0.000000 0.000000 0.000000
O O13 0.500000 0.000000 0.500000
O O14 0.250678 0.961519 0.859782
O O15 0.500000 0.500000 0.500000
O O16 0.206183 0.233208 0.013292
O O17 0.000000 0.000000 0.500000
#
# Coordination Sequence:
#
# PCOD9050625 Si02
#       7
#     2   2   2   2   2   2   2
#     4  11  22  42  70  99 135 179 233 275 345 415
#     4  11  26  42  69 103 133 182 234 287 336 415
#     4  11  23  43  70  98 137 190 221 286 349 410
#     4  11  23  48  69  97 145 186 227 281 355 409
#     4  10  25  43  68 101 138 176 229 287 341 408
#     4  11  23  43  68  96 139 183 228 279 349 408
#     4  11  26  43  70 101 137 181 233 287 342 411
#
# _framework density 21.996072000000002
#
# number of rings (size 3 to 8) (size 9 to 14) (size 15 to 20)
#    0.000    1.143    4.286    1.714   14.000    0.571 
#    2.571    1.429    0.000    0.000    0.000    0.000 
#    0.000    0.000    0.000    0.000    0.000    0.000 
#
# Total GULP energy -78182.101778 kJ/mol
# GULP energy per Si atom -5584.435841 kJ/mol
# Density = 2.194601 g / cm^3
# Si number density = 21.996072 Si / 1000 Ang^3
#
#
#
# Elastic Constant Matrix: (Units=GPa)
#
#
# Indices 1 2 3 4 5 6 
#
# 1 151.6482 44.7298 35.4505 -21.2623 -11.3476 -3.2085
# 2 44.7298 132.6051 23.4058 -40.1434 -14.7398 22.6291
# 3 35.4505 23.4058 94.4059 -35.5078 2.2728 -9.2229
# 4 -21.2623 -40.1434 -35.5078 41.1449 -0.8709 -5.7462
# 5 -11.3476 -14.7398 2.2728 -0.8709 39.1106 -9.1052
# 6 -3.2085 22.6291 -9.2229 -5.7462 -9.1052 47.1816
#
#
#
# Elastic Compliance Matrix: (Units=1/GPa)
#
#
# Indices 1 2 3 4 5 6 
#
# 1 0.008008 -0.002290 -0.002239 0.000239 0.001972 0.001615
# 2 -0.002290 0.012777 0.001959 0.012528 0.003453 -0.003709
# 3 -0.002239 0.001959 0.017610 0.016584 0.000473 0.004462
# 4 0.000239 0.012528 0.016584 0.051752 0.006080 0.004725
# 5 0.001972 0.003453 0.000473 0.006080 0.028678 0.004845
# 6 0.001615 -0.003709 0.004462 0.004725 0.004845 0.025466
#
#
# Mechanical properties :
#
#
# Convention : Reuss Voigt Hill
#
# Bulk Modulus (GPa) = 30.07131 65.09239 47.58185
# Shear Modulus (GPa) = 31.14917 43.82561 37.48739
#
# Velocity S-wave (km/s) = 3.76722 4.46851 4.13277
# Velocity P-wave (km/s) = 5.71170 7.50202 6.66723
#
# Compressibility (1/GPa) = 0.03325429
#
# Stress axis : x y z
#
# Youngs Moduli (GPa) = 124.86870 78.26312 56.78600
#
# Poissons Ratio (x) = 0.17924 0.12716
# Poissons Ratio (y) = 0.28598 -0.11124
# Poissons Ratio (z) = 0.27963 -0.15331
#
# Static dielectric constant tensor:
#      x y z
#    x 1.851650 0.067650 0.047940 
#    y 0.067650 2.777810 0.607890 
#    z 0.047940 0.607890 2.171560 
# 
# From -- ./inp_files/343728.got.cif
#   From: 2010.05.17/outbox.cif.g08.bks.cpg/sg2_172_cif.got.tgz:343728.got - 2010.06.03 11:33:40.
