data_PCOD9050786
_publ_section_title
;
Structure prediction by ZEFSAII (Michael W. Deem and Ramdas Pophale) SiO2 
 PCOD9050786
Probable space group: P -1
;
_chemical_formula_sum "Si O2"
_cell_formula_units_Z 11
_cell_length_a 4.880764
_cell_length_b 15.119278
_cell_length_c 12.229897
_cell_angle_alpha 32.402496
_cell_angle_beta 117.818375
_cell_angle_gamma 119.988302
_cell_volume 416.924205
_symmetry_space_group_name_H-M "P -1"
_symmetry_group_IT_number 2
_symmetry_cell_setting 'triclinic'
loop_
_space_group_symop_operation_xyz
x,y,z
-x,-y,-z
loop_
_atom_site_type_symbol
_atom_site_label
_atom_site_fract_x
_atom_site_fract_y
_atom_site_fract_z
Si Si1 0.315627 0.593473 0.100374
Si Si2 0.203611 0.381896 0.505605
Si Si3 0.653402 0.159219 0.761934
Si Si4 0.133262 0.144218 0.286739
Si Si5 0.853915 0.894851 0.919405
Si Si6 0.500000 0.500000 0.000000
O O1 0.138833 0.474812 0.286754
O O2 0.368709 0.494898 0.105650
O O3 0.648619 0.702662 0.090037
O O4 0.101777 0.727038 0.899058
O O5 0.500000 0.500000 0.500000
O O6 0.331651 0.217302 0.665237
O O7 0.896057 0.321738 0.584837
O O8 0.672277 0.012453 0.832310
O O9 0.818142 0.114348 0.950486
O O10 0.137949 0.065897 0.248306
O O11 0.458786 0.285368 0.217543
O O12 0.000000 0.000000 0.500000
#
# Coordination Sequence:
#
# PCOD9050786 Si02
#       6
#     2   2   2   2   2   1
#     4  11  25  44  70  98 143 181 245 298 357 435
#     4  12  25  43  73 104 145 187 236 290 366 432
#     4  11  26  43  72 107 145 191 230 292 365 433
#     4  11  26  47  72 100 141 190 242 307 364 425
#     4  10  25  44  67 103 142 181 242 292 351 442
#     4  10  26  46  68 102 136 186 248 302 358 434
#
# _framework density 26.383693999999998
#
# number of rings (size 3 to 8) (size 9 to 14) (size 15 to 20)
#    0.000    1.091    1.818    2.182   10.182    5.818 
#    0.000    0.000    0.000    0.000    0.000    0.000 
#    0.000    0.000    0.000    0.000    0.000    0.000 
#
# Total GULP energy -61485.485327 kJ/mol
# GULP energy per Si atom -5589.589575 kJ/mol
# Density = 2.632364 g / cm^3
# Si number density = 26.383694 Si / 1000 Ang^3
#
#
#
# Elastic Constant Matrix: (Units=GPa)
#
#
# Indices 1 2 3 4 5 6 
#
# 1 73.2484 8.5711 27.9486 11.6906 -5.0311 -19.2876
# 2 8.5711 133.8928 23.3547 -8.1743 -2.2351 -29.7013
# 3 27.9486 23.3547 199.1791 8.0070 -38.8393 -17.5993
# 4 11.6906 -8.1743 8.0070 23.8037 -10.6425 -8.3572
# 5 -5.0311 -2.2351 -38.8393 -10.6425 66.1491 -3.0843
# 6 -19.2876 -29.7013 -17.5993 -8.3572 -3.0843 48.5530
#
#
#
# Elastic Compliance Matrix: (Units=1/GPa)
#
#
# Indices 1 2 3 4 5 6 
#
# 1 0.016529 -0.000069 -0.001744 -0.006102 -0.000527 0.004808
# 2 -0.000069 0.009484 -0.000492 0.006460 0.001383 0.006796
# 3 -0.001744 -0.000492 0.006147 0.000825 0.003668 0.001609
# 4 -0.006102 0.006460 0.000825 0.055511 0.009729 0.011999
# 5 -0.000527 0.001383 0.003668 0.009729 0.019069 0.004852
# 6 0.004808 0.006796 0.001609 0.011999 0.004852 0.029620
#
#
# Mechanical properties :
#
#
# Convention : Reuss Voigt Hill
#
# Bulk Modulus (GPa) = 36.29567 58.45212 47.37389
# Shear Modulus (GPa) = 33.29925 50.79758 42.04841
#
# Velocity S-wave (km/s) = 3.55648 4.39263 3.99648
# Velocity P-wave (km/s) = 5.53638 6.92313 6.26822
#
# Compressibility (1/GPa) = 0.02755150
#
# Stress axis : x y z
#
# Youngs Moduli (GPa) = 60.49794 105.44269 162.67393
#
# Poissons Ratio (x) = 0.00724 0.28368
# Poissons Ratio (y) = 0.00415 0.08004
# Poissons Ratio (z) = 0.10550 0.05188
#
# Static dielectric constant tensor:
#      x y z
#    x 1.217270 -1.127750 0.005740 
#    y -1.127750 0.376420 0.062500 
#    z 0.005740 0.062500 2.080880 
# 
# From -- ./inp_files/20058.got.cif
#   From: 2010.05.17/outbox.cif.g08.bks.cpg/sg2_11_cif.got.tgz:20058.got - 2010.06.03 11:33:40.
