data_PCOD9050394
_publ_section_title
;
Structure prediction by ZEFSAII (Michael W. Deem and Ramdas Pophale) SiO2 
 PCOD9050394
Probable space group: P -1
;
_chemical_formula_sum "Si O2"
_cell_formula_units_Z 16
_cell_length_a 23.656849
_cell_length_b 8.720135
_cell_length_c 8.722665
_cell_angle_alpha 104.363347
_cell_angle_beta 44.300104
_cell_angle_gamma 135.683322
_cell_volume 738.371457
_symmetry_space_group_name_H-M "P -1"
_symmetry_group_IT_number 2
_symmetry_cell_setting 'triclinic'
loop_
_space_group_symop_operation_xyz
x,y,z
-x,-y,-z
loop_
_atom_site_type_symbol
_atom_site_label
_atom_site_fract_x
_atom_site_fract_y
_atom_site_fract_z
Si Si1 0.881298 0.968898 0.992145
Si Si2 0.039275 0.270271 0.230002
Si Si3 0.644061 0.282952 0.739067
Si Si4 0.186665 0.902005 0.598304
Si Si5 0.758245 0.242353 0.257801
Si Si6 0.356009 0.238828 0.782824
Si Si7 0.118665 0.492450 0.469055
Si Si8 0.286682 0.244512 0.255316
O O1 0.748071 0.813207 0.122566
O O2 0.879477 0.048978 0.180923
O O3 0.906221 0.822778 0.919187
O O4 0.000056 0.228965 0.728776
O O5 0.093567 0.419664 0.323328
O O6 0.113899 0.489674 0.010244
O O7 0.877419 0.008229 0.491826
O O8 0.679995 0.262431 0.498974
O O9 0.748001 0.377059 0.687166
O O10 0.660511 0.497110 0.757692
O O11 0.500000 0.000000 0.000000
O O12 0.206569 0.817430 0.682767
O O13 0.120417 0.681077 0.549573
O O14 0.313844 0.171227 0.328905
O O15 0.679769 0.001069 0.238134
O O16 0.500000 0.500000 0.500000
O O17 0.339523 0.257178 0.996989
#
# Coordination Sequence:
#
# PCOD9050394 Si02
#       8
#     2   2   2   2   2   2   2   2
#     4  11  22  42  64  99 132 174 225 273 333 394
#     4  12  24  40  68 103 134 172 230 278 333 396
#     4  11  24  45  68  96 136 178 221 274 340 404
#     4  10  25  39  63  98 134 173 218 280 329 393
#     4  10  25  44  62  99 135 178 223 281 335 386
#     4  11  24  45  68  96 136 178 221 274 340 404
#     4  11  22  42  64  99 132 174 225 273 333 394
#     4  12  24  41  69 101 133 178 224 275 338 400
#
# _framework density 21.669309999999999
#
# number of rings (size 3 to 8) (size 9 to 14) (size 15 to 20)
#    0.000    1.000    2.500    3.750    7.000    2.000 
#    0.000   17.500    0.000    0.000    0.000    0.000 
#    0.000    0.000    0.000    0.000    0.000    0.000 
#
# Total GULP energy -89462.791008 kJ/mol
# GULP energy per Si atom -5591.424438 kJ/mol
# Density = 2.161999 g / cm^3
# Si number density = 21.669310 Si / 1000 Ang^3
#
#
#
# Elastic Constant Matrix: (Units=GPa)
#
#
# Indices 1 2 3 4 5 6 
#
# 1 50.2163 38.4970 49.3630 -7.3097 17.0894 -8.4642
# 2 38.4970 189.5875 94.2794 20.6489 29.0183 -23.4328
# 3 49.3630 94.2794 178.5905 -12.5180 26.2205 -3.3823
# 4 -7.3097 20.6489 -12.5180 55.5234 10.0053 1.9111
# 5 17.0894 29.0183 26.2205 10.0053 36.4408 -10.8578
# 6 -8.4642 -23.4328 -3.3823 1.9111 -10.8578 20.0715
#
#
#
# Elastic Compliance Matrix: (Units=1/GPa)
#
#
# Indices 1 2 3 4 5 6 
#
# 1 0.032006 -0.002159 -0.005925 0.005160 -0.009081 0.004574
# 2 -0.002159 0.010089 -0.005186 -0.005920 0.001765 0.011513
# 3 -0.005925 -0.005186 0.010902 0.004902 -0.005272 -0.010034
# 4 0.005160 -0.005920 0.004902 0.024542 -0.011721 -0.012587
# 5 -0.009081 0.001765 -0.005272 -0.011721 0.043927 0.022222
# 6 0.004574 0.011513 -0.010034 -0.012587 0.022222 0.076721
#
#
# Mechanical properties :
#
#
# Convention : Reuss Voigt Hill
#
# Bulk Modulus (GPa) = 37.79619 86.96366 62.37993
# Shear Modulus (GPa) = 21.40898 38.15746 29.78322
#
# Velocity S-wave (km/s) = 3.14663 4.20086 3.71137
# Velocity P-wave (km/s) = 5.53912 7.98429 6.87135
#
# Compressibility (1/GPa) = 0.02645769
#
# Stress axis : x y z
#
# Youngs Moduli (GPa) = 31.24411 99.11474 91.72442
#
# Poissons Ratio (x) = 0.21401 0.54349
# Poissons Ratio (y) = 0.06746 0.47564
# Poissons Ratio (z) = 0.18513 0.51396
#
# Static dielectric constant tensor:
#      x y z
#    x 1.825840 -0.000170 0.001180 
#    y -0.000170 1.791390 0.031220 
#    z 0.001180 0.031220 1.745610 
# 
# From -- ./inp_files/356613.got.cif
#   From: 2010.05.17/outbox.cif.g08.bks.cpg/sg2_179_cif.got.tgz:356613.got - 2010.06.03 11:33:40.
