data_PCOD9050309
_publ_section_title
;
Structure prediction by ZEFSAII (Michael W. Deem and Ramdas Pophale) SiO2 
 PCOD9050309
Probable space group: P -1
;
_chemical_formula_sum "Si O2"
_cell_formula_units_Z 16
_cell_length_a 12.510170
_cell_length_b 15.381201
_cell_length_c 8.582117
_cell_angle_alpha 154.144517
_cell_angle_beta 63.149475
_cell_angle_gamma 119.992587
_cell_volume 623.727277
_symmetry_space_group_name_H-M "P -1"
_symmetry_group_IT_number 2
_symmetry_cell_setting 'triclinic'
loop_
_space_group_symop_operation_xyz
x,y,z
-x,-y,-z
loop_
_atom_site_type_symbol
_atom_site_label
_atom_site_fract_x
_atom_site_fract_y
_atom_site_fract_z
Si Si1 0.699245 0.098889 0.437927
Si Si2 0.751665 0.429063 0.503522
Si Si3 0.080300 0.671972 0.553918
Si Si4 0.641440 0.630429 0.642909
Si Si5 0.703730 0.031359 0.691044
Si Si6 0.458541 0.713183 0.346294
Si Si7 0.102699 0.392901 0.686975
Si Si8 0.097741 0.045443 0.373198
O O1 0.720922 0.056183 0.534862
O O2 0.824271 0.230710 0.489437
O O3 0.598443 0.233442 0.694473
O O4 0.656899 0.876652 0.021544
O O5 0.869311 0.496832 0.652351
O O6 0.688260 0.590860 0.722438
O O7 0.650541 0.301661 0.483991
O O8 0.753393 0.257863 0.094217
O O9 0.946488 0.627915 0.492604
O O10 0.093005 0.845409 0.953104
O O11 0.500000 0.500000 0.500000
O O12 0.747305 0.565992 0.361462
O O13 0.564733 0.916096 0.631250
O O14 0.776336 0.890172 0.509689
O O15 0.500000 0.500000 0.000000
O O16 0.077029 0.200589 0.507906
O O17 0.000000 0.500000 0.000000
O O18 0.000000 0.000000 0.500000
#
# Coordination Sequence:
#
# PCOD9050309 Si02
#       8
#     2   2   2   2   2   2   2   2
#     4  11  24  47  75 108 148 205 250 324 384 470
#     4  10  25  45  72 107 152 199 249 325 375 469
#     4  10  24  50  75 103 149 197 266 311 397 450
#     4  12  28  48  77 112 161 205 260 314 396 462
#     4  11  24  43  73 106 147 196 258 310 390 458
#     4  11  24  44  70 105 148 199 257 314 384 459
#     4  12  29  48  78 114 154 202 260 331 384 467
#     4  11  25  45  75 106 144 195 253 324 382 464
#
# _framework density 25.652238000000001
#
# number of rings (size 3 to 8) (size 9 to 14) (size 15 to 20)
#    0.000    1.000    1.250    3.375    8.750    4.500 
#    2.250    0.000    0.000    0.000    0.000    0.000 
#    0.000    0.000    0.000    0.000    0.000    0.000 
#
# Total GULP energy -89398.260224 kJ/mol
# GULP energy per Si atom -5587.391264 kJ/mol
# Density = 2.559385 g / cm^3
# Si number density = 25.652238 Si / 1000 Ang^3
#
#
#
# Elastic Constant Matrix: (Units=GPa)
#
#
# Indices 1 2 3 4 5 6 
#
# 1 199.9759 46.1202 56.9302 9.8365 2.0012 -8.6168
# 2 46.1202 95.7928 26.7747 5.3111 0.1114 -14.1274
# 3 56.9302 26.7747 91.4510 11.8915 -15.7130 -16.0445
# 4 9.8365 5.3111 11.8915 48.2713 0.8728 -5.7271
# 5 2.0012 0.1114 -15.7130 0.8728 21.6401 1.1066
# 6 -8.6168 -14.1274 -16.0445 -5.7271 1.1066 55.7730
#
#
#
# Elastic Compliance Matrix: (Units=1/GPa)
#
#
# Indices 1 2 3 4 5 6 
#
# 1 0.006730 -0.002126 -0.004310 -0.000089 -0.003703 -0.000674
# 2 -0.002126 0.012404 -0.002174 -0.000106 -0.001555 0.002208
# 3 -0.004310 -0.002174 0.017458 -0.003035 0.013043 0.003235
# 4 -0.000089 -0.000106 -0.003035 0.021714 -0.003141 0.001378
# 5 -0.003703 -0.001555 0.013043 -0.003141 0.056089 0.001351
# 6 -0.000674 0.002208 0.003235 0.001378 0.001351 0.019430
#
#
# Mechanical properties :
#
#
# Convention : Reuss Voigt Hill
#
# Bulk Modulus (GPa) = 51.62275 71.87446 61.74860
# Shear Modulus (GPa) = 31.74534 42.29652 37.02093
#
# Velocity S-wave (km/s) = 3.52167 4.06500 3.80305
# Velocity P-wave (km/s) = 6.05838 7.07898 6.58847
#
# Compressibility (1/GPa) = 0.01937130
#
# Stress axis : x y z
#
# Youngs Moduli (GPa) = 148.58015 80.62132 57.28031
#
# Poissons Ratio (x) = 0.17139 0.24690
# Poissons Ratio (y) = 0.31585 0.12453
# Poissons Ratio (z) = 0.64045 0.17528
#
# Static dielectric constant tensor:
#      x y z
#    x 2.642170 -0.082430 -0.255970 
#    y -0.082430 1.991280 -0.005130 
#    z -0.255970 -0.005130 2.144920 
# 
# From -- ./inp_files/274828.got.cif
#   From: 2010.05.17/outbox.cif.g08.bks.cpg/sg2_138_cif.got.tgz:274828.got - 2010.06.03 11:33:40.
