data_PCOD9050546
_publ_section_title
;
Structure prediction by ZEFSAII (Michael W. Deem and Ramdas Pophale) SiO2 
 PCOD9050546
Probable space group: P -1
;
_chemical_formula_sum "Si O2"
_cell_formula_units_Z 16
_cell_length_a 17.972371
_cell_length_b 9.015937
_cell_length_c 12.276967
_cell_angle_alpha 123.038067
_cell_angle_beta 28.064283
_cell_angle_gamma 130.207190
_cell_volume 713.107419
_symmetry_space_group_name_H-M "P -1"
_symmetry_group_IT_number 2
_symmetry_cell_setting 'triclinic'
loop_
_space_group_symop_operation_xyz
x,y,z
-x,-y,-z
loop_
_atom_site_type_symbol
_atom_site_label
_atom_site_fract_x
_atom_site_fract_y
_atom_site_fract_z
Si Si1 0.984305 0.585683 0.672564
Si Si2 0.420353 0.624789 0.587474
Si Si3 0.331851 0.184375 0.064522
Si Si4 0.195768 0.755510 0.071421
Si Si5 0.361933 0.083148 0.738844
Si Si6 0.841067 0.652951 0.348848
Si Si7 0.004229 0.999141 0.126229
Si Si8 0.706141 0.478287 0.677691
O O1 0.163852 0.623550 0.519052
O O2 0.000000 0.500000 0.500000
O O3 0.844311 0.409678 0.852303
O O4 0.958343 0.784191 0.793314
O O5 0.500000 0.500000 0.500000
O O6 0.576577 0.737095 0.348935
O O7 0.243367 0.504717 0.700436
O O8 0.362968 0.760955 0.792070
O O9 0.361565 0.146880 0.886942
O O10 0.526541 0.331086 0.905835
O O11 0.224445 0.314843 0.266492
O O12 0.241624 0.970709 0.146039
O O13 0.024720 0.697501 0.191060
O O14 0.500000 0.000000 0.500000
O O15 0.165838 0.941363 0.911252
O O16 0.706516 0.554453 0.583940
O O17 0.862094 0.847837 0.332316
O O18 0.000000 0.000000 0.000000
#
# Coordination Sequence:
#
# PCOD9050546 Si02
#       8
#     2   2   2   2   2   2   2   2
#     4  11  26  45  68  99 138 174 220 279 348 388
#     4  12  24  40  63 100 137 170 214 279 334 385
#     4  11  22  44  68  99 124 168 238 264 327 386
#     4  11  24  43  71  94 130 177 224 269 321 413
#     4  12  23  41  68  92 132 177 218 271 323 395
#     4  11  23  42  68  96 129 177 225 261 332 396
#     4  12  26  43  66 101 140 173 222 280 336 396
#     4  10  25  42  72  95 131 174 225 278 322 413
#
# _framework density 22.437010999999998
#
# number of rings (size 3 to 8) (size 9 to 14) (size 15 to 20)
#    0.000    0.750    3.750    3.375    3.500    3.000 
#    0.000    0.625    0.000    0.000    0.000    0.000 
#    0.000    0.000    0.000    0.000    0.000    0.000 
#
# Total GULP energy -89152.559997 kJ/mol
# GULP energy per Si atom -5572.035000 kJ/mol
# Density = 2.238594 g / cm^3
# Si number density = 22.437011 Si / 1000 Ang^3
#
#
#
# Elastic Constant Matrix: (Units=GPa)
#
#
# Indices 1 2 3 4 5 6 
#
# 1 57.5373 26.1786 13.5653 7.4746 24.6532 -9.7315
# 2 26.1786 65.7098 9.1844 -10.4285 7.4999 -12.5028
# 3 13.5653 9.1844 53.0304 0.7490 1.7931 -8.2914
# 4 7.4746 -10.4285 0.7490 43.4051 -4.4485 9.6952
# 5 24.6532 7.4999 1.7931 -4.4485 39.3215 -7.4924
# 6 -9.7315 -12.5028 -8.2914 9.6952 -7.4924 31.6435
#
#
#
# Elastic Compliance Matrix: (Units=1/GPa)
#
#
# Indices 1 2 3 4 5 6 
#
# 1 0.034712 -0.011995 -0.005444 -0.011550 -0.019898 0.003337
# 2 -0.011995 0.021267 -0.000300 0.006861 0.004961 0.003708
# 3 -0.005444 -0.000300 0.020898 -0.000162 0.003362 0.004529
# 4 -0.011550 0.006861 -0.000162 0.029262 0.007723 -0.008021
# 5 -0.019898 0.004961 0.003362 0.007723 0.038335 0.003432
# 6 0.003337 0.003708 0.004529 -0.008021 0.003432 0.038550
#
#
# Mechanical properties :
#
#
# Convention : Reuss Voigt Hill
#
# Bulk Modulus (GPa) = 24.15521 30.45938 27.30729
# Shear Modulus (GPa) = 21.52365 31.36397 26.44381
#
# Velocity S-wave (km/s) = 3.10060 3.74286 3.43677
# Velocity P-wave (km/s) = 4.85875 5.68187 5.28636
#
# Compressibility (1/GPa) = 0.04139894
#
# Stress axis : x y z
#
# Youngs Moduli (GPa) = 28.80871 47.02040 47.85059
#
# Poissons Ratio (x) = 0.56402 0.26051
# Poissons Ratio (y) = 0.34557 0.01435
# Poissons Ratio (z) = 0.15684 0.01410
#
# Static dielectric constant tensor:
#      x y z
#    x 1.765600 0.627380 -0.030500 
#    y 0.627380 -0.483260 0.046510 
#    z -0.030500 0.046510 1.888130 
# 
# From -- ./inp_files/222892.got.cif
#   From: 2010.05.17/outbox.cif.g08.bks.cpg/sg2_112_cif.got.tgz:222892.got - 2010.06.03 11:33:40.
