data_PCOD9050756
_publ_section_title
;
Structure prediction by ZEFSAII (Michael W. Deem and Ramdas Pophale) SiO2 
 PCOD9050756
Probable space group: P -1
;
_chemical_formula_sum "Si O2"
_cell_formula_units_Z 16
_cell_length_a 8.678788
_cell_length_b 12.450543
_cell_length_c 12.630742
_cell_angle_alpha 63.246839
_cell_angle_beta 102.279449
_cell_angle_gamma 143.767805
_cell_volume 690.462727
_symmetry_space_group_name_H-M "P -1"
_symmetry_group_IT_number 2
_symmetry_cell_setting 'triclinic'
loop_
_space_group_symop_operation_xyz
x,y,z
-x,-y,-z
loop_
_atom_site_type_symbol
_atom_site_label
_atom_site_fract_x
_atom_site_fract_y
_atom_site_fract_z
Si Si1 0.220799 0.983064 0.957876
Si Si2 0.361226 0.756420 0.447909
Si Si3 0.963119 0.164459 0.434403
Si Si4 0.181949 0.695840 0.020366
Si Si5 0.126350 0.186607 0.822161
Si Si6 0.702633 0.024072 0.691599
Si Si7 0.898415 0.386499 0.293630
Si Si8 0.479582 0.574552 0.562235
O O1 0.495896 0.132186 0.000457
O O2 0.254112 0.135278 0.843424
O O3 0.169384 0.833133 0.944985
O O4 0.957686 0.839418 0.058262
O O5 0.272763 0.819317 0.343648
O O6 0.205615 0.661237 0.580403
O O7 0.342338 0.607560 0.479251
O O8 0.685148 0.969727 0.417522
O O9 0.856034 0.105218 0.565811
O O10 0.050604 0.352802 0.327507
O O11 0.213777 0.229265 0.434390
O O12 0.069014 0.593219 0.167055
O O13 0.000000 0.500000 0.000000
O O14 0.303124 0.403566 0.703265
O O15 0.844614 0.020892 0.791169
O O16 0.386664 0.802792 0.726746
O O17 0.500000 0.500000 0.500000
#
# Coordination Sequence:
#
# PCOD9050756 Si02
#       8
#     2   2   2   2   2   2   2   2
#     4  10  25  44  65  92 127 168 205 266 314 357
#     4   9  20  36  59  86 123 159 199 243 309 367
#     4   9  18  37  56  86 124 150 199 247 304 363
#     4  11  22  44  68  96 119 159 221 260 312 371
#     4  11  22  43  60  87 134 163 205 253 312 372
#     4   9  18  37  60  89 118 163 197 245 306 376
#     4   9  18  37  64  86 116 158 201 256 303 367
#     4  12  22  35  54  91 120 157 198 245 300 368
#
# _framework density 23.172864000000001
#
# number of rings (size 3 to 8) (size 9 to 14) (size 15 to 20)
#    0.000    2.000    1.250    4.125    0.000    0.500 
#   11.250    8.125    0.000    0.000    0.000    0.000 
#    0.000    0.000    0.000    0.000    0.000    0.000 
#
# Total GULP energy -89328.128765 kJ/mol
# GULP energy per Si atom -5583.008048 kJ/mol
# Density = 2.312012 g / cm^3
# Si number density = 23.172864 Si / 1000 Ang^3
#
#
#
# Elastic Constant Matrix: (Units=GPa)
#
#
# Indices 1 2 3 4 5 6 
#
# 1 115.9486 34.7964 11.8669 -10.7192 30.8602 -3.5152
# 2 34.7964 92.6755 -1.6704 -9.2090 2.6843 1.3048
# 3 11.8669 -1.6704 50.6879 -16.0451 -4.7057 -1.3077
# 4 -10.7192 -9.2090 -16.0451 28.0010 9.3198 0.7198
# 5 30.8602 2.6843 -4.7057 9.3198 38.9492 -9.8760
# 6 -3.5152 1.3048 -1.3077 0.7198 -9.8760 36.3181
#
#
#
# Elastic Compliance Matrix: (Units=1/GPa)
#
#
# Indices 1 2 3 4 5 6 
#
# 1 0.014472 -0.004316 -0.002560 0.007327 -0.013852 -0.002448
# 2 -0.004316 0.012749 0.002693 0.003438 0.001965 -0.000313
# 3 -0.002560 0.002693 0.024893 0.013549 0.001804 0.000774
# 4 0.007327 0.003438 0.013549 0.053710 -0.018533 -0.005031
# 5 -0.013852 0.001965 0.001804 -0.018533 0.043949 0.010972
# 6 -0.002448 -0.000313 0.000774 -0.005031 0.010972 0.030420
#
#
# Mechanical properties :
#
#
# Convention : Reuss Voigt Hill
#
# Bulk Modulus (GPa) = 22.85846 38.81087 30.83467
# Shear Modulus (GPa) = 24.61340 34.94159 29.77749
#
# Velocity S-wave (km/s) = 3.26262 3.88734 3.58860
# Velocity P-wave (km/s) = 4.90700 6.07728 5.52322
#
# Compressibility (1/GPa) = 0.04374747
#
# Stress axis : x y z
#
# Youngs Moduli (GPa) = 69.10032 78.44056 40.17157
#
# Poissons Ratio (x) = 0.33855 0.10284
# Poissons Ratio (y) = 0.29824 -0.10819
# Poissons Ratio (z) = 0.17691 -0.21125
#
# Static dielectric constant tensor:
#      x y z
#    x 1.892540 -0.002690 0.022230 
#    y -0.002690 1.988080 0.008790 
#    z 0.022230 0.008790 1.904620 
# 
# From -- ./inp_files/500186.got.cif
#   From: 2010.05.17/outbox.cif.g08.bks.cpg/sg2_251_cif.got.tgz:500186.got - 2010.06.03 11:33:40.
