data_PCOD9050815
_publ_section_title
;
Structure prediction by ZEFSAII (Michael W. Deem and Ramdas Pophale) SiO2 
 PCOD9050815
Probable space group: P -1
;
_chemical_formula_sum "Si O2"
_cell_formula_units_Z 15
_cell_length_a 11.328276
_cell_length_b 8.729796
_cell_length_c 9.472753
_cell_angle_alpha 91.897904
_cell_angle_beta 88.533179
_cell_angle_gamma 136.185646
_cell_volume 648.207245
_symmetry_space_group_name_H-M "P -1"
_symmetry_group_IT_number 2
_symmetry_cell_setting 'triclinic'
loop_
_space_group_symop_operation_xyz
x,y,z
-x,-y,-z
loop_
_atom_site_type_symbol
_atom_site_label
_atom_site_fract_x
_atom_site_fract_y
_atom_site_fract_z
Si Si1 0.251456 0.788240 0.070551
Si Si2 0.401138 0.067039 0.528699
Si Si3 0.453126 0.144659 0.847031
Si Si4 0.000000 0.000000 0.000000
Si Si5 0.916178 0.608199 0.152569
Si Si6 0.649214 0.646794 0.824623
Si Si7 0.191890 0.128785 0.472393
Si Si8 0.364859 0.526101 0.666892
O O1 0.409142 0.863364 0.148856
O O2 0.099812 0.703378 0.171115
O O3 0.176576 0.584890 0.966337
O O4 0.319695 0.984270 0.970035
O O5 0.368499 0.049989 0.694953
O O6 0.229598 0.981478 0.463526
O O7 0.536145 0.310418 0.462666
O O8 0.500000 0.000000 0.500000
O O9 0.552742 0.398271 0.857044
O O10 0.199091 0.185389 0.065539
O O11 0.049943 0.193062 0.905483
O O12 0.789723 0.511037 0.283198
O O13 0.741539 0.733411 0.670581
O O14 0.496206 0.624445 0.795700
O O15 0.293098 0.297920 0.606556
O O16 0.000000 0.000000 0.500000
#
# Coordination Sequence:
#
# PCOD9050815 Si02
#       8
#     2   2   2   1   2   2   2   2
#     4  10  25  44  68  96 149 186 232 302 362 424
#     4  11  23  43  73 107 134 187 240 290 367 436
#     4  11  21  45  73  98 139 197 234 291 364 436
#     4  12  26  40  70 102 134 190 238 292 348 426
#     4  11  25  44  62 106 140 181 243 297 354 429
#     4  11  23  44  71 105 143 183 249 290 361 432
#     4  11  23  44  71 104 146 187 235 307 360 420
#     4  11  23  45  71 103 141 186 238 300 354 432
#
# _framework density 23.140747999999999
#
# number of rings (size 3 to 8) (size 9 to 14) (size 15 to 20)
#    0.000    1.067    4.000    2.400    1.867    6.933 
#    2.400    1.333    0.000    0.000    0.000    0.000 
#    0.000    0.000    0.000    0.000    0.000    0.000 
#
# Total GULP energy -83565.029132 kJ/mol
# GULP energy per Si atom -5571.001942 kJ/mol
# Density = 2.308808 g / cm^3
# Si number density = 23.140748 Si / 1000 Ang^3
#
#
#
# Elastic Constant Matrix: (Units=GPa)
#
#
# Indices 1 2 3 4 5 6 
#
# 1 107.6021 6.5734 14.6606 -10.2476 -26.6761 19.8953
# 2 6.5734 77.8653 7.2625 -8.3696 2.5861 5.2320
# 3 14.6606 7.2625 32.3252 -5.6973 -6.6663 3.7653
# 4 -10.2476 -8.3696 -5.6973 35.4991 5.5068 -2.1309
# 5 -26.6761 2.5861 -6.6663 5.5068 32.0470 -11.7577
# 6 19.8953 5.2320 3.7653 -2.1309 -11.7577 38.8319
#
#
#
# Elastic Compliance Matrix: (Units=1/GPa)
#
#
# Indices 1 2 3 4 5 6 
#
# 1 0.012624 -0.000656 -0.003189 0.001471 0.008378 -0.003452
# 2 -0.000656 0.013741 -0.002733 0.003031 -0.003535 -0.002154
# 3 -0.003189 -0.002733 0.034433 0.003317 0.004202 0.000118
# 4 0.001471 0.003031 0.003317 0.030389 -0.003920 -0.001003
# 5 0.008378 -0.003535 0.004202 -0.003920 0.043179 0.008635
# 6 -0.003452 -0.002154 0.000118 -0.001003 0.008635 0.030359
#
#
# Mechanical properties :
#
#
# Convention : Reuss Voigt Hill
#
# Bulk Modulus (GPa) = 20.99037 30.53174 25.76106
# Shear Modulus (GPa) = 25.80475 33.89534 29.85004
#
# Velocity S-wave (km/s) = 3.34297 3.83135 3.59546
# Velocity P-wave (km/s) = 4.89806 5.72669 5.32850
#
# Compressibility (1/GPa) = 0.04764089
#
# Stress axis : x y z
#
# Youngs Moduli (GPa) = 79.21725 72.77516 29.04162
#
# Poissons Ratio (x) = 0.04778 0.09260
# Poissons Ratio (y) = 0.05201 0.07938
# Poissons Ratio (z) = 0.25259 0.19893
#
# Static dielectric constant tensor:
#      x y z
#    x 1.927160 -0.007030 -0.031350 
#    y -0.007030 1.847030 0.045190 
#    z -0.031350 0.045190 1.840820 
# 
# From -- ./inp_files/244097.got.cif
#   From: 2010.05.17/outbox.cif.g08.bks.cpg/sg2_123_cif.got.tgz:244097.got - 2010.06.03 11:33:40.
