data_PCOD9050970
_publ_section_title
;
Structure prediction by ZEFSAII (Michael W. Deem and Ramdas Pophale) SiO2 
 PCOD9050970
Probable space group: P -1
;
_chemical_formula_sum "Si O2"
_cell_formula_units_Z 14
_cell_length_a 14.382962
_cell_length_b 13.801775
_cell_length_c 8.664390
_cell_angle_alpha 36.139275
_cell_angle_beta 35.404903
_cell_angle_gamma 41.279285
_cell_volume 565.352960
_symmetry_space_group_name_H-M "P -1"
_symmetry_group_IT_number 2
_symmetry_cell_setting 'triclinic'
loop_
_space_group_symop_operation_xyz
x,y,z
-x,-y,-z
loop_
_atom_site_type_symbol
_atom_site_label
_atom_site_fract_x
_atom_site_fract_y
_atom_site_fract_z
Si Si1 0.062337 0.165829 0.574847
Si Si2 0.181152 0.847976 0.589297
Si Si3 0.070713 0.301786 0.709371
Si Si4 0.814546 0.577665 0.088749
Si Si5 0.538631 0.807993 0.638953
Si Si6 0.494527 0.174089 0.690141
Si Si7 0.264166 0.743827 0.298621
O O1 0.060697 0.164212 0.763926
O O2 0.875006 0.234223 0.674515
O O3 0.142389 0.009593 0.552185
O O4 0.164881 0.307257 0.230090
O O5 0.370071 0.750227 0.506701
O O6 0.197133 0.890270 0.331361
O O7 0.045055 0.745540 0.940153
O O8 0.263660 0.273192 0.526259
O O9 0.000000 0.500000 0.500000
O O10 0.693336 0.710067 0.194657
O O11 0.734664 0.422335 0.390293
O O12 0.000000 0.500000 0.000000
O O13 0.463630 0.828918 0.542243
O O14 0.500000 0.000000 0.500000
O O15 0.437417 0.726122 0.002693
O O16 0.500000 0.000000 0.000000
#
# Coordination Sequence:
#
# PCOD9050970 Si02
#       7
#     2   2   2   2   2   2   2
#     4  11  23  47  75 105 151 195 246 301 368 444
#     4  12  25  45  75 108 147 201 246 298 368 444
#     4  12  29  47  75 112 153 194 248 305 374 434
#     4  10  25  44  76 107 148 189 245 302 377 425
#     4  12  28  48  73 109 151 192 250 306 361 442
#     4  12  26  47  77 107 147 197 248 303 369 437
#     4  11  26  45  76 110 148 191 248 305 370 433
#
# _framework density 24.763290999999999
#
# number of rings (size 3 to 8) (size 9 to 14) (size 15 to 20)
#    0.000    0.571    1.429    5.143   12.000    1.143 
#    0.000    0.000    0.000    0.000    0.000    0.000 
#    0.000    0.000    0.000    0.000    0.000    0.000 
#
# Total GULP energy -78271.975199 kJ/mol
# GULP energy per Si atom -5590.855371 kJ/mol
# Density = 2.470693 g / cm^3
# Si number density = 24.763291 Si / 1000 Ang^3
#
#
#
# Elastic Constant Matrix: (Units=GPa)
#
#
# Indices 1 2 3 4 5 6 
#
# 1 136.3190 18.7010 61.5287 15.0487 0.2581 8.1089
# 2 18.7010 97.9948 43.4550 6.0597 -4.6010 -11.2589
# 3 61.5287 43.4550 209.6365 25.0146 -3.0602 -7.2442
# 4 15.0487 6.0597 25.0146 36.6434 3.2083 -1.3007
# 5 0.2581 -4.6010 -3.0602 3.2083 40.7891 15.2178
# 6 8.1089 -11.2589 -7.2442 -1.3007 15.2178 33.5742
#
#
#
# Elastic Compliance Matrix: (Units=1/GPa)
#
#
# Indices 1 2 3 4 5 6 
#
# 1 0.008943 -0.000916 -0.002279 -0.002195 0.001176 -0.003577
# 2 -0.000916 0.011707 -0.002027 -0.000018 -0.000250 0.003822
# 3 -0.002279 -0.002027 0.006251 -0.002966 0.000091 0.001063
# 4 -0.002195 -0.000018 -0.002966 0.030634 -0.003634 0.002718
# 5 0.001176 -0.000250 0.000091 -0.003634 0.030035 -0.014103
# 6 -0.003577 0.003822 0.001063 0.002718 -0.014103 0.038657
#
#
# Mechanical properties :
#
#
# Convention : Reuss Voigt Hill
#
# Bulk Modulus (GPa) = 60.76710 76.81329 68.79019
# Shear Modulus (GPa) = 35.17193 43.55239 39.36216
#
# Velocity S-wave (km/s) = 3.77281 4.19829 3.99122
# Velocity P-wave (km/s) = 6.60085 7.38832 7.00566
#
# Compressibility (1/GPa) = 0.01645627
#
# Stress axis : x y z
#
# Youngs Moduli (GPa) = 111.81764 85.41956 159.96259
#
# Poissons Ratio (x) = 0.07823 0.36463
# Poissons Ratio (y) = 0.10241 0.32429
# Poissons Ratio (z) = 0.25489 0.17317
#
# Static dielectric constant tensor:
#      x y z
#    x 1.698050 0.064090 -0.095120 
#    y 0.064090 2.054720 -0.056260 
#    z -0.095120 -0.056260 1.903000 
# 
# From -- ./inp_files/314428.got.cif
#   From: 2010.05.17/outbox.cif.g08.bks.cpg/sg2_158_cif.got.tgz:314428.got - 2010.06.03 11:33:40.
