data_PCOD9050044
_publ_section_title
;
Structure prediction by ZEFSAII (Michael W. Deem and Ramdas Pophale) SiO2 
 PCOD9050044
Probable space group: P -1
;
_chemical_formula_sum "Si O2"
_cell_formula_units_Z 16
_cell_length_a 14.987586
_cell_length_b 14.732447
_cell_length_c 11.010348
_cell_angle_alpha 120.279667
_cell_angle_beta 39.179044
_cell_angle_gamma 151.248356
_cell_volume 603.302449
_symmetry_space_group_name_H-M "P -1"
_symmetry_group_IT_number 2
_symmetry_cell_setting 'triclinic'
loop_
_space_group_symop_operation_xyz
x,y,z
-x,-y,-z
loop_
_atom_site_type_symbol
_atom_site_label
_atom_site_fract_x
_atom_site_fract_y
_atom_site_fract_z
Si Si1 0.542268 0.743873 0.211409
Si Si2 0.809633 0.203925 0.979851
Si Si3 0.913959 0.588786 0.745287
Si Si4 0.191606 0.024305 0.451885
Si Si5 0.272089 0.722996 0.106383
Si Si6 0.885717 0.803696 0.255882
Si Si7 0.463571 0.099979 0.456161
Si Si8 0.497282 0.495812 0.770843
O O1 0.602351 0.668956 0.152648
O O2 0.238437 0.533896 0.307075
O O3 0.510012 0.804066 0.395146
O O4 0.821749 0.965236 0.979208
O O5 0.764748 0.250211 0.173238
O O6 0.916085 0.335984 0.836062
O O7 0.465087 0.933891 0.126124
O O8 0.009956 0.236625 0.823654
O O9 0.251806 0.862082 0.561391
O O10 0.892185 0.469817 0.766517
O O11 0.696749 0.532234 0.999686
O O12 0.174373 0.138858 0.552720
O O13 0.859363 0.757401 0.586231
O O14 0.284455 0.044163 0.500645
O O15 0.459491 0.161656 0.172756
O O16 0.604873 0.599012 0.321563
#
# Coordination Sequence:
#
# PCOD9050044 Si02
#       8
#     2   2   2   2   2   2   2   2
#     4  12  22  41  71 110 147 175 232 303 355 415
#     4  10  24  48  73  98 145 195 235 295 353 418
#     4  12  23  42  73 110 140 187 235 297 360 420
#     4  11  23  45  76 105 141 188 239 292 357 423
#     4  10  24  49  73 101 144 192 239 295 351 422
#     4  12  23  42  72 108 145 185 232 300 358 417
#     4  11  24  44  76 106 141 188 239 292 356 425
#     4  12  23  39  73 111 143 179 235 297 360 419
#
# _framework density 26.520695
#
# number of rings (size 3 to 8) (size 9 to 14) (size 15 to 20)
#    0.000    0.750    6.250    1.500    0.000    3.000 
#    0.000    5.625    0.000    1.500    0.000    0.000 
#    0.000    0.000    0.000    0.000    0.000    0.000 
#
# Total GULP energy -90038.708674 kJ/mol
# GULP energy per Si atom -5627.419292 kJ/mol
# Density = 2.646033 g / cm^3
# Si number density = 26.520695 Si / 1000 Ang^3
#
#
#
# Elastic Constant Matrix: (Units=GPa)
#
#
# Indices 1 2 3 4 5 6 
#
# 1 142.3891 35.3437 7.0969 3.1797 -24.2509 -36.0542
# 2 35.3437 138.2238 17.1889 16.7267 -7.7649 -6.7643
# 3 7.0969 17.1889 82.9125 15.4105 -17.3923 -9.1247
# 4 3.1797 16.7267 15.4105 49.3279 1.2034 1.9663
# 5 -24.2509 -7.7649 -17.3923 1.2034 33.0297 2.7883
# 6 -36.0542 -6.7643 -9.1247 1.9663 2.7883 62.0362
#
#
#
# Elastic Compliance Matrix: (Units=1/GPa)
#
#
# Indices 1 2 3 4 5 6 
#
# 1 0.010176 -0.002021 0.001946 -0.000989 0.007578 0.005671
# 2 -0.002021 0.008145 -0.001151 -0.002255 -0.000061 -0.000382
# 3 0.001946 -0.001151 0.015279 -0.004850 0.009127 0.002996
# 4 -0.000989 -0.002255 -0.004850 0.022807 -0.004468 -0.002056
# 5 0.007578 -0.000061 0.009127 -0.004468 0.040451 0.004064
# 6 0.005671 -0.000382 0.002996 -0.002056 0.004064 0.019697
#
#
# Mechanical properties :
#
#
# Convention : Reuss Voigt Hill
#
# Bulk Modulus (GPa) = 32.10545 53.64273 42.87409
# Shear Modulus (GPa) = 38.64220 49.13849 43.89035
#
# Velocity S-wave (km/s) = 3.82128 4.30913 4.07252
# Velocity P-wave (km/s) = 5.62154 6.71035 6.18993
#
# Compressibility (1/GPa) = 0.03114736
#
# Stress axis : x y z
#
# Youngs Moduli (GPa) = 98.26636 122.76814 65.45017
#
# Poissons Ratio (x) = 0.24812 -0.12734
# Poissons Ratio (y) = 0.19860 0.07535
# Poissons Ratio (z) = -0.19119 0.14133
#
# Static dielectric constant tensor:
#      x y z
#    x 2.041450 0.023320 0.013030 
#    y 0.023320 2.039400 -0.040300 
#    z 0.013030 -0.040300 2.045400 
# 
# From -- ./inp_files/455802.got.cif
#   From: 2010.05.17/outbox.cif.g08.bks.cpg/sg2_228_cif.got.tgz:455802.got - 2010.06.03 11:33:40.
