data_PCOD9050595
_publ_section_title
;
Structure prediction by ZEFSAII (Michael W. Deem and Ramdas Pophale) SiO2 
 PCOD9050595
Probable space group: P -1
;
_chemical_formula_sum "Si O2"
_cell_formula_units_Z 14
_cell_length_a 17.426661
_cell_length_b 5.546244
_cell_length_c 14.175465
_cell_angle_alpha 119.277799
_cell_angle_beta 147.988824
_cell_angle_gamma 68.237706
_cell_volume 630.626730
_symmetry_space_group_name_H-M "P -1"
_symmetry_group_IT_number 2
_symmetry_cell_setting 'triclinic'
loop_
_space_group_symop_operation_xyz
x,y,z
-x,-y,-z
loop_
_atom_site_type_symbol
_atom_site_label
_atom_site_fract_x
_atom_site_fract_y
_atom_site_fract_z
Si Si1 0.107469 0.754772 0.128947
Si Si2 0.091752 0.310213 0.265938
Si Si3 0.446398 0.143814 0.810688
Si Si4 0.428000 0.688136 0.384491
Si Si5 0.408072 0.490306 0.643872
Si Si6 0.989929 0.319441 0.582697
Si Si7 0.743513 0.459854 0.206944
O O1 0.269811 0.704653 0.264046
O O2 0.110443 0.994028 0.258747
O O3 0.000000 0.500000 0.000000
O O4 0.038373 0.782217 0.957979
O O5 0.254888 0.393444 0.413297
O O6 0.051952 0.563403 0.337049
O O7 0.413990 0.303665 0.709133
O O8 0.352231 0.290521 0.818406
O O9 0.406398 0.818088 0.717538
O O10 0.619752 0.207518 0.018678
O O11 0.500000 0.500000 0.500000
O O12 0.452915 0.548959 0.283082
O O13 0.500000 0.000000 0.500000
O O14 0.149112 0.472130 0.755155
O O15 0.859424 0.418517 0.401939
O O16 0.000000 0.000000 0.500000
#
# Coordination Sequence:
#
# PCOD9050595 Si02
#       7
#     2   2   2   2   2   2   2
#     4  11  27  46  74 103 145 196 244 306 362 442
#     4  11  25  45  71 103 143 191 245 295 368 435
#     4  11  26  44  72 104 141 188 241 293 364 433
#     4  12  26  46  72 105 144 182 244 302 361 429
#     4  12  25  45  73 104 142 193 236 299 367 430
#     4  11  24  43  71 101 146 186 237 298 366 431
#     4  10  25  43  66 103 141 185 238 298 357 436
#
# _framework density 22.200137000000002
#
# number of rings (size 3 to 8) (size 9 to 14) (size 15 to 20)
#    0.000    0.857    2.857    2.571    8.000    4.571 
#    0.000    0.000    0.000    0.000    0.000    0.000 
#    0.000    0.000    0.000    0.000    0.000    0.000 
#
# Total GULP energy -78000.104599 kJ/mol
# GULP energy per Si atom -5571.436043 kJ/mol
# Density = 2.214961 g / cm^3
# Si number density = 22.200137 Si / 1000 Ang^3
#
#
#
# Elastic Constant Matrix: (Units=GPa)
#
#
# Indices 1 2 3 4 5 6 
#
# 1 89.7124 24.6764 13.9477 -6.3202 15.5690 -14.8946
# 2 24.6764 76.6862 41.5683 26.6821 7.6467 -7.3491
# 3 13.9477 41.5683 97.3687 -0.4062 30.7431 -4.3249
# 4 -6.3202 26.6821 -0.4062 42.5389 -2.1299 -1.4878
# 5 15.5690 7.6467 30.7431 -2.1299 42.3568 2.5456
# 6 -14.8946 -7.3491 -4.3249 -1.4878 2.5456 36.1044
#
#
#
# Elastic Compliance Matrix: (Units=1/GPa)
#
#
# Indices 1 2 3 4 5 6 
#
# 1 0.015620 -0.008492 0.003902 0.007542 -0.007021 0.005989
# 2 -0.008492 0.029021 -0.013373 -0.019276 0.006646 -0.000461
# 3 0.003902 -0.013373 0.019680 0.008592 -0.013023 0.002517
# 4 0.007542 -0.019276 0.008592 0.036681 -0.003804 0.001997
# 5 -0.007021 0.006646 -0.013023 -0.003804 0.034594 -0.005700
# 6 0.005989 -0.000461 0.002517 0.001997 -0.005700 0.030860
#
#
# Mechanical properties :
#
#
# Convention : Reuss Voigt Hill
#
# Bulk Modulus (GPa) = 35.21531 47.12800 41.17166
# Shear Modulus (GPa) = 23.60213 36.43834 30.02024
#
# Velocity S-wave (km/s) = 3.26414 4.05576 3.68129
# Velocity P-wave (km/s) = 5.48664 6.57321 6.05435
#
# Compressibility (1/GPa) = 0.02839674
#
# Stress axis : x y z
#
# Youngs Moduli (GPa) = 64.02094 34.45745 50.81313
#
# Poissons Ratio (x) = 0.29260 -0.19827
# Poissons Ratio (y) = 0.54363 0.67951
# Poissons Ratio (z) = -0.24981 0.46079
#
# Static dielectric constant tensor:
#      x y z
#    x 1.621400 -0.764030 0.404840 
#    y -0.764030 -0.771490 1.587920 
#    z 0.404840 1.587920 0.888370 
# 
# From -- ./inp_files/48963.got.cif
#   From: 2010.05.17/outbox.cif.g08.bks.cpg/sg2_25_cif.got.tgz:48963.got - 2010.06.03 11:33:40.
