data_PCOD9050940
_publ_section_title
;
Structure prediction by ZEFSAII (Michael W. Deem and Ramdas Pophale) SiO2 
 PCOD9050940
Probable space group: P -1
;
_chemical_formula_sum "Si O2"
_cell_formula_units_Z 16
_cell_length_a 17.076942
_cell_length_b 10.966299
_cell_length_c 8.967353
_cell_angle_alpha 48.436248
_cell_angle_beta 132.457475
_cell_angle_gamma 147.403440
_cell_volume 648.218629
_symmetry_space_group_name_H-M "P -1"
_symmetry_group_IT_number 2
_symmetry_cell_setting 'triclinic'
loop_
_space_group_symop_operation_xyz
x,y,z
-x,-y,-z
loop_
_atom_site_type_symbol
_atom_site_label
_atom_site_fract_x
_atom_site_fract_y
_atom_site_fract_z
Si Si1 0.328740 0.026312 0.437713
Si Si2 0.124879 0.714757 0.172939
Si Si3 0.166061 0.167449 0.509536
Si Si4 0.720905 0.072455 0.109581
Si Si5 0.615973 0.279429 0.155068
Si Si6 0.084297 0.686053 0.593013
Si Si7 0.574536 0.448091 0.248058
Si Si8 0.098129 0.236379 0.041371
O O1 0.273699 0.924357 0.284871
O O2 0.380625 0.911468 0.662557
O O3 0.183012 0.919346 0.432965
O O4 0.458942 0.296399 0.360373
O O5 0.054033 0.467586 0.343568
O O6 0.181150 0.765268 0.037502
O O7 0.012877 0.740614 0.056041
O O8 0.272516 0.352154 0.628208
O O9 0.164215 0.237613 0.282312
O O10 0.217724 0.036830 0.677300
O O11 0.000000 0.000000 0.500000
O O12 0.784922 0.248119 0.185767
O O13 0.542456 0.865704 0.019104
O O14 0.600610 0.330501 0.262190
O O15 0.762757 0.534217 0.065240
O O16 0.000000 0.500000 0.500000
O O17 0.500000 0.500000 0.000000
O O18 0.000000 0.000000 0.000000
#
# Coordination Sequence:
#
# PCOD9050940 Si02
#       8
#     2   2   2   2   2   2   2   2
#     4  11  25  47  76 108 153 200 249 314 388 451
#     4  11  23  49  71 111 148 199 251 312 377 457
#     4  12  27  47  74 111 147 204 255 315 383 457
#     4  12  26  46  76 107 152 194 261 313 384 456
#     4  12  27  48  76 115 151 204 254 316 385 458
#     4  10  25  44  73 103 144 191 250 310 379 443
#     4  12  26  49  78 111 160 199 252 318 390 463
#     4  12  29  46  77 112 156 202 262 317 383 455
#
# _framework density 24.683032000000001
#
# number of rings (size 3 to 8) (size 9 to 14) (size 15 to 20)
#    0.000    0.500    5.000    1.500    7.000    4.000 
#    0.000    0.000    0.000    0.000    0.000    0.000 
#    0.000    0.000    0.000    0.000    0.000    0.000 
#
# Total GULP energy -89199.316258 kJ/mol
# GULP energy per Si atom -5574.957266 kJ/mol
# Density = 2.462685 g / cm^3
# Si number density = 24.683032 Si / 1000 Ang^3
#
#
#
# Elastic Constant Matrix: (Units=GPa)
#
#
# Indices 1 2 3 4 5 6 
#
# 1 72.9673 39.6542 49.4426 -0.0801 -11.7416 13.7649
# 2 39.6542 182.4805 58.6114 23.2996 -12.8253 30.7273
# 3 49.4426 58.6114 156.2431 13.9229 -14.6602 13.8263
# 4 -0.0801 23.2996 13.9229 48.9041 -0.1250 -16.2777
# 5 -11.7416 -12.8253 -14.6602 -0.1250 59.7867 -2.1089
# 6 13.7649 30.7273 13.8263 -16.2777 -2.1089 39.2857
#
#
#
# Elastic Compliance Matrix: (Units=1/GPa)
#
#
# Indices 1 2 3 4 5 6 
#
# 1 0.019033 -0.002230 -0.004945 0.001719 0.001967 -0.002366
# 2 -0.002230 0.008597 -0.001138 -0.006500 0.000825 -0.008192
# 3 -0.004945 -0.001138 0.008824 -0.002460 0.000892 -0.001454
# 4 0.001719 -0.006500 -0.002460 0.030169 -0.000969 0.017796
# 5 0.001967 0.000825 0.000892 -0.000969 0.017467 -0.001112
# 6 -0.002366 -0.008192 -0.001454 0.017796 -0.001112 0.040516
#
#
# Mechanical properties :
#
#
# Convention : Reuss Voigt Hill
#
# Bulk Modulus (GPa) = 50.43811 78.56747 64.50279
# Shear Modulus (GPa) = 33.82000 47.19416 40.50708
#
# Velocity S-wave (km/s) = 3.70560 4.37740 4.05543
# Velocity P-wave (km/s) = 6.22795 7.57948 6.93671
#
# Compressibility (1/GPa) = 0.01982628
#
# Stress axis : x y z
#
# Youngs Moduli (GPa) = 52.54160 116.31292 113.33223
#
# Poissons Ratio (x) = 0.25943 0.56047
# Poissons Ratio (y) = 0.11719 0.12895
# Poissons Ratio (z) = 0.25984 0.13234
#
# Static dielectric constant tensor:
#      x y z
#    x 1.932050 -0.093440 0.058970 
#    y -0.093440 2.353850 -0.019890 
#    z 0.058970 -0.019890 2.006260 
# 
# From -- ./inp_files/332955.got.cif
#   From: 2010.05.17/outbox.cif.g08.bks.cpg/sg2_167_cif.got.tgz:332955.got - 2010.06.03 11:33:40.
