data_PCOD9050174
_publ_section_title
;
Structure prediction by ZEFSAII (Michael W. Deem and Ramdas Pophale) SiO2 
 PCOD9050174
Probable space group: P -1
;
_chemical_formula_sum "Si O2"
_cell_formula_units_Z 14
_cell_length_a 10.474541
_cell_length_b 7.301884
_cell_length_c 11.925017
_cell_angle_alpha 60.233159
_cell_angle_beta 63.948253
_cell_angle_gamma 44.172732
_cell_volume 546.463696
_symmetry_space_group_name_H-M "P -1"
_symmetry_group_IT_number 2
_symmetry_cell_setting 'triclinic'
loop_
_space_group_symop_operation_xyz
x,y,z
-x,-y,-z
loop_
_atom_site_type_symbol
_atom_site_label
_atom_site_fract_x
_atom_site_fract_y
_atom_site_fract_z
Si Si1 0.318073 0.390028 0.973819
Si Si2 0.763798 0.753609 0.718799
Si Si3 0.473830 0.220417 0.361139
Si Si4 0.055391 0.779582 0.638860
Si Si5 0.753712 0.081473 0.118734
Si Si6 0.528770 0.639799 0.302662
Si Si7 0.046080 0.081466 0.118737
O O1 0.444258 0.254818 0.856655
O O2 0.292987 0.286356 0.127657
O O3 0.354071 0.595193 0.936709
O O4 0.114023 0.595199 0.936705
O O5 0.715600 0.633977 0.677601
O O6 0.972826 0.633977 0.677599
O O7 0.630724 0.085937 0.652615
O O8 0.484698 0.438940 0.348179
O O9 0.500000 0.000000 0.500000
O O10 0.633910 0.052124 0.254643
O O11 0.940682 0.947883 0.745352
O O12 0.271820 0.561063 0.651816
O O13 0.000000 0.000000 0.500000
O O14 0.788927 0.000004 0.999997
O O15 0.950780 0.960595 0.137841
#
# Coordination Sequence:
#
# PCOD9050174 Si02
#       7
#     2   2   2   2   2   2   2
#     4   8  18  38  63  98 132 174 224 286 342 404
#     4  12  26  39  71 105 128 187 241 274 354 421
#     4  11  24  43  67  98 140 184 229 285 348 417
#     4  11  24  43  67  98 140 184 229 285 348 417
#     4   8  17  38  67  97 136 178 224 291 347 400
#     4  10  24  49  66  96 150 177 222 303 343 407
#     4   8  17  38  67  97 136 178 224 291 347 400
#
# _framework density 25.619268000000002
#
# number of rings (size 3 to 8) (size 9 to 14) (size 15 to 20)
#    0.857    1.429    1.429    1.286    0.000   11.429 
#    0.000    1.429    0.000    5.143    0.000    0.000 
#    0.000    0.000    0.000    0.000    0.000    0.000 
#
# Total GULP energy -78257.679111 kJ/mol
# GULP energy per Si atom -5589.834222 kJ/mol
# Density = 2.556096 g / cm^3
# Si number density = 25.619268 Si / 1000 Ang^3
#
#
#
# Elastic Constant Matrix: (Units=GPa)
#
#
# Indices 1 2 3 4 5 6 
#
# 1 172.0056 29.1783 50.9783 -16.2379 2.7949 23.4868
# 2 29.1783 55.6917 3.2515 1.2773 -5.1981 -0.8005
# 3 50.9783 3.2515 166.3896 -16.0771 6.0957 10.1681
# 4 -16.2379 1.2773 -16.0771 33.1642 1.4291 -3.8945
# 5 2.7949 -5.1981 6.0957 1.4291 37.0970 -7.0571
# 6 23.4868 -0.8005 10.1681 -3.8945 -7.0571 15.8984
#
#
#
# Elastic Compliance Matrix: (Units=1/GPa)
#
#
# Indices 1 2 3 4 5 6 
#
# 1 0.009498 -0.005540 -0.001512 0.002602 -0.004108 -0.014529
# 2 -0.005540 0.021587 0.000161 -0.002408 0.005615 0.011071
# 3 -0.001512 0.000161 0.006895 0.002397 -0.001518 -0.002255
# 4 0.002602 -0.002408 0.002397 0.032967 -0.001864 0.001751
# 5 -0.004108 0.005615 -0.001518 -0.001864 0.032417 0.021255
# 6 -0.014529 0.011071 -0.002255 0.001751 0.021255 0.096227
#
#
# Mechanical properties :
#
#
# Convention : Reuss Voigt Hill
#
# Bulk Modulus (GPa) = 41.32577 62.32258 51.82418
# Shear Modulus (GPa) = 22.57950 37.94382 30.26166
#
# Velocity S-wave (km/s) = 2.97197 3.85264 3.44060
# Velocity P-wave (km/s) = 5.28607 6.64603 6.00468
#
# Compressibility (1/GPa) = 0.02419798
#
# Stress axis : x y z
#
# Youngs Moduli (GPa) = 105.28684 46.32318 145.03132
#
# Poissons Ratio (x) = 0.25662 0.21928
# Poissons Ratio (y) = 0.58327 -0.02328
# Poissons Ratio (z) = 0.15919 -0.00744
#
# Static dielectric constant tensor:
#      x y z
#    x 2.082890 0.014100 -0.009200 
#    y 0.014100 2.026560 0.025260 
#    z -0.009200 0.025260 2.029760 
# 
# From -- ./inp_files/414215.got.cif
#   From: 2010.05.17/outbox.cif.g08.bks.cpg/sg2_208_cif.got.tgz:414215.got - 2010.06.03 11:33:40.
