data_PCOD9050610
_publ_section_title
;
Structure prediction by ZEFSAII (Michael W. Deem and Ramdas Pophale) SiO2 
 PCOD9050610
Probable space group: P -1
;
_chemical_formula_sum "Si O2"
_cell_formula_units_Z 12
_cell_length_a 17.609238
_cell_length_b 5.844349
_cell_length_c 7.804653
_cell_angle_alpha 57.945252
_cell_angle_beta 52.776257
_cell_angle_gamma 54.751360
_cell_volume 501.534857
_symmetry_space_group_name_H-M "P -1"
_symmetry_group_IT_number 2
_symmetry_cell_setting 'triclinic'
loop_
_space_group_symop_operation_xyz
x,y,z
-x,-y,-z
loop_
_atom_site_type_symbol
_atom_site_label
_atom_site_fract_x
_atom_site_fract_y
_atom_site_fract_z
Si Si1 0.062572 0.172782 0.109861
Si Si2 0.077306 0.175159 0.497530
Si Si3 0.715807 0.802172 0.690328
Si Si4 0.287306 0.769510 0.904351
Si Si5 0.437018 0.955451 0.441156
Si Si6 0.418962 0.828758 0.008346
O O1 0.092936 0.138224 0.285333
O O2 0.979017 0.024375 0.271724
O O3 0.000000 0.500000 0.000000
O O4 0.171271 0.997919 0.935890
O O5 0.178451 0.155194 0.467464
O O6 0.000000 0.500000 0.500000
O O7 0.665783 0.772118 0.589863
O O8 0.722259 0.532310 0.908654
O O9 0.635450 0.099990 0.763871
O O10 0.330543 0.882292 0.966600
O O11 0.379514 0.737790 0.655706
O O12 0.521060 0.953878 0.186601
O O13 0.500000 0.000000 0.500000
O O14 0.500000 0.500000 0.000000
#
# Coordination Sequence:
#
# PCOD9050610 Si02
#       6
#     2   2   2   2   2   2
#     4  11  26  45  71 102 145 181 235 298 348 414
#     4  11  25  45  71 104 139 187 236 285 359 418
#     4  12  24  45  73  99 140 188 232 285 351 421
#     4  11  24  44  67 100 139 184 233 283 353 415
#     4  10  25  43  67 102 137 180 232 285 346 409
#     4  11  23  45  69  97 140 182 229 287 342 412
#
# _framework density 23.926552999999998
#
# number of rings (size 3 to 8) (size 9 to 14) (size 15 to 20)
#    0.000    1.000    5.000    0.500    2.333    4.000 
#    6.000    0.000    0.000    0.000    0.000    0.000 
#    0.000    0.000    0.000    0.000    0.000    0.000 
#
# Total GULP energy -66962.179310 kJ/mol
# GULP energy per Si atom -5580.181609 kJ/mol
# Density = 2.387210 g / cm^3
# Si number density = 23.926553 Si / 1000 Ang^3
#
#
#
# Elastic Constant Matrix: (Units=GPa)
#
#
# Indices 1 2 3 4 5 6 
#
# 1 171.8998 44.8429 74.5472 -0.2822 -43.3947 -30.5830
# 2 44.8429 123.4163 50.7454 -19.5697 -27.0313 -20.3897
# 3 74.5472 50.7454 134.1609 -19.3523 -37.1014 -6.5443
# 4 -0.2822 -19.5697 -19.3523 42.6604 2.0420 -3.8587
# 5 -43.3947 -27.0313 -37.1014 2.0420 47.0500 1.9323
# 6 -30.5830 -20.3897 -6.5443 -3.8587 1.9323 33.8000
#
#
#
# Elastic Compliance Matrix: (Units=1/GPa)
#
#
# Indices 1 2 3 4 5 6 
#
# 1 0.010628 0.000492 -0.003987 -0.001049 0.006631 0.008642
# 2 0.000492 0.011995 -0.002372 0.004871 0.004956 0.007494
# 3 -0.003987 -0.002372 0.012293 0.004020 0.004580 -0.002461
# 4 -0.001049 0.004871 0.004020 0.027841 0.003557 0.005743
# 5 0.006631 0.004956 0.004580 0.003557 0.033330 0.008377
# 6 0.008642 0.007494 -0.002461 0.005743 0.008377 0.041627
#
#
# Mechanical properties :
#
#
# Convention : Reuss Voigt Hill
#
# Bulk Modulus (GPa) = 43.13843 85.52754 64.33299
# Shear Modulus (GPa) = 31.81151 41.99153 36.90152
#
# Velocity S-wave (km/s) = 3.65025 4.19384 3.93145
# Velocity P-wave (km/s) = 5.98619 7.69899 6.89598
#
# Compressibility (1/GPa) = 0.02318119
#
# Stress axis : x y z
#
# Youngs Moduli (GPa) = 94.08991 83.36802 81.34806
#
# Poissons Ratio (x) = -0.04100 0.32437
# Poissons Ratio (y) = -0.04627 0.19293
# Poissons Ratio (z) = 0.37518 0.19772
#
# Static dielectric constant tensor:
#      x y z
#    x 2.231510 0.068970 0.421010 
#    y 0.068970 1.919940 0.095380 
#    z 0.421010 0.095380 2.402440 
# 
# From -- ./inp_files/37067.got.cif
#   From: 2010.05.17/outbox.cif.g08.bks.cpg/sg2_19_cif.got.tgz:37067.got - 2010.06.03 11:33:40.
