data_PCOD9050067
_publ_section_title
;
Structure prediction by ZEFSAII (Michael W. Deem and Ramdas Pophale) SiO2 
 PCOD9050067
Probable space group: P -1
;
_chemical_formula_sum "Si O2"
_cell_formula_units_Z 16
_cell_length_a 13.263938
_cell_length_b 13.777697
_cell_length_c 11.148370
_cell_angle_alpha 139.258701
_cell_angle_beta 121.048034
_cell_angle_gamma 30.583090
_cell_volume 616.697362
_symmetry_space_group_name_H-M "P -1"
_symmetry_group_IT_number 2
_symmetry_cell_setting 'triclinic'
loop_
_space_group_symop_operation_xyz
x,y,z
-x,-y,-z
loop_
_atom_site_type_symbol
_atom_site_label
_atom_site_fract_x
_atom_site_fract_y
_atom_site_fract_z
Si Si1 0.277990 0.138539 0.966877
Si Si2 0.090442 0.277603 0.727026
Si Si3 0.162365 0.800854 0.025687
Si Si4 0.744283 0.799560 0.618860
Si Si5 0.517270 0.181550 0.601921
Si Si6 0.198389 0.679104 0.333729
Si Si7 0.756635 0.177445 0.285603
Si Si8 0.579918 0.270011 0.028705
O O1 0.217210 0.210272 0.855217
O O2 0.276014 0.961871 0.827317
O O3 0.053969 0.446780 0.175313
O O4 0.500000 0.000000 0.000000
O O5 0.901187 0.371056 0.740824
O O6 0.271091 0.987344 0.497526
O O7 0.319686 0.492819 0.817366
O O8 0.328321 0.761935 0.068552
O O9 0.000000 0.000000 0.000000
O O10 0.004446 0.951494 0.182759
O O11 0.607637 0.795326 0.546057
O O12 0.000000 0.500000 0.500000
O O13 0.638640 0.968828 0.586960
O O14 0.689564 0.993503 0.854789
O O15 0.309494 0.634135 0.477294
O O16 0.331486 0.516018 0.140750
O O17 0.000000 0.000000 0.500000
O O18 0.639670 0.319049 0.218169
#
# Coordination Sequence:
#
# PCOD9050067 Si02
#       8
#     2   2   2   2   2   2   2   2
#     4  11  26  47  74 107 150 203 257 315 386 460
#     4  11  27  46  72 111 150 198 262 315 384 459
#     4  10  24  48  74 111 151 198 256 315 381 465
#     4  11  27  48  76 110 149 205 262 317 391 463
#     4  11  27  46  76 107 154 202 256 323 388 458
#     4  12  25  46  72 108 151 194 251 314 378 458
#     4  11  25  46  77 102 152 199 251 311 386 448
#     4  11  26  46  75 109 148 198 255 315 385 459
#
# _framework density 25.944654
#
# number of rings (size 3 to 8) (size 9 to 14) (size 15 to 20)
#    0.000    1.000    1.250    3.375   14.000    0.500 
#    2.250    0.000    0.000    0.000    0.000    0.000 
#    0.000    0.000    0.000    0.000    0.000    0.000 
#
# Total GULP energy -89279.502163 kJ/mol
# GULP energy per Si atom -5579.968885 kJ/mol
# Density = 2.588560 g / cm^3
# Si number density = 25.944654 Si / 1000 Ang^3
#
#
#
# Elastic Constant Matrix: (Units=GPa)
#
#
# Indices 1 2 3 4 5 6 
#
# 1 135.3557 15.5745 44.9621 10.1260 -2.8592 -31.8146
# 2 15.5745 150.5304 30.9251 8.8449 -0.5719 -15.6183
# 3 44.9621 30.9251 138.6942 27.0446 -12.9952 -15.5152
# 4 10.1260 8.8449 27.0446 57.4901 -10.4142 9.2486
# 5 -2.8592 -0.5719 -12.9952 -10.4142 44.7921 4.5508
# 6 -31.8146 -15.6183 -15.5152 9.2486 4.5508 25.0562
#
#
#
# Elastic Compliance Matrix: (Units=1/GPa)
#
#
# Indices 1 2 3 4 5 6 
#
# 1 0.012195 0.001149 -0.001538 -0.004885 -0.002569 0.017518
# 2 0.001149 0.007537 -0.001016 -0.002176 -0.001298 0.006567
# 3 -0.001538 -0.001016 0.009468 -0.004599 0.001081 0.004778
# 4 -0.004885 -0.002176 -0.004599 0.025256 0.006319 -0.020877
# 5 -0.002569 -0.001298 0.001081 0.006319 0.024971 -0.010269
# 6 0.017518 0.006567 0.004778 -0.020877 -0.010269 0.078777
#
#
# Mechanical properties :
#
#
# Convention : Reuss Voigt Hill
#
# Bulk Modulus (GPa) = 37.89230 67.50039 52.69634
# Shear Modulus (GPa) = 29.44443 47.67558 38.56000
#
# Velocity S-wave (km/s) = 3.37247 4.29136 3.85936
# Velocity P-wave (km/s) = 5.45908 7.11533 6.34151
#
# Compressibility (1/GPa) = 0.02639059
#
# Stress axis : x y z
#
# Youngs Moduli (GPa) = 81.99806 132.67399 105.61999
#
# Poissons Ratio (x) = -0.15245 0.16247
# Poissons Ratio (y) = -0.09422 0.10730
# Poissons Ratio (z) = 0.12613 0.13478
#
# Static dielectric constant tensor:
#      x y z
#    x 2.307970 -0.000540 0.226460 
#    y -0.000540 2.228650 0.061210 
#    z 0.226460 0.061210 2.371470 
# 
# From -- ./inp_files/455945.got.cif
#   From: 2010.05.17/outbox.cif.g08.bks.cpg/sg2_228_cif.got.tgz:455945.got - 2010.06.03 11:33:40.
