data_PCOD9050490
_publ_section_title
;
Structure prediction by ZEFSAII (Michael W. Deem and Ramdas Pophale) SiO2 
 PCOD9050490
Probable space group: P -1
;
_chemical_formula_sum "Si O2"
_cell_formula_units_Z 16
_cell_length_a 18.090084
_cell_length_b 8.152011
_cell_length_c 14.145432
_cell_angle_alpha 42.836460
_cell_angle_beta 30.689561
_cell_angle_gamma 44.011546
_cell_volume 699.892549
_symmetry_space_group_name_H-M "P -1"
_symmetry_group_IT_number 2
_symmetry_cell_setting 'triclinic'
loop_
_space_group_symop_operation_xyz
x,y,z
-x,-y,-z
loop_
_atom_site_type_symbol
_atom_site_label
_atom_site_fract_x
_atom_site_fract_y
_atom_site_fract_z
Si Si1 0.135228 0.088779 0.517505
Si Si2 0.639270 0.915047 0.176695
Si Si3 0.156820 0.634113 0.804577
Si Si4 0.364805 0.848740 0.630964
Si Si5 0.349988 0.605500 0.938137
Si Si6 0.917843 0.780989 0.152786
Si Si7 0.971588 0.505678 0.672801
Si Si8 0.527892 0.896243 0.907003
O O1 0.042632 0.225837 0.471456
O O2 0.308654 0.085024 0.314576
O O3 0.065279 0.282918 0.596668
O O4 0.132492 0.810893 0.665244
O O5 0.752815 0.650136 0.178693
O O6 0.494874 0.914765 0.400280
O O7 0.697482 0.143623 0.054945
O O8 0.588810 0.967305 0.101121
O O9 0.262790 0.748646 0.710408
O O10 0.997569 0.678869 0.011877
O O11 0.415251 0.654339 0.743680
O O12 0.256359 0.085853 0.702516
O O13 0.197897 0.522353 0.121619
O O14 0.460680 0.396705 0.967105
O O15 0.956442 0.555491 0.279161
O O16 0.000000 0.000000 0.000000
O O17 0.500000 0.000000 0.000000
#
# Coordination Sequence:
#
# PCOD9050490 Si02
#       8
#     2   2   2   2   2   2   2   2
#     4  10  20  34  60  91 110 149 202 256 281 336
#     4  12  25  38  59  90 128 157 188 247 306 358
#     4  11  20  36  61  91 116 148 205 251 288 338
#     4  11  20  39  62  88 116 160 205 241 288 353
#     4  11  23  39  60  88 125 158 188 238 311 364
#     4  10  17  34  63  86 113 150 206 253 279 339
#     4  10  18  36  61  88 114 151 201 245 295 346
#     4  11  24  40  63  87 116 158 205 245 286 350
#
# _framework density 22.860652000000002
#
# number of rings (size 3 to 8) (size 9 to 14) (size 15 to 20)
#    0.000    1.250    6.250    1.875    3.500    0.000 
#    0.000    2.500    0.000    0.750    0.000    0.000 
#    0.000    0.000    0.000    0.000    0.000    0.000 
#
# Total GULP energy -89496.858990 kJ/mol
# GULP energy per Si atom -5593.553687 kJ/mol
# Density = 2.280862 g / cm^3
# Si number density = 22.860652 Si / 1000 Ang^3
#
#
#
# Elastic Constant Matrix: (Units=GPa)
#
#
# Indices 1 2 3 4 5 6 
#
# 1 85.0181 36.9614 40.7594 -16.9926 24.8894 -26.6203
# 2 36.9614 146.5909 33.4967 -29.3417 17.7105 -30.3158
# 3 40.7594 33.4967 82.5351 -10.9047 34.7666 -21.6675
# 4 -16.9926 -29.3417 -10.9047 37.4861 -16.9401 14.8962
# 5 24.8894 17.7105 34.7666 -16.9401 33.0030 -8.9898
# 6 -26.6203 -30.3158 -21.6675 14.8962 -8.9898 34.8932
#
#
#
# Elastic Compliance Matrix: (Units=1/GPa)
#
#
# Indices 1 2 3 4 5 6 
#
# 1 0.019079 -0.001276 -0.002860 -0.000945 -0.008483 0.009889
# 2 -0.001276 0.009318 -0.002423 0.005572 0.002428 0.003864
# 3 -0.002860 -0.002423 0.028379 -0.012934 -0.030049 0.011115
# 4 -0.000945 0.005572 -0.012934 0.047373 0.031285 -0.016076
# 5 -0.008483 0.002428 -0.030049 0.031285 0.078724 -0.016096
# 6 0.009889 0.003864 0.011115 -0.016076 -0.016096 0.049178
#
#
# Mechanical properties :
#
#
# Convention : Reuss Voigt Hill
#
# Bulk Modulus (GPa) = 22.90593 59.61990 41.26291
# Shear Modulus (GPa) = 19.25134 34.60489 26.92812
#
# Velocity S-wave (km/s) = 2.90507 3.89489 3.43581
# Velocity P-wave (km/s) = 4.61456 6.80905 5.81624
#
# Compressibility (1/GPa) = 0.04365682
#
# Stress axis : x y z
#
# Youngs Moduli (GPa) = 52.41446 107.31464 35.23769
#
# Poissons Ratio (x) = 0.13698 0.10076
# Poissons Ratio (y) = 0.06690 0.08540
# Poissons Ratio (z) = 0.14988 0.26008
#
# Static dielectric constant tensor:
#      x y z
#    x 1.881480 0.000950 0.005170 
#    y 0.000950 1.872110 -0.024960 
#    z 0.005170 -0.024960 1.846190 
# 
# From -- ./inp_files/399855.got.cif
#   From: 2010.05.17/outbox.cif.g08.bks.cpg/sg2_200_cif.got.tgz:399855.got - 2010.06.03 11:33:40.
