data_PCOD9050799
_publ_section_title
;
Structure prediction by ZEFSAII (Michael W. Deem and Ramdas Pophale) SiO2 
 PCOD9050799
Probable space group: P -1
;
_chemical_formula_sum "Si O2"
_cell_formula_units_Z 16
_cell_length_a 20.360560
_cell_length_b 5.140926
_cell_length_c 17.062230
_cell_angle_alpha 104.900116
_cell_angle_beta 157.219457
_cell_angle_gamma 77.587221
_cell_volume 667.099367
_symmetry_space_group_name_H-M "P -1"
_symmetry_group_IT_number 2
_symmetry_cell_setting 'triclinic'
loop_
_space_group_symop_operation_xyz
x,y,z
-x,-y,-z
loop_
_atom_site_type_symbol
_atom_site_label
_atom_site_fract_x
_atom_site_fract_y
_atom_site_fract_z
Si Si1 0.117020 0.756574 0.625946
Si Si2 0.070281 0.499708 0.813291
Si Si3 0.688989 0.494395 0.068552
Si Si4 0.313368 0.302919 0.612962
Si Si5 0.677600 0.938169 0.224388
Si Si6 0.122794 0.075195 0.972863
Si Si7 0.757662 0.965071 0.640600
Si Si8 0.795023 0.535374 0.778682
O O1 0.826638 0.559489 0.157200
O O2 0.252455 0.784753 0.848396
O O3 0.217317 0.780934 0.657161
O O4 0.000000 0.000000 0.500000
O O5 0.872094 0.575349 0.594650
O O6 0.078241 0.248192 0.861021
O O7 0.168689 0.775581 0.976128
O O8 0.708062 0.689261 0.180124
O O9 0.000000 0.500000 0.500000
O O10 0.492768 0.480376 0.825665
O O11 0.304188 0.150942 0.674305
O O12 0.334136 0.097065 0.547386
O O13 0.500000 0.000000 0.000000
O O14 0.954985 0.014447 0.836440
O O15 0.240403 0.278903 0.171041
O O16 0.745427 0.704101 0.661499
O O17 0.712367 0.233453 0.657541
O O18 0.000000 0.500000 0.000000
#
# Coordination Sequence:
#
# PCOD9050799 Si02
#       8
#     2   2   2   2   2   2   2   2
#     4  12  26  47  72 101 133 181 243 294 353 425
#     4  11  26  42  70 102 143 182 236 292 359 418
#     4  12  28  48  71 104 143 194 236 301 366 414
#     4  11  25  46  69 105 142 184 244 301 351 433
#     4  12  27  47  75 101 141 193 248 292 363 431
#     4  10  20  40  65 103 138 184 230 287 351 434
#     4  10  20  35  62 101 135 179 226 291 352 412
#     4  10  17  34  64  97 139 175 229 282 350 427
#
# _framework density 23.984434
#
# number of rings (size 3 to 8) (size 9 to 14) (size 15 to 20)
#    0.000    1.000    2.500    6.375    1.750    5.000 
#    0.000    0.000    0.000    4.500    0.000    0.000 
#    0.000    0.000    0.000    0.000    0.000    0.000 
#
# Total GULP energy -89284.045198 kJ/mol
# GULP energy per Si atom -5580.252825 kJ/mol
# Density = 2.392984 g / cm^3
# Si number density = 23.984434 Si / 1000 Ang^3
#
#
#
# Elastic Constant Matrix: (Units=GPa)
#
#
# Indices 1 2 3 4 5 6 
#
# 1 50.5530 8.0904 31.6750 -14.8356 -1.8254 7.0260
# 2 8.0904 103.0385 17.3658 6.6441 -3.0236 -1.3868
# 3 31.6750 17.3658 72.1083 13.3181 2.9616 -14.2759
# 4 -14.8356 6.6441 13.3181 39.6754 -5.4705 -14.9287
# 5 -1.8254 -3.0236 2.9616 -5.4705 34.6233 10.4577
# 6 7.0260 -1.3868 -14.2759 -14.9287 10.4577 43.3321
#
#
#
# Elastic Compliance Matrix: (Units=1/GPa)
#
#
# Indices 1 2 3 4 5 6 
#
# 1 0.045658 -0.000365 -0.026999 0.023683 0.011745 -0.010985
# 2 -0.000365 0.010232 -0.002332 -0.001326 0.001205 -0.001129
# 3 -0.026999 -0.002332 0.032252 -0.017710 -0.010625 0.011391
# 4 0.023683 -0.001326 -0.017710 0.042477 0.008493 0.002867
# 5 0.011745 0.001205 -0.010625 0.008493 0.035157 -0.010925
# 6 -0.010985 -0.001129 0.011391 0.002867 -0.010925 0.032200
#
#
# Mechanical properties :
#
#
# Convention : Reuss Voigt Hill
#
# Bulk Modulus (GPa) = 34.78330 37.77357 36.27844
# Shear Modulus (GPa) = 18.72994 34.76409 26.74701
#
# Velocity S-wave (km/s) = 2.79753 3.81129 3.34306
# Velocity P-wave (km/s) = 4.99688 5.92885 5.48270
#
# Compressibility (1/GPa) = 0.02874943
#
# Stress axis : x y z
#
# Youngs Moduli (GPa) = 21.90220 97.72793 31.00553
#
# Poissons Ratio (x) = 0.03566 0.83713
# Poissons Ratio (y) = 0.00799 0.07231
# Poissons Ratio (z) = 0.59135 0.22792
#
# Static dielectric constant tensor:
#      x y z
#    x 1.898430 0.196640 -0.121870 
#    y 0.196640 0.958890 0.708440 
#    z -0.121870 0.708440 1.617200 
# 
# From -- ./inp_files/578656.got.cif
#   From: 2010.05.17/outbox.cif.g08.bks.cpg/sg2_290_cif.got.tgz:578656.got - 2010.06.03 11:33:40.
