data_PCOD9050183
_publ_section_title
;
Structure prediction by ZEFSAII (Michael W. Deem and Ramdas Pophale) SiO2 
 PCOD9050183
Probable space group: P -1
;
_chemical_formula_sum "Si O2"
_cell_formula_units_Z 14
_cell_length_a 18.167248
_cell_length_b 13.723500
_cell_length_c 9.351309
_cell_angle_alpha 28.609905
_cell_angle_beta 44.583340
_cell_angle_gamma 34.871007
_cell_volume 638.005737
_symmetry_space_group_name_H-M "P -1"
_symmetry_group_IT_number 2
_symmetry_cell_setting 'triclinic'
loop_
_space_group_symop_operation_xyz
x,y,z
-x,-y,-z
loop_
_atom_site_type_symbol
_atom_site_label
_atom_site_fract_x
_atom_site_fract_y
_atom_site_fract_z
Si Si1 0.453614 0.915009 0.303463
Si Si2 0.738210 0.225572 0.234045
Si Si3 0.038436 0.397439 0.915749
Si Si4 0.625178 0.433899 0.828599
Si Si5 0.233996 0.465240 0.979508
Si Si6 0.205157 0.842699 0.296022
Si Si7 0.020931 0.848335 0.309620
O O1 0.378458 0.788348 0.535472
O O2 0.580005 0.705779 0.486625
O O3 0.500000 0.000000 0.000000
O O4 0.342604 0.170520 0.203874
O O5 0.743512 0.430721 0.044480
O O6 0.874499 0.967641 0.407870
O O7 0.727618 0.287826 0.000278
O O8 0.084557 0.556637 0.576480
O O9 0.000000 0.500000 0.000000
O O10 0.908741 0.465377 0.929494
O O11 0.145340 0.101642 0.128186
O O12 0.675135 0.256322 0.849436
O O13 0.500000 0.500000 0.000000
O O14 0.243485 0.619427 0.638872
O O15 0.095010 0.880976 0.291537
O O16 0.000000 0.000000 0.000000
#
# Coordination Sequence:
#
# PCOD9050183 Si02
#       7
#     2   2   2   2   2   2   2
#     4  11  24  46  73  98 137 190 243 286 348 418
#     4  11  24  45  70 101 145 179 233 300 348 419
#     4  12  25  43  72 107 144 186 231 292 359 423
#     4  10  24  49  68  98 143 185 233 294 341 419
#     4  12  24  42  73 107 137 186 240 292 355 417
#     4  12  24  44  74 106 142 182 237 288 363 423
#     4  12  24  43  69 107 145 177 229 296 357 427
#
# _framework density 21.943377999999999
#
# number of rings (size 3 to 8) (size 9 to 14) (size 15 to 20)
#    0.000    0.571    7.143    1.286    0.000    1.714 
#    5.143    0.000    0.000    0.000    0.000    0.000 
#    0.000    0.000    0.000    0.000    0.000    0.000 
#
# Total GULP energy -78176.451698 kJ/mol
# GULP energy per Si atom -5584.032264 kJ/mol
# Density = 2.189343 g / cm^3
# Si number density = 21.943378 Si / 1000 Ang^3
#
#
#
# Elastic Constant Matrix: (Units=GPa)
#
#
# Indices 1 2 3 4 5 6 
#
# 1 35.4013 23.6362 17.0471 -11.7947 -3.0982 3.7118
# 2 23.6362 112.2768 35.6251 -20.2315 0.6988 2.0017
# 3 17.0471 35.6251 121.4882 -9.4750 6.5143 12.7762
# 4 -11.7947 -20.2315 -9.4750 48.0438 0.4676 1.8995
# 5 -3.0982 0.6988 6.5143 0.4676 37.2352 -3.2657
# 6 3.7118 2.0017 12.7762 1.8995 -3.2657 39.3032
#
#
#
# Elastic Compliance Matrix: (Units=1/GPa)
#
#
# Indices 1 2 3 4 5 6 
#
# 1 0.035838 -0.005537 -0.002891 0.005950 0.003326 -0.002174
# 2 -0.005537 0.011343 -0.002365 0.002931 -0.000248 0.000552
# 3 -0.002891 -0.002365 0.009790 0.000364 -0.002175 -0.002987
# 4 0.005950 0.002931 0.000364 0.023660 -0.000095 -0.001981
# 5 0.003326 -0.000248 -0.002175 -0.000095 0.027758 0.002717
# 6 -0.002174 0.000552 -0.002987 -0.001981 0.002717 0.026913
#
#
# Mechanical properties :
#
#
# Convention : Reuss Voigt Hill
#
# Bulk Modulus (GPa) = 28.26134 46.86477 37.56305
# Shear Modulus (GPa) = 29.64157 37.77363 33.70760
#
# Velocity S-wave (km/s) = 3.67934 4.15349 3.92359
# Velocity P-wave (km/s) = 5.56392 6.66375 6.13851
#
# Compressibility (1/GPa) = 0.03538403
#
# Stress axis : x y z
#
# Youngs Moduli (GPa) = 27.90344 88.16337 102.14855
#
# Poissons Ratio (x) = 0.48817 0.29529
# Poissons Ratio (y) = 0.15450 0.24161
# Poissons Ratio (z) = 0.08066 0.20853
#
# Static dielectric constant tensor:
#      x y z
#    x 1.861430 -0.043540 0.028420 
#    y -0.043540 1.873990 0.021040 
#    z 0.028420 0.021040 1.855740 
# 
# From -- ./inp_files/72507.got.cif
#   From: 2010.05.17/outbox.cif.g08.bks.cpg/sg2_37_cif.got.tgz:72507.got - 2010.06.03 11:33:40.
