data_PCOD9050712
_publ_section_title
;
Structure prediction by ZEFSAII (Michael W. Deem and Ramdas Pophale) SiO2 
 PCOD9050712
Probable space group: P -1
;
_chemical_formula_sum "Si O2"
_cell_formula_units_Z 14
_cell_length_a 23.008508
_cell_length_b 8.008104
_cell_length_c 4.926241
_cell_angle_alpha 98.073206
_cell_angle_beta 83.418579
_cell_angle_gamma 144.209784
_cell_volume 525.568743
_symmetry_space_group_name_H-M "P -1"
_symmetry_group_IT_number 2
_symmetry_cell_setting 'triclinic'
loop_
_space_group_symop_operation_xyz
x,y,z
-x,-y,-z
loop_
_atom_site_type_symbol
_atom_site_label
_atom_site_fract_x
_atom_site_fract_y
_atom_site_fract_z
Si Si1 0.831132 0.925128 0.075165
Si Si2 0.990282 0.796768 0.607735
Si Si3 0.661379 0.966163 0.970504
Si Si4 0.526067 0.405834 0.657528
Si Si5 0.124786 0.606951 0.921099
Si Si6 0.630540 0.393657 0.247417
Si Si7 0.693538 0.362090 0.717524
O O1 0.872665 0.187690 0.966666
O O2 0.906993 0.028661 0.277911
O O3 0.728525 0.737985 0.237210
O O4 0.794413 0.690448 0.839607
O O5 0.941468 0.568418 0.349589
O O6 0.918717 0.610408 0.865411
O O7 0.000000 0.000000 0.500000
O O8 0.761682 0.185087 0.136824
O O9 0.686790 0.153683 0.757376
O O10 0.564002 0.812027 0.135415
O O11 0.625438 0.698891 0.824968
O O12 0.500000 0.500000 0.500000
O O13 0.546746 0.297505 0.428529
O O14 0.614534 0.280308 0.932990
O O15 0.671756 0.346365 0.415564
#
# Coordination Sequence:
#
# PCOD9050712 Si02
#       7
#     2   2   2   2   2   2   2
#     4  10  25  45  74 105 149 189 245 292 360 429
#     4  12  28  45  73 107 146 188 242 297 361 423
#     4  11  27  45  72 107 144 190 244 297 367 417
#     4  11  26  46  73 101 145 189 242 298 358 443
#     4  12  27  44  75 104 146 191 241 294 359 434
#     4  10  25  44  73  99 146 185 238 293 358 426
#     4  10  25  43  73 103 147 187 237 301 354 426
#
# _framework density 26.637808
#
# number of rings (size 3 to 8) (size 9 to 14) (size 15 to 20)
#    0.857    0.286    0.000    3.857   16.000    1.143 
#    0.000    0.000    0.000    0.000    0.000    0.000 
#    0.000    0.000    0.000    0.000    0.000    0.000 
#
# Total GULP energy -78472.822876 kJ/mol
# GULP energy per Si atom -5605.201634 kJ/mol
# Density = 2.657718 g / cm^3
# Si number density = 26.637808 Si / 1000 Ang^3
#
#
#
# Elastic Constant Matrix: (Units=GPa)
#
#
# Indices 1 2 3 4 5 6 
#
# 1 89.3394 40.0903 24.1826 -0.9314 16.8378 2.2075
# 2 40.0903 141.2845 44.9964 16.8008 8.5521 -6.7560
# 3 24.1826 44.9964 111.5143 -2.4007 9.9374 1.1534
# 4 -0.9314 16.8008 -2.4007 42.1317 -11.2710 2.7213
# 5 16.8378 8.5521 9.9374 -11.2710 51.5443 -10.1974
# 6 2.2075 -6.7560 1.1534 2.7213 -10.1974 39.9601
#
#
#
# Elastic Compliance Matrix: (Units=1/GPa)
#
#
# Indices 1 2 3 4 5 6 
#
# 1 0.013932 -0.003528 -0.001196 0.000717 -0.004056 -0.002415
# 2 -0.003528 0.009765 -0.003258 -0.004397 -0.000377 0.002143
# 3 -0.001196 -0.003258 0.010678 0.001692 -0.000987 -0.001160
# 4 0.000717 -0.004397 0.001692 0.027254 0.005894 -0.001184
# 5 -0.004056 -0.000377 -0.000987 0.005894 0.023407 0.005761
# 6 -0.002415 0.002143 -0.001160 -0.001184 0.005761 0.027105
#
#
# Mechanical properties :
#
#
# Convention : Reuss Voigt Hill
#
# Bulk Modulus (GPa) = 54.31652 62.29741 58.30697
# Shear Modulus (GPa) = 37.24652 42.25182 39.74917
#
# Velocity S-wave (km/s) = 3.74338 3.98698 3.86710
# Velocity P-wave (km/s) = 6.25451 6.68074 6.47114
#
# Compressibility (1/GPa) = 0.01841061
#
# Stress axis : x y z
#
# Youngs Moduli (GPa) = 71.77940 102.40896 93.65122
#
# Poissons Ratio (x) = 0.36126 0.11199
# Poissons Ratio (y) = 0.25321 0.30515
# Poissons Ratio (z) = 0.08584 0.33368
#
# Static dielectric constant tensor:
#      x y z
#    x 2.097110 0.026310 -0.040070 
#    y 0.026310 2.145330 -0.005630 
#    z -0.040070 -0.005630 2.018910 
# 
# From -- ./inp_files/126277.got.cif
#   From: 2010.05.17/outbox.cif.g08.bks.cpg/sg2_64_cif.got.tgz:126277.got - 2010.06.03 11:33:40.
