data_PCOD9050348
_publ_section_title
;
Structure prediction by ZEFSAII (Michael W. Deem and Ramdas Pophale) SiO2 
 PCOD9050348
Probable space group: P -1
;
_chemical_formula_sum "Si O2"
_cell_formula_units_Z 15
_cell_length_a 8.995765
_cell_length_b 21.917997
_cell_length_c 15.799054
_cell_angle_alpha 19.089957
_cell_angle_beta 49.172006
_cell_angle_gamma 40.570445
_cell_volume 631.860883
_symmetry_space_group_name_H-M "P -1"
_symmetry_group_IT_number 2
_symmetry_cell_setting 'triclinic'
loop_
_space_group_symop_operation_xyz
x,y,z
-x,-y,-z
loop_
_atom_site_type_symbol
_atom_site_label
_atom_site_fract_x
_atom_site_fract_y
_atom_site_fract_z
Si Si1 0.063524 0.834040 0.338838
Si Si2 0.542904 0.006297 0.318214
Si Si3 0.218333 0.493494 0.884538
Si Si4 0.500000 0.500000 0.500000
Si Si5 0.733425 0.003385 0.832966
Si Si6 0.090639 0.117439 0.251750
Si Si7 0.271390 0.387262 0.582046
Si Si8 0.675713 0.535112 0.940082
O O1 0.123196 0.675458 0.607412
O O2 0.243908 0.678741 0.403164
O O3 0.122098 0.007780 0.123224
O O4 0.790738 0.947373 0.268089
O O5 0.592969 0.793948 0.633178
O O6 0.360660 0.031912 0.282076
O O7 0.409756 0.242085 0.108584
O O8 0.317320 0.544896 0.862502
O O9 0.000000 0.500000 0.000000
O O10 0.360254 0.512253 0.442246
O O11 0.474614 0.246082 0.618258
O O12 0.905985 0.940350 0.771098
O O13 0.687124 0.809242 0.111556
O O14 0.000000 0.000000 0.500000
O O15 0.924318 0.379145 0.000786
O O16 0.000000 0.500000 0.500000
O O17 0.500000 0.500000 0.000000
#
# Coordination Sequence:
#
# PCOD9050348 Si02
#       8
#     2   2   2   1   2   2   2   2
#     4  11  26  48  72 105 144 192 241 314 364 440
#     4  12  26  42  70 104 137 200 236 292 372 432
#     4  12  25  44  68 101 143 184 241 297 356 431
#     4  10  26  50  74 108 146 182 258 302 368 446
#     4  10  26  46  71 107 147 182 246 306 361 439
#     4  12  25  43  68 108 148 189 241 296 354 442
#     4  10  24  51  78 105 142 195 242 314 375 433
#     4  12  26  42  65 100 144 191 240 293 355 433
#
# _framework density 23.739404
#
# number of rings (size 3 to 8) (size 9 to 14) (size 15 to 20)
#    0.000    0.800    4.000    1.200    7.467    2.133 
#    0.000    2.667    0.000    0.000    0.000    0.000 
#    0.000    0.000    0.000    0.000    0.000    0.000 
#
# Total GULP energy -83623.402886 kJ/mol
# GULP energy per Si atom -5574.893526 kJ/mol
# Density = 2.368537 g / cm^3
# Si number density = 23.739404 Si / 1000 Ang^3
#
#
#
# Elastic Constant Matrix: (Units=GPa)
#
#
# Indices 1 2 3 4 5 6 
#
# 1 114.2689 42.1666 2.6810 -23.8364 7.7613 -18.7474
# 2 42.1666 149.2973 14.7197 -24.9001 -2.3349 -0.1303
# 3 2.6810 14.7197 63.0541 -7.8996 -5.0426 5.2075
# 4 -23.8364 -24.9001 -7.8996 31.6950 -8.6348 3.2618
# 5 7.7613 -2.3349 -5.0426 -8.6348 19.1223 -4.7608
# 6 -18.7474 -0.1303 5.2075 3.2618 -4.7608 58.9002
#
#
#
# Elastic Compliance Matrix: (Units=1/GPa)
#
#
# Indices 1 2 3 4 5 6 
#
# 1 0.011494 -0.002249 0.000479 0.006356 -0.001155 0.003166
# 2 -0.002249 0.008478 -0.000732 0.006028 0.004323 -0.000617
# 3 0.000479 -0.000732 0.017411 0.006089 0.006764 -0.001179
# 4 0.006356 0.006028 0.006089 0.048461 0.021788 0.000576
# 5 -0.001155 0.004323 0.006764 0.021788 0.065697 0.003148
# 6 0.003166 -0.000617 -0.001179 0.000576 0.003148 0.018311
#
#
# Mechanical properties :
#
#
# Convention : Reuss Voigt Hill
#
# Bulk Modulus (GPa) = 30.88393 49.52833 40.20613
# Shear Modulus (GPa) = 26.93283 39.74703 33.33993
#
# Velocity S-wave (km/s) = 3.37192 4.09627 3.75162
# Velocity P-wave (km/s) = 5.31014 6.57884 5.97824
#
# Compressibility (1/GPa) = 0.03237930
#
# Stress axis : x y z
#
# Youngs Moduli (GPa) = 87.00568 117.95641 57.43527
#
# Poissons Ratio (x) = 0.26523 -0.02750
# Poissons Ratio (y) = 0.19564 0.04202
# Poissons Ratio (z) = -0.04165 0.08629
#
# Static dielectric constant tensor:
#      x y z
#    x 2.009970 -0.012580 0.006990 
#    y -0.012580 1.878560 0.026230 
#    z 0.006990 0.026230 1.999200 
# 
# From -- ./inp_files/563096.got.cif
#   From: 2010.05.17/outbox.cif.g08.bks.cpg/sg2_282_cif.got.tgz:563096.got - 2010.06.03 11:33:40.
