data_PCOD9050903
_publ_section_title
;
Structure prediction by ZEFSAII (Michael W. Deem and Ramdas Pophale) SiO2 
 PCOD9050903
Probable space group: P -1
;
_chemical_formula_sum "Si O2"
_cell_formula_units_Z 14
_cell_length_a 5.443663
_cell_length_b 11.939292
_cell_length_c 11.765627
_cell_angle_alpha 107.706175
_cell_angle_beta 77.986235
_cell_angle_gamma 122.543791
_cell_volume 613.136421
_symmetry_space_group_name_H-M "P -1"
_symmetry_group_IT_number 2
_symmetry_cell_setting 'triclinic'
loop_
_space_group_symop_operation_xyz
x,y,z
-x,-y,-z
loop_
_atom_site_type_symbol
_atom_site_label
_atom_site_fract_x
_atom_site_fract_y
_atom_site_fract_z
Si Si1 0.918410 0.578113 0.939477
Si Si2 0.236497 0.079572 0.324589
Si Si3 0.606497 0.703382 0.082739
Si Si4 0.498024 0.713469 0.829180
Si Si5 0.707100 0.552952 0.607313
Si Si6 0.451596 0.087870 0.685116
Si Si7 0.683889 0.281332 0.514766
O O1 0.610170 0.448853 0.893339
O O2 0.148688 0.644002 0.837212
O O3 0.902705 0.698563 0.043810
O O4 0.000000 0.500000 0.000000
O O5 0.331538 0.145159 0.210478
O O6 0.405143 0.203910 0.435300
O O7 0.379971 0.986001 0.306272
O O8 0.888350 0.009577 0.348332
O O9 0.574843 0.812151 0.191497
O O10 0.558256 0.722418 0.960387
O O11 0.583865 0.612968 0.729597
O O12 0.500000 0.500000 0.500000
O O13 0.715963 0.419742 0.603760
O O14 0.027194 0.669582 0.572109
O O15 0.633701 0.177575 0.587740
#
# Coordination Sequence:
#
# PCOD9050903 Si02
#       7
#     2   2   2   2   2   2   2
#     4   9  22  42  69 102 142 184 230 311 371 419
#     4  12  28  49  72 107 148 208 243 295 357 428
#     4  10  25  44  71 109 142 188 244 300 380 427
#     4  11  25  44  75 102 153 178 248 305 369 438
#     4  11  25  44  77 114 135 190 237 313 387 417
#     4  12  30  47  77 104 151 202 250 288 358 448
#     4  11  27  47  74 108 149 183 252 308 367 435
#
# _framework density 22.83342
#
# number of rings (size 3 to 8) (size 9 to 14) (size 15 to 20)
#    0.000    1.143    1.429    1.714   18.000    1.143 
#    0.000    0.000    0.000    0.000    0.000    0.000 
#    0.000    0.000    0.000    0.000    0.000    0.000 
#
# Total GULP energy -78278.667188 kJ/mol
# GULP energy per Si atom -5591.333371 kJ/mol
# Density = 2.278145 g / cm^3
# Si number density = 22.833420 Si / 1000 Ang^3
#
#
#
# Elastic Constant Matrix: (Units=GPa)
#
#
# Indices 1 2 3 4 5 6 
#
# 1 85.5006 40.0161 15.5331 -3.6452 -21.7511 -10.1004
# 2 40.0161 120.4689 33.9010 -20.2702 -13.6695 -5.9869
# 3 15.5331 33.9010 103.2566 1.2970 -12.7882 2.2921
# 4 -3.6452 -20.2702 1.2970 45.7341 -6.2414 0.8329
# 5 -21.7511 -13.6695 -12.7882 -6.2414 46.4884 -3.4021
# 6 -10.1004 -5.9869 2.2921 0.8329 -3.4021 37.5360
#
#
#
# Elastic Compliance Matrix: (Units=1/GPa)
#
#
# Indices 1 2 3 4 5 6 
#
# 1 0.015863 -0.004210 -0.000303 0.000209 0.006436 0.004194
# 2 -0.004210 0.011623 -0.003101 0.005070 0.001343 0.000919
# 3 -0.000303 -0.003101 0.011000 -0.001459 0.001699 -0.001061
# 4 0.000209 0.005070 -0.001459 0.024780 0.004574 0.000819
# 5 0.006436 0.001343 0.001699 0.004574 0.026300 0.004124
# 6 0.004194 0.000919 -0.001061 0.000819 0.004124 0.028337
#
#
# Mechanical properties :
#
#
# Convention : Reuss Voigt Hill
#
# Bulk Modulus (GPa) = 42.99283 54.23628 48.61455
# Shear Modulus (GPa) = 35.49033 40.60343 38.04688
#
# Velocity S-wave (km/s) = 3.94676 4.22150 4.08644
# Velocity P-wave (km/s) = 6.29595 6.89681 6.60322
#
# Compressibility (1/GPa) = 0.02325969
#
# Stress axis : x y z
#
# Youngs Moduli (GPa) = 63.04045 86.03526 90.90555
#
# Poissons Ratio (x) = 0.36222 0.02751
# Poissons Ratio (y) = 0.26541 0.28185
# Poissons Ratio (z) = 0.01908 0.26675
#
# Static dielectric constant tensor:
#      x y z
#    x 1.999520 0.034040 0.020620 
#    y 0.034040 1.849330 0.015980 
#    z 0.020620 0.015980 1.831750 
# 
# From -- ./inp_files/72653.got.cif
#   From: 2010.05.17/outbox.cif.g08.bks.cpg/sg2_37_cif.got.tgz:72653.got - 2010.06.03 11:33:40.
