data_PCOD9050637
_publ_section_title
;
Structure prediction by ZEFSAII (Michael W. Deem and Ramdas Pophale) SiO2 
 PCOD9050637
Probable space group: P -1
;
_chemical_formula_sum "Si O2"
_cell_formula_units_Z 16
_cell_length_a 8.333077
_cell_length_b 13.328033
_cell_length_c 9.297811
_cell_angle_alpha 133.071764
_cell_angle_beta 111.100569
_cell_angle_gamma 79.619599
_cell_volume 700.494051
_symmetry_space_group_name_H-M "P -1"
_symmetry_group_IT_number 2
_symmetry_cell_setting 'triclinic'
loop_
_space_group_symop_operation_xyz
x,y,z
-x,-y,-z
loop_
_atom_site_type_symbol
_atom_site_label
_atom_site_fract_x
_atom_site_fract_y
_atom_site_fract_z
Si Si1 0.611317 0.536702 0.928608
Si Si2 0.097033 0.227990 0.746692
Si Si3 0.691630 0.240954 0.650996
Si Si4 0.917423 0.889100 0.680052
Si Si5 0.629267 0.246179 0.970544
Si Si6 0.998383 0.339900 0.304498
Si Si7 0.429139 0.051214 0.212086
Si Si8 0.196310 0.146178 0.006011
O O1 0.645324 0.391114 0.731185
O O2 0.500000 0.500000 0.000000
O O3 0.791659 0.626625 0.106974
O O4 0.492936 0.637701 0.908327
O O5 0.104170 0.132560 0.517171
O O6 0.182181 0.164449 0.850220
O O7 0.897132 0.242290 0.727188
O O8 0.616373 0.217726 0.766340
O O9 0.605506 0.129125 0.403340
O O10 0.728913 0.895653 0.692475
O O11 0.997531 0.758078 0.649411
O O12 0.041781 0.028470 0.883801
O O13 0.584256 0.107624 0.907031
O O14 0.825170 0.300246 0.120353
O O15 0.000000 0.500000 0.500000
O O16 0.152665 0.289289 0.206597
O O17 0.367828 0.092631 0.074840
#
# Coordination Sequence:
#
# PCOD9050637 Si02
#       8
#     2   2   2   2   2   2   2   2
#     4  10  25  43  68  98 134 176 230 284 338 420
#     4  12  25  44  71 103 138 181 229 290 351 409
#     4  11  24  42  71  99 139 180 232 286 347 407
#     4  11  22  42  71 103 138 189 236 276 340 413
#     4  11  21  43  68 103 137 183 234 282 336 412
#     4  11  23  38  70 104 140 184 234 281 342 409
#     4  11  22  44  71 102 138 183 233 286 336 410
#     4  11  23  45  68 104 143 181 230 292 342 402
#
# _framework density 22.84102
#
# number of rings (size 3 to 8) (size 9 to 14) (size 15 to 20)
#    0.000    1.000    3.750    3.375    7.000    3.000 
#    2.250    1.875    0.000    0.000    0.000    0.000 
#    0.000    0.000    0.000    0.000    0.000    0.000 
#
# Total GULP energy -89582.872022 kJ/mol
# GULP energy per Si atom -5598.929501 kJ/mol
# Density = 2.278903 g / cm^3
# Si number density = 22.841020 Si / 1000 Ang^3
#
#
#
# Elastic Constant Matrix: (Units=GPa)
#
#
# Indices 1 2 3 4 5 6 
#
# 1 54.2048 20.4386 1.2528 -7.6772 12.6256 -7.0747
# 2 20.4386 131.3296 61.1495 0.8149 -1.4677 -25.8977
# 3 1.2528 61.1495 98.4888 -9.2896 8.6225 2.8490
# 4 -7.6772 0.8149 -9.2896 47.6261 4.2371 0.5749
# 5 12.6256 -1.4677 8.6225 4.2371 38.4550 -1.0961
# 6 -7.0747 -25.8977 2.8490 0.5749 -1.0961 43.1769
#
#
#
# Elastic Compliance Matrix: (Units=1/GPa)
#
#
# Indices 1 2 3 4 5 6 
#
# 1 0.023738 -0.006283 0.005020 0.005793 -0.009813 -0.000537
# 2 -0.006283 0.015440 -0.010648 -0.003975 0.005738 0.009132
# 3 0.005020 -0.010648 0.017994 0.005196 -0.006861 -0.006995
# 4 0.005793 -0.003975 0.005196 0.023562 -0.005879 -0.002241
# 5 -0.009813 0.005738 -0.006861 -0.005879 0.031722 0.003170
# 6 -0.000537 0.009132 -0.006995 -0.002241 0.003170 0.029122
#
#
# Mechanical properties :
#
#
# Convention : Reuss Voigt Hill
#
# Bulk Modulus (GPa) = 29.98546 49.96720 39.97633
# Shear Modulus (GPa) = 28.32630 39.26377 33.79503
#
# Velocity S-wave (km/s) = 3.52540 4.15058 3.85070
# Velocity P-wave (km/s) = 5.45231 6.70025 6.10823
#
# Compressibility (1/GPa) = 0.03334949
#
# Stress axis : x y z
#
# Youngs Moduli (GPa) = 42.12721 64.76833 55.57552
#
# Poissons Ratio (x) = 0.40694 -0.27899
# Poissons Ratio (y) = 0.26469 0.59175
# Poissons Ratio (z) = -0.21148 0.68963
#
# Static dielectric constant tensor:
#      x y z
#    x 1.892600 0.014500 -0.033710 
#    y 0.014500 1.867200 -0.013240 
#    z -0.033710 -0.013240 1.827580 
# 
# From -- ./inp_files/190394.got.cif
#   From: 2010.05.17/outbox.cif.g08.bks.cpg/sg2_96_cif.got.tgz:190394.got - 2010.06.03 11:33:40.
