data_PCOD9050023
_publ_section_title
;
Structure prediction by ZEFSAII (Michael W. Deem and Ramdas Pophale) SiO2 
 PCOD9050023
Probable space group: P -1
;
_chemical_formula_sum "Si O2"
_cell_formula_units_Z 14
_cell_length_a 9.424485
_cell_length_b 20.054569
_cell_length_c 15.146713
_cell_angle_alpha 161.892320
_cell_angle_beta 144.130331
_cell_angle_gamma 41.078436
_cell_volume 519.232157
_symmetry_space_group_name_H-M "P -1"
_symmetry_group_IT_number 2
_symmetry_cell_setting 'triclinic'
loop_
_space_group_symop_operation_xyz
x,y,z
-x,-y,-z
loop_
_atom_site_type_symbol
_atom_site_label
_atom_site_fract_x
_atom_site_fract_y
_atom_site_fract_z
Si Si1 0.909895 0.795852 0.836982
Si Si2 0.259523 0.620050 0.529347
Si Si3 0.670431 0.634752 0.079682
Si Si4 0.215032 0.852864 0.452342
Si Si5 0.174694 0.887611 0.669208
Si Si6 0.395051 0.874896 0.096674
Si Si7 0.815121 0.494911 0.258131
O O1 0.155875 0.929429 0.096238
O O2 0.008460 0.623639 0.736551
O O3 0.783473 0.700446 0.564973
O O4 0.762964 0.929841 0.997616
O O5 0.500000 0.500000 0.500000
O O6 0.254697 0.686188 0.508334
O O7 0.304533 0.783501 0.840740
O O8 0.982412 0.521944 0.290004
O O9 0.116430 0.173275 0.563551
O O10 0.524655 0.693853 0.990792
O O11 0.454149 0.624713 0.030880
O O12 0.790078 0.404996 0.855408
O O13 0.273103 0.943543 0.693720
O O14 0.415122 0.923030 0.569177
O O15 0.000000 0.000000 0.500000
#
# Coordination Sequence:
#
# PCOD9050023 Si02
#       7
#     2   2   2   2   2   2   2
#     4   9  22  45  70 108 138 188 246 290 356 428
#     4  11  26  44  71 108 145 184 242 303 358 423
#     4  11  25  49  74 106 143 194 244 289 363 434
#     4  12  27  46  74 103 148 198 231 298 377 417
#     4  12  27  43  74 111 145 181 253 305 341 437
#     4  10  24  48  73 100 150 194 230 300 360 434
#     4   9  22  46  74  98 148 195 230 297 366 429
#
# _framework density 26.962892
#
# number of rings (size 3 to 8) (size 9 to 14) (size 15 to 20)
#    0.000    1.429    1.429    2.143    8.000    4.571 
#    0.000    0.000    0.000    0.000    0.000    0.000 
#    0.000    0.000    0.000    0.000    0.000    0.000 
#
# Total GULP energy -78234.839588 kJ/mol
# GULP energy per Si atom -5588.202828 kJ/mol
# Density = 2.690152 g / cm^3
# Si number density = 26.962892 Si / 1000 Ang^3
#
#
#
# Elastic Constant Matrix: (Units=GPa)
#
#
# Indices 1 2 3 4 5 6 
#
# 1 143.3570 31.1741 30.3873 7.1596 6.7654 22.0372
# 2 31.1741 161.7350 14.7454 9.9548 6.5236 17.4992
# 3 30.3873 14.7454 44.3842 -2.8338 22.9414 -5.3960
# 4 7.1596 9.9548 -2.8338 38.6698 0.5841 9.0132
# 5 6.7654 6.5236 22.9414 0.5841 40.7914 5.4556
# 6 22.0372 17.4992 -5.3960 9.0132 5.4556 37.1024
#
#
#
# Elastic Compliance Matrix: (Units=1/GPa)
#
#
# Indices 1 2 3 4 5 6 
#
# 1 0.010419 -0.000285 -0.011007 -0.000816 0.005627 -0.008284
# 2 -0.000285 0.006932 -0.003249 -0.001180 0.001247 -0.003469
# 3 -0.011007 -0.003249 0.047369 0.002486 -0.026778 0.018293
# 4 -0.000816 -0.001180 0.002486 0.027725 -0.000773 -0.005218
# 5 0.005627 0.001247 -0.026778 -0.000773 0.040267 -0.013558
# 6 -0.008284 -0.003469 0.018293 -0.005218 -0.013558 0.039431
#
#
# Mechanical properties :
#
#
# Convention : Reuss Voigt Hill
#
# Bulk Modulus (GPa) = 28.05994 55.78772 41.92383
# Shear Modulus (GPa) = 23.46267 41.52403 32.49335
#
# Velocity S-wave (km/s) = 2.95309 3.92860 3.47524
# Velocity P-wave (km/s) = 4.69650 6.42759 5.62899
#
# Compressibility (1/GPa) = 0.03563800
#
# Stress axis : x y z
#
# Youngs Moduli (GPa) = 95.97537 144.26140 21.11074
#
# Poissons Ratio (x) = 0.04115 0.23236
# Poissons Ratio (y) = 0.02738 0.06859
# Poissons Ratio (z) = 1.05637 0.46875
#
# Static dielectric constant tensor:
#      x y z
#    x 2.119490 -0.077050 -0.021680 
#    y -0.077050 2.146690 0.080040 
#    z -0.021680 0.080040 2.374340 
# 
# From -- ./inp_files/180909.got.cif
#   From: 2010.05.17/outbox.cif.g08.bks.cpg/sg2_91_cif.got.tgz:180909.got - 2010.06.03 11:33:40.
