data_PCOD9050082
_publ_section_title
;
Structure prediction by ZEFSAII (Michael W. Deem and Ramdas Pophale) SiO2 
 PCOD9050082
Probable space group: P -1
;
_chemical_formula_sum "Si O2"
_cell_formula_units_Z 12
_cell_length_a 4.803490
_cell_length_b 15.328039
_cell_length_c 7.581502
_cell_angle_alpha 51.879283
_cell_angle_beta 102.979680
_cell_angle_gamma 85.101816
_cell_volume 409.249069
_symmetry_space_group_name_H-M "P -1"
_symmetry_group_IT_number 2
_symmetry_cell_setting 'triclinic'
loop_
_space_group_symop_operation_xyz
x,y,z
-x,-y,-z
loop_
_atom_site_type_symbol
_atom_site_label
_atom_site_fract_x
_atom_site_fract_y
_atom_site_fract_z
Si Si1 0.744549 0.417152 0.763302
Si Si2 0.564472 0.326856 0.209319
Si Si3 0.293938 0.805374 0.147326
Si Si4 0.344021 0.926953 0.617345
Si Si5 0.376160 0.047091 0.072458
Si Si6 0.886105 0.626946 0.613916
O O1 0.500000 0.500000 0.500000
O O2 0.855878 0.289280 0.858337
O O3 0.964669 0.496927 0.714488
O O4 0.616436 0.399642 0.959112
O O5 0.601404 0.196912 0.312718
O O6 0.257117 0.369606 0.216364
O O7 0.828143 0.327465 0.383804
O O8 0.607476 0.709465 0.366203
O O9 0.470052 0.919867 0.144154
O O10 0.971783 0.885510 0.076346
O O11 0.398518 0.875031 0.906247
O O12 0.416035 0.001209 0.350555
O O13 0.000000 0.000000 0.500000
#
# Coordination Sequence:
#
# PCOD9050082 Si02
#       6
#     2   2   2   2   2   2
#     4  10  24  48  75 108 146 192 242 293 363 428
#     4  12  25  47  73 108 152 185 239 300 360 429
#     4  11  25  47  71 105 143 191 234 301 351 429
#     4  12  28  47  74 106 145 191 240 299 363 425
#     4  12  27  47  73 100 143 186 250 295 356 420
#     4  11  26  44  76 108 147 190 237 291 364 435
#
# _framework density 29.321994
#
# number of rings (size 3 to 8) (size 9 to 14) (size 15 to 20)
#    0.000    0.667    1.667    4.500    9.333    1.333 
#    0.000    7.500    0.000    0.000    0.000    0.000 
#    0.000    0.000    0.000    0.000    0.000    0.000 
#
# Total GULP energy -67238.903870 kJ/mol
# GULP energy per Si atom -5603.241989 kJ/mol
# Density = 2.925526 g / cm^3
# Si number density = 29.321994 Si / 1000 Ang^3
#
#
#
# Elastic Constant Matrix: (Units=GPa)
#
#
# Indices 1 2 3 4 5 6 
#
# 1 234.5698 87.4573 61.1425 -4.7418 11.2805 8.3626
# 2 87.4573 195.8321 55.2747 -28.2478 -16.7969 9.9151
# 3 61.1425 55.2747 197.3088 4.9086 -11.7490 4.3575
# 4 -4.7418 -28.2478 4.9086 73.2481 5.0548 -12.9460
# 5 11.2805 -16.7969 -11.7490 5.0548 47.6465 13.3382
# 6 8.3626 9.9151 4.3575 -12.9460 13.3382 44.6342
#
#
#
# Elastic Compliance Matrix: (Units=1/GPa)
#
#
# Indices 1 2 3 4 5 6 
#
# 1 0.005587 -0.002426 -0.001202 -0.000268 -0.002526 0.000286
# 2 -0.002426 0.007139 -0.001102 0.002247 0.002930 -0.001248
# 3 -0.001202 -0.001102 0.005905 -0.001192 0.001752 -0.000976
# 4 -0.000268 0.002247 -0.001192 0.015626 -0.002479 0.004940
# 5 -0.002526 0.002930 0.001752 -0.002479 0.025768 -0.008768
# 6 0.000286 -0.001248 -0.000976 0.004940 -0.008768 0.026776
#
#
# Mechanical properties :
#
#
# Convention : Reuss Voigt Hill
#
# Bulk Modulus (GPa) = 109.03079 115.05106 112.04093
# Shear Modulus (GPa) = 50.34364 61.36152 55.85258
#
# Velocity S-wave (km/s) = 4.14807 4.57954 4.36914
# Velocity P-wave (km/s) = 7.75930 8.20276 7.98411
#
# Compressibility (1/GPa) = 0.00917172
#
# Stress axis : x y z
#
# Youngs Moduli (GPa) = 179.00170 140.06657 169.35133
#
# Poissons Ratio (x) = 0.33974 0.20351
# Poissons Ratio (y) = 0.43418 0.18668
# Poissons Ratio (z) = 0.21511 0.15440
#
# Static dielectric constant tensor:
#      x y z
#    x 2.187790 0.325900 -0.173970 
#    y 0.325900 2.757420 0.068060 
#    z -0.173970 0.068060 2.297160 
# 
# From -- ./inp_files/134777.got.cif
#   From: 2010.05.17/outbox.cif.g08.bks.cpg/sg2_68_cif.got.tgz:134777.got - 2010.06.03 11:33:40.
