data_PCOD9050153
_publ_section_title
;
Structure prediction by ZEFSAII (Michael W. Deem and Ramdas Pophale) SiO2 
 PCOD9050153
Probable space group: P -1
;
_chemical_formula_sum "Si O2"
_cell_formula_units_Z 14
_cell_length_a 9.343001
_cell_length_b 8.057483
_cell_length_c 13.693818
_cell_angle_alpha 88.458152
_cell_angle_beta 140.186341
_cell_angle_gamma 114.941761
_cell_volume 514.260012
_symmetry_space_group_name_H-M "P -1"
_symmetry_group_IT_number 2
_symmetry_cell_setting 'triclinic'
loop_
_space_group_symop_operation_xyz
x,y,z
-x,-y,-z
loop_
_atom_site_type_symbol
_atom_site_label
_atom_site_fract_x
_atom_site_fract_y
_atom_site_fract_z
Si Si1 0.810568 0.297183 0.834716
Si Si2 0.689745 0.338371 0.422098
Si Si3 0.457527 0.219328 0.923942
Si Si4 0.974514 0.268835 0.262818
Si Si5 0.380944 0.175404 0.448887
Si Si6 0.636099 0.638997 0.923263
Si Si7 0.822232 0.058049 0.462293
O O1 0.662372 0.317870 0.663210
O O2 0.517127 0.111248 0.740305
O O3 0.000000 0.500000 0.000000
O O4 0.033420 0.258991 0.920016
O O5 0.864301 0.551702 0.573446
O O6 0.489678 0.158135 0.403842
O O7 0.491567 0.329218 0.237743
O O8 0.888297 0.283366 0.485854
O O9 0.399538 0.261799 0.002473
O O10 0.777109 0.293065 0.093442
O O11 0.465411 0.387020 0.858564
O O12 0.213073 0.265955 0.337095
O O13 0.750065 0.033559 0.196611
O O14 0.172559 0.981191 0.417507
O O15 0.000000 0.000000 0.500000
#
# Coordination Sequence:
#
# PCOD9050153 Si02
#       7
#     2   2   2   2   2   2   2
#     4  10  24  48  79 117 161 219 271 341 412 487
#     4  12  26  49  83 124 161 222 279 340 416 504
#     4  10  27  51  75 121 167 221 270 351 410 490
#     4  11  25  49  82 114 167 217 276 338 420 492
#     4  10  25  49  80 117 164 216 272 340 410 494
#     4  11  26  49  80 115 169 215 281 337 417 497
#     4  10  27  50  83 120 164 215 281 345 410 490
#
# _framework density 27.223583999999999
#
# number of rings (size 3 to 8) (size 9 to 14) (size 15 to 20)
#    0.857    0.571    0.000    2.571    4.000    7.429 
#    5.143    0.000    0.000    0.000    0.000    0.000 
#    0.000    0.000    0.000    0.000    0.000    0.000 
#
# Total GULP energy -78500.865061 kJ/mol
# GULP energy per Si atom -5607.204647 kJ/mol
# Density = 2.716162 g / cm^3
# Si number density = 27.223584 Si / 1000 Ang^3
#
#
#
# Elastic Constant Matrix: (Units=GPa)
#
#
# Indices 1 2 3 4 5 6 
#
# 1 174.0651 41.1423 58.5997 -16.0931 22.1753 -17.5355
# 2 41.1423 127.1446 33.2318 5.9604 5.8015 -19.2917
# 3 58.5997 33.2318 182.4615 -24.9547 14.1316 -16.5003
# 4 -16.0931 5.9604 -24.9547 60.8250 2.5887 9.0057
# 5 22.1753 5.8015 14.1316 2.5887 63.9842 -12.7218
# 6 -17.5355 -19.2917 -16.5003 9.0057 -12.7218 51.1154
#
#
#
# Elastic Compliance Matrix: (Units=1/GPa)
#
#
# Indices 1 2 3 4 5 6 
#
# 1 0.007127 -0.001793 -0.001572 0.001419 -0.001911 0.000535
# 2 -0.001793 0.009315 -0.001224 -0.002383 0.000763 0.003115
# 3 -0.001572 -0.001224 0.006644 0.002387 -0.000804 0.000523
# 4 0.001419 -0.002383 0.002387 0.018641 -0.002250 -0.003486
# 5 -0.001911 0.000763 -0.000804 -0.002250 0.017301 0.004075
# 6 0.000535 0.003115 0.000523 -0.003486 0.004075 0.022720
#
#
# Mechanical properties :
#
#
# Convention : Reuss Voigt Hill
#
# Bulk Modulus (GPa) = 71.90257 83.29099 77.59678
# Shear Modulus (GPa) = 52.32251 58.56475 55.44363
#
# Velocity S-wave (km/s) = 4.38877 4.64319 4.51777
# Velocity P-wave (km/s) = 7.22156 7.70761 7.46854
#
# Compressibility (1/GPa) = 0.01390771
#
# Stress axis : x y z
#
# Youngs Moduli (GPa) = 140.32105 107.35610 150.50433
#
# Poissons Ratio (x) = 0.19253 0.23655
# Poissons Ratio (y) = 0.25165 0.18420
# Poissons Ratio (z) = 0.22055 0.13139
#
# Static dielectric constant tensor:
#      x y z
#    x 2.129460 0.097940 -0.026380 
#    y 0.097940 2.196860 0.012010 
#    z -0.026380 0.012010 2.105470 
# 
# From -- ./inp_files/382158.got.cif
#   From: 2010.05.17/outbox.cif.g08.bks.cpg/sg2_192_cif.got.tgz:382158.got - 2010.06.03 11:33:40.
