data_PCOD9050812
_publ_section_title
;
Structure prediction by ZEFSAII (Michael W. Deem and Ramdas Pophale) SiO2 
 PCOD9050812
Probable space group: P -1
;
_chemical_formula_sum "Si O2"
_cell_formula_units_Z 16
_cell_length_a 11.411630
_cell_length_b 8.308493
_cell_length_c 9.245947
_cell_angle_alpha 98.415820
_cell_angle_beta 127.167328
_cell_angle_gamma 94.874726
_cell_volume 674.124450
_symmetry_space_group_name_H-M "P -1"
_symmetry_group_IT_number 2
_symmetry_cell_setting 'triclinic'
loop_
_space_group_symop_operation_xyz
x,y,z
-x,-y,-z
loop_
_atom_site_type_symbol
_atom_site_label
_atom_site_fract_x
_atom_site_fract_y
_atom_site_fract_z
Si Si1 0.124169 0.115948 0.307915
Si Si2 0.807894 0.014019 0.944031
Si Si3 0.532448 0.835343 0.876933
Si Si4 0.396128 0.335348 0.830193
Si Si5 0.795181 0.156188 0.480776
Si Si6 0.936231 0.664844 0.478691
Si Si7 0.443950 0.510343 0.297680
Si Si8 0.148725 0.641861 0.152753
O O1 0.203929 0.117287 0.213929
O O2 0.098050 0.285557 0.377562
O O3 0.207772 0.022631 0.473502
O O4 0.955235 0.002994 0.144069
O O5 0.657112 0.982651 0.919623
O O6 0.845908 0.194449 0.920069
O O7 0.361338 0.833655 0.708705
O O8 0.566451 0.668569 0.806846
O O9 0.564502 0.814635 0.067621
O O10 0.222689 0.346507 0.720499
O O11 0.443951 0.354568 0.700711
O O12 0.500000 0.500000 0.000000
O O13 0.829157 0.288426 0.656827
O O14 0.932418 0.196262 0.476100
O O15 0.000000 0.500000 0.500000
O O16 0.500000 0.500000 0.500000
O O17 0.287065 0.564624 0.196885
O O18 0.000000 0.500000 0.000000
#
# Coordination Sequence:
#
# PCOD9050812 Si02
#       8
#     2   2   2   2   2   2   2   2
#     4  10  25  45  68 105 141 189 248 300 370 438
#     4  10  25  46  74 105 148 194 246 306 381 437
#     4  11  24  46  72 103 155 193 246 306 371 447
#     4  10  25  44  68 109 148 196 243 304 371 435
#     4  11  25  46  67 105 145 198 245 300 378 440
#     4  12  26  42  73 101 148 189 249 303 365 440
#     4  11  24  44  72 106 145 193 251 303 366 430
#     4  11  27  43  73 110 143 191 256 310 369 441
#
# _framework density 23.734489
#
# number of rings (size 3 to 8) (size 9 to 14) (size 15 to 20)
#    0.000    1.250    1.250    2.625   12.250    4.000 
#    0.000    1.875    0.000    0.000    0.000    0.000 
#    0.000    0.000    0.000    0.000    0.000    0.000 
#
# Total GULP energy -89637.023020 kJ/mol
# GULP energy per Si atom -5602.313939 kJ/mol
# Density = 2.368047 g / cm^3
# Si number density = 23.734489 Si / 1000 Ang^3
#
#
#
# Elastic Constant Matrix: (Units=GPa)
#
#
# Indices 1 2 3 4 5 6 
#
# 1 172.3721 56.1603 76.4449 -14.9458 25.0272 9.1572
# 2 56.1603 103.4281 45.8796 0.2334 -4.1600 -9.1541
# 3 76.4449 45.8796 142.8454 -26.8782 11.4414 3.6806
# 4 -14.9458 0.2334 -26.8782 32.5134 -7.6652 -3.1754
# 5 25.0272 -4.1600 11.4414 -7.6652 52.6125 -1.6159
# 6 9.1572 -9.1541 3.6806 -3.1754 -1.6159 55.9304
#
#
#
# Elastic Compliance Matrix: (Units=1/GPa)
#
#
# Indices 1 2 3 4 5 6 
#
# 1 0.009240 -0.003930 -0.003221 0.000471 -0.003999 -0.002033
# 2 -0.003930 0.013667 -0.003295 -0.003574 0.003238 0.002988
# 3 -0.003221 -0.003295 0.011265 0.007813 -0.000049 -0.000311
# 4 0.000471 -0.003574 0.007813 0.038372 0.003418 0.001101
# 5 -0.003999 0.003238 -0.000049 0.003418 0.021736 0.002010
# 6 -0.002033 0.002988 -0.000311 0.001101 0.002010 0.018842
#
#
# Mechanical properties :
#
#
# Convention : Reuss Voigt Hill
#
# Bulk Modulus (GPa) = 75.30662 86.17948 80.74305
# Shear Modulus (GPa) = 36.11659 44.22198 40.16928
#
# Velocity S-wave (km/s) = 3.90512 4.32116 4.11839
# Velocity P-wave (km/s) = 7.22017 7.82848 7.53047
#
# Compressibility (1/GPa) = 0.01327905
#
# Stress axis : x y z
#
# Youngs Moduli (GPa) = 108.22550 73.16895 88.77168
#
# Poissons Ratio (x) = 0.28757 0.28594
# Poissons Ratio (y) = 0.42535 0.29251
# Poissons Ratio (z) = 0.34861 0.24110
#
# Static dielectric constant tensor:
#      x y z
#    x 1.859200 0.016500 -0.026600 
#    y 0.016500 1.947780 0.025890 
#    z -0.026600 0.025890 1.956520 
# 
# From -- ./inp_files/244225.got.cif
#   From: 2010.05.17/outbox.cif.g08.bks.cpg/sg2_123_cif.got.tgz:244225.got - 2010.06.03 11:33:40.
