data_PCOD9050524
_publ_section_title
;
Structure prediction by ZEFSAII (Michael W. Deem and Ramdas Pophale) SiO2 
 PCOD9050524
Probable space group: P -1
;
_chemical_formula_sum "Si O2"
_cell_formula_units_Z 16
_cell_length_a 14.745227
_cell_length_b 10.241189
_cell_length_c 11.228749
_cell_angle_alpha 81.230493
_cell_angle_beta 29.711505
_cell_angle_gamma 95.106869
_cell_volume 740.881340
_symmetry_space_group_name_H-M "P -1"
_symmetry_group_IT_number 2
_symmetry_cell_setting 'triclinic'
loop_
_space_group_symop_operation_xyz
x,y,z
-x,-y,-z
loop_
_atom_site_type_symbol
_atom_site_label
_atom_site_fract_x
_atom_site_fract_y
_atom_site_fract_z
Si Si1 0.101747 0.636385 0.954059
Si Si2 0.193105 0.964227 0.780995
Si Si3 0.205955 0.177620 0.386016
Si Si4 0.278402 0.427936 0.451821
Si Si5 0.379953 0.603451 0.818239
Si Si6 0.517022 0.134443 0.182231
Si Si7 0.755886 0.973646 0.015278
Si Si8 0.324613 0.302369 0.988780
O O1 0.310090 0.646117 0.770236
O O2 0.942258 0.599684 0.250255
O O3 0.132759 0.793058 0.846659
O O4 0.000000 0.500000 0.000000
O O5 0.352649 0.061503 0.486444
O O6 0.280613 0.996183 0.811181
O O7 0.000000 0.000000 0.000000
O O8 0.263911 0.333940 0.364558
O O9 0.388090 0.135468 0.214899
O O10 0.187626 0.199648 0.264824
O O11 0.997395 0.059739 0.700293
O O12 0.383916 0.368117 0.441384
O O13 0.447541 0.598322 0.230042
O O14 0.260524 0.427302 0.001688
O O15 0.348857 0.698238 0.946702
O O16 0.647394 0.044633 0.043551
O O17 0.674169 0.801961 0.103508
#
# Coordination Sequence:
#
# PCOD9050524 Si02
#       8
#     2   2   2   2   2   2   2   2
#     4  12  25  40  66  96 131 168 218 265 314 388
#     4  12  24  42  65  94 130 178 202 265 326 380
#     4  11  21  47  67  91 131 171 218 259 325 382
#     4   9  21  43  63  93 127 165 212 260 317 378
#     4   9  22  43  59  96 124 167 217 254 316 378
#     4  11  23  41  69  91 129 172 216 258 322 392
#     4  12  24  43  64  98 132 164 219 266 322 382
#     4  10  25  42  69  94 130 169 212 277 315 372
#
# _framework density 21.595901999999999
#
# number of rings (size 3 to 8) (size 9 to 14) (size 15 to 20)
#    0.750    0.500    3.750    1.875    3.500    1.000 
#    2.250    1.250    0.000    0.000    0.000    0.000 
#    0.000    0.000    0.000    0.000    0.000    0.000 
#
# Total GULP energy -89357.792869 kJ/mol
# GULP energy per Si atom -5584.862054 kJ/mol
# Density = 2.154675 g / cm^3
# Si number density = 21.595902 Si / 1000 Ang^3
#
#
#
# Elastic Constant Matrix: (Units=GPa)
#
#
# Indices 1 2 3 4 5 6 
#
# 1 50.1076 30.8652 7.9616 6.4260 -8.1054 -8.4158
# 2 30.8652 119.6454 8.7781 -8.5111 0.4907 -9.4554
# 3 7.9616 8.7781 29.5052 -2.1318 -6.3565 -1.0731
# 4 6.4260 -8.5111 -2.1318 21.5867 -5.5242 -4.8440
# 5 -8.1054 0.4907 -6.3565 -5.5242 21.7743 2.1026
# 6 -8.4158 -9.4554 -1.0731 -4.8440 2.1026 33.6971
#
#
#
# Elastic Compliance Matrix: (Units=1/GPa)
#
#
# Indices 1 2 3 4 5 6 
#
# 1 0.027956 -0.007330 -0.004499 -0.009284 0.006610 0.003035
# 2 -0.007330 0.010976 -0.001152 0.006414 -0.001902 0.002253
# 3 -0.004499 -0.001152 0.038491 0.007670 0.011518 0.000163
# 4 -0.009284 0.006414 0.007670 0.057169 0.012451 0.007167
# 5 0.006610 -0.001902 0.011518 0.012451 0.054965 -0.000156
# 6 0.003035 0.002253 0.000163 0.007167 -0.000156 0.032112
#
#
# Mechanical properties :
#
#
# Convention : Reuss Voigt Hill
#
# Bulk Modulus (GPa) = 19.43233 32.71869 26.07551
# Shear Modulus (GPa) = 18.88328 25.52183 22.20256
#
# Velocity S-wave (km/s) = 2.96022 3.44145 3.20986
# Velocity P-wave (km/s) = 4.54990 5.56549 5.08312
#
# Compressibility (1/GPa) = 0.05146064
#
# Stress axis : x y z
#
# Youngs Moduli (GPa) = 35.77000 91.11170 25.98032
#
# Poissons Ratio (x) = 0.66781 0.11690
# Poissons Ratio (y) = 0.26218 0.02993
# Poissons Ratio (z) = 0.16095 0.10496
#
# Static dielectric constant tensor:
#      x y z
#    x 1.796460 -0.016980 -0.019270 
#    y -0.016980 1.813810 -0.030030 
#    z -0.019270 -0.030030 1.784860 
# 
# From -- ./inp_files/447326.got.cif
#   From: 2010.05.17/outbox.cif.g08.bks.cpg/sg2_224_cif.got.tgz:447326.got - 2010.06.03 11:33:40.
