data_PCOD9050611
_publ_section_title
;
Structure prediction by ZEFSAII (Michael W. Deem and Ramdas Pophale) SiO2 
 PCOD9050611
Probable space group: P -1
;
_chemical_formula_sum "Si O2"
_cell_formula_units_Z 16
_cell_length_a 8.102154
_cell_length_b 16.364130
_cell_length_c 8.926462
_cell_angle_alpha 99.988082
_cell_angle_beta 49.332873
_cell_angle_gamma 66.606649
_cell_volume 645.917975
_symmetry_space_group_name_H-M "P -1"
_symmetry_group_IT_number 2
_symmetry_cell_setting 'triclinic'
loop_
_space_group_symop_operation_xyz
x,y,z
-x,-y,-z
loop_
_atom_site_type_symbol
_atom_site_label
_atom_site_fract_x
_atom_site_fract_y
_atom_site_fract_z
Si Si1 0.836934 0.928057 0.336952
Si Si2 0.601919 0.387022 0.473905
Si Si3 0.777709 0.736519 0.840388
Si Si4 0.620492 0.132558 0.176103
Si Si5 0.780135 0.547380 0.785267
Si Si6 0.210971 0.346330 0.700883
Si Si7 0.791206 0.325279 0.023830
Si Si8 0.507886 0.974149 0.161432
O O1 0.788922 0.967994 0.550076
O O2 0.003123 0.797694 0.207488
O O3 0.500000 0.000000 0.500000
O O4 0.060311 0.924276 0.101842
O O5 0.500000 0.500000 0.500000
O O6 0.369466 0.386112 0.685712
O O7 0.871278 0.339112 0.407078
O O8 0.683822 0.320561 0.246836
O O9 0.605669 0.788471 0.802237
O O10 0.723185 0.657563 0.907186
O O11 0.683144 0.841678 0.027063
O O12 0.466391 0.220292 0.435501
O O13 0.626601 0.032240 0.166873
O O14 0.000000 0.500000 0.500000
O O15 0.970416 0.442910 0.753350
O O16 0.478830 0.589555 0.903959
O O17 0.006037 0.346761 0.932119
O O18 0.500000 0.000000 0.000000
#
# Coordination Sequence:
#
# PCOD9050611 Si02
#       8
#     2   2   2   2   2   2   2   2
#     4  12  24  43  72  99 136 184 233 282 344 416
#     4  12  24  43  66  98 145 173 221 289 348 401
#     4  11  22  42  69  97 135 180 218 278 357 394
#     4  11  23  46  73  97 135 180 234 280 342 412
#     4  12  20  44  73  96 132 183 224 276 336 407
#     4  12  24  43  72 101 132 181 232 280 335 415
#     4  12  25  44  70 102 132 183 235 276 339 417
#     4  10  25  43  67 102 138 175 229 290 346 398
#
# _framework density 24.770945999999999
#
# number of rings (size 3 to 8) (size 9 to 14) (size 15 to 20)
#    0.000    0.500    7.500    1.125    0.000    4.000 
#    0.000    2.500    0.000    0.000    0.000    0.000 
#    0.000    0.000    0.000    0.000    0.000    0.000 
#
# Total GULP energy -89380.578298 kJ/mol
# GULP energy per Si atom -5586.286144 kJ/mol
# Density = 2.471457 g / cm^3
# Si number density = 24.770946 Si / 1000 Ang^3
#
#
#
# Elastic Constant Matrix: (Units=GPa)
#
#
# Indices 1 2 3 4 5 6 
#
# 1 89.4630 13.9429 38.9615 0.2400 -30.7727 0.6785
# 2 13.9429 93.7727 49.4816 -7.9439 9.3871 32.4413
# 3 38.9615 49.4816 124.6307 -1.1215 -10.7145 14.6873
# 4 0.2400 -7.9439 -1.1215 52.9497 10.7530 -2.5612
# 5 -30.7727 9.3871 -10.7145 10.7530 45.1606 -0.3243
# 6 0.6785 32.4413 14.6873 -2.5612 -0.3243 50.7415
#
#
#
# Elastic Compliance Matrix: (Units=1/GPa)
#
#
# Indices 1 2 3 4 5 6 
#
# 1 0.017477 -0.003243 -0.003454 -0.003045 0.012509 0.002766
# 2 -0.003243 0.019108 -0.006070 0.004013 -0.008651 -0.010269
# 3 -0.003454 -0.006070 0.011606 -0.001011 0.001906 0.000529
# 4 -0.003045 0.004013 -0.001011 0.021082 -0.008178 -0.001221
# 5 0.012509 -0.008651 0.001906 -0.008178 0.034897 0.004622
# 6 0.002766 -0.010269 0.000529 -0.001221 0.004622 0.026051
#
#
# Mechanical properties :
#
#
# Convention : Reuss Voigt Hill
#
# Bulk Modulus (GPa) = 44.13663 56.95983 50.54823
# Shear Modulus (GPa) = 30.61703 43.46905 37.04304
#
# Velocity S-wave (km/s) = 3.51950 4.19363 3.87126
# Velocity P-wave (km/s) = 5.86280 6.81859 6.35868
#
# Compressibility (1/GPa) = 0.02265692
#
# Stress axis : x y z
#
# Youngs Moduli (GPa) = 57.21694 52.33467 86.16316
#
# Poissons Ratio (x) = 0.16972 0.29761
# Poissons Ratio (y) = 0.18556 0.52300
# Poissons Ratio (z) = 0.19763 0.31767
#
# Static dielectric constant tensor:
#      x y z
#    x 2.040440 0.103790 0.000900 
#    y 0.103790 1.816630 0.291160 
#    z 0.000900 0.291160 1.688020 
# 
# From -- ./inp_files/402090.got.cif
#   From: 2010.05.17/outbox.cif.g08.bks.cpg/sg2_202_cif.got.tgz:402090.got - 2010.06.03 11:33:40.
