data_PCOD9050287
_publ_section_title
;
Structure prediction by ZEFSAII (Michael W. Deem and Ramdas Pophale) SiO2 
 PCOD9050287
Probable space group: P -1
;
_chemical_formula_sum "Si O2"
_cell_formula_units_Z 16
_cell_length_a 9.600654
_cell_length_b 33.673315
_cell_length_c 16.432347
_cell_angle_alpha 161.047204
_cell_angle_beta 138.401841
_cell_angle_gamma 31.307032
_cell_volume 837.464389
_symmetry_space_group_name_H-M "P -1"
_symmetry_group_IT_number 2
_symmetry_cell_setting 'triclinic'
loop_
_space_group_symop_operation_xyz
x,y,z
-x,-y,-z
loop_
_atom_site_type_symbol
_atom_site_label
_atom_site_fract_x
_atom_site_fract_y
_atom_site_fract_z
Si Si1 0.078443 0.486573 0.790176
Si Si2 0.310668 0.545857 0.873076
Si Si3 0.586421 0.790656 0.276992
Si Si4 0.012403 0.109196 0.825492
Si Si5 0.765774 0.426981 0.419621
Si Si6 0.658281 0.616902 0.583915
Si Si7 0.450697 0.277549 0.690499
Si Si8 0.710386 0.850522 0.124109
O O1 0.302428 0.486110 0.841484
O O2 0.232490 0.344841 0.651760
O O3 0.946494 0.457563 0.604239
O O4 0.827265 0.657106 0.059123
O O5 0.428955 0.405918 0.584349
O O6 0.476068 0.607405 0.054660
O O7 0.971491 0.706668 0.017691
O O8 0.289799 0.835751 0.217677
O O9 0.663245 0.722282 0.271059
O O10 0.508547 0.964944 0.576642
O O11 0.125905 0.140360 0.858003
O O12 0.957204 0.232243 0.108171
O O13 0.254969 0.912542 0.566080
O O14 0.500000 0.500000 0.500000
O O15 0.634703 0.528879 0.475242
O O16 0.000000 0.500000 0.500000
O O17 0.556555 0.791332 0.905529
#
# Coordination Sequence:
#
# PCOD9050287 Si02
#       8
#     2   2   2   2   2   2   2   2
#     4  12  25  36  57  91 120 151 185 240 295 337
#     4  11  19  38  61  84 114 152 194 232 282 348
#     4  11  21  38  60  86 117 149 195 240 280 332
#     4  11  19  37  64  85 109 152 201 234 275 343
#     4  12  22  36  58  90 116 144 192 245 287 328
#     4  10  18  35  60  84 108 148 196 236 277 339
#     4  11  23  40  59  83 120 158 189 228 290 347
#     4  10  17  34  62  88 104 149 200 234 273 334
#
# _framework density 19.10529
#
# number of rings (size 3 to 8) (size 9 to 14) (size 15 to 20)
#    0.000    1.000    8.750    1.500    0.000    1.000 
#    2.250    0.000    0.000    0.750    0.000    0.000 
#    0.000    0.000    0.000    0.000    0.000    0.000 
#
# Total GULP energy -89307.285114 kJ/mol
# GULP energy per Si atom -5581.705320 kJ/mol
# Density = 1.906181 g / cm^3
# Si number density = 19.105290 Si / 1000 Ang^3
#
#
#
# Elastic Constant Matrix: (Units=GPa)
#
#
# Indices 1 2 3 4 5 6 
#
# 1 50.3442 -3.4776 12.5645 -8.6789 -9.1239 9.6758
# 2 -3.4776 43.7829 14.4273 -3.3053 -7.3374 13.1807
# 3 12.5645 14.4273 104.6329 -19.7690 -1.8181 9.5851
# 4 -8.6789 -3.3053 -19.7690 16.5848 2.2581 1.9597
# 5 -9.1239 -7.3374 -1.8181 2.2581 28.7748 -7.0286
# 6 9.6758 13.1807 9.5851 1.9597 -7.0286 18.1071
#
#
#
# Elastic Compliance Matrix: (Units=1/GPa)
#
#
# Indices 1 2 3 4 5 6 
#
# 1 0.030164 0.012378 0.001427 0.022468 0.004564 -0.026544
# 2 0.012378 0.035653 -0.000155 0.016785 0.003657 -0.032882
# 3 0.001427 -0.000155 0.014008 0.019150 -0.002962 -0.011287
# 4 0.022468 0.016785 0.019150 0.104995 -0.007506 -0.048639
# 5 0.004564 0.003657 -0.002962 -0.007506 0.040732 0.013090
# 6 -0.026544 -0.032882 -0.011287 -0.048639 0.013090 0.109667
#
#
# Mechanical properties :
#
#
# Convention : Reuss Voigt Hill
#
# Bulk Modulus (GPa) = 9.33495 27.30983 18.32239
# Shear Modulus (GPa) = 14.55061 24.37641 19.46351
#
# Velocity S-wave (km/s) = 2.76271 3.57585 3.19525
# Velocity P-wave (km/s) = 3.88245 5.60128 4.81911
#
# Compressibility (1/GPa) = 0.10712428
#
# Stress axis : x y z
#
# Youngs Moduli (GPa) = 33.15199 28.04791 71.38789
#
# Poissons Ratio (x) = -0.34717 -0.10188
# Poissons Ratio (y) = -0.41034 0.01109
# Poissons Ratio (z) = -0.04731 0.00436
#
# Static dielectric constant tensor:
#      x y z
#    x 1.655510 0.009500 0.018980 
#    y 0.009500 1.658870 -0.029470 
#    z 0.018980 -0.029470 1.717750 
# 
# From -- ./inp_files/259126.got.cif
#   From: 2010.05.17/outbox.cif.g08.bks.cpg/sg2_130_cif.got.tgz:259126.got - 2010.06.03 11:33:40.
