data_PCOD9050739
_publ_section_title
;
Structure prediction by ZEFSAII (Michael W. Deem and Ramdas Pophale) SiO2 
 PCOD9050739
Probable space group: P -1
;
_chemical_formula_sum "Si O2"
_cell_formula_units_Z 16
_cell_length_a 8.095328
_cell_length_b 11.650990
_cell_length_c 14.538326
_cell_angle_alpha 33.316392
_cell_angle_beta 112.313883
_cell_angle_gamma 95.434253
_cell_volume 626.367149
_symmetry_space_group_name_H-M "P -1"
_symmetry_group_IT_number 2
_symmetry_cell_setting 'triclinic'
loop_
_space_group_symop_operation_xyz
x,y,z
-x,-y,-z
loop_
_atom_site_type_symbol
_atom_site_label
_atom_site_fract_x
_atom_site_fract_y
_atom_site_fract_z
Si Si1 0.045817 0.279055 0.788553
Si Si2 0.086948 0.984930 0.759758
Si Si3 0.952082 0.409731 0.874009
Si Si4 0.454134 0.159344 0.526844
Si Si5 0.171716 0.654149 0.847807
Si Si6 0.442162 0.717602 0.731132
Si Si7 0.725794 0.742531 0.319468
Si Si8 0.726057 0.289574 0.605632
O O1 0.088861 0.294465 0.892548
O O2 0.918572 0.538052 0.546586
O O3 0.870611 0.198225 0.786010
O O4 0.230173 0.183073 0.822406
O O5 0.054603 0.896182 0.713409
O O6 0.276514 0.043390 0.764567
O O7 0.115133 0.773536 0.975059
O O8 0.889435 0.192380 0.622688
O O9 0.765557 0.637629 0.647614
O O10 0.056647 0.498839 0.912122
O O11 0.545533 0.218301 0.414196
O O12 0.576159 0.180892 0.625109
O O13 0.451537 0.917996 0.664011
O O14 0.252551 0.686330 0.744977
O O15 0.363223 0.512730 0.046256
O O16 0.616003 0.574150 0.394342
#
# Coordination Sequence:
#
# PCOD9050739 Si02
#       8
#     2   2   2   2   2   2   2   2
#     4   8  18  38  57  91 118 156 199 245 291 360
#     4  11  20  39  64  89 122 160 205 251 296 355
#     4  12  25  36  64  96 124 152 211 250 296 359
#     4  11  24  41  61  94 122 160 198 257 300 358
#     4  11  25  42  62  89 123 165 198 251 305 362
#     4  10  25  44  60  87 129 158 202 244 314 362
#     4   8  18  39  62  85 122 156 202 245 298 358
#     4   9  20  39  66  81 127 162 193 245 308 354
#
# _framework density 25.544122000000002
#
# number of rings (size 3 to 8) (size 9 to 14) (size 15 to 20)
#    0.750    1.250    2.500    1.125    7.000    3.000 
#    0.000    0.625    0.000    0.000    0.000    0.000 
#    0.000    0.000    0.000    0.000    0.000    0.000 
#
# Total GULP energy -89272.547832 kJ/mol
# GULP energy per Si atom -5579.534240 kJ/mol
# Density = 2.548598 g / cm^3
# Si number density = 25.544122 Si / 1000 Ang^3
#
#
#
# Elastic Constant Matrix: (Units=GPa)
#
#
# Indices 1 2 3 4 5 6 
#
# 1 40.3231 22.2770 11.7090 -4.2144 -13.4703 5.4962
# 2 22.2770 148.7218 17.5008 -5.6028 -10.5831 9.4055
# 3 11.7090 17.5008 55.9647 -5.8312 -2.1258 0.0690
# 4 -4.2144 -5.6028 -5.8312 32.2145 4.2009 -7.3205
# 5 -13.4703 -10.5831 -2.1258 4.2009 20.7325 -1.6164
# 6 5.4962 9.4055 0.0690 -7.3205 -1.6164 38.0181
#
#
#
# Elastic Compliance Matrix: (Units=1/GPa)
#
#
# Indices 1 2 3 4 5 6 
#
# 1 0.035480 -0.002949 -0.005753 -0.000437 0.020765 -0.003590
# 2 -0.002949 0.007570 -0.001675 0.000105 0.001649 -0.001353
# 3 -0.005753 -0.001675 0.019824 0.003340 -0.003103 0.001721
# 4 -0.000437 0.000105 0.003340 0.033851 -0.006257 0.006283
# 5 0.020765 0.001649 -0.003103 -0.006257 0.063367 -0.001915
# 6 -0.003590 -0.001353 0.001721 0.006283 -0.001915 0.028282
#
#
# Mechanical properties :
#
#
# Convention : Reuss Voigt Hill
#
# Bulk Modulus (GPa) = 23.74216 38.66481 31.20348
# Shear Modulus (GPa) = 22.40446 31.09452 26.74949
#
# Velocity S-wave (km/s) = 2.96478 3.49275 3.23954
# Velocity P-wave (km/s) = 4.58635 5.60670 5.12200
#
# Compressibility (1/GPa) = 0.04211917
#
# Stress axis : x y z
#
# Youngs Moduli (GPa) = 28.18461 132.10549 50.44410
#
# Poissons Ratio (x) = 0.38962 0.29022
# Poissons Ratio (y) = 0.08312 0.08448
# Poissons Ratio (z) = 0.16215 0.22125
#
# Static dielectric constant tensor:
#      x y z
#    x 2.110440 -0.022230 0.016980 
#    y -0.022230 2.105060 -0.042310 
#    z 0.016980 -0.042310 1.983600 
# 
# From -- ./inp_files/499918.got.cif
#   From: 2010.05.17/outbox.cif.g08.bks.cpg/sg2_250_cif.got.tgz:499918.got - 2010.06.03 11:33:40.
