data_PCOD9050981
_publ_section_title
;
Structure prediction by ZEFSAII (Michael W. Deem and Ramdas Pophale) SiO2 
 PCOD9050981
Probable space group: P -1
;
_chemical_formula_sum "Si O2"
_cell_formula_units_Z 14
_cell_length_a 8.190207
_cell_length_b 13.552545
_cell_length_c 8.992676
_cell_angle_alpha 94.390846
_cell_angle_beta 127.643915
_cell_angle_gamma 50.031339
_cell_volume 517.275794
_symmetry_space_group_name_H-M "P -1"
_symmetry_group_IT_number 2
_symmetry_cell_setting 'triclinic'
loop_
_space_group_symop_operation_xyz
x,y,z
-x,-y,-z
loop_
_atom_site_type_symbol
_atom_site_label
_atom_site_fract_x
_atom_site_fract_y
_atom_site_fract_z
Si Si1 0.819554 0.465936 0.789806
Si Si2 0.484878 0.290796 0.040909
Si Si3 0.477826 0.981206 0.659252
Si Si4 0.494889 0.425613 0.803942
Si Si5 0.898187 0.714296 0.357527
Si Si6 0.046702 0.884070 0.109881
Si Si7 0.300533 0.818103 0.549607
O O1 0.696111 0.445243 0.856428
O O2 0.878607 0.367242 0.673964
O O3 0.555244 0.642369 0.631455
O O4 0.845619 0.598174 0.040786
O O5 0.546066 0.368705 0.993279
O O6 0.404894 0.235116 0.867875
O O7 0.746096 0.180109 0.298475
O O8 0.435294 0.879814 0.627772
O O9 0.500000 0.000000 0.500000
O O10 0.793032 0.898213 0.910956
O O11 0.126147 0.577513 0.585943
O O12 0.621331 0.286395 0.764332
O O13 0.776744 0.858509 0.378585
O O14 0.042729 0.903411 0.286252
O O15 0.000000 0.000000 0.000000
#
# Coordination Sequence:
#
# PCOD9050981 Si02
#       7
#     2   2   2   2   2   2   2
#     4  10  25  48  87 122 167 227 282 356 419 509
#     4  10  25  44  83 125 164 220 286 346 425 504
#     4  12  28  52  85 123 172 227 279 360 441 503
#     4  12  24  51  84 120 169 224 284 348 422 503
#     4  10  25  50  81 124 169 226 286 350 428 510
#     4  12  26  51  84 122 170 220 283 358 428 506
#     4  12  26  51  83 120 173 223 285 351 427 510
#
# _framework density 27.064864
#
# number of rings (size 3 to 8) (size 9 to 14) (size 15 to 20)
#    0.857    0.000    2.857    3.000    2.000    1.143 
#    5.143    3.571    0.000    0.000    0.000    0.000 
#    0.000    0.000    0.000    0.000    0.000    0.000 
#
# Total GULP energy -78367.892995 kJ/mol
# GULP energy per Si atom -5597.706642 kJ/mol
# Density = 2.700326 g / cm^3
# Si number density = 27.064864 Si / 1000 Ang^3
#
#
#
# Elastic Constant Matrix: (Units=GPa)
#
#
# Indices 1 2 3 4 5 6 
#
# 1 131.9553 84.7077 84.7893 6.4582 -29.0717 25.4634
# 2 84.7077 202.6871 73.7805 -2.9781 -10.9872 0.9082
# 3 84.7893 73.7805 246.8640 7.5195 -22.9905 35.1854
# 4 6.4582 -2.9781 7.5195 47.8228 7.1133 -4.7155
# 5 -29.0717 -10.9872 -22.9905 7.1133 65.7251 0.7501
# 6 25.4634 0.9082 35.1854 -4.7155 0.7501 66.0454
#
#
#
# Elastic Compliance Matrix: (Units=1/GPa)
#
#
# Indices 1 2 3 4 5 6 
#
# 1 0.014331 -0.004925 -0.002230 -0.003102 0.005123 -0.004549
# 2 -0.004925 0.007303 -0.001044 0.001760 -0.001542 0.002498
# 3 -0.002230 -0.001044 0.005553 -0.000986 0.000913 -0.002165
# 4 -0.003102 0.001760 -0.000986 0.022504 -0.003897 0.003348
# 5 0.005123 -0.001542 0.000913 -0.003897 0.017998 -0.002923
# 6 -0.004549 0.002498 -0.002165 0.003348 -0.002923 0.018286
#
#
# Mechanical properties :
#
#
# Convention : Reuss Voigt Hill
#
# Bulk Modulus (GPa) = 92.69879 118.67350 105.68614
# Shear Modulus (GPa) = 47.18306 58.46727 52.82517
#
# Velocity S-wave (km/s) = 4.17985 4.65291 4.42271
# Velocity P-wave (km/s) = 7.59077 8.53282 8.07555
#
# Compressibility (1/GPa) = 0.01078763
#
# Stress axis : x y z
#
# Youngs Moduli (GPa) = 69.77644 136.92541 180.09720
#
# Poissons Ratio (x) = 0.67436 0.40169
# Poissons Ratio (y) = 0.34365 0.18809
# Poissons Ratio (z) = 0.15563 0.14300
#
# Static dielectric constant tensor:
#      x y z
#    x 2.135480 -0.029760 0.017710 
#    y -0.029760 2.175260 0.058730 
#    z 0.017710 0.058730 2.138460 
# 
# From -- ./inp_files/178162.got.cif
#   From: 2010.05.17/outbox.cif.g08.bks.cpg/sg2_90_cif.got.tgz:178162.got - 2010.06.03 11:33:40.
