data_PCOD9050531
_publ_section_title
;
Structure prediction by ZEFSAII (Michael W. Deem and Ramdas Pophale) SiO2 
 PCOD9050531
Probable space group: P -1
;
_chemical_formula_sum "Si O2"
_cell_formula_units_Z 14
_cell_length_a 15.401788
_cell_length_b 6.070981
_cell_length_c 7.560478
_cell_angle_alpha 117.563004
_cell_angle_beta 72.232044
_cell_angle_gamma 89.010184
_cell_volume 586.195676
_symmetry_space_group_name_H-M "P -1"
_symmetry_group_IT_number 2
_symmetry_cell_setting 'triclinic'
loop_
_space_group_symop_operation_xyz
x,y,z
-x,-y,-z
loop_
_atom_site_type_symbol
_atom_site_label
_atom_site_fract_x
_atom_site_fract_y
_atom_site_fract_z
Si Si1 0.107873 0.406924 0.858669
Si Si2 0.457385 0.285853 0.694545
Si Si3 0.564405 0.723079 0.876945
Si Si4 0.727940 0.951759 0.765234
Si Si5 0.107655 0.440558 0.451504
Si Si6 0.213659 0.868031 0.572572
Si Si7 0.716645 0.374367 0.192831
O O1 0.115891 0.425944 0.651012
O O2 0.187607 0.559694 0.922703
O O3 0.142511 0.115314 0.777499
O O4 0.000000 0.500000 0.000000
O O5 0.524997 0.493204 0.724868
O O6 0.365143 0.384171 0.675568
O O7 0.500000 0.000000 0.500000
O O8 0.428385 0.304670 0.926010
O O9 0.664184 0.743686 0.745664
O O10 0.500000 0.000000 0.000000
O O11 0.828601 0.825792 0.737471
O O12 0.731830 0.044648 0.595754
O O13 0.685952 0.178373 0.003111
O O14 0.155251 0.671797 0.452023
O O15 0.000000 0.500000 0.500000
O O16 0.267143 0.749258 0.669439
#
# Coordination Sequence:
#
# PCOD9050531 Si02
#       7
#     2   2   2   2   2   2   2
#     4  10  25  42  70 110 146 188 250 306 366 460
#     4  11  28  53  81 112 154 197 254 323 384 461
#     4  11  26  52  76 118 146 198 259 309 390 456
#     4  11  26  47  76 104 152 193 245 320 366 454
#     4  10  25  42  71 106 141 199 241 304 381 435
#     4  10  26  47  69 108 149 191 251 307 371 454
#     4  11  26  48  76 109 141 206 245 302 395 441
#
# _framework density 23.882809000000002
#
# number of rings (size 3 to 8) (size 9 to 14) (size 15 to 20)
#    0.000    1.429    1.429    0.000   10.000    7.429 
#    5.143    0.714    0.000    0.000    0.000    0.000 
#    0.000    0.000    0.000    0.000    0.000    0.000 
#
# Total GULP energy -78326.801163 kJ/mol
# GULP energy per Si atom -5594.771512 kJ/mol
# Density = 2.382845 g / cm^3
# Si number density = 23.882809 Si / 1000 Ang^3
#
#
#
# Elastic Constant Matrix: (Units=GPa)
#
#
# Indices 1 2 3 4 5 6 
#
# 1 140.2740 80.2985 45.7822 5.3711 -10.2171 -2.7712
# 2 80.2985 143.8219 52.6319 10.4351 -10.5849 -0.5224
# 3 45.7822 52.6319 99.8745 19.8054 -4.0729 2.9470
# 4 5.3711 10.4351 19.8054 45.0365 0.1888 -2.3462
# 5 -10.2171 -10.5849 -4.0729 0.1888 38.7053 4.4828
# 6 -2.7712 -0.5224 2.9470 -2.3462 4.4828 43.4957
#
#
#
# Elastic Compliance Matrix: (Units=1/GPa)
#
#
# Indices 1 2 3 4 5 6 
#
# 1 0.010975 -0.005216 -0.002460 0.001015 0.001121 0.000742
# 2 -0.005216 0.011235 -0.003368 -0.000513 0.001359 -0.000137
# 3 -0.002460 -0.003368 0.013982 -0.005150 0.000092 -0.001432
# 4 0.001015 -0.000513 -0.005150 0.024564 -0.000743 0.001809
# 5 0.001121 0.001359 0.000092 -0.000743 0.026833 -0.002724
# 6 0.000742 -0.000137 -0.001432 0.001809 -0.002724 0.023512
#
#
# Mechanical properties :
#
#
# Convention : Reuss Voigt Hill
#
# Bulk Modulus (GPa) = 70.90178 82.37731 76.63955
# Shear Modulus (GPa) = 36.26091 39.13136 37.69614
#
# Velocity S-wave (km/s) = 3.90074 4.05220 3.97719
# Velocity P-wave (km/s) = 7.07387 7.51405 7.29728
#
# Compressibility (1/GPa) = 0.01410402
#
# Stress axis : x y z
#
# Youngs Moduli (GPa) = 91.11706 89.01136 71.51825
#
# Poissons Ratio (x) = 0.46427 0.17592
# Poissons Ratio (y) = 0.47525 0.24090
# Poissons Ratio (z) = 0.22413 0.29982
#
# Static dielectric constant tensor:
#      x y z
#    x 2.247220 0.047050 -0.126520 
#    y 0.047050 1.965830 0.044990 
#    z -0.126520 0.044990 1.988280 
# 
# From -- ./inp_files/289261.got.cif
#   From: 2010.05.17/outbox.cif.g08.bks.cpg/sg2_145_cif.got.tgz:289261.got - 2010.06.03 11:33:40.
