data_PCOD9050304
_publ_section_title
;
Structure prediction by ZEFSAII (Michael W. Deem and Ramdas Pophale) SiO2 
 PCOD9050304
Probable space group: P -1
;
_chemical_formula_sum "Si O2"
_cell_formula_units_Z 15
_cell_length_a 12.250730
_cell_length_b 10.802863
_cell_length_c 4.950702
_cell_angle_alpha 73.355968
_cell_angle_beta 100.609442
_cell_angle_gamma 73.795717
_cell_volume 577.443517
_symmetry_space_group_name_H-M "P -1"
_symmetry_group_IT_number 2
_symmetry_cell_setting 'triclinic'
loop_
_space_group_symop_operation_xyz
x,y,z
-x,-y,-z
loop_
_atom_site_type_symbol
_atom_site_label
_atom_site_fract_x
_atom_site_fract_y
_atom_site_fract_z
Si Si1 0.500000 0.000000 0.500000
Si Si2 0.699557 0.314801 0.472090
Si Si3 0.076930 0.362153 0.774316
Si Si4 0.113526 0.887700 0.984132
Si Si5 0.276436 0.959780 0.657973
Si Si6 0.520163 0.723841 0.378139
Si Si7 0.950393 0.794892 0.649359
Si Si8 0.327356 0.393835 0.974253
O O1 0.389780 0.001688 0.649527
O O2 0.478833 0.878066 0.378985
O O3 0.820548 0.251794 0.734880
O O4 0.699057 0.191739 0.353443
O O5 0.585233 0.336434 0.596088
O O6 0.689958 0.452132 0.223256
O O7 0.072587 0.246245 0.633596
O O8 0.208316 0.362737 0.885685
O O9 0.000000 0.500000 0.500000
O O10 0.029807 0.331702 0.058448
O O11 0.216998 0.947166 0.925528
O O12 0.059601 0.846071 0.714112
O O13 0.000000 0.000000 0.000000
O O14 0.168590 0.081659 0.393195
O O15 0.570111 0.707237 0.108732
O O16 0.628175 0.637285 0.679948
#
# Coordination Sequence:
#
# PCOD9050304 Si02
#       8
#     1   2   2   2   2   2   2   2
#     4  10  24  50  74 108 146 190 258 314 376 452
#     4  11  27  45  74 110 148 204 253 316 381 465
#     4  12  27  46  73 108 145 204 252 317 387 452
#     4  12  26  46  75 115 156 200 256 322 392 459
#     4  11  25  45  74 108 147 197 252 316 390 448
#     4  11  27  48  75 111 146 204 251 319 384 459
#     4  12  26  47  74 107 153 192 258 312 386 457
#     4  12  26  48  74 107 158 197 257 311 388 461
#
# _framework density 25.976568
#
# number of rings (size 3 to 8) (size 9 to 14) (size 15 to 20)
#    0.000    0.533    1.333    5.600    9.333    0.533 
#    2.400    0.000    0.000    0.000    0.000    0.000 
#    0.000    0.000    0.000    0.000    0.000    0.000 
#
# Total GULP energy -83894.777969 kJ/mol
# GULP energy per Si atom -5592.985198 kJ/mol
# Density = 2.591744 g / cm^3
# Si number density = 25.976568 Si / 1000 Ang^3
#
#
#
# Elastic Constant Matrix: (Units=GPa)
#
#
# Indices 1 2 3 4 5 6 
#
# 1 185.4933 14.0879 26.8042 4.7413 -2.6203 21.8443
# 2 14.0879 82.6081 -2.1971 2.9390 10.5247 9.7884
# 3 26.8042 -2.1971 87.8572 -1.0636 25.1233 6.1114
# 4 4.7413 2.9390 -1.0636 34.4539 -2.8560 3.0806
# 5 -2.6203 10.5247 25.1233 -2.8560 46.3991 0.6091
# 6 21.8443 9.7884 6.1114 3.0806 0.6091 40.2917
#
#
#
# Elastic Compliance Matrix: (Units=1/GPa)
#
#
# Indices 1 2 3 4 5 6 
#
# 1 0.006148 -0.000994 -0.002226 -0.000436 0.001787 -0.002748
# 2 -0.000994 0.013233 0.002013 -0.001022 -0.004173 -0.002840
# 3 -0.002226 0.002013 0.014634 0.000006 -0.008488 -0.001374
# 4 -0.000436 -0.001022 0.000006 0.029502 0.002044 -0.001803
# 5 0.001787 -0.004173 -0.008488 0.002044 0.027311 0.000763
# 6 -0.002748 -0.002840 -0.001374 -0.001803 0.000763 0.027333
#
#
# Mechanical properties :
#
#
# Convention : Reuss Voigt Hill
#
# Bulk Modulus (GPa) = 31.64465 48.14984 39.89725
# Shear Modulus (GPa) = 38.13579 45.37983 41.75781
#
# Velocity S-wave (km/s) = 3.83572 4.18419 4.01374
# Velocity P-wave (km/s) = 5.64140 6.47452 6.07226
#
# Compressibility (1/GPa) = 0.03160091
#
# Stress axis : x y z
#
# Youngs Moduli (GPa) = 162.65048 75.56864 68.33277
#
# Poissons Ratio (x) = 0.07514 0.15209
# Poissons Ratio (y) = 0.16172 -0.13754
# Poissons Ratio (z) = 0.36202 -0.15210
#
# Static dielectric constant tensor:
#      x y z
#    x 2.043940 -0.083350 0.137390 
#    y -0.083350 2.086840 -0.117010 
#    z 0.137390 -0.117010 2.470110 
# 
# From -- ./inp_files/65602.got.cif
#   From: 2010.05.17/outbox.cif.g08.bks.cpg/sg2_33_cif.got.tgz:65602.got - 2010.06.03 11:33:40.
