data_PCOD9050169
_publ_section_title
;
Structure prediction by ZEFSAII (Michael W. Deem and Ramdas Pophale) SiO2 
 PCOD9050169
Probable space group: P -1
;
_chemical_formula_sum "Si O2"
_cell_formula_units_Z 10
_cell_length_a 9.135031
_cell_length_b 9.460979
_cell_length_c 5.019657
_cell_angle_alpha 114.709492
_cell_angle_beta 97.763824
_cell_angle_gamma 103.828726
_cell_volume 368.854557
_symmetry_space_group_name_H-M "P -1"
_symmetry_group_IT_number 2
_symmetry_cell_setting 'triclinic'
loop_
_space_group_symop_operation_xyz
x,y,z
-x,-y,-z
loop_
_atom_site_type_symbol
_atom_site_label
_atom_site_fract_x
_atom_site_fract_y
_atom_site_fract_z
Si Si1 0.906111 0.082853 0.742096
Si Si2 0.375383 0.868606 0.557171
Si Si3 0.346875 0.140355 0.135564
Si Si4 0.886787 0.599475 0.642528
Si Si5 0.682251 0.589711 0.057444
O O1 0.793671 0.175371 0.653532
O O2 0.210794 0.073620 0.260517
O O3 0.010397 0.220745 0.077952
O O4 0.000000 0.000000 0.500000
O O5 0.485454 0.768477 0.615485
O O6 0.500000 0.000000 0.500000
O O7 0.348719 0.968525 0.881949
O O8 0.317509 0.245477 0.968747
O O9 0.777206 0.602271 0.364990
O O10 0.000000 0.500000 0.500000
O O11 0.775575 0.519432 0.804341
O O12 0.500000 0.500000 0.000000
#
# Coordination Sequence:
#
# PCOD9050169 Si02
#       5
#     2   2   2   2   2
#     4  11  26  50  89 127 170 216 285 362 427 506
#     4   9  21  43  74 125 161 211 267 358 418 499
#     4  10  24  48  82 122 165 216 287 347 427 494
#     4  12  31  58  84 126 174 230 286 358 440 509
#     4  12  30  57  85 119 173 237 291 347 427 534
#
# _framework density 27.110956999999999
#
# number of rings (size 3 to 8) (size 9 to 14) (size 15 to 20)
#    0.000    1.200    0.000    2.400   11.200    7.200 
#    7.200    6.000    0.000    0.000    0.000    0.000 
#    0.000    0.000    0.000    0.000    0.000    0.000 
#
# Total GULP energy -55964.016607 kJ/mol
# GULP energy per Si atom -5596.401661 kJ/mol
# Density = 2.704925 g / cm^3
# Si number density = 27.110957 Si / 1000 Ang^3
#
#
#
# Elastic Constant Matrix: (Units=GPa)
#
#
# Indices 1 2 3 4 5 6 
#
# 1 268.5229 90.5435 144.3455 -8.7756 4.6575 -7.8959
# 2 90.5435 112.7000 86.6400 -16.2213 17.9291 -11.5888
# 3 144.3455 86.6400 228.2410 -32.7404 22.6418 -15.6026
# 4 -8.7756 -16.2213 -32.7404 46.0754 -10.5591 0.5381
# 5 4.6575 17.9291 22.6418 -10.5591 82.4215 -23.5344
# 6 -7.8959 -11.5888 -15.6026 0.5381 -23.5344 47.5277
#
#
#
# Elastic Compliance Matrix: (Units=1/GPa)
#
#
# Indices 1 2 3 4 5 6 
#
# 1 0.006456 -0.003111 -0.003297 -0.002006 0.000871 -0.000315
# 2 -0.003111 0.014283 -0.002934 0.001988 -0.001520 0.001227
# 3 -0.003297 -0.002934 0.008304 0.004085 -0.000616 0.001112
# 4 -0.002006 0.001988 0.004085 0.025474 0.002523 0.002453
# 5 0.000871 -0.001520 -0.000616 0.002523 0.014880 0.006912
# 6 -0.000315 0.001227 0.001112 0.002453 0.006912 0.025047
#
#
# Mechanical properties :
#
#
# Convention : Reuss Voigt Hill
#
# Bulk Modulus (GPa) = 96.55914 139.16908 117.86411
# Shear Modulus (GPa) = 42.88890 54.40058 48.64474
#
# Velocity S-wave (km/s) = 3.98172 4.48436 4.24049
# Velocity P-wave (km/s) = 7.53873 8.84631 8.21857
#
# Compressibility (1/GPa) = 0.01035635
#
# Stress axis : x y z
#
# Youngs Moduli (GPa) = 154.89998 70.01567 120.43059
#
# Poissons Ratio (x) = 0.21784 0.39710
# Poissons Ratio (y) = 0.48194 0.35336
# Poissons Ratio (z) = 0.51076 0.20543
#
# Static dielectric constant tensor:
#      x y z
#    x 2.339220 -0.029990 0.060700 
#    y -0.029990 2.241190 0.062810 
#    z 0.060700 0.062810 2.269670 
# 
# From -- ./inp_files/22806.got.cif
#   From: 2010.05.17/outbox.cif.g08.bks.cpg/sg2_12_cif.got.tgz:22806.got - 2010.06.03 11:33:40.
