data_PCOD9050633
_publ_section_title
;
Structure prediction by ZEFSAII (Michael W. Deem and Ramdas Pophale) SiO2 
 PCOD9050633
Probable space group: P -1
;
_chemical_formula_sum "Si O2"
_cell_formula_units_Z 10
_cell_length_a 5.366429
_cell_length_b 9.740459
_cell_length_c 11.765587
_cell_angle_alpha 37.231662
_cell_angle_beta 72.002760
_cell_angle_gamma 77.532391
_cell_volume 353.410564
_symmetry_space_group_name_H-M "P -1"
_symmetry_group_IT_number 2
_symmetry_cell_setting 'triclinic'
loop_
_space_group_symop_operation_xyz
x,y,z
-x,-y,-z
loop_
_atom_site_type_symbol
_atom_site_label
_atom_site_fract_x
_atom_site_fract_y
_atom_site_fract_z
Si Si1 0.839018 0.324744 0.356943
Si Si2 0.774713 0.120224 0.927122
Si Si3 0.254197 0.629849 0.997546
Si Si4 0.305178 0.098572 0.561812
Si Si5 0.828909 0.616133 0.390910
O O1 0.972939 0.495397 0.134482
O O2 0.084597 0.185841 0.453790
O O3 0.607021 0.161768 0.447191
O O4 0.764286 0.464937 0.388007
O O5 0.700147 0.281765 0.937116
O O6 0.844159 0.349505 0.658347
O O7 0.500000 0.000000 0.000000
O O8 0.883623 0.866279 0.139906
O O9 0.500000 0.500000 0.000000
O O10 0.229978 0.854397 0.781679
O O11 0.294297 0.254801 0.573240
#
# Coordination Sequence:
#
# PCOD9050633 Si02
#       5
#     2   2   2   2   2
#     4  10  25  43  68 108 138 184 247 291 355 438
#     4  11  24  43  70 101 136 180 239 291 350 423
#     4  11  27  48  75 108 149 196 241 297 369 432
#     4  11  23  44  71 101 145 187 233 304 357 420
#     4   9  20  38  65  99 134 175 231 293 352 413
#
# _framework density 28.2957
#
# number of rings (size 3 to 8) (size 9 to 14) (size 15 to 20)
#    0.000    1.600    2.000    0.600    5.600   12.800 
#    0.000    7.000    0.000    0.000    0.000    0.000 
#    0.000    0.000    0.000    0.000    0.000    0.000 
#
# Total GULP energy -55838.088793 kJ/mol
# GULP energy per Si atom -5583.808879 kJ/mol
# Density = 2.823130 g / cm^3
# Si number density = 28.295700 Si / 1000 Ang^3
#
#
#
# Elastic Constant Matrix: (Units=GPa)
#
#
# Indices 1 2 3 4 5 6 
#
# 1 197.0611 14.8136 110.9857 -4.1921 -48.2978 14.4790
# 2 14.8136 100.8556 22.2978 2.0158 12.6148 15.5393
# 3 110.9857 22.2978 219.8955 -7.0389 -14.0508 4.9836
# 4 -4.1921 2.0158 -7.0389 67.3243 5.0285 9.2749
# 5 -48.2978 12.6148 -14.0508 5.0285 53.2524 -19.6469
# 6 14.4790 15.5393 4.9836 9.2749 -19.6469 40.8754
#
#
#
# Elastic Compliance Matrix: (Units=1/GPa)
#
#
# Indices 1 2 3 4 5 6 
#
# 1 0.009563 -0.001964 -0.004131 -0.000775 0.008993 0.002361
# 2 -0.001964 0.012562 -0.000573 0.001160 -0.008016 -0.008126
# 3 -0.004131 -0.000573 0.006587 0.000632 -0.002020 -0.000236
# 4 -0.000775 0.001160 0.000632 0.016014 -0.004562 -0.006070
# 5 0.008993 -0.008016 -0.002020 -0.004562 0.035438 0.018177
# 6 0.002361 -0.008126 -0.000236 -0.006070 0.018177 0.036860
#
#
# Mechanical properties :
#
#
# Convention : Reuss Voigt Hill
#
# Bulk Modulus (GPa) = 65.04204 90.44516 77.74360
# Shear Modulus (GPa) = 36.90416 56.93809 46.92113
#
# Velocity S-wave (km/s) = 3.61533 4.49068 4.07657
# Velocity P-wave (km/s) = 6.36113 7.67606 7.04932
#
# Compressibility (1/GPa) = 0.01537467
#
# Stress axis : x y z
#
# Youngs Moduli (GPa) = 104.56965 79.60569 151.80647
#
# Poissons Ratio (x) = 0.15638 0.62713
# Poissons Ratio (y) = 0.20542 0.08702
# Poissons Ratio (z) = 0.43199 0.04563
#
# Static dielectric constant tensor:
#      x y z
#    x 2.158590 -0.086080 0.244890 
#    y -0.086080 2.145520 -0.018620 
#    z 0.244890 -0.018620 3.585030 
# 
# From -- ./inp_files/48374.got.cif
#   From: 2010.05.17/outbox.cif.g08.bks.cpg/sg2_25_cif.got.tgz:48374.got - 2010.06.03 11:33:40.
