data_PCOD9050179
_publ_section_title
;
Structure prediction by ZEFSAII (Michael W. Deem and Ramdas Pophale) SiO2 
 PCOD9050179
Probable space group: P -1
;
_chemical_formula_sum "Si O2"
_cell_formula_units_Z 16
_cell_length_a 22.143196
_cell_length_b 6.946541
_cell_length_c 14.238202
_cell_angle_alpha 97.881885
_cell_angle_beta 160.573386
_cell_angle_gamma 82.919701
_cell_volume 721.421984
_symmetry_space_group_name_H-M "P -1"
_symmetry_group_IT_number 2
_symmetry_cell_setting 'triclinic'
loop_
_space_group_symop_operation_xyz
x,y,z
-x,-y,-z
loop_
_atom_site_type_symbol
_atom_site_label
_atom_site_fract_x
_atom_site_fract_y
_atom_site_fract_z
Si Si1 0.698004 0.229854 0.961164
Si Si2 0.340562 0.987339 0.426246
Si Si3 0.300566 0.593096 0.222588
Si Si4 0.855071 0.433323 0.362123
Si Si5 0.927483 0.761463 0.050480
Si Si6 0.308028 0.208799 0.759379
Si Si7 0.674769 0.107068 0.386767
Si Si8 0.004344 0.055314 0.646262
O O1 0.516344 0.112942 0.661302
O O2 0.758631 0.353460 0.967019
O O3 0.684976 0.361252 0.043477
O O4 0.849870 0.073536 0.200378
O O5 0.366933 0.925400 0.568077
O O6 0.315402 0.792779 0.315583
O O7 0.173788 0.132091 0.175833
O O8 0.500000 0.500000 0.500000
O O9 0.167571 0.439977 0.070529
O O10 0.783830 0.586629 0.343170
O O11 0.954965 0.262405 0.549533
O O12 0.000000 0.500000 0.500000
O O13 0.909051 0.906628 0.121892
O O14 0.141922 0.764105 0.346225
O O15 0.300004 0.104909 0.639453
O O16 0.182693 0.063877 0.628010
O O17 0.511243 0.203140 0.096422
#
# Coordination Sequence:
#
# PCOD9050179 Si02
#       8
#     2   2   2   2   2   2   2   2
#     4  12  24  43  71 109 143 181 224 294 362 412
#     4  12  25  45  70 102 142 185 233 287 344 419
#     4  12  25  44  69 105 143 180 233 292 353 415
#     4  12  25  40  72 109 137 180 233 292 357 414
#     4  11  24  45  69 100 138 187 238 279 347 410
#     4  10  24  49  68 102 141 184 236 286 348 413
#     4  10  25  47  74  97 146 192 233 285 340 420
#     4  11  23  44  68 103 143 180 227 291 356 411
#
# _framework density 22.178422999999999
#
# number of rings (size 3 to 8) (size 9 to 14) (size 15 to 20)
#    0.000    0.750    3.750    3.375    3.500    0.500 
#    0.000   15.000    0.000    0.000    0.000    0.000 
#    0.000    0.000    0.000    0.000    0.000    0.000 
#
# Total GULP energy -89492.140125 kJ/mol
# GULP energy per Si atom -5593.258758 kJ/mol
# Density = 2.212794 g / cm^3
# Si number density = 22.178423 Si / 1000 Ang^3
#
#
#
# Elastic Constant Matrix: (Units=GPa)
#
#
# Indices 1 2 3 4 5 6 
#
# 1 50.2588 13.0192 1.8216 -5.3337 -16.1012 -3.6591
# 2 13.0192 100.0541 34.2271 -10.0854 2.8667 4.0953
# 3 1.8216 34.2271 100.2546 3.9517 15.5617 6.8711
# 4 -5.3337 -10.0854 3.9517 34.3750 9.1807 5.1736
# 5 -16.1012 2.8667 15.5617 9.1807 29.7675 1.0485
# 6 -3.6591 4.0953 6.8711 5.1736 1.0485 30.9730
#
#
#
# Elastic Compliance Matrix: (Units=1/GPa)
#
#
# Indices 1 2 3 4 5 6 
#
# 1 0.026024 -0.003485 -0.001921 -0.001526 0.015757 0.003683
# 2 -0.003485 0.012350 -0.003832 0.004437 -0.002374 -0.001855
# 3 -0.001921 -0.003832 0.012572 -0.000685 -0.006955 -0.002159
# 4 -0.001526 0.004437 -0.000685 0.034121 -0.011209 -0.005935
# 5 0.015757 -0.002374 -0.006955 -0.011209 0.049300 0.003922
# 6 0.003683 -0.001855 -0.002159 -0.005935 0.003922 0.034304
#
#
# Mechanical properties :
#
#
# Convention : Reuss Voigt Hill
#
# Bulk Modulus (GPa) = 30.79836 38.74481 34.77158
# Shear Modulus (GPa) = 25.25607 32.45641 28.85624
#
# Velocity S-wave (km/s) = 3.37822 3.82962 3.61098
# Velocity P-wave (km/s) = 5.39753 6.08787 5.75306
#
# Compressibility (1/GPa) = 0.03246926
#
# Stress axis : x y z
#
# Youngs Moduli (GPa) = 38.42663 80.97031 79.53884
#
# Poissons Ratio (x) = 0.28219 0.15280
# Poissons Ratio (y) = 0.13392 0.30482
# Poissons Ratio (z) = 0.07382 0.31030
#
# Static dielectric constant tensor:
#      x y z
#    x 1.816430 -0.017030 -0.010460 
#    y -0.017030 1.840920 0.014350 
#    z -0.010460 0.014350 1.840910 
# 
# From -- ./inp_files/70868.got.cif
#   From: 2010.05.17/outbox.cif.g08.bks.cpg/sg2_36_cif.got.tgz:70868.got - 2010.06.03 11:33:40.
