data_PCOD9050071
_publ_section_title
;
Structure prediction by ZEFSAII (Michael W. Deem and Ramdas Pophale) SiO2 
 PCOD9050071
Probable space group: P -1
;
_chemical_formula_sum "Si O2"
_cell_formula_units_Z 11
_cell_length_a 7.877629
_cell_length_b 13.179722
_cell_length_c 12.883009
_cell_angle_alpha 21.694733
_cell_angle_beta 127.275853
_cell_angle_gamma 124.545568
_cell_volume 393.406561
_symmetry_space_group_name_H-M "P -1"
_symmetry_group_IT_number 2
_symmetry_cell_setting 'triclinic'
loop_
_space_group_symop_operation_xyz
x,y,z
-x,-y,-z
loop_
_atom_site_type_symbol
_atom_site_label
_atom_site_fract_x
_atom_site_fract_y
_atom_site_fract_z
Si Si1 0.000000 0.500000 0.000000
Si Si2 0.416090 0.229267 0.488460
Si Si3 0.881866 0.208553 0.868750
Si Si4 0.741830 0.675456 0.266419
Si Si5 0.959280 0.977488 0.334645
Si Si6 0.594022 0.227202 0.241063
O O1 0.252968 0.387966 0.201467
O O2 0.941573 0.247248 0.140849
O O3 0.601851 0.447064 0.373071
O O4 0.262413 0.174149 0.581049
O O5 0.470714 0.935678 0.734991
O O6 0.792913 0.513936 0.545972
O O7 0.056881 0.257391 0.797307
O O8 0.992049 0.084057 0.129247
O O9 0.694180 0.988081 0.981598
O O10 0.144670 0.785907 0.635735
O O11 0.500000 0.000000 0.500000
O O12 0.500000 0.500000 0.000000
#
# Coordination Sequence:
#
# PCOD9050071 Si02
#       6
#     1   2   2   2   2   2
#     4  10  24  48  74 114 164 208 264 324 404 480
#     4  11  27  49  81 114 168 211 265 341 397 478
#     4  10  25  50  80 118 160 209 270 331 400 479
#     4  10  25  50  80 118 160 209 270 331 400 479
#     4  11  27  49  81 114 168 211 265 341 397 478
#     4  11  28  47  76 115 161 215 269 320 401 476
#
# _framework density 27.960898
#
# number of rings (size 3 to 8) (size 9 to 14) (size 15 to 20)
#    0.000    1.455    0.000    2.182   15.273    7.273 
#    0.000    0.909    0.000    0.000    0.000    0.000 
#    0.000    0.000    0.000    0.000    0.000    0.000 
#
# Total GULP energy -61298.618386 kJ/mol
# GULP energy per Si atom -5572.601671 kJ/mol
# Density = 2.789726 g / cm^3
# Si number density = 27.960898 Si / 1000 Ang^3
#
#
#
# Elastic Constant Matrix: (Units=GPa)
#
#
# Indices 1 2 3 4 5 6 
#
# 1 87.6873 63.9652 54.8645 -31.7784 20.0858 -4.7102
# 2 63.9652 148.6115 74.1355 -38.8068 -11.8118 6.8040
# 3 54.8645 74.1355 239.0013 -39.3977 3.9262 -13.0677
# 4 -31.7784 -38.8068 -39.3977 64.9411 -6.2229 -9.8205
# 5 20.0858 -11.8118 3.9262 -6.2229 41.5231 -4.7115
# 6 -4.7102 6.8040 -13.0677 -9.8205 -4.7115 55.9301
#
#
#
# Elastic Compliance Matrix: (Units=1/GPa)
#
#
# Indices 1 2 3 4 5 6 
#
# 1 0.024165 -0.009750 -0.001476 0.004194 -0.013413 0.002483
# 2 -0.009750 0.013245 -0.001649 0.002754 0.008872 -0.001587
# 3 -0.001476 -0.001649 0.005430 0.001862 0.000202 0.001689
# 4 0.004194 0.002754 0.001862 0.021097 0.002233 0.004346
# 5 -0.013413 0.008872 0.000202 0.002233 0.033530 0.001055
# 6 0.002483 -0.001587 0.001689 0.004346 0.001055 0.019528
#
#
# Mechanical properties :
#
#
# Convention : Reuss Voigt Hill
#
# Bulk Modulus (GPa) = 58.50712 95.69228 77.09970
# Shear Modulus (GPa) = 33.68342 51.30118 42.49230
#
# Velocity S-wave (km/s) = 3.47459 4.28804 3.90257
# Velocity P-wave (km/s) = 6.08827 7.66905 6.92392
#
# Compressibility (1/GPa) = 0.01709194
#
# Stress axis : x y z
#
# Youngs Moduli (GPa) = 41.38200 75.50124 184.15545
#
# Poissons Ratio (x) = 0.73611 0.27175
# Poissons Ratio (y) = 0.40346 0.30365
# Poissons Ratio (z) = 0.06106 0.12449
#
# Static dielectric constant tensor:
#      x y z
#    x 1.349510 -0.133590 0.742630 
#    y -0.133590 2.211020 0.251830 
#    z 0.742630 0.251830 1.608870 
# 
# From -- ./inp_files/502482.got.cif
#   From: 2010.05.17/outbox.cif.g08.bks.cpg/sg2_252_cif.got.tgz:502482.got - 2010.06.03 11:33:40.
