data_PCOD9050939
_publ_section_title
;
Structure prediction by ZEFSAII (Michael W. Deem and Ramdas Pophale) SiO2 
 PCOD9050939
Probable space group: P -1
;
_chemical_formula_sum "Si O2"
_cell_formula_units_Z 12
_cell_length_a 17.934482
_cell_length_b 8.288939
_cell_length_c 6.931534
_cell_angle_alpha 106.210963
_cell_angle_beta 59.748274
_cell_angle_gamma 146.216000
_cell_volume 473.604596
_symmetry_space_group_name_H-M "P -1"
_symmetry_group_IT_number 2
_symmetry_cell_setting 'triclinic'
loop_
_space_group_symop_operation_xyz
x,y,z
-x,-y,-z
loop_
_atom_site_type_symbol
_atom_site_label
_atom_site_fract_x
_atom_site_fract_y
_atom_site_fract_z
Si Si1 0.064959 0.950681 0.774760
Si Si2 0.620145 0.064663 0.764095
Si Si3 0.761542 0.605820 0.633269
Si Si4 0.804646 0.253155 0.928472
Si Si5 0.466949 0.197776 0.617194
Si Si6 0.270810 0.184096 0.921271
O O1 0.945921 0.603567 0.817120
O O2 0.102437 0.086280 0.562224
O O3 0.214197 0.131656 0.763191
O O4 0.000000 0.000000 0.000000
O O5 0.762807 0.413109 0.621830
O O6 0.695835 0.059967 0.816552
O O7 0.536962 0.847583 0.617616
O O8 0.500000 0.000000 0.000000
O O9 0.615164 0.383237 0.604478
O O10 0.727475 0.655101 0.887854
O O11 0.845148 0.139838 0.932095
O O12 0.685317 0.139911 0.202670
O O13 0.427277 0.327701 0.756451
#
# Coordination Sequence:
#
# PCOD9050939 Si02
#       6
#     2   2   2   2   2   2
#     4  12  27  45  72 102 144 182 234 288 345 414
#     4  12  24  43  75 102 141 183 231 285 347 412
#     4  12  26  44  74 106 139 181 237 287 346 410
#     4  10  25  46  69 101 141 183 231 277 351 411
#     4  10  25  44  73 103 138 181 232 285 348 404
#     4  10  26  47  73 101 142 182 236 283 350 413
#
# _framework density 25.337592999999998
#
# number of rings (size 3 to 8) (size 9 to 14) (size 15 to 20)
#    1.000    0.000    1.667    3.500    7.000    5.333 
#    0.000    0.000    0.000    0.000    0.000    0.000 
#    0.000    0.000    0.000    0.000    0.000    0.000 
#
# Total GULP energy -67196.802224 kJ/mol
# GULP energy per Si atom -5599.733519 kJ/mol
# Density = 2.527992 g / cm^3
# Si number density = 25.337593 Si / 1000 Ang^3
#
#
#
# Elastic Constant Matrix: (Units=GPa)
#
#
# Indices 1 2 3 4 5 6 
#
# 1 64.9538 -6.9163 -4.0055 -0.5371 29.6987 0.7917
# 2 -6.9163 103.0606 31.3187 -4.7509 9.5119 -12.8701
# 3 -4.0055 31.3187 118.6989 3.0308 25.4883 8.0676
# 4 -0.5371 -4.7509 3.0308 49.3384 -3.2176 18.2421
# 5 29.6987 9.5119 25.4883 -3.2176 42.6709 -0.6072
# 6 0.7917 -12.8701 8.0676 18.2421 -0.6072 28.8281
#
#
#
# Elastic Compliance Matrix: (Units=1/GPa)
#
#
# Indices 1 2 3 4 5 6 
#
# 1 0.025732 0.001988 0.005049 -0.000802 -0.021446 -0.001176
# 2 0.001988 0.011737 -0.002982 -0.001329 -0.002222 0.006814
# 3 0.005049 -0.002982 0.011873 0.000309 -0.009992 -0.005199
# 4 -0.000802 -0.001329 0.000309 0.026756 0.002438 -0.017537
# 5 -0.021446 -0.002222 -0.009992 0.002438 0.045035 0.001799
# 6 -0.001176 0.006814 -0.005199 -0.017537 0.001799 0.050353
#
#
# Mechanical properties :
#
#
# Convention : Reuss Voigt Hill
#
# Bulk Modulus (GPa) = 17.40560 36.38970 26.89765
# Shear Modulus (GPa) = 27.39338 41.92189 34.65764
#
# Velocity S-wave (km/s) = 3.29163 4.07201 3.70244
# Velocity P-wave (km/s) = 4.61853 6.04164 5.37737
#
# Compressibility (1/GPa) = 0.05745278
#
# Stress axis : x y z
#
# Youngs Moduli (GPa) = 38.86224 85.19795 84.22528
#
# Poissons Ratio (x) = -0.16936 -0.42528
# Poissons Ratio (y) = -0.07725 0.25115
# Poissons Ratio (z) = -0.19623 0.25405
#
# Static dielectric constant tensor:
#      x y z
#    x 1.968890 -0.005650 0.007210 
#    y -0.005650 2.044580 -0.107300 
#    z 0.007210 -0.107300 2.024290 
# 
# From -- ./inp_files/78634.got.cif
#   From: 2010.05.17/outbox.cif.g08.bks.cpg/sg2_40_cif.got.tgz:78634.got - 2010.06.03 11:33:40.
