data_PCOD9050775
_publ_section_title
;
Structure prediction by ZEFSAII (Michael W. Deem and Ramdas Pophale) SiO2 
 PCOD9050775
Probable space group: P -1
;
_chemical_formula_sum "Si O2"
_cell_formula_units_Z 13
_cell_length_a 9.961317
_cell_length_b 9.504519
_cell_length_c 12.614668
_cell_angle_alpha 144.406961
_cell_angle_beta 59.718850
_cell_angle_gamma 97.866886
_cell_volume 503.888923
_symmetry_space_group_name_H-M "P -1"
_symmetry_group_IT_number 2
_symmetry_cell_setting 'triclinic'
loop_
_space_group_symop_operation_xyz
x,y,z
-x,-y,-z
loop_
_atom_site_type_symbol
_atom_site_label
_atom_site_fract_x
_atom_site_fract_y
_atom_site_fract_z
Si Si1 0.500000 0.000000 0.000000
Si Si2 0.910934 0.124023 0.498567
Si Si3 0.917382 0.080682 0.244499
Si Si4 0.526473 0.500286 0.281640
Si Si5 0.982606 0.596077 0.760331
Si Si6 0.523153 0.253532 0.761570
Si Si7 0.400734 0.212657 0.400387
O O1 0.430548 0.805354 0.959570
O O2 0.498661 0.872730 0.803895
O O3 0.011853 0.981437 0.260750
O O4 0.737617 0.091476 0.546300
O O5 0.863199 0.452636 0.710066
O O6 0.000000 0.000000 0.500000
O O7 0.697809 0.315365 0.494105
O O8 0.001563 0.243171 0.250088
O O9 0.932812 0.825168 0.013284
O O10 0.575202 0.628983 0.239873
O O11 0.616713 0.522262 0.366291
O O12 0.188953 0.319153 0.528188
O O13 0.493112 0.043868 0.714722
O O14 0.500000 0.500000 0.000000
#
# Coordination Sequence:
#
# PCOD9050775 Si02
#       7
#     1   2   2   2   2   2   2
#     4  12  24  42  70 100 138 166 224 274 330 400
#     4  11  24  45  66  95 135 173 222 273 325 396
#     4  10  25  44  66  99 131 173 226 268 332 390
#     4  11  25  45  69 101 133 176 221 281 325 399
#     4  11  24  45  67  97 133 177 217 273 333 394
#     4  11  24  45  68  98 133 178 226 270 332 392
#     4  12  25  45  69 101 135 175 224 272 340 388
#
# _framework density 25.799339
#
# number of rings (size 3 to 8) (size 9 to 14) (size 15 to 20)
#    0.000    0.923    4.615    1.385    2.154    3.077 
#    8.308    0.000    0.000    0.000    0.000    0.000 
#    0.000    0.000    0.000    0.000    0.000    0.000 
#
# Total GULP energy -72514.176861 kJ/mol
# GULP energy per Si atom -5578.013605 kJ/mol
# Density = 2.574062 g / cm^3
# Si number density = 25.799339 Si / 1000 Ang^3
#
#
#
# Elastic Constant Matrix: (Units=GPa)
#
#
# Indices 1 2 3 4 5 6 
#
# 1 68.4838 18.9558 15.9022 -13.1842 10.1686 -6.8070
# 2 18.9558 145.3341 45.3740 -22.4271 20.7438 -9.3735
# 3 15.9022 45.3740 80.1529 -14.4971 33.9671 -6.1729
# 4 -13.1842 -22.4271 -14.4971 36.3999 -6.5321 24.3692
# 5 10.1686 20.7438 33.9671 -6.5321 49.1764 -6.4694
# 6 -6.8070 -9.3735 -6.1729 24.3692 -6.4694 37.6998
#
#
#
# Elastic Compliance Matrix: (Units=1/GPa)
#
#
# Indices 1 2 3 4 5 6 
#
# 1 0.016268 -0.000739 -0.001208 0.005532 -0.001655 -0.001304
# 2 -0.000739 0.008897 -0.003986 0.004659 -0.000447 -0.001663
# 3 -0.001208 -0.003986 0.020887 0.005565 -0.012215 -0.003482
# 4 0.005532 0.004659 0.005565 0.056865 -0.003920 -0.034361
# 5 -0.001655 -0.000447 -0.012215 -0.003920 0.029463 0.005180
# 6 -0.001304 -0.001663 -0.003482 -0.034361 0.005180 0.048407
#
#
# Mechanical properties :
#
#
# Convention : Reuss Voigt Hill
#
# Bulk Modulus (GPa) = 29.25134 50.49274 39.87204
# Shear Modulus (GPa) = 24.50411 38.90448 31.70430
#
# Velocity S-wave (km/s) = 3.08522 3.88746 3.50934
# Velocity P-wave (km/s) = 4.90450 6.30584 5.64879
#
# Compressibility (1/GPa) = 0.03418646
#
# Stress axis : x y z
#
# Youngs Moduli (GPa) = 61.47004 112.39654 47.87708
#
# Poissons Ratio (x) = 0.08306 0.05783
# Poissons Ratio (y) = 0.04543 0.19083
# Poissons Ratio (z) = 0.07425 0.44800
#
# Static dielectric constant tensor:
#      x y z
#    x 2.133350 -0.091770 -0.112420 
#    y -0.091770 2.166620 -0.043270 
#    z -0.112420 -0.043270 2.117510 
# 
# From -- ./inp_files/415877.got.cif
#   From: 2010.05.17/outbox.cif.g08.bks.cpg/sg2_208_cif.got.tgz:415877.got - 2010.06.03 11:33:40.
