data_PCOD9050999
_publ_section_title
;
Structure prediction by ZEFSAII (Michael W. Deem and Ramdas Pophale) SiO2 
 PCOD9050999
Probable space group: P -1
;
_chemical_formula_sum "Si O2"
_cell_formula_units_Z 16
_cell_length_a 11.999817
_cell_length_b 9.168228
_cell_length_c 14.455352
_cell_angle_alpha 138.801602
_cell_angle_beta 41.575497
_cell_angle_gamma 110.074727
_cell_volume 600.997915
_symmetry_space_group_name_H-M "P -1"
_symmetry_group_IT_number 2
_symmetry_cell_setting 'triclinic'
loop_
_space_group_symop_operation_xyz
x,y,z
-x,-y,-z
loop_
_atom_site_type_symbol
_atom_site_label
_atom_site_fract_x
_atom_site_fract_y
_atom_site_fract_z
Si Si1 0.479877 0.177780 0.900400
Si Si2 0.164437 0.469795 0.748023
Si Si3 0.204017 0.766599 0.379108
Si Si4 0.781818 0.972396 0.774143
Si Si5 0.265570 0.281751 0.797325
Si Si6 0.785176 0.046046 0.023124
Si Si7 0.824944 0.489226 0.442197
Si Si8 0.616560 0.282521 0.565483
O O1 0.649308 0.150712 0.714788
O O2 0.583943 0.125632 0.911635
O O3 0.298731 0.470151 0.148150
O O4 0.387094 0.998662 0.855377
O O5 0.269638 0.304120 0.693840
O O6 0.193089 0.379323 0.582181
O O7 0.943972 0.557769 0.953458
O O8 0.203287 0.708269 0.835129
O O9 0.230779 0.763999 0.471766
O O10 0.973951 0.946777 0.593477
O O11 0.769712 0.060302 0.928186
O O12 0.828789 0.678871 0.605880
O O13 0.409065 0.378854 0.787124
O O14 0.331418 0.990266 0.638905
O O15 0.985192 0.790229 0.805582
O O16 0.640334 0.455660 0.558654
#
# Coordination Sequence:
#
# PCOD9050999 Si02
#       8
#     2   2   2   2   2   2   2   2
#     4  11  27  41  71 107 137 188 237 287 347 424
#     4  11  26  45  71 103 136 183 237 283 346 416
#     4  11  24  47  68 104 143 185 232 293 351 415
#     4  12  25  47  73 102 143 184 236 289 351 415
#     4  10  25  45  66 100 138 185 230 288 342 421
#     4  12  24  47  70 102 141 184 234 290 350 416
#     4  12  25  44  72 102 139 187 228 291 350 412
#     4  11  24  43  71  95 142 185 227 286 357 405
#
# _framework density 26.622388999999998
#
# number of rings (size 3 to 8) (size 9 to 14) (size 15 to 20)
#    0.000    0.750    3.750    2.250    7.000    1.500 
#    2.250    0.000    0.000    0.000    0.000    0.000 
#    0.000    0.000    0.000    0.000    0.000    0.000 
#
# Total GULP energy -89750.282351 kJ/mol
# GULP energy per Si atom -5609.392647 kJ/mol
# Density = 2.656180 g / cm^3
# Si number density = 26.622389 Si / 1000 Ang^3
#
#
#
# Elastic Constant Matrix: (Units=GPa)
#
#
# Indices 1 2 3 4 5 6 
#
# 1 79.9185 16.5686 22.9838 -8.8013 -6.3967 5.0712
# 2 16.5686 120.8613 28.4084 -19.9742 -5.4304 9.2869
# 3 22.9838 28.4084 77.3682 -5.4600 -27.2615 3.7165
# 4 -8.8013 -19.9742 -5.4600 41.9511 7.0124 -4.5794
# 5 -6.3967 -5.4304 -27.2615 7.0124 40.0540 -8.0846
# 6 5.0712 9.2869 3.7165 -4.5794 -8.0846 42.4295
#
#
#
# Elastic Compliance Matrix: (Units=1/GPa)
#
#
# Indices 1 2 3 4 5 6 
#
# 1 0.014057 -0.000528 -0.004242 0.002240 -0.001350 -0.001209
# 2 -0.000528 0.010046 -0.004057 0.004384 -0.002616 -0.001806
# 3 -0.004242 -0.004057 0.020084 -0.002208 0.013215 0.001916
# 4 0.002240 0.004384 -0.002208 0.027060 -0.005103 0.000914
# 5 -0.001350 -0.002616 0.013215 -0.005103 0.035451 0.005780
# 6 -0.001209 -0.001806 0.001916 0.000914 0.005780 0.025140
#
#
# Mechanical properties :
#
#
# Convention : Reuss Voigt Hill
#
# Bulk Modulus (GPa) = 37.68875 46.00775 41.84825
# Shear Modulus (GPa) = 31.57835 38.89941 35.23888
#
# Velocity S-wave (km/s) = 3.44780 3.82665 3.64216
# Velocity P-wave (km/s) = 5.48063 6.06988 5.78277
#
# Compressibility (1/GPa) = 0.02653312
#
# Stress axis : x y z
#
# Youngs Moduli (GPa) = 71.13732 99.54407 49.79145
#
# Poissons Ratio (x) = 0.05253 0.21120
# Poissons Ratio (y) = 0.03754 0.20203
# Poissons Ratio (z) = 0.30174 0.40390
#
# Static dielectric constant tensor:
#      x y z
#    x 2.069250 -0.018510 -0.044520 
#    y -0.018510 2.058420 0.023690 
#    z -0.044520 0.023690 2.105140 
# 
# From -- ./inp_files/186906.got.cif
#   From: 2010.05.17/outbox.cif.g08.bks.cpg/sg2_94_cif.got.tgz:186906.got - 2010.06.03 11:33:40.
