data_PCOD9050563
_publ_section_title
;
Structure prediction by ZEFSAII (Michael W. Deem and Ramdas Pophale) SiO2 
 PCOD9050563
Probable space group: P -1
;
_chemical_formula_sum "Si O2"
_cell_formula_units_Z 16
_cell_length_a 9.851396
_cell_length_b 8.583091
_cell_length_c 11.620987
_cell_angle_alpha 124.557957
_cell_angle_beta 82.907160
_cell_angle_gamma 74.753587
_cell_volume 733.352212
_symmetry_space_group_name_H-M "P -1"
_symmetry_group_IT_number 2
_symmetry_cell_setting 'triclinic'
loop_
_space_group_symop_operation_xyz
x,y,z
-x,-y,-z
loop_
_atom_site_type_symbol
_atom_site_label
_atom_site_fract_x
_atom_site_fract_y
_atom_site_fract_z
Si Si1 0.053511 0.881794 0.267833
Si Si2 0.977944 0.717303 0.644895
Si Si3 0.881941 0.791259 0.050751
Si Si4 0.878095 0.635510 0.226223
Si Si5 0.357759 0.156685 0.265248
Si Si6 0.623860 0.199958 0.143845
Si Si7 0.287545 0.477645 0.616164
Si Si8 0.623116 0.272254 0.906688
O O1 0.230269 0.753480 0.192439
O O2 0.996222 0.866777 0.137353
O O3 0.955790 0.792043 0.314046
O O4 0.021939 0.119992 0.383244
O O5 0.124754 0.659946 0.681278
O O6 0.000000 0.500000 0.500000
O O7 0.808775 0.803065 0.745648
O O8 0.825485 0.694048 0.123961
O O9 0.752567 0.985744 0.087614
O O10 0.986395 0.592884 0.883420
O O11 0.747460 0.643290 0.325577
O O12 0.466078 0.182759 0.169659
O O13 0.342263 0.319591 0.437417
O O14 0.419928 0.919137 0.202404
O O15 0.616827 0.396889 0.301969
O O16 0.655246 0.240073 0.026552
O O17 0.500000 0.500000 0.000000
#
# Coordination Sequence:
#
# PCOD9050563 Si02
#       8
#     2   2   2   2   2   2   2   2
#     4   9  18  39  59  92 125 159 212 265 317 373
#     4   9  19  38  61  87 128 169 210 259 318 388
#     4   9  20  36  61  99 127 157 215 275 323 363
#     4   9  20  34  61  97 130 154 208 279 322 361
#     4  10  25  43  59  96 138 174 207 263 335 396
#     4  12  24  40  71  93 131 172 223 267 321 388
#     4  11  21  41  69  98 124 170 226 267 319 382
#     4  11  26  43  64  92 135 176 215 264 334 392
#
# _framework density 21.817619000000001
#
# number of rings (size 3 to 8) (size 9 to 14) (size 15 to 20)
#    0.750    1.250    1.250    1.500    5.250    2.000 
#    0.000   11.875    0.000    0.000    0.000    0.000 
#    0.000    0.000    0.000    0.000    0.000    0.000 
#
# Total GULP energy -89221.881835 kJ/mol
# GULP energy per Si atom -5576.367615 kJ/mol
# Density = 2.176796 g / cm^3
# Si number density = 21.817619 Si / 1000 Ang^3
#
#
#
# Elastic Constant Matrix: (Units=GPa)
#
#
# Indices 1 2 3 4 5 6 
#
# 1 60.7512 13.5532 14.5727 11.5912 1.6563 18.3564
# 2 13.5532 85.3410 40.3110 22.5401 -7.3486 -4.0178
# 3 14.5727 40.3110 80.7028 17.6552 10.8290 2.5202
# 4 11.5912 22.5401 17.6552 43.2224 4.8385 0.2482
# 5 1.6563 -7.3486 10.8290 4.8385 23.3689 5.3243
# 6 18.3564 -4.0178 2.5202 0.2482 5.3243 30.6150
#
#
#
# Elastic Compliance Matrix: (Units=1/GPa)
#
#
# Indices 1 2 3 4 5 6 
#
# 1 0.022345 -0.001765 -0.002141 -0.004448 0.002948 -0.013930
# 2 -0.001765 0.019460 -0.009472 -0.007113 0.011550 0.002441
# 3 -0.002141 -0.009472 0.019290 -0.001064 -0.011657 0.000489
# 4 -0.004448 -0.007113 -0.001064 0.029373 -0.008195 0.003008
# 5 0.002948 0.011550 -0.011657 -0.008195 0.055330 -0.008848
# 6 -0.013930 0.002441 0.000489 0.003008 -0.008848 0.042810
#
#
# Mechanical properties :
#
#
# Convention : Reuss Voigt Hill
#
# Bulk Modulus (GPa) = 29.11969 40.40765 34.76367
# Shear Modulus (GPa) = 22.04489 29.99848 26.02169
#
# Velocity S-wave (km/s) = 3.18215 3.71208 3.45728
# Velocity P-wave (km/s) = 5.18433 6.07730 5.64849
#
# Compressibility (1/GPa) = 0.03434103
#
# Stress axis : x y z
#
# Youngs Moduli (GPa) = 44.75270 51.38741 51.83902
#
# Poissons Ratio (x) = 0.09068 0.11099
# Poissons Ratio (y) = 0.07897 0.49100
# Poissons Ratio (z) = 0.09582 0.48672
#
# Static dielectric constant tensor:
#      x y z
#    x 1.818160 -0.005590 0.031710 
#    y -0.005590 1.815270 -0.008540 
#    z 0.031710 -0.008540 1.806710 
# 
# From -- ./inp_files/495710.got.cif
#   From: 2010.05.17/outbox.cif.g08.bks.cpg/sg2_248_cif.got.tgz:495710.got - 2010.06.03 11:33:40.
