data_PCOD9050155
_publ_section_title
;
Structure prediction by ZEFSAII (Michael W. Deem and Ramdas Pophale) SiO2 
 PCOD9050155
Probable space group: P -1
;
_chemical_formula_sum "Si O2"
_cell_formula_units_Z 10
_cell_length_a 14.226930
_cell_length_b 15.188647
_cell_length_c 8.877463
_cell_angle_alpha 44.112717
_cell_angle_beta 136.775208
_cell_angle_gamma 160.915870
_cell_volume 425.843055
_symmetry_space_group_name_H-M "P -1"
_symmetry_group_IT_number 2
_symmetry_cell_setting 'triclinic'
loop_
_space_group_symop_operation_xyz
x,y,z
-x,-y,-z
loop_
_atom_site_type_symbol
_atom_site_label
_atom_site_fract_x
_atom_site_fract_y
_atom_site_fract_z
Si Si1 0.303723 0.947563 0.917578
Si Si2 0.654819 0.597012 0.216739
Si Si3 0.689510 0.771402 0.333927
Si Si4 0.276108 0.768827 0.395912
Si Si5 0.273021 0.047073 0.465852
O O1 0.134535 0.861733 0.677627
O O2 0.434241 0.188618 0.830608
O O3 0.183331 0.786945 0.127531
O O4 0.500000 0.000000 0.000000
O O5 0.697810 0.750623 0.189986
O O6 0.991471 0.828875 0.298448
O O7 0.436710 0.310382 0.378939
O O8 0.500000 0.500000 0.000000
O O9 0.500000 0.500000 0.500000
O O10 0.000000 0.000000 0.500000
O O11 0.000000 0.500000 0.500000
O O12 0.500000 0.000000 0.500000
O O13 0.463214 0.814361 0.472623
#
# Coordination Sequence:
#
# PCOD9050155 Si02
#       5
#     2   2   2   2   2
#     4  10  24  48  80 107 150 202 257 313 379 460
#     4  12  25  44  74 109 156 195 248 318 383 442
#     4  12  24  47  76 111 150 196 260 314 377 460
#     4  11  26  47  72 109 150 195 253 318 383 450
#     4  11  24  48  72 109 147 200 255 307 375 461
#
# _framework density 23.482831999999998
#
# number of rings (size 3 to 8) (size 9 to 14) (size 15 to 20)
#    0.000    0.800    4.000    1.800    2.800    3.200 
#    3.600    9.000    0.000    0.000    0.000    0.000 
#    0.000    0.000    0.000    0.000    0.000    0.000 
#
# Total GULP energy -55756.039013 kJ/mol
# GULP energy per Si atom -5575.603901 kJ/mol
# Density = 2.342938 g / cm^3
# Si number density = 23.482832 Si / 1000 Ang^3
#
#
#
# Elastic Constant Matrix: (Units=GPa)
#
#
# Indices 1 2 3 4 5 6 
#
# 1 133.9951 53.3316 79.8306 -9.9261 -9.0405 -17.3905
# 2 53.3316 176.2086 70.3263 5.9809 -7.1433 4.4327
# 3 79.8306 70.3263 144.1151 -9.6468 -23.3389 0.2710
# 4 -9.9261 5.9809 -9.6468 41.5756 -3.4705 -13.1750
# 5 -9.0405 -7.1433 -23.3389 -3.4705 49.3417 -5.3400
# 6 -17.3905 4.4327 0.2710 -13.1750 -5.3400 45.1605
#
#
#
# Elastic Compliance Matrix: (Units=1/GPa)
#
#
# Indices 1 2 3 4 5 6 
#
# 1 0.012863 -0.001804 -0.005950 0.003986 0.000250 0.006358
# 2 -0.001804 0.007576 -0.003094 -0.003120 -0.001184 -0.002470
# 3 -0.005950 -0.003094 0.012604 0.002022 0.004464 -0.000945
# 4 0.003986 -0.003120 0.002022 0.029805 0.004528 0.011060
# 5 0.000250 -0.001184 0.004464 0.004528 0.023029 0.004230
# 6 0.006358 -0.002470 -0.000945 0.011060 0.004230 0.028566
#
#
# Mechanical properties :
#
#
# Convention : Reuss Voigt Hill
#
# Bulk Modulus (GPa) = 88.11416 95.69954 91.90685
# Shear Modulus (GPa) = 35.73467 43.93757 39.83612
#
# Velocity S-wave (km/s) = 3.90518 4.33026 4.12320
# Velocity P-wave (km/s) = 7.61171 8.11437 7.86705
#
# Compressibility (1/GPa) = 0.01134891
#
# Stress axis : x y z
#
# Youngs Moduli (GPa) = 77.74337 132.00095 79.33737
#
# Poissons Ratio (x) = 0.23808 0.47204
# Poissons Ratio (y) = 0.14022 0.24544
# Poissons Ratio (z) = 0.46255 0.40836
#
# Static dielectric constant tensor:
#      x y z
#    x 2.051930 0.063540 -0.049540 
#    y 0.063540 1.094360 0.067800 
#    z -0.049540 0.067800 1.954970 
# 
# From -- ./inp_files/309155.got.cif
#   From: 2010.05.17/outbox.cif.g08.bks.cpg/sg2_155_cif.got.tgz:309155.got - 2010.06.03 11:33:40.
