data_PCOD9050551
_publ_section_title
;
Structure prediction by ZEFSAII (Michael W. Deem and Ramdas Pophale) SiO2 
 PCOD9050551
Probable space group: P -1
;
_chemical_formula_sum "Si O2"
_cell_formula_units_Z 14
_cell_length_a 6.672186
_cell_length_b 12.012760
_cell_length_c 10.983252
_cell_angle_alpha 143.884408
_cell_angle_beta 66.384500
_cell_angle_gamma 99.249104
_cell_volume 453.282824
_symmetry_space_group_name_H-M "P -1"
_symmetry_group_IT_number 2
_symmetry_cell_setting 'triclinic'
loop_
_space_group_symop_operation_xyz
x,y,z
-x,-y,-z
loop_
_atom_site_type_symbol
_atom_site_label
_atom_site_fract_x
_atom_site_fract_y
_atom_site_fract_z
Si Si1 0.781338 0.010829 0.524307
Si Si2 0.480609 0.512806 0.634447
Si Si3 0.170007 0.823167 0.586594
Si Si4 0.303275 0.730370 0.051598
Si Si5 0.273014 0.218122 0.999812
Si Si6 0.710452 0.789732 0.759644
Si Si7 0.762747 0.600173 0.078078
O O1 0.752360 0.173880 0.569062
O O2 0.569015 0.110762 0.769358
O O3 0.700368 0.822546 0.341679
O O4 0.072596 0.890404 0.311412
O O5 0.657166 0.334469 0.505787
O O6 0.599285 0.613304 0.577752
O O7 0.234223 0.629562 0.855358
O O8 0.541379 0.701791 0.876362
O O9 0.905263 0.816093 0.642173
O O10 0.188932 0.031472 0.814351
O O11 0.369772 0.541132 0.957646
O O12 0.209992 0.387921 0.062218
O O13 0.128137 0.254173 0.198327
O O14 0.500000 0.000000 0.000000
O O15 0.000000 0.500000 0.000000
#
# Coordination Sequence:
#
# PCOD9050551 Si02
#       7
#     2   2   2   2   2   2   2
#     4  11  26  43  72 112 151 196 246 311 372 445
#     4  11  27  47  73 110 147 199 252 309 368 452
#     4  11  26  46  72 108 148 194 251 312 370 445
#     4  11  26  45  74 104 151 191 250 297 384 433
#     4  10  25  42  73 104 144 190 243 304 370 442
#     4  11  25  46  75 104 144 197 249 313 380 443
#     4  11  24  43  70 108 147 196 244 307 363 443
#
# _framework density 30.885795000000002
#
# number of rings (size 3 to 8) (size 9 to 14) (size 15 to 20)
#    0.000    1.143    1.429    2.143   12.000    3.429 
#    0.000    0.000    0.000    0.000    0.000    0.000 
#    0.000    0.000    0.000    0.000    0.000    0.000 
#
# Total GULP energy -78028.501397 kJ/mol
# GULP energy per Si atom -5573.464386 kJ/mol
# Density = 3.081550 g / cm^3
# Si number density = 30.885795 Si / 1000 Ang^3
#
#
#
# Elastic Constant Matrix: (Units=GPa)
#
#
# Indices 1 2 3 4 5 6 
#
# 1 197.1035 75.6420 84.9945 -4.5919 8.0591 16.5470
# 2 75.6420 169.5748 126.7748 15.5366 42.8077 -44.7258
# 3 84.9945 126.7748 277.7000 -21.6282 42.5646 -24.4314
# 4 -4.5919 15.5366 -21.6282 83.4723 -19.7628 18.6225
# 5 8.0591 42.8077 42.5646 -19.7628 79.6502 6.3949
# 6 16.5470 -44.7258 -24.4314 18.6225 6.3949 83.6003
#
#
#
# Elastic Compliance Matrix: (Units=1/GPa)
#
#
# Indices 1 2 3 4 5 6 
#
# 1 0.008249 -0.006536 -0.000483 0.004056 0.004466 -0.006516
# 2 -0.006536 0.020287 -0.005157 -0.011306 -0.011418 0.014032
# 3 -0.000483 -0.005157 0.006135 0.002967 0.000404 -0.001562
# 4 0.004056 -0.011306 0.002967 0.019919 0.009920 -0.011180
# 5 0.004466 -0.011418 0.000404 0.009920 0.021346 -0.010717
# 6 -0.006516 0.014032 -0.001562 -0.011180 -0.010717 0.023612
#
#
# Mechanical properties :
#
#
# Convention : Reuss Voigt Hill
#
# Bulk Modulus (GPa) = 96.90654 135.46675 116.18664
# Shear Modulus (GPa) = 39.26522 73.14236 56.20379
#
# Velocity S-wave (km/s) = 3.56940 4.87165 4.27046
# Velocity P-wave (km/s) = 6.95927 8.69481 7.87499
#
# Compressibility (1/GPa) = 0.01031922
#
# Stress axis : x y z
#
# Youngs Moduli (GPa) = 121.22755 49.29215 163.00887
#
# Poissons Ratio (x) = 0.32219 0.07866
# Poissons Ratio (y) = 0.79239 0.84060
# Poissons Ratio (z) = 0.05850 0.25419
#
# Static dielectric constant tensor:
#      x y z
#    x 2.532230 0.070330 -0.043740 
#    y 0.070330 2.608580 -0.179780 
#    z -0.043740 -0.179780 2.428910 
# 
# From -- ./inp_files/504571.got.cif
#   From: 2010.05.17/outbox.cif.g08.bks.cpg/sg2_253_cif.got.tgz:504571.got - 2010.06.03 11:33:40.
