data_PCOD9050481
_publ_section_title
;
Structure prediction by ZEFSAII (Michael W. Deem and Ramdas Pophale) SiO2 
 PCOD9050481
Probable space group: P -1
;
_chemical_formula_sum "Si O2"
_cell_formula_units_Z 16
_cell_length_a 17.803520
_cell_length_b 11.956381
_cell_length_c 16.933452
_cell_angle_alpha 149.648644
_cell_angle_beta 23.923397
_cell_angle_gamma 136.910908
_cell_volume 707.843173
_symmetry_space_group_name_H-M "P -1"
_symmetry_group_IT_number 2
_symmetry_cell_setting 'triclinic'
loop_
_space_group_symop_operation_xyz
x,y,z
-x,-y,-z
loop_
_atom_site_type_symbol
_atom_site_label
_atom_site_fract_x
_atom_site_fract_y
_atom_site_fract_z
Si Si1 0.241012 0.732332 0.767195
Si Si2 0.551732 0.538633 0.883340
Si Si3 0.867635 0.406087 0.750901
Si Si4 0.404356 0.607955 0.740236
Si Si5 0.231860 0.109084 0.902371
Si Si6 0.246536 0.069485 0.114060
Si Si7 0.664656 0.029008 0.458063
Si Si8 0.903824 0.553961 0.987181
O O1 0.454365 0.567130 0.441472
O O2 0.121757 0.552843 0.790319
O O3 0.153456 0.903047 0.882753
O O4 0.228684 0.911024 0.959582
O O5 0.654249 0.735573 0.888233
O O6 0.689874 0.281799 0.577198
O O7 0.500000 0.500000 0.000000
O O8 0.350576 0.595039 0.061705
O O9 0.886087 0.453245 0.855191
O O10 0.038386 0.189352 0.425485
O O11 0.891048 0.627596 0.813453
O O12 0.500000 0.500000 0.500000
O O13 0.193874 0.578075 0.938407
O O14 0.381018 0.878863 0.927637
O O15 0.439684 0.070413 0.721370
O O16 0.291409 0.079116 0.736225
O O17 0.791365 0.829136 0.269690
#
# Coordination Sequence:
#
# PCOD9050481 Si02
#       8
#     2   2   2   2   2   2   2   2
#     4  11  24  40  71  96 128 174 226 269 322 388
#     4  11  25  40  66  98 140 176 207 267 336 395
#     4  10  25  42  64 102 136 168 215 271 332 391
#     4  10  25  46  66  93 131 174 227 270 321 390
#     4   9  18  37  63  95 128 167 210 268 316 383
#     4  11  26  43  64  97 135 174 216 270 330 394
#     4   9  19  36  63  94 132 163 213 261 324 383
#     4  11  24  42  71  97 126 176 223 274 322 386
#
# _framework density 22.603877000000001
#
# number of rings (size 3 to 8) (size 9 to 14) (size 15 to 20)
#    0.000    1.750    1.250    2.250    7.000    5.500 
#    0.000    1.250    0.000    0.000    0.000    0.000 
#    0.000    0.000    0.000    0.000    0.000    0.000 
#
# Total GULP energy -89273.634627 kJ/mol
# GULP energy per Si atom -5579.602164 kJ/mol
# Density = 2.255243 g / cm^3
# Si number density = 22.603877 Si / 1000 Ang^3
#
#
#
# Elastic Constant Matrix: (Units=GPa)
#
#
# Indices 1 2 3 4 5 6 
#
# 1 45.3779 8.1521 8.5631 -0.6403 5.8110 10.1627
# 2 8.1521 129.0244 21.0902 -1.6580 1.5867 1.0691
# 3 8.5631 21.0902 97.9180 22.9169 1.4919 -4.5332
# 4 -0.6403 -1.6580 22.9169 43.3452 -4.4147 -9.5965
# 5 5.8110 1.5867 1.4919 -4.4147 16.6904 2.6615
# 6 10.1627 1.0691 -4.5332 -9.5965 2.6615 32.6843
#
#
#
# Elastic Compliance Matrix: (Units=1/GPa)
#
#
# Indices 1 2 3 4 5 6 
#
# 1 0.025317 -0.001138 -0.001948 -0.001145 -0.007587 -0.007823
# 2 -0.001138 0.008160 -0.001978 0.001402 0.000134 0.000213
# 3 -0.001948 -0.001978 0.012455 -0.006778 -0.002133 0.000581
# 4 -0.001145 0.001402 -0.006778 0.029060 0.007394 0.007300
# 5 -0.007587 0.000134 -0.002133 0.007394 0.064858 -0.001052
# 6 -0.007823 0.000213 0.000581 0.007300 -0.001052 0.035331
#
#
# Mechanical properties :
#
#
# Convention : Reuss Voigt Hill
#
# Bulk Modulus (GPa) = 27.92987 38.65901 33.29444
# Shear Modulus (GPa) = 25.34946 34.17831 29.76388
#
# Velocity S-wave (km/s) = 3.35246 3.89273 3.63266
# Velocity P-wave (km/s) = 5.23148 6.11101 5.68827
#
# Compressibility (1/GPa) = 0.03580397
#
# Stress axis : x y z
#
# Youngs Moduli (GPa) = 39.49985 122.54355 80.29038
#
# Poissons Ratio (x) = 0.13943 0.15637
# Poissons Ratio (y) = 0.04494 0.15885
# Poissons Ratio (z) = 0.07693 0.24245
#
# Static dielectric constant tensor:
#      x y z
#    x 1.940510 -0.007290 -0.019250 
#    y -0.007290 1.899440 0.035200 
#    z -0.019250 0.035200 1.916280 
# 
# From -- ./inp_files/578019.got.cif
#   From: 2010.05.17/outbox.cif.g08.bks.cpg/sg2_290_cif.got.tgz:578019.got - 2010.06.03 11:33:40.
