data_PCOD9050195
_publ_section_title
;
Structure prediction by ZEFSAII (Michael W. Deem and Ramdas Pophale) SiO2 
 PCOD9050195
Probable space group: P -1
;
_chemical_formula_sum "Si O2"
_cell_formula_units_Z 16
_cell_length_a 13.599926
_cell_length_b 14.784022
_cell_length_c 14.208344
_cell_angle_alpha 32.671581
_cell_angle_beta 146.602429
_cell_angle_gamma 149.983522
_cell_volume 709.549492
_symmetry_space_group_name_H-M "P -1"
_symmetry_group_IT_number 2
_symmetry_cell_setting 'triclinic'
loop_
_space_group_symop_operation_xyz
x,y,z
-x,-y,-z
loop_
_atom_site_type_symbol
_atom_site_label
_atom_site_fract_x
_atom_site_fract_y
_atom_site_fract_z
Si Si1 0.714558 0.298383 0.351994
Si Si2 0.595469 0.618596 0.265068
Si Si3 0.921692 0.582482 0.785522
Si Si4 0.048031 0.742687 0.249646
Si Si5 0.692606 0.817791 0.975432
Si Si6 0.517033 0.818259 0.206040
Si Si7 0.932858 0.199693 0.472381
Si Si8 0.767267 0.812038 0.578102
O O1 0.790145 0.271496 0.538050
O O2 0.478895 0.249616 0.187650
O O3 0.749927 0.161412 0.430363
O O4 0.894810 0.528110 0.266887
O O5 0.584643 0.738740 0.240577
O O6 0.415005 0.386766 0.339965
O O7 0.832392 0.662808 0.416191
O O8 0.570852 0.700516 0.074960
O O9 0.696379 0.385174 0.749916
O O10 0.889059 0.740934 0.673434
O O11 0.065690 0.684700 0.720608
O O12 0.000000 0.500000 0.000000
O O13 0.187729 0.943179 0.125098
O O14 0.875857 0.774600 0.137532
O O15 0.668159 0.885072 0.357942
O O16 0.500000 0.000000 0.000000
O O17 0.903465 0.992541 0.599655
#
# Coordination Sequence:
#
# PCOD9050195 Si02
#       8
#     2   2   2   2   2   2   2   2
#     4  11  25  44  70 102 130 171 222 275 334 410
#     4  11  24  44  61  97 134 170 220 274 327 392
#     4  11  23  40  63  94 131 177 225 266 320 390
#     4  10  24  49  70  96 134 171 215 280 345 394
#     4  11  24  45  72 100 131 172 220 275 337 407
#     4  11  23  40  64  91 133 180 223 265 324 384
#     4  12  24  42  65  95 133 172 221 272 331 389
#     4  11  24  43  62  89 135 181 215 270 325 377
#
# _framework density 22.549520000000001
#
# number of rings (size 3 to 8) (size 9 to 14) (size 15 to 20)
#    0.000    1.000    3.750    2.625    7.000    3.000 
#    2.250    0.000    0.000    0.000    0.000    0.000 
#    0.000    0.000    0.000    0.000    0.000    0.000 
#
# Total GULP energy -89471.915971 kJ/mol
# GULP energy per Si atom -5591.994748 kJ/mol
# Density = 2.249820 g / cm^3
# Si number density = 22.549520 Si / 1000 Ang^3
#
#
#
# Elastic Constant Matrix: (Units=GPa)
#
#
# Indices 1 2 3 4 5 6 
#
# 1 31.1789 8.6303 6.8538 -6.5508 -13.9677 13.5184
# 2 8.6303 94.6312 18.5777 -14.3479 -10.4823 13.7562
# 3 6.8538 18.5777 87.9006 -2.7230 -13.1332 13.1540
# 4 -6.5508 -14.3479 -2.7230 38.9300 2.4802 2.6087
# 5 -13.9677 -10.4823 -13.1332 2.4802 22.7494 -3.7475
# 6 13.5184 13.7562 13.1540 2.6087 -3.7475 22.7352
#
#
#
# Elastic Compliance Matrix: (Units=1/GPa)
#
#
# Indices 1 2 3 4 5 6 
#
# 1 0.068361 0.005250 0.006266 0.014217 0.039445 -0.042579
# 2 0.005250 0.013374 -0.000468 0.006057 0.006720 -0.010530
# 3 0.006266 -0.000468 0.014039 0.001917 0.009853 -0.010161
# 4 0.014217 0.006057 0.001917 0.031074 0.006653 -0.015696
# 5 0.039445 0.006720 0.009853 0.006653 0.072608 -0.022016
# 6 -0.042579 -0.010530 -0.010161 -0.015696 -0.022016 0.079724
#
#
# Mechanical properties :
#
#
# Convention : Reuss Voigt Hill
#
# Bulk Modulus (GPa) = 8.48403 31.31493 19.89948
# Shear Modulus (GPa) = 16.87046 28.85949 22.86497
#
# Velocity S-wave (km/s) = 2.73820 3.58135 3.18777
# Velocity P-wave (km/s) = 3.71047 5.56945 4.73214
#
# Compressibility (1/GPa) = 0.11786849
#
# Stress axis : x y z
#
# Youngs Moduli (GPa) = 14.62817 74.77200 71.23016
#
# Poissons Ratio (x) = -0.39253 -0.44632
# Poissons Ratio (y) = -0.07679 0.03337
# Poissons Ratio (z) = -0.09166 0.03503
#
# Static dielectric constant tensor:
#      x y z
#    x 1.805130 0.065290 0.069050 
#    y 0.065290 1.421720 -0.394150 
#    z 0.069050 -0.394150 1.420040 
# 
# From -- ./inp_files/534206.got.cif
#   From: 2010.05.17/outbox.cif.g08.bks.cpg/sg2_268_cif.got.tgz:534206.got - 2010.06.03 11:33:40.
