data_PCOD9050882
_publ_section_title
;
Structure prediction by ZEFSAII (Michael W. Deem and Ramdas Pophale) SiO2 
 PCOD9050882
Probable space group: P -1
;
_chemical_formula_sum "Si O2"
_cell_formula_units_Z 12
_cell_length_a 10.687358
_cell_length_b 12.147650
_cell_length_c 5.129598
_cell_angle_alpha 90.232935
_cell_angle_beta 107.973438
_cell_angle_gamma 54.458385
_cell_volume 502.044715
_symmetry_space_group_name_H-M "P -1"
_symmetry_group_IT_number 2
_symmetry_cell_setting 'triclinic'
loop_
_space_group_symop_operation_xyz
x,y,z
-x,-y,-z
loop_
_atom_site_type_symbol
_atom_site_label
_atom_site_fract_x
_atom_site_fract_y
_atom_site_fract_z
Si Si1 0.638738 0.902547 0.874232
Si Si2 0.446021 0.831475 0.454186
Si Si3 0.060799 0.343766 0.687138
Si Si4 0.878518 0.140485 0.746929
Si Si5 0.877884 0.287828 0.241824
Si Si6 0.729278 0.560146 0.363463
O O1 0.584328 0.811095 0.733450
O O2 0.627923 0.014421 0.687656
O O3 0.824179 0.799046 0.090942
O O4 0.500000 0.000000 0.000000
O O5 0.288293 0.841341 0.430570
O O6 0.555513 0.700410 0.331279
O O7 0.169581 0.396858 0.724254
O O8 0.024594 0.302864 0.383696
O O9 0.875199 0.461797 0.673396
O O10 0.919863 0.175918 0.494395
O O11 0.849849 0.249678 0.945070
O O12 0.000000 0.000000 0.000000
O O13 0.721536 0.445397 0.220811
#
# Coordination Sequence:
#
# PCOD9050882 Si02
#       6
#     2   2   2   2   2   2
#     4  11  23  40  67  96 133 168 224 289 330 398
#     4  11  26  40  66 102 129 178 231 278 340 397
#     4   9  20  43  69  97 134 172 223 279 345 391
#     4  12  27  45  69  97 142 183 225 275 337 416
#     4  10  25  44  70  98 135 184 224 274 337 410
#     4   9  21  43  66 104 128 176 225 286 332 402
#
# _framework density 23.902256999999999
#
# number of rings (size 3 to 8) (size 9 to 14) (size 15 to 20)
#    1.000    0.667    1.667    1.500    4.667    4.667 
#    0.000    0.000    0.000    0.000    0.000    0.000 
#    0.000    0.000    0.000    0.000    0.000    0.000 
#
# Total GULP energy -66818.650436 kJ/mol
# GULP energy per Si atom -5568.220870 kJ/mol
# Density = 2.384785 g / cm^3
# Si number density = 23.902257 Si / 1000 Ang^3
#
#
#
# Elastic Constant Matrix: (Units=GPa)
#
#
# Indices 1 2 3 4 5 6 
#
# 1 70.5173 10.2627 2.9954 -11.3081 9.1269 17.2432
# 2 10.2627 104.9113 11.2280 -5.6495 5.9192 3.3288
# 3 2.9954 11.2280 71.7485 -2.4310 6.6741 8.4063
# 4 -11.3081 -5.6495 -2.4310 30.2417 -6.9161 6.7557
# 5 9.1269 5.9192 6.6741 -6.9161 28.8471 -2.6510
# 6 17.2432 3.3288 8.4063 6.7557 -2.6510 29.6987
#
#
#
# Elastic Compliance Matrix: (Units=1/GPa)
#
#
# Indices 1 2 3 4 5 6 
#
# 1 0.020102 -0.000865 0.001879 0.009504 -0.005697 -0.014776
# 2 -0.000865 0.009912 -0.001283 0.001292 -0.001213 -0.000648
# 3 0.001879 -0.001283 0.015209 0.002156 -0.003893 -0.006090
# 4 0.009504 0.001292 0.002156 0.041547 0.004784 -0.015297
# 5 -0.005697 -0.001213 -0.003893 0.004784 0.039405 0.006974
# 6 -0.014776 -0.000648 -0.006090 -0.015297 0.006974 0.048149
#
#
# Mechanical properties :
#
#
# Convention : Reuss Voigt Hill
#
# Bulk Modulus (GPa) = 22.37875 32.90549 27.64212
# Shear Modulus (GPa) = 26.34959 32.60356 29.47657
#
# Velocity S-wave (km/s) = 3.32383 3.69729 3.51552
# Velocity P-wave (km/s) = 4.91054 5.65891 5.29795
#
# Compressibility (1/GPa) = 0.04468524
#
# Stress axis : x y z
#
# Youngs Moduli (GPa) = 49.74739 100.88402 65.75249
#
# Poissons Ratio (x) = 0.08731 -0.12358
# Poissons Ratio (y) = 0.04306 0.08433
# Poissons Ratio (z) = -0.09350 0.12939
#
# Static dielectric constant tensor:
#      x y z
#    x 1.913320 0.042620 -0.032570 
#    y 0.042620 2.140350 0.012700 
#    z -0.032570 0.012700 2.035280 
# 
# From -- ./inp_files/64759.got.cif
#   From: 2010.05.17/outbox.cif.g08.bks.cpg/sg2_33_cif.got.tgz:64759.got - 2010.06.03 11:33:40.
