data_PCOD9050075
_publ_section_title
;
Structure prediction by ZEFSAII (Michael W. Deem and Ramdas Pophale) SiO2 
 PCOD9050075
Probable space group: P -1
;
_chemical_formula_sum "Si O2"
_cell_formula_units_Z 12
_cell_length_a 11.332253
_cell_length_b 5.128822
_cell_length_c 9.354900
_cell_angle_alpha 100.525420
_cell_angle_beta 103.151208
_cell_angle_gamma 106.442121
_cell_volume 489.714328
_symmetry_space_group_name_H-M "P -1"
_symmetry_group_IT_number 2
_symmetry_cell_setting 'triclinic'
loop_
_space_group_symop_operation_xyz
x,y,z
-x,-y,-z
loop_
_atom_site_type_symbol
_atom_site_label
_atom_site_fract_x
_atom_site_fract_y
_atom_site_fract_z
Si Si1 0.578358 0.141687 0.220081
Si Si2 0.977653 0.257107 0.275913
Si Si3 0.790736 0.898891 0.735276
Si Si4 0.189376 0.805685 0.520972
Si Si5 0.400586 0.518077 0.182663
Si Si6 0.757999 0.284623 0.023477
O O1 0.692828 0.254588 0.376996
O O2 0.500274 0.351567 0.191998
O O3 0.649511 0.114012 0.090010
O O4 0.484668 0.844705 0.223709
O O5 0.884297 0.091972 0.361590
O O6 0.891258 0.357819 0.151490
O O7 0.062502 0.091447 0.212458
O O8 0.084986 0.525868 0.401653
O O9 0.688873 0.594116 0.715905
O O10 0.768119 0.983452 0.577878
O O11 0.768793 0.109171 0.868937
O O12 0.293774 0.470114 0.021925
#
# Coordination Sequence:
#
# PCOD9050075 Si02
#       6
#     2   2   2   2   2   2
#     4  11  27  48  78 103 148 193 244 290 360 432
#     4  10  24  48  75 102 147 190 248 293 366 426
#     4  12  25  42  73 111 150 183 242 298 369 421
#     4  10  25  49  70 108 140 198 238 304 354 435
#     4  12  26  47  75 110 146 191 240 298 359 430
#     4  11  25  47  73 112 141 193 239 307 351 431
#
# _framework density 24.504083000000001
#
# number of rings (size 3 to 8) (size 9 to 14) (size 15 to 20)
#    0.000    1.000    1.667    3.000    4.667    5.333 
#    6.000    0.000    0.000    0.000    0.000    0.000 
#    0.000    0.000    0.000    0.000    0.000    0.000 
#
# Total GULP energy -67205.278293 kJ/mol
# GULP energy per Si atom -5600.439858 kJ/mol
# Density = 2.444831 g / cm^3
# Si number density = 24.504083 Si / 1000 Ang^3
#
#
#
# Elastic Constant Matrix: (Units=GPa)
#
#
# Indices 1 2 3 4 5 6 
#
# 1 236.3928 66.5630 78.9519 -14.6787 7.6013 -25.3746
# 2 66.5630 107.7512 55.7834 -30.4959 -5.3512 -11.7571
# 3 78.9519 55.7834 229.9379 -39.8265 39.6997 -0.3191
# 4 -14.6787 -30.4959 -39.8265 37.5877 3.3401 -1.2170
# 5 7.6013 -5.3512 39.6997 3.3401 63.3377 -16.2617
# 6 -25.3746 -11.7571 -0.3191 -1.2170 -16.2617 28.5370
#
#
#
# Elastic Compliance Matrix: (Units=1/GPa)
#
#
# Indices 1 2 3 4 5 6 
#
# 1 0.006025 -0.002507 -0.002098 -0.001897 0.001832 0.005264
# 2 -0.002507 0.015437 -0.001970 0.009314 0.004106 0.006845
# 3 -0.002098 -0.001970 0.007769 0.006209 -0.006687 -0.006136
# 4 -0.001897 0.009314 0.006209 0.040457 -0.004683 0.001277
# 5 0.001832 0.004106 -0.006687 -0.004683 0.024758 0.017154
# 6 0.005264 0.006845 -0.006136 0.001277 0.017154 0.052304
#
#
# Mechanical properties :
#
#
# Convention : Reuss Voigt Hill
#
# Bulk Modulus (GPa) = 62.19121 108.51984 85.35553
# Shear Modulus (GPa) = 30.25507 50.74473 40.49990
#
# Velocity S-wave (km/s) = 3.51763 4.55562 4.06985
# Velocity P-wave (km/s) = 6.47560 8.48847 7.54942
#
# Compressibility (1/GPa) = 0.01607944
#
# Stress axis : x y z
#
# Youngs Moduli (GPa) = 165.96491 64.78137 128.71884
#
# Poissons Ratio (x) = 0.16244 0.27005
# Poissons Ratio (y) = 0.41615 0.25360
# Poissons Ratio (z) = 0.34819 0.12763
#
# Static dielectric constant tensor:
#      x y z
#    x 1.957030 -0.011890 -0.011310 
#    y -0.011890 1.963060 0.026220 
#    z -0.011310 0.026220 1.947640 
# 
# From -- ./inp_files/229145.got.cif
#   From: 2010.05.17/outbox.cif.g08.bks.cpg/sg2_115_cif.got.tgz:229145.got - 2010.06.03 11:33:40.
