data_PCOD9050313
_publ_section_title
;
Structure prediction by ZEFSAII (Michael W. Deem and Ramdas Pophale) SiO2 
 PCOD9050313
Probable space group: P -1
;
_chemical_formula_sum "Si O2"
_cell_formula_units_Z 12
_cell_length_a 7.704054
_cell_length_b 10.698601
_cell_length_c 8.890351
_cell_angle_alpha 120.730276
_cell_angle_beta 58.152427
_cell_angle_gamma 89.496518
_cell_volume 494.624817
_symmetry_space_group_name_H-M "P -1"
_symmetry_group_IT_number 2
_symmetry_cell_setting 'triclinic'
loop_
_space_group_symop_operation_xyz
x,y,z
-x,-y,-z
loop_
_atom_site_type_symbol
_atom_site_label
_atom_site_fract_x
_atom_site_fract_y
_atom_site_fract_z
Si Si1 0.709739 0.380904 0.629021
Si Si2 0.000000 0.000000 0.000000
Si Si3 0.963946 0.840742 0.452231
Si Si4 0.324860 0.338451 0.967118
Si Si5 0.092912 0.703799 0.996273
Si Si6 0.500000 0.500000 0.500000
Si Si7 0.526038 0.004125 0.169901
O O1 0.931413 0.231648 0.480593
O O2 0.507482 0.345629 0.771073
O O3 0.695286 0.404560 0.473377
O O4 0.281633 0.469143 0.195528
O O5 0.975328 0.127395 0.949827
O O6 0.267970 0.953893 0.855126
O O7 0.086923 0.724420 0.191122
O O8 0.705667 0.874145 0.587006
O O9 0.000000 0.000000 0.500000
O O10 0.095784 0.358466 0.005051
O O11 0.427068 0.167824 0.892404
O O12 0.336536 0.589496 0.767979
O O13 0.500000 0.000000 0.000000
#
# Coordination Sequence:
#
# PCOD9050313 Si02
#       7
#     2   1   2   2   2   1   2
#     4  11  26  48  77 110 156 203 262 325 397 469
#     4  10  26  44  76 114 162 196 262 322 380 472
#     4  12  26  49  82 114 158 209 259 324 400 475
#     4  10  24  50  75 111 155 204 260 318 400 473
#     4  11  27  48  74 116 153 207 260 319 396 462
#     4  12  30  46  78 110 156 202 260 330 378 476
#     4  11  25  46  78 115 157 209 262 322 391 464
#
# _framework density 24.260812999999999
#
# number of rings (size 3 to 8) (size 9 to 14) (size 15 to 20)
#    0.000    1.000    1.667    3.000    9.333    8.667 
#    0.000    0.000    0.000    0.000    0.000    0.000 
#    0.000    0.000    0.000    0.000    0.000    0.000 
#
# Total GULP energy -66856.067968 kJ/mol
# GULP energy per Si atom -5571.338997 kJ/mol
# Density = 2.420559 g / cm^3
# Si number density = 24.260813 Si / 1000 Ang^3
#
#
#
# Elastic Constant Matrix: (Units=GPa)
#
#
# Indices 1 2 3 4 5 6 
#
# 1 105.4725 51.8429 37.4864 -5.4271 -18.3019 -20.8288
# 2 51.8429 91.8998 0.7748 -6.6580 5.4305 -24.6491
# 3 37.4864 0.7748 123.4529 16.5590 -13.7553 -1.0899
# 4 -5.4271 -6.6580 16.5590 29.1885 -11.4146 -2.2867
# 5 -18.3019 5.4305 -13.7553 -11.4146 44.8461 -0.6433
# 6 -20.8288 -24.6491 -1.0899 -2.2867 -0.6433 49.2995
#
#
#
# Elastic Compliance Matrix: (Units=1/GPa)
#
#
# Indices 1 2 3 4 5 6 
#
# 1 0.019105 -0.009691 -0.005813 0.008611 0.009431 0.003620
# 2 -0.009691 0.017877 0.002371 -0.000862 -0.005543 0.004784
# 3 -0.005813 0.002371 0.010664 -0.007181 -0.001236 -0.001384
# 4 0.008611 -0.000862 -0.007181 0.045242 0.013008 0.005317
# 5 0.009431 -0.005543 -0.001236 0.013008 0.029781 0.002178
# 6 0.003620 0.004784 -0.001384 0.005317 0.002178 0.024450
#
#
# Mechanical properties :
#
#
# Convention : Reuss Voigt Hill
#
# Bulk Modulus (GPa) = 46.77404 55.67038 51.22221
# Shear Modulus (GPa) = 27.69915 40.04821 33.87368
#
# Velocity S-wave (km/s) = 3.38261 4.06733 3.74067
# Velocity P-wave (km/s) = 5.88027 6.71223 6.30998
#
# Compressibility (1/GPa) = 0.02137938
#
# Stress axis : x y z
#
# Youngs Moduli (GPa) = 52.34230 55.93933 93.77612
#
# Poissons Ratio (x) = 0.54211 0.54509
# Poissons Ratio (y) = 0.50725 -0.22231
# Poissons Ratio (z) = 0.30425 -0.13262
#
# Static dielectric constant tensor:
#      x y z
#    x 1.850730 0.046930 -0.002360 
#    y 0.046930 1.984570 0.056880 
#    z -0.002360 0.056880 1.885130 
# 
# From -- ./inp_files/171025.got.cif
#   From: 2010.05.17/outbox.cif.g08.bks.cpg/sg2_86_cif.got.tgz:171025.got - 2010.06.03 11:33:40.
