data_PCOD9050372
_publ_section_title
;
Structure prediction by ZEFSAII (Michael W. Deem and Ramdas Pophale) SiO2 
 PCOD9050372
Probable space group: P -1
;
_chemical_formula_sum "Si O2"
_cell_formula_units_Z 13
_cell_length_a 11.324141
_cell_length_b 14.823003
_cell_length_c 7.173727
_cell_angle_alpha 56.308407
_cell_angle_beta 66.638454
_cell_angle_gamma 26.851530
_cell_volume 436.761113
_symmetry_space_group_name_H-M "P -1"
_symmetry_group_IT_number 2
_symmetry_cell_setting 'triclinic'
loop_
_space_group_symop_operation_xyz
x,y,z
-x,-y,-z
loop_
_atom_site_type_symbol
_atom_site_label
_atom_site_fract_x
_atom_site_fract_y
_atom_site_fract_z
Si Si1 0.885602 0.198655 0.435344
Si Si2 0.543450 0.718659 0.467491
Si Si3 0.936782 0.743460 0.508370
Si Si4 0.178983 0.942817 0.135960
Si Si5 0.565130 0.329750 0.033191
Si Si6 0.000000 0.500000 0.000000
Si Si7 0.772918 0.770826 0.199179
O O1 0.084260 0.133699 0.493862
O O2 0.280021 0.939611 0.249415
O O3 0.746509 0.236782 0.648244
O O4 0.363397 0.821464 0.978843
O O5 0.508246 0.666197 0.725020
O O6 0.701431 0.711186 0.418168
O O7 0.741310 0.513973 0.428821
O O8 0.159441 0.195283 0.716488
O O9 0.851689 0.706396 0.733186
O O10 0.856676 0.177379 0.032073
O O11 0.677745 0.418631 0.185753
O O12 0.000000 0.000000 0.500000
O O13 0.971979 0.595859 0.102765
O O14 0.500000 0.000000 0.000000
#
# Coordination Sequence:
#
# PCOD9050372 Si02
#       7
#     2   2   2   2   2   1   2
#     4  12  28  53  81 124 175 233 288 355 440 523
#     4  11  24  49  85 124 164 223 287 355 444 516
#     4  11  27  51  86 127 174 224 291 362 438 525
#     4  11  26  50  78 122 166 221 288 352 440 518
#     4  11  26  49  82 117 173 224 283 358 430 524
#     4  10  24  52  92 122 164 222 288 364 434 514
#     4  11  28  51  87 130 174 222 292 365 447 526
#
# _framework density 29.764551999999998
#
# number of rings (size 3 to 8) (size 9 to 14) (size 15 to 20)
#    0.000    0.923    1.538    3.692    4.308    8.000 
#    2.769    1.538    0.000    0.000    0.000    0.000 
#    0.000    0.000    0.000    0.000    0.000    0.000 
#
# Total GULP energy -72494.226788 kJ/mol
# GULP energy per Si atom -5576.478984 kJ/mol
# Density = 2.969681 g / cm^3
# Si number density = 29.764552 Si / 1000 Ang^3
#
#
#
# Elastic Constant Matrix: (Units=GPa)
#
#
# Indices 1 2 3 4 5 6 
#
# 1 186.8510 64.4149 51.5038 -12.7851 43.4636 41.2050
# 2 64.4149 132.6814 55.0168 0.1522 26.7521 43.7456
# 3 51.5038 55.0168 196.4193 -14.3845 60.4451 13.2065
# 4 -12.7851 0.1522 -14.3845 56.9496 7.1076 8.0573
# 5 43.4636 26.7521 60.4451 7.1076 68.3655 4.8202
# 6 41.2050 43.7456 13.2065 8.0573 4.8202 64.5422
#
#
#
# Elastic Compliance Matrix: (Units=1/GPa)
#
#
# Indices 1 2 3 4 5 6 
#
# 1 0.008086 -0.001769 0.000348 0.003081 -0.004790 -0.004062
# 2 -0.001769 0.011490 -0.001957 0.000104 -0.001216 -0.006180
# 3 0.000348 -0.001957 0.007841 0.002948 -0.006668 -0.000370
# 4 0.003081 0.000104 0.002948 0.020462 -0.006401 -0.004717
# 5 -0.004790 -0.001216 -0.006668 -0.006401 0.024412 0.004223
# 6 -0.004062 -0.006180 -0.000370 -0.004717 0.004223 0.022625
#
#
# Mechanical properties :
#
#
# Convention : Reuss Voigt Hill
#
# Bulk Modulus (GPa) = 48.39856 95.31364 71.85610
# Shear Modulus (GPa) = 46.05803 60.97255 53.51529
#
# Velocity S-wave (km/s) = 3.93798 4.53094 4.24483
# Velocity P-wave (km/s) = 6.08052 7.71133 6.94397
#
# Compressibility (1/GPa) = 0.02066177
#
# Stress axis : x y z
#
# Youngs Moduli (GPa) = 123.66324 87.03428 127.53478
#
# Poissons Ratio (x) = 0.15393 -0.04436
# Poissons Ratio (y) = 0.21871 0.24959
# Poissons Ratio (z) = -0.04302 0.17033
#
# Static dielectric constant tensor:
#      x y z
#    x 2.363110 -0.143480 -0.056210 
#    y -0.143480 2.625010 0.159980 
#    z -0.056210 0.159980 2.463830 
# 
# From -- ./inp_files/336891.got.cif
#   From: 2010.05.17/outbox.cif.g08.bks.cpg/sg2_169_cif.got.tgz:336891.got - 2010.06.03 11:33:40.
