data_PCOD9050383
_publ_section_title
;
Structure prediction by ZEFSAII (Michael W. Deem and Ramdas Pophale) SiO2 
 PCOD9050383
Probable space group: P -1
;
_chemical_formula_sum "Si O2"
_cell_formula_units_Z 14
_cell_length_a 15.445917
_cell_length_b 12.634521
_cell_length_c 10.753033
_cell_angle_alpha 51.180028
_cell_angle_beta 33.482114
_cell_angle_gamma 34.993119
_cell_volume 653.267802
_symmetry_space_group_name_H-M "P -1"
_symmetry_group_IT_number 2
_symmetry_cell_setting 'triclinic'
loop_
_space_group_symop_operation_xyz
x,y,z
-x,-y,-z
loop_
_atom_site_type_symbol
_atom_site_label
_atom_site_fract_x
_atom_site_fract_y
_atom_site_fract_z
Si Si1 0.483767 0.067102 0.160254
Si Si2 0.158995 0.519471 0.843192
Si Si3 0.573355 0.741958 0.681805
Si Si4 0.186224 0.056737 0.364822
Si Si5 0.535860 0.349979 0.659212
Si Si6 0.766922 0.843844 0.204768
Si Si7 0.304221 0.582436 0.374738
O O1 0.405737 0.240182 0.210277
O O2 0.288546 0.102735 0.305128
O O3 0.605100 0.903809 0.239885
O O4 0.671187 0.997892 0.890083
O O5 0.339495 0.369503 0.837661
O O6 0.255609 0.520285 0.600656
O O7 0.000000 0.500000 0.000000
O O8 0.003775 0.715919 0.958942
O O9 0.746399 0.735944 0.408284
O O10 0.595058 0.576300 0.731849
O O11 0.342523 0.950977 0.769091
O O12 0.453009 0.607102 0.243790
O O13 0.930666 0.224095 0.528882
O O14 0.500000 0.500000 0.500000
O O15 0.249681 0.864950 0.464951
#
# Coordination Sequence:
#
# PCOD9050383 Si02
#       7
#     2   2   2   2   2   2   2
#     4   9  20  34  59  93 116 148 198 247 288 335
#     4  11  19  35  63  88 112 152 207 237 277 339
#     4   9  19  33  58  88 126 149 189 241 298 344
#     4  11  21  37  61  84 122 154 194 248 291 341
#     4  10  25  37  58  88 118 153 200 241 287 356
#     4   9  17  34  57  89 120 149 192 250 281 339
#     4  11  21  37  57  87 122 157 189 239 301 347
#
# _framework density 21.430720999999998
#
# number of rings (size 3 to 8) (size 9 to 14) (size 15 to 20)
#    0.857    1.143    2.857    1.286    4.000    0.571 
#    0.000    1.429    0.000    1.714    0.000    0.000 
#    0.000    0.000    0.000    0.000    0.000    0.000 
#
# Total GULP energy -77997.392617 kJ/mol
# GULP energy per Si atom -5571.242330 kJ/mol
# Density = 2.138194 g / cm^3
# Si number density = 21.430721 Si / 1000 Ang^3
#
#
#
# Elastic Constant Matrix: (Units=GPa)
#
#
# Indices 1 2 3 4 5 6 
#
# 1 138.4373 67.0969 15.5488 13.8044 3.1742 6.8743
# 2 67.0969 124.7002 5.0671 14.1586 3.8358 15.0345
# 3 15.5488 5.0671 39.9780 -5.2946 14.2562 9.5779
# 4 13.8044 14.1586 -5.2946 32.9066 3.3313 6.0132
# 5 3.1742 3.8358 14.2562 3.3313 21.2208 7.1281
# 6 6.8743 15.0345 9.5779 6.0132 7.1281 32.1352
#
#
#
# Elastic Compliance Matrix: (Units=1/GPa)
#
#
# Indices 1 2 3 4 5 6 
#
# 1 0.010670 -0.005424 -0.005477 -0.003676 0.002999 0.001910
# 2 -0.005424 0.011589 0.001737 -0.001566 -0.000754 -0.004319
# 3 -0.005477 0.001737 0.039382 0.011898 -0.025121 -0.008033
# 4 -0.003676 -0.001566 0.011898 0.036800 -0.010743 -0.006530
# 5 0.002999 -0.000754 -0.025121 -0.010743 0.067295 -0.005718
# 6 0.001910 -0.004319 -0.008033 -0.006530 -0.005718 0.037615
#
#
# Mechanical properties :
#
#
# Convention : Reuss Voigt Hill
#
# Bulk Modulus (GPa) = 23.08729 53.17123 38.12926
# Shear Modulus (GPa) = 21.17593 31.61269 26.39431
#
# Velocity S-wave (km/s) = 3.14683 3.84488 3.51324
# Velocity P-wave (km/s) = 4.89896 6.67649 5.85556
#
# Compressibility (1/GPa) = 0.04331388
#
# Stress axis : x y z
#
# Youngs Moduli (GPa) = 93.71691 86.29009 25.39229
#
# Poissons Ratio (x) = 0.46804 0.13906
# Poissons Ratio (y) = 0.50832 -0.04410
# Poissons Ratio (z) = 0.51325 -0.14987
#
# Static dielectric constant tensor:
#      x y z
#    x 1.846250 0.050170 -0.044650 
#    y 0.050170 1.865770 -0.030390 
#    z -0.044650 -0.030390 1.837460 
# 
# From -- ./inp_files/463561.got.cif
#   From: 2010.05.17/outbox.cif.g08.bks.cpg/sg2_232_cif.got.tgz:463561.got - 2010.06.03 11:33:40.
