data_PCOD9050340
_publ_section_title
;
Structure prediction by ZEFSAII (Michael W. Deem and Ramdas Pophale) SiO2 
 PCOD9050340
Probable space group: P -1
;
_chemical_formula_sum "Si O2"
_cell_formula_units_Z 10
_cell_length_a 4.961891
_cell_length_b 9.278551
_cell_length_c 11.954356
_cell_angle_alpha 125.017322
_cell_angle_beta 54.553199
_cell_angle_gamma 100.108196
_cell_volume 356.848579
_symmetry_space_group_name_H-M "P -1"
_symmetry_group_IT_number 2
_symmetry_cell_setting 'triclinic'
loop_
_space_group_symop_operation_xyz
x,y,z
-x,-y,-z
loop_
_atom_site_type_symbol
_atom_site_label
_atom_site_fract_x
_atom_site_fract_y
_atom_site_fract_z
Si Si1 0.316804 0.839673 0.253159
Si Si2 0.714501 0.413769 0.300903
Si Si3 0.240408 0.643795 0.976845
Si Si4 0.193409 0.942288 0.771806
Si Si5 0.371949 0.232857 0.608828
O O1 0.421714 0.685113 0.064381
O O2 0.483658 0.775712 0.304523
O O3 0.911247 0.882213 0.378815
O O4 0.453307 0.010480 0.252898
O O5 0.500000 0.500000 0.500000
O O6 0.907007 0.209951 0.194931
O O7 0.865225 0.581221 0.302295
O O8 0.549091 0.402798 0.211062
O O9 0.037051 0.855473 0.094550
O O10 0.000000 0.500000 0.000000
O O11 0.318755 0.835228 0.579781
#
# Coordination Sequence:
#
# PCOD9050340 Si02
#       5
#     2   2   2   2   2
#     4  12  24  46  77 109 148 193 250 297 363 434
#     4  10  24  51  71 110 149 197 238 307 371 436
#     4  12  25  46  76 109 147 195 249 304 360 437
#     4  11  25  44  76 109 151 190 246 302 368 431
#     4  11  25  47  76 110 149 196 241 298 365 443
#
# _framework density 28.023085999999999
#
# number of rings (size 3 to 8) (size 9 to 14) (size 15 to 20)
#    0.000    0.800    4.000    1.800    2.800    4.000 
#    3.600    3.000    0.000    0.000    0.000    0.000 
#    0.000    0.000    0.000    0.000    0.000    0.000 
#
# Total GULP energy -55672.267633 kJ/mol
# GULP energy per Si atom -5567.226763 kJ/mol
# Density = 2.795930 g / cm^3
# Si number density = 28.023086 Si / 1000 Ang^3
#
#
#
# Elastic Constant Matrix: (Units=GPa)
#
#
# Indices 1 2 3 4 5 6 
#
# 1 98.4022 45.3738 31.0066 -6.0486 32.4129 -22.2546
# 2 45.3738 243.3793 58.5461 42.9707 9.9246 -12.0533
# 3 31.0066 58.5461 195.6007 -37.9941 31.2165 -18.2400
# 4 -6.0486 42.9707 -37.9941 67.5261 -7.9229 -0.8287
# 5 32.4129 9.9246 31.2165 -7.9229 49.0234 7.3038
# 6 -22.2546 -12.0533 -18.2400 -0.8287 7.3038 25.1455
#
#
#
# Elastic Compliance Matrix: (Units=1/GPa)
#
#
# Indices 1 2 3 4 5 6 
#
# 1 0.025430 -0.004447 0.004859 0.005557 -0.022678 0.030669
# 2 -0.004447 0.006454 -0.003377 -0.006053 0.003477 -0.004501
# 3 0.004859 -0.003377 0.009306 0.006895 -0.009176 0.012324
# 4 0.005557 -0.006053 0.006895 0.022618 -0.004537 0.009081
# 5 -0.022678 0.003477 -0.009176 -0.004537 0.045524 -0.038433
# 6 0.030669 -0.004501 0.012324 0.009081 -0.038433 0.085156
#
#
# Mechanical properties :
#
#
# Convention : Reuss Voigt Hill
#
# Bulk Modulus (GPa) = 28.36210 89.69280 59.02745
# Shear Modulus (GPa) = 23.56569 55.16939 39.36754
#
# Velocity S-wave (km/s) = 2.90304 4.44183 3.75217
# Velocity P-wave (km/s) = 4.62383 7.64086 6.31516
#
# Compressibility (1/GPa) = 0.03525832
#
# Stress axis : x y z
#
# Youngs Moduli (GPa) = 39.32437 154.93306 107.45520
#
# Poissons Ratio (x) = 0.68901 -0.52208
# Poissons Ratio (y) = 0.17488 0.36291
# Poissons Ratio (z) = -0.19106 0.52325
#
# Static dielectric constant tensor:
#      x y z
#    x 2.220830 -0.007800 0.019460 
#    y -0.007800 2.214100 0.102960 
#    z 0.019460 0.102960 2.426750 
# 
# From -- ./inp_files/359945.got.cif
#   From: 2010.05.17/outbox.cif.g08.bks.cpg/sg2_180_cif.got.tgz:359945.got - 2010.06.03 11:33:40.
