data_PCOD9050035
_publ_section_title
;
Structure prediction by ZEFSAII (Michael W. Deem and Ramdas Pophale) SiO2 
 PCOD9050035
Probable space group: P -1
;
_chemical_formula_sum "Si O2"
_cell_formula_units_Z 14
_cell_length_a 16.022370
_cell_length_b 6.941460
_cell_length_c 16.120390
_cell_angle_alpha 57.344878
_cell_angle_beta 24.654098
_cell_angle_gamma 71.583316
_cell_volume 546.476396
_symmetry_space_group_name_H-M "P -1"
_symmetry_group_IT_number 2
_symmetry_cell_setting 'triclinic'
loop_
_space_group_symop_operation_xyz
x,y,z
-x,-y,-z
loop_
_atom_site_type_symbol
_atom_site_label
_atom_site_fract_x
_atom_site_fract_y
_atom_site_fract_z
Si Si1 0.077955 0.422935 0.111590
Si Si2 0.272239 0.099353 0.234655
Si Si3 0.398680 0.669329 0.962007
Si Si4 0.405807 0.842588 0.442301
Si Si5 0.427355 0.454177 0.375683
Si Si6 0.758912 0.993301 0.230439
Si Si7 0.901910 0.451909 0.449551
O O1 0.860250 0.231860 0.296575
O O2 0.988363 0.404595 0.291666
O O3 0.299371 0.386771 0.922965
O O4 0.168230 0.705404 0.920757
O O5 0.397372 0.177274 0.192627
O O6 0.260341 0.820797 0.292091
O O7 0.379325 0.386669 0.030073
O O8 0.000000 0.000000 0.500000
O O9 0.455811 0.863923 0.788412
O O10 0.148232 0.614576 0.234227
O O11 0.394963 0.628299 0.435636
O O12 0.555416 0.833708 0.384994
O O13 0.347580 0.166622 0.552092
O O14 0.252081 0.422213 0.467850
O O15 0.000000 0.000000 0.000000
#
# Coordination Sequence:
#
# PCOD9050035 Si02
#       7
#     2   2   2   2   2   2   2
#     4  11  23  39  58  85 120 158 196 238 289 343
#     4   9  18  31  62  92 109 149 198 233 288 352
#     4  10  17  34  61  90 112 152 195 234 292 348
#     4  11  22  40  61  86 120 155 193 242 293 341
#     4  11  23  39  59  87 121 154 198 242 286 343
#     4  12  22  42  61  82 120 159 196 243 289 340
#     4  10  19  39  60  84 120 154 191 240 288 342
#
# _framework density 25.618675
#
# number of rings (size 3 to 8) (size 9 to 14) (size 15 to 20)
#    0.000    1.429    7.143    0.857    0.000    0.571 
#    5.143    0.000    0.000   11.143    0.000    0.000 
#    0.000    0.000    0.000    0.000    0.000    0.000 
#
# Total GULP energy -78224.233476 kJ/mol
# GULP energy per Si atom -5587.445248 kJ/mol
# Density = 2.556037 g / cm^3
# Si number density = 25.618675 Si / 1000 Ang^3
#
#
#
# Elastic Constant Matrix: (Units=GPa)
#
#
# Indices 1 2 3 4 5 6 
#
# 1 115.3101 35.1933 54.1557 10.5277 -32.2522 -26.9060
# 2 35.1933 86.1467 28.0307 -9.6281 -8.5238 -30.7492
# 3 54.1557 28.0307 172.6924 7.4626 -31.0044 -8.7702
# 4 10.5277 -9.6281 7.4626 60.7088 -14.3659 -7.8075
# 5 -32.2522 -8.5238 -31.0044 -14.3659 50.8183 2.7676
# 6 -26.9060 -30.7492 -8.7702 -7.8075 2.7676 38.5329
#
#
#
# Elastic Compliance Matrix: (Units=1/GPa)
#
#
# Indices 1 2 3 4 5 6 
#
# 1 0.013932 -0.001492 -0.002554 0.000210 0.006683 0.007518
# 2 -0.001492 0.018862 -0.001742 0.005822 0.002002 0.014650
# 3 -0.002554 -0.001742 0.007249 -0.000360 0.002505 -0.001776
# 4 0.000210 0.005822 -0.000360 0.019907 0.006065 0.008308
# 5 0.006683 0.002002 0.002505 0.006065 0.027165 0.006112
# 6 0.007518 0.014650 -0.001776 0.008308 0.006112 0.043732
#
#
# Mechanical properties :
#
#
# Convention : Reuss Voigt Hill
#
# Bulk Modulus (GPa) = 35.12830 67.65654 51.39242
# Shear Modulus (GPa) = 32.91370 47.12999 40.02184
#
# Velocity S-wave (km/s) = 3.58824 4.29379 3.95677
# Velocity P-wave (km/s) = 5.55959 7.14483 6.40147
#
# Compressibility (1/GPa) = 0.02846707
#
# Stress axis : x y z
#
# Youngs Moduli (GPa) = 71.77918 53.01593 137.94321
#
# Poissons Ratio (x) = 0.07910 0.35232
# Poissons Ratio (y) = 0.10710 0.24028
# Poissons Ratio (z) = 0.18333 0.09235
#
# Static dielectric constant tensor:
#      x y z
#    x 2.055550 0.055630 0.026270 
#    y 0.055630 2.069310 0.044500 
#    z 0.026270 0.044500 2.017780 
# 
# From -- ./inp_files/313082.got.cif
#   From: 2010.05.17/outbox.cif.g08.bks.cpg/sg2_157_cif.got.tgz:313082.got - 2010.06.03 11:33:40.
