data_PCOD9050011
_publ_section_title
;
Structure prediction by ZEFSAII (Michael W. Deem and Ramdas Pophale) SiO2 
 PCOD9050011
Probable space group: P -1
;
_chemical_formula_sum "Si O2"
_cell_formula_units_Z 12
_cell_length_a 17.983846
_cell_length_b 4.925686
_cell_length_c 9.739397
_cell_angle_alpha 74.639957
_cell_angle_beta 42.917245
_cell_angle_gamma 52.623997
_cell_volume 440.362569
_symmetry_space_group_name_H-M "P -1"
_symmetry_group_IT_number 2
_symmetry_cell_setting 'triclinic'
loop_
_space_group_symop_operation_xyz
x,y,z
-x,-y,-z
loop_
_atom_site_type_symbol
_atom_site_label
_atom_site_fract_x
_atom_site_fract_y
_atom_site_fract_z
Si Si1 0.642233 0.906471 0.765173
Si Si2 0.637451 0.527995 0.570471
Si Si3 0.848784 0.806956 0.237993
Si Si4 0.619125 0.194138 0.279107
Si Si5 0.024755 0.415341 0.316039
Si Si6 0.204069 0.600855 0.121033
O O1 0.675817 0.710141 0.599537
O O2 0.747058 0.637372 0.777175
O O3 0.622428 0.268698 0.718319
O O4 0.500000 0.000000 0.000000
O O5 0.480279 0.832226 0.682046
O O6 0.761167 0.240780 0.334514
O O7 0.899785 0.669082 0.345225
O O8 0.738864 0.878553 0.259418
O O9 0.000000 0.500000 0.000000
O O10 0.500000 0.500000 0.500000
O O11 0.681385 0.363980 0.093090
O O12 0.147203 0.449901 0.118202
O O13 0.000000 0.500000 0.500000
O O14 0.077589 0.017443 0.269482
#
# Coordination Sequence:
#
# PCOD9050011 Si02
#       6
#     2   2   2   2   2   2
#     4  12  24  43  77 107 149 191 248 301 374 433
#     4  11  26  48  72 111 145 193 247 308 362 443
#     4  11  24  50  76 107 150 198 246 302 374 441
#     4  10  24  48  72 108 148 196 247 305 367 444
#     4  12  27  48  75 107 150 191 247 308 368 438
#     4  12  25  45  75 108 144 195 247 305 367 439
#
# _framework density 27.250271000000001
#
# number of rings (size 3 to 8) (size 9 to 14) (size 15 to 20)
#    0.000    0.667    3.333    4.000    2.333    2.000 
#    6.000    5.000    0.000    0.000    0.000    0.000 
#    0.000    0.000    0.000    0.000    0.000    0.000 
#
# Total GULP energy -67105.346880 kJ/mol
# GULP energy per Si atom -5592.112240 kJ/mol
# Density = 2.718825 g / cm^3
# Si number density = 27.250271 Si / 1000 Ang^3
#
#
#
# Elastic Constant Matrix: (Units=GPa)
#
#
# Indices 1 2 3 4 5 6 
#
# 1 252.3955 96.9202 36.1140 3.0036 -7.1019 -52.9933
# 2 96.9202 173.1954 20.9310 -2.5313 -0.2772 -35.8101
# 3 36.1140 20.9310 110.3872 -4.2092 12.4025 -32.8557
# 4 3.0036 -2.5313 -4.2092 50.1829 -13.3924 -9.2545
# 5 -7.1019 -0.2772 12.4025 -13.3924 56.2788 9.7978
# 6 -52.9933 -35.8101 -32.8557 -9.2545 9.7978 64.5902
#
#
#
# Elastic Compliance Matrix: (Units=1/GPa)
#
#
# Indices 1 2 3 4 5 6 
#
# 1 0.005608 -0.002466 -0.000526 0.000125 0.000330 0.002934
# 2 -0.002466 0.007666 0.000205 0.000872 -0.000553 0.002540
# 3 -0.000526 0.000205 0.011466 0.001247 -0.003376 0.006205
# 4 0.000125 0.000872 0.001247 0.021902 0.004312 0.003705
# 5 0.000330 -0.000553 -0.003376 0.004312 0.020312 -0.004216
# 6 0.002934 0.002540 0.006205 0.003705 -0.004216 0.023625
#
#
# Mechanical properties :
#
#
# Convention : Reuss Voigt Hill
#
# Bulk Modulus (GPa) = 52.17709 93.76760 72.97235
# Shear Modulus (GPa) = 48.76066 59.67791 54.21928
#
# Velocity S-wave (km/s) = 4.23468 4.68481 4.46542
# Velocity P-wave (km/s) = 6.56498 7.98422 7.30913
#
# Compressibility (1/GPa) = 0.01916550
#
# Stress axis : x y z
#
# Youngs Moduli (GPa) = 178.31621 130.44742 87.21382
#
# Poissons Ratio (x) = 0.32163 0.04589
# Poissons Ratio (y) = 0.43966 -0.01784
# Poissons Ratio (z) = 0.09383 -0.02668
#
# Static dielectric constant tensor:
#      x y z
#    x 2.050550 0.057220 -0.266030 
#    y 0.057220 2.068830 0.039090 
#    z -0.266030 0.039090 2.105660 
# 
# From -- ./inp_files/323505.got.cif
#   From: 2010.05.17/outbox.cif.g08.bks.cpg/sg2_162_cif.got.tgz:323505.got - 2010.06.03 11:33:40.
