data_PCOD9050212
_publ_section_title
;
Structure prediction by ZEFSAII (Michael W. Deem and Ramdas Pophale) SiO2 
 PCOD9050212
Probable space group: P -1
;
_chemical_formula_sum "Si O2"
_cell_formula_units_Z 14
_cell_length_a 11.581426
_cell_length_b 9.389536
_cell_length_c 8.834158
_cell_angle_alpha 67.809619
_cell_angle_beta 111.855199
_cell_angle_gamma 139.694373
_cell_volume 569.674268
_symmetry_space_group_name_H-M "P -1"
_symmetry_group_IT_number 2
_symmetry_cell_setting 'triclinic'
loop_
_space_group_symop_operation_xyz
x,y,z
-x,-y,-z
loop_
_atom_site_type_symbol
_atom_site_label
_atom_site_fract_x
_atom_site_fract_y
_atom_site_fract_z
Si Si1 0.705825 0.637111 0.244028
Si Si2 0.223161 0.005831 0.697480
Si Si3 0.823583 0.175478 0.780287
Si Si4 0.695912 0.781665 0.672675
Si Si5 0.395831 0.784456 0.175369
Si Si6 0.866653 0.547019 0.580797
Si Si7 0.805248 0.606445 0.986519
O O1 0.773925 0.869663 0.215286
O O2 0.509792 0.448420 0.300403
O O3 0.837635 0.632880 0.392109
O O4 0.704189 0.589953 0.087557
O O5 0.259783 0.140729 0.509898
O O6 0.391886 0.043385 0.783634
O O7 0.039610 0.751357 0.679667
O O8 0.873587 0.370699 0.626005
O O9 0.000565 0.275655 0.911154
O O10 0.738466 0.970887 0.715806
O O11 0.682283 0.119976 0.854371
O O12 0.814281 0.749575 0.810176
O O13 0.311609 0.602392 0.341243
O O14 0.307366 0.634297 0.043128
#
# Coordination Sequence:
#
# PCOD9050212 Si02
#       7
#     2   2   2   2   2   2   2
#     4  12  25  45  71 111 141 184 245 288 354 420
#     4  12  24  47  78 105 139 190 237 296 350 417
#     4  10  26  47  70 107 141 186 238 291 358 414
#     4  12  24  44  76 102 145 186 236 294 352 421
#     4  10  24  49  72 104 143 185 235 292 352 416
#     4  10  25  46  74 103 142 180 241 290 351 418
#     4  12  25  46  71 102 150 189 232 292 352 428
#
# _framework density 24.575448999999999
#
# number of rings (size 3 to 8) (size 9 to 14) (size 15 to 20)
#    0.857    0.000    2.857    3.857    0.000    8.000 
#    0.000    1.429    0.000    0.000    0.000    0.000 
#    0.000    0.000    0.000    0.000    0.000    0.000 
#
# Total GULP energy -78500.233534 kJ/mol
# GULP energy per Si atom -5607.159538 kJ/mol
# Density = 2.451951 g / cm^3
# Si number density = 24.575449 Si / 1000 Ang^3
#
#
#
# Elastic Constant Matrix: (Units=GPa)
#
#
# Indices 1 2 3 4 5 6 
#
# 1 110.9262 19.9117 32.0076 1.2722 18.5744 -5.9967
# 2 19.9117 97.6252 3.1935 1.8611 17.1920 -2.2422
# 3 32.0076 3.1935 53.7064 2.2065 -13.4533 1.2063
# 4 1.2722 1.8611 2.2065 36.7359 0.6174 -2.5628
# 5 18.5744 17.1920 -13.4533 0.6174 32.8360 6.3567
# 6 -5.9967 -2.2422 1.2063 -2.5628 6.3567 50.0249
#
#
#
# Elastic Compliance Matrix: (Units=1/GPa)
#
#
# Indices 1 2 3 4 5 6 
#
# 1 0.015524 -0.000023 -0.013122 0.000790 -0.014957 0.004117
# 2 -0.000023 0.011682 -0.002572 -0.000205 -0.007447 0.001519
# 3 -0.013122 -0.002572 0.032630 -0.002152 0.023251 -0.005540
# 4 0.000790 -0.000205 -0.002152 0.027495 -0.002089 0.001811
# 5 -0.014957 -0.007447 0.023251 -0.002089 0.054256 -0.009689
# 6 0.004117 0.001519 -0.005540 0.001811 -0.009689 0.022009
#
#
# Mechanical properties :
#
#
# Convention : Reuss Voigt Hill
#
# Bulk Modulus (GPa) = 35.20905 41.38704 38.29805
# Shear Modulus (GPa) = 24.45009 37.72903 31.08956
#
# Velocity S-wave (km/s) = 3.15762 3.92245 3.56063
# Velocity P-wave (km/s) = 5.25853 6.11486 5.70279
#
# Compressibility (1/GPa) = 0.02840179
#
# Stress axis : x y z
#
# Youngs Moduli (GPa) = 64.41792 85.59863 30.64635
#
# Poissons Ratio (x) = 0.00201 0.40214
# Poissons Ratio (y) = 0.00151 0.07882
# Poissons Ratio (z) = 0.84529 0.22015
#
# Static dielectric constant tensor:
#      x y z
#    x 1.944270 0.023400 -0.023220 
#    y 0.023400 1.882510 -0.041820 
#    z -0.023220 -0.041820 1.953280 
# 
# From -- ./inp_files/304855.got.cif
#   From: 2010.05.17/outbox.cif.g08.bks.cpg/sg2_153_cif.got.tgz:304855.got - 2010.06.03 11:33:40.
