data_PCOD9050095
_publ_section_title
;
Structure prediction by ZEFSAII (Michael W. Deem and Ramdas Pophale) SiO2 
 PCOD9050095
Probable space group: P -1
;
_chemical_formula_sum "Si O2"
_cell_formula_units_Z 14
_cell_length_a 5.350861
_cell_length_b 8.046483
_cell_length_c 23.690581
_cell_angle_alpha 35.211475
_cell_angle_beta 63.210013
_cell_angle_gamma 62.777863
_cell_volume 517.065293
_symmetry_space_group_name_H-M "P -1"
_symmetry_group_IT_number 2
_symmetry_cell_setting 'triclinic'
loop_
_space_group_symop_operation_xyz
x,y,z
-x,-y,-z
loop_
_atom_site_type_symbol
_atom_site_label
_atom_site_fract_x
_atom_site_fract_y
_atom_site_fract_z
Si Si1 0.112008 0.953982 0.195900
Si Si2 0.608408 0.192977 0.045072
Si Si3 0.369329 0.480352 0.234747
Si Si4 0.193396 0.384944 0.933401
Si Si5 0.663994 0.172687 0.393239
Si Si6 0.240824 0.487909 0.606338
Si Si7 0.793662 0.124624 0.611292
O O1 0.129322 0.765936 0.188173
O O2 0.953072 0.764485 0.307134
O O3 0.940412 0.286845 0.120615
O O4 0.446497 0.983671 0.158436
O O5 0.440060 0.229232 0.992839
O O6 0.939787 0.202722 0.001619
O O7 0.500000 0.500000 0.000000
O O8 0.649242 0.563411 0.154733
O O9 0.451078 0.373727 0.319152
O O10 0.293445 0.197372 0.289670
O O11 0.824656 0.343967 0.374568
O O12 0.500000 0.000000 0.500000
O O13 0.869917 0.954262 0.391849
O O14 0.570027 0.328947 0.615875
O O15 0.215381 0.714498 0.493842
#
# Coordination Sequence:
#
# PCOD9050095 Si02
#       7
#     2   2   2   2   2   2   2
#     4  11  23  43  72 103 134 188 237 290 367 428
#     4  10  24  48  76 105 147 189 242 305 371 428
#     4  12  26  42  70 105 139 188 239 293 365 434
#     4  11  26  48  73 107 150 188 240 311 361 438
#     4  12  25  42  67 100 142 187 237 297 356 423
#     4  11  23  43  72  95 142 188 234 298 358 437
#     4  11  24  46  64 101 144 182 235 297 361 430
#
# _framework density 27.075886000000001
#
# number of rings (size 3 to 8) (size 9 to 14) (size 15 to 20)
#    0.000    0.857    4.286    3.000    2.000    6.286 
#    0.000    0.000    0.000    0.000    0.000    0.000 
#    0.000    0.000    0.000    0.000    0.000    0.000 
#
# Total GULP energy -78322.233885 kJ/mol
# GULP energy per Si atom -5594.445278 kJ/mol
# Density = 2.701426 g / cm^3
# Si number density = 27.075886 Si / 1000 Ang^3
#
#
#
# Elastic Constant Matrix: (Units=GPa)
#
#
# Indices 1 2 3 4 5 6 
#
# 1 126.2493 24.1945 66.9207 13.4255 -20.7027 -21.5628
# 2 24.1945 135.7775 32.5154 -5.6463 4.2235 -30.1178
# 3 66.9207 32.5154 159.6508 6.7676 -39.3788 -11.0811
# 4 13.4255 -5.6463 6.7676 50.7229 -6.1338 -1.6550
# 5 -20.7027 4.2235 -39.3788 -6.1338 54.4929 6.0350
# 6 -21.5628 -30.1178 -11.0811 -1.6550 6.0350 41.6196
#
#
#
# Elastic Compliance Matrix: (Units=1/GPa)
#
#
# Indices 1 2 3 4 5 6 
#
# 1 0.011227 -0.000130 -0.004144 -0.002223 0.000538 0.004453
# 2 -0.000130 0.009561 -0.002217 0.001252 -0.002999 0.006746
# 3 -0.004144 -0.002217 0.009759 0.000195 0.005893 -0.002000
# 4 -0.002223 0.001252 0.000195 0.020608 0.001474 0.000412
# 5 0.000538 -0.002999 0.005893 0.001474 0.023621 -0.003689
# 6 0.004453 0.006746 -0.002000 0.000412 -0.003689 0.031235
#
#
# Mechanical properties :
#
#
# Convention : Reuss Voigt Hill
#
# Bulk Modulus (GPa) = 56.93098 74.32654 65.62876
# Shear Modulus (GPa) = 40.04897 49.23688 44.64292
#
# Velocity S-wave (km/s) = 3.85013 4.26899 4.06496
# Velocity P-wave (km/s) = 6.39036 7.19790 6.80612
#
# Compressibility (1/GPa) = 0.01756513
#
# Stress axis : x y z
#
# Youngs Moduli (GPa) = 89.06817 104.59432 102.47250
#
# Poissons Ratio (x) = 0.01356 0.42463
# Poissons Ratio (y) = 0.01154 0.22722
# Poissons Ratio (z) = 0.36908 0.23193
#
# Static dielectric constant tensor:
#      x y z
#    x 2.211090 0.039960 -0.069430 
#    y 0.039960 2.147600 -0.006770 
#    z -0.069430 -0.006770 2.179810 
# 
# From -- ./inp_files/44109.got.cif
#   From: 2010.05.17/outbox.cif.g08.bks.cpg/sg2_23_cif.got.tgz:44109.got - 2010.06.03 11:33:40.
