data_PCOD9050819
_publ_section_title
;
Structure prediction by ZEFSAII (Michael W. Deem and Ramdas Pophale) SiO2 
 PCOD9050819
Probable space group: P -1
;
_chemical_formula_sum "Si O2"
_cell_formula_units_Z 12
_cell_length_a 21.022498
_cell_length_b 7.352096
_cell_length_c 23.692832
_cell_angle_alpha 52.438460
_cell_angle_beta 168.466142
_cell_angle_gamma 127.287831
_cell_volume 579.572524
_symmetry_space_group_name_H-M "P -1"
_symmetry_group_IT_number 2
_symmetry_cell_setting 'triclinic'
loop_
_space_group_symop_operation_xyz
x,y,z
-x,-y,-z
loop_
_atom_site_type_symbol
_atom_site_label
_atom_site_fract_x
_atom_site_fract_y
_atom_site_fract_z
Si Si1 0.645059 0.046293 0.947531
Si Si2 0.605787 0.504092 0.025208
Si Si3 0.679931 0.390147 0.817597
Si Si4 0.269410 0.196860 0.407076
Si Si5 0.783469 0.762354 0.364048
Si Si6 0.633943 0.912960 0.691971
O O1 0.581051 0.773219 0.937201
O O2 0.024165 0.094210 0.260555
O O3 0.530283 0.196622 0.766673
O O4 0.494354 0.158333 0.850504
O O5 0.965777 0.411832 0.357889
O O6 0.500000 0.500000 0.000000
O O7 0.381761 0.348820 0.815881
O O8 0.544459 0.345841 0.647233
O O9 0.611159 0.641150 0.728671
O O10 0.051720 0.351295 0.150862
O O11 0.418791 0.006322 0.536302
O O12 0.000000 0.000000 0.500000
O O13 0.500000 0.000000 0.500000
O O14 0.000000 0.000000 0.000000
#
# Coordination Sequence:
#
# PCOD9050819 Si02
#       6
#     2   2   2   2   2   2
#     4  10  28  42  71  98 142 176 228 276 341 398
#     4  12  27  44  72 100 139 180 233 282 337 398
#     4  10  25  44  68  97 138 175 222 268 347 390
#     4  10  25  44  68  97 138 175 222 268 347 390
#     4  12  27  44  72 100 139 180 233 282 337 398
#     4  12  26  44  71 100 132 174 226 276 331 406
#
# _framework density 20.704916000000001
#
# number of rings (size 3 to 8) (size 9 to 14) (size 15 to 20)
#    1.000    0.000    1.667    3.000    7.000    4.000 
#    0.000    0.000    0.000    0.000    0.000    0.000 
#    0.000    0.000    0.000    0.000    0.000    0.000 
#
# Total GULP energy -66923.042207 kJ/mol
# GULP energy per Si atom -5576.920184 kJ/mol
# Density = 2.065779 g / cm^3
# Si number density = 20.704916 Si / 1000 Ang^3
#
#
#
# Elastic Constant Matrix: (Units=GPa)
#
#
# Indices 1 2 3 4 5 6 
#
# 1 123.0863 66.5370 69.5506 -8.6288 -4.2616 -14.6876
# 2 66.5370 199.1421 87.0074 -24.4183 -16.2601 -7.8506
# 3 69.5506 87.0074 169.5563 2.5761 -4.2611 -33.5504
# 4 -8.6288 -24.4183 2.5761 46.3233 -6.6661 0.9922
# 5 -4.2616 -16.2601 -4.2611 -6.6661 61.8233 -7.1335
# 6 -14.6876 -7.8506 -33.5504 0.9922 -7.1335 52.3197
#
#
#
# Elastic Compliance Matrix: (Units=1/GPa)
#
#
# Indices 1 2 3 4 5 6 
#
# 1 0.011396 -0.002092 -0.003485 0.001229 0.000203 0.000655
# 2 -0.002092 0.007870 -0.003482 0.004268 0.001978 -0.001451
# 3 -0.003485 -0.003482 0.010155 -0.003189 -0.000218 0.005042
# 4 0.001229 0.004268 -0.003189 0.024775 0.003538 -0.001047
# 5 0.000203 0.001978 -0.000218 0.003538 0.017366 0.002515
# 6 0.000655 -0.001451 0.005042 -0.001047 0.002515 0.022675
#
#
# Mechanical properties :
#
#
# Convention : Reuss Voigt Hill
#
# Bulk Modulus (GPa) = 88.48196 104.21942 96.35069
# Shear Modulus (GPa) = 43.05806 50.00590 46.53198
#
# Velocity S-wave (km/s) = 4.56522 4.91977 4.74581
# Velocity P-wave (km/s) = 8.40332 9.09489 8.75594
#
# Compressibility (1/GPa) = 0.01130174
#
# Stress axis : x y z
#
# Youngs Moduli (GPa) = 87.75241 127.07055 98.47482
#
# Poissons Ratio (x) = 0.26580 0.34319
# Poissons Ratio (y) = 0.18355 0.34294
# Poissons Ratio (z) = 0.30582 0.44252
#
# Static dielectric constant tensor:
#      x y z
#    x 1.751060 0.034060 -0.001810 
#    y 0.034060 1.688470 0.017630 
#    z -0.001810 0.017630 1.749010 
# 
# From -- ./inp_files/102698.got.cif
#   From: 2010.05.17/outbox.cif.g08.bks.cpg/sg2_52_cif.got.tgz:102698.got - 2010.06.03 11:33:40.
