data_PCOD9050086
_publ_section_title
;
Structure prediction by ZEFSAII (Michael W. Deem and Ramdas Pophale) SiO2 
 PCOD9050086
Probable space group: P -1
;
_chemical_formula_sum "Si O2"
_cell_formula_units_Z 12
_cell_length_a 11.598567
_cell_length_b 9.111220
_cell_length_c 7.655846
_cell_angle_alpha 129.220915
_cell_angle_beta 131.681430
_cell_angle_gamma 62.585773
_cell_volume 466.996572
_symmetry_space_group_name_H-M "P -1"
_symmetry_group_IT_number 2
_symmetry_cell_setting 'triclinic'
loop_
_space_group_symop_operation_xyz
x,y,z
-x,-y,-z
loop_
_atom_site_type_symbol
_atom_site_label
_atom_site_fract_x
_atom_site_fract_y
_atom_site_fract_z
Si Si1 0.515998 0.722444 0.707458
Si Si2 0.351848 0.968784 0.439689
Si Si3 0.096903 0.863311 0.861197
Si Si4 0.048136 0.455932 0.732602
Si Si5 0.615022 0.632315 0.106838
Si Si6 0.869642 0.773681 0.016328
O O1 0.500000 0.500000 0.500000
O O2 0.516666 0.738437 0.930230
O O3 0.685083 0.759546 0.830874
O O4 0.390837 0.851288 0.567684
O O5 0.500000 0.000000 0.500000
O O6 0.254049 0.854162 0.120530
O O7 0.301356 0.190120 0.588930
O O8 0.106467 0.005546 0.815425
O O9 0.038429 0.664670 0.591183
O O10 0.000000 0.000000 0.000000
O O11 0.948796 0.642813 0.843022
O O12 0.231229 0.477842 0.901047
O O13 0.055794 0.314941 0.801254
O O14 0.500000 0.500000 0.000000
#
# Coordination Sequence:
#
# PCOD9050086 Si02
#       6
#     2   2   2   2   2   2
#     4  11  25  48  75 108 152 199 261 318 383 461
#     4  12  25  47  72 112 153 201 255 312 390 459
#     4  12  25  45  75 111 158 196 255 314 388 463
#     4  10  24  50  78 111 154 203 257 319 388 456
#     4  11  25  48  80 112 150 204 259 319 387 462
#     4  10  24  48  75 112 150 206 261 315 384 459
#
# _framework density 25.696118999999999
#
# number of rings (size 3 to 8) (size 9 to 14) (size 15 to 20)
#    0.000    1.000    3.333    2.000    0.000    7.333 
#    9.000    0.833    0.000    1.000    0.000    0.000 
#    0.000    0.000    0.000    0.000    0.000    0.000 
#
# Total GULP energy -67082.133091 kJ/mol
# GULP energy per Si atom -5590.177758 kJ/mol
# Density = 2.563763 g / cm^3
# Si number density = 25.696119 Si / 1000 Ang^3
#
#
#
# Elastic Constant Matrix: (Units=GPa)
#
#
# Indices 1 2 3 4 5 6 
#
# 1 114.2001 41.3945 38.8304 6.7451 4.5045 13.9784
# 2 41.3945 162.3849 64.1792 13.7728 15.0752 35.6741
# 3 38.8304 64.1792 162.8406 19.2439 6.3689 12.6643
# 4 6.7451 13.7728 19.2439 69.1511 13.6556 3.1656
# 5 4.5045 15.0752 6.3689 13.6556 28.7634 2.1530
# 6 13.9784 35.6741 12.6643 3.1656 2.1530 37.6089
#
#
#
# Elastic Compliance Matrix: (Units=1/GPa)
#
#
# Indices 1 2 3 4 5 6 
#
# 1 0.010094 -0.001503 -0.001658 -0.000095 -0.000250 -0.001745
# 2 -0.001503 0.009570 -0.002701 0.000053 -0.003653 -0.007405
# 3 -0.001658 -0.002701 0.007712 -0.001612 0.000682 0.000678
# 4 -0.000095 0.000053 -0.001612 0.016390 -0.007405 -0.000427
# 5 -0.000250 -0.003653 0.000682 -0.007405 0.039960 0.001664
# 6 -0.001745 -0.007405 0.000678 -0.000427 0.001664 0.033975
#
#
# Mechanical properties :
#
#
# Convention : Reuss Voigt Hill
#
# Bulk Modulus (GPa) = 63.88742 80.91485 72.40113
# Shear Modulus (GPa) = 37.13512 46.77279 41.95396
#
# Velocity S-wave (km/s) = 3.80566 4.27104 4.04505
# Velocity P-wave (km/s) = 6.65036 7.47528 7.07486
#
# Compressibility (1/GPa) = 0.01565253
#
# Stress axis : x y z
#
# Youngs Moduli (GPa) = 99.06625 104.48920 129.66967
#
# Poissons Ratio (x) = 0.15707 0.21498
# Poissons Ratio (y) = 0.14892 0.35022
# Poissons Ratio (z) = 0.16424 0.28221
#
# Static dielectric constant tensor:
#      x y z
#    x 1.823840 0.496030 -0.023360 
#    y 0.496030 1.119310 -0.124930 
#    z -0.023360 -0.124930 2.039780 
# 
# From -- ./inp_files/146418.got.cif
#   From: 2010.05.17/outbox.cif.g08.bks.cpg/sg2_74_cif.got.tgz:146418.got - 2010.06.03 11:33:40.
