data_PCOD9050685
_publ_section_title
;
Structure prediction by ZEFSAII (Michael W. Deem and Ramdas Pophale) SiO2 
 PCOD9050685
Probable space group: P -1
;
_chemical_formula_sum "Si O2"
_cell_formula_units_Z 14
_cell_length_a 8.956696
_cell_length_b 9.445294
_cell_length_c 9.038313
_cell_angle_alpha 114.028471
_cell_angle_beta 112.152857
_cell_angle_gamma 77.141197
_cell_volume 644.660126
_symmetry_space_group_name_H-M "P -1"
_symmetry_group_IT_number 2
_symmetry_cell_setting 'triclinic'
loop_
_space_group_symop_operation_xyz
x,y,z
-x,-y,-z
loop_
_atom_site_type_symbol
_atom_site_label
_atom_site_fract_x
_atom_site_fract_y
_atom_site_fract_z
Si Si1 0.741006 0.706537 0.853611
Si Si2 0.362435 0.068000 0.862584
Si Si3 0.134514 0.528954 0.444675
Si Si4 0.479871 0.481579 0.659507
Si Si5 0.915766 0.126298 0.414151
Si Si6 0.441715 0.857585 0.319068
Si Si7 0.864528 0.957818 0.813060
O O1 0.848524 0.578778 0.742032
O O2 0.587691 0.616478 0.810863
O O3 0.738145 0.845308 0.790163
O O4 0.767489 0.806670 0.053333
O O5 0.450275 0.140572 0.788085
O O6 0.258687 0.928090 0.716233
O O7 0.500000 0.000000 0.000000
O O8 0.289098 0.511709 0.605348
O O9 0.108750 0.704620 0.454227
O O10 0.000000 0.500000 0.500000
O O11 0.500000 0.500000 0.500000
O O12 0.532727 0.310168 0.665158
O O13 0.033925 0.126558 0.316805
O O14 0.000000 0.000000 0.500000
O O15 0.500000 0.000000 0.500000
O O16 0.252730 0.897920 0.226927
O O17 0.000000 0.000000 0.000000
#
# Coordination Sequence:
#
# PCOD9050685 Si02
#       7
#     2   2   2   2   2   2   2
#     4  11  23  46  68 101 146 191 232 297 366 424
#     4  12  25  46  75 105 146 192 240 299 365 434
#     4  11  24  43  70 102 146 189 238 299 364 423
#     4  10  25  43  71 105 149 190 241 300 370 422
#     4  12  27  43  73 108 140 187 250 297 361 433
#     4  12  26  45  78 108 142 193 254 295 355 450
#     4  12  24  47  72 108 147 192 240 303 366 430
#
# _framework density 21.716871000000001
#
# number of rings (size 3 to 8) (size 9 to 14) (size 15 to 20)
#    0.000    0.571    4.286    3.429   10.000    0.571 
#    0.000    2.857    0.000    0.000    0.000    0.000 
#    0.000    0.000    0.000    0.000    0.000    0.000 
#
# Total GULP energy -78086.805626 kJ/mol
# GULP energy per Si atom -5577.628973 kJ/mol
# Density = 2.166744 g / cm^3
# Si number density = 21.716871 Si / 1000 Ang^3
#
#
#
# Elastic Constant Matrix: (Units=GPa)
#
#
# Indices 1 2 3 4 5 6 
#
# 1 125.8085 40.0618 21.5605 -7.9260 -0.6333 4.5665
# 2 40.0618 175.7100 40.0198 -7.6328 4.0538 -1.3970
# 3 21.5605 40.0198 72.5262 1.7659 -19.8999 -3.7210
# 4 -7.9260 -7.6328 1.7659 34.5281 -8.5778 -1.9610
# 5 -0.6333 4.0538 -19.8999 -8.5778 44.9334 1.1923
# 6 4.5665 -1.3970 -3.7210 -1.9610 1.1923 36.7315
#
#
#
# Elastic Compliance Matrix: (Units=1/GPa)
#
#
# Indices 1 2 3 4 5 6 
#
# 1 0.008923 -0.001510 -0.001999 0.001678 -0.000269 -0.001271
# 2 -0.001510 0.007060 -0.004093 0.000858 -0.002312 0.000162
# 3 -0.001999 -0.004093 0.019135 -0.000068 0.008756 0.001743
# 4 0.001678 0.000858 -0.000068 0.031057 0.005811 0.001287
# 5 -0.000269 -0.002312 0.008756 0.005811 0.027440 0.000252
# 6 -0.001271 0.000162 0.001743 0.001287 0.000252 0.027626
#
#
# Mechanical properties :
#
#
# Convention : Reuss Voigt Hill
#
# Bulk Modulus (GPa) = 50.22173 64.14764 57.18469
# Shear Modulus (GPa) = 34.94479 41.39876 38.17178
#
# Velocity S-wave (km/s) = 4.01572 4.37085 4.19704
# Velocity P-wave (km/s) = 6.68410 7.42123 7.06229
#
# Compressibility (1/GPa) = 0.01991170
#
# Stress axis : x y z
#
# Youngs Moduli (GPa) = 112.07613 141.64893 52.26054
#
# Poissons Ratio (x) = 0.21389 0.10448
# Poissons Ratio (y) = 0.16923 0.21393
# Poissons Ratio (z) = 0.22407 0.57983
#
# Static dielectric constant tensor:
#      x y z
#    x 4.098470 -0.065250 0.391660 
#    y -0.065250 1.787900 0.006410 
#    z 0.391660 0.006410 1.882040 
# 
# From -- ./inp_files/159954.got.cif
#   From: 2010.05.17/outbox.cif.g08.bks.cpg/sg2_80_cif.got.tgz:159954.got - 2010.06.03 11:33:40.
