data_PCOD9050431
_publ_section_title
;
Structure prediction by ZEFSAII (Michael W. Deem and Ramdas Pophale) SiO2 
 PCOD9050431
Probable space group: P -1
;
_chemical_formula_sum "Si O2"
_cell_formula_units_Z 16
_cell_length_a 9.588814
_cell_length_b 13.575695
_cell_length_c 9.451366
_cell_angle_alpha 85.565754
_cell_angle_beta 49.070835
_cell_angle_gamma 118.007573
_cell_volume 670.218868
_symmetry_space_group_name_H-M "P -1"
_symmetry_group_IT_number 2
_symmetry_cell_setting 'triclinic'
loop_
_space_group_symop_operation_xyz
x,y,z
-x,-y,-z
loop_
_atom_site_type_symbol
_atom_site_label
_atom_site_fract_x
_atom_site_fract_y
_atom_site_fract_z
Si Si1 0.601086 0.704940 0.915374
Si Si2 0.397842 0.524208 0.342637
Si Si3 0.026826 0.893231 0.092557
Si Si4 0.560476 0.013513 0.706609
Si Si5 0.015212 0.240398 0.578102
Si Si6 0.962954 0.081968 0.214027
Si Si7 0.731904 0.303061 0.069118
Si Si8 0.672025 0.440562 0.321606
O O1 0.362682 0.668122 0.004815
O O2 0.771713 0.720980 0.676543
O O3 0.804477 0.851489 0.840525
O O4 0.519413 0.601218 0.105781
O O5 0.527329 0.474463 0.330774
O O6 0.410143 0.603876 0.456543
O O7 0.102492 0.385374 0.523058
O O8 0.973693 0.804407 0.270455
O O9 0.335228 0.010305 0.853537
O O10 0.948134 0.827765 0.995997
O O11 0.900984 0.950754 0.210784
O O12 0.407746 0.853372 0.837999
O O13 0.747890 0.113101 0.698449
O O14 0.745653 0.062470 0.443063
O O15 0.640935 0.329801 0.265037
O O16 0.034412 0.415403 0.877220
#
# Coordination Sequence:
#
# PCOD9050431 Si02
#       8
#     2   2   2   2   2   2   2   2
#     4  11  24  41  68  97 140 175 227 283 338 400
#     4  11  24  44  69  99 132 185 226 275 335 411
#     4  11  23  43  68  98 139 180 227 280 344 406
#     4  11  24  44  71 101 140 176 226 288 341 407
#     4  11  23  42  69 100 131 183 224 274 342 409
#     4  10  25  41  66 103 135 181 228 281 339 410
#     4  11  23  45  67 102 134 179 221 283 342 401
#     4  10  25  42  68  98 134 179 229 272 338 408
#
# _framework density 23.872799000000001
#
# number of rings (size 3 to 8) (size 9 to 14) (size 15 to 20)
#    0.000    1.250    1.250    3.375    5.250    4.500 
#    0.000    0.000    0.000    0.000    0.000    0.000 
#    0.000    0.000    0.000    0.000    0.000    0.000 
#
# Total GULP energy -89416.619003 kJ/mol
# GULP energy per Si atom -5588.538688 kJ/mol
# Density = 2.381846 g / cm^3
# Si number density = 23.872799 Si / 1000 Ang^3
#
#
#
# Elastic Constant Matrix: (Units=GPa)
#
#
# Indices 1 2 3 4 5 6 
#
# 1 102.9479 55.0246 56.4417 2.8782 -2.3560 33.4606
# 2 55.0246 70.2455 47.1662 7.4755 3.3321 16.1653
# 3 56.4417 47.1662 150.9291 15.1532 12.0803 11.5963
# 4 2.8782 7.4755 15.1532 42.3505 13.8541 -4.6287
# 5 -2.3560 3.3321 12.0803 13.8541 39.2334 5.9650
# 6 33.4606 16.1653 11.5963 -4.6287 5.9650 32.3625
#
#
#
# Elastic Compliance Matrix: (Units=1/GPa)
#
#
# Indices 1 2 3 4 5 6 
#
# 1 0.025991 -0.012578 -0.004552 -0.002892 0.008228 -0.020889
# 2 -0.012578 0.026356 -0.003290 -0.002053 -0.001405 0.000984
# 3 -0.004552 -0.003290 0.009454 -0.001141 -0.003012 0.003354
# 4 -0.002892 -0.002053 -0.001141 0.029606 -0.011748 0.010824
# 5 0.008228 -0.001405 -0.003012 -0.011748 0.033392 -0.014560
# 6 -0.020889 0.000984 0.003354 0.010824 -0.014560 0.055036
#
#
# Mechanical properties :
#
#
# Convention : Reuss Voigt Hill
#
# Bulk Modulus (GPa) = 47.70772 71.26528 59.48650
# Shear Modulus (GPa) = 21.96260 33.82195 27.89227
#
# Velocity S-wave (km/s) = 3.03641 3.76807 3.42185
# Velocity P-wave (km/s) = 5.68512 6.98913 6.37058
#
# Compressibility (1/GPa) = 0.02096097
#
# Stress axis : x y z
#
# Youngs Moduli (GPa) = 38.47546 37.94220 105.77686
#
# Poissons Ratio (x) = 0.47723 0.48150
# Poissons Ratio (y) = 0.48394 0.34797
# Poissons Ratio (z) = 0.17514 0.12482
#
# Static dielectric constant tensor:
#      x y z
#    x 1.907620 0.019080 -0.019630 
#    y 0.019080 1.963190 -0.007160 
#    z -0.019630 -0.007160 1.948540 
# 
# From -- ./inp_files/206778.got.cif
#   From: 2010.05.17/outbox.cif.g08.bks.cpg/sg2_104_cif.got.tgz:206778.got - 2010.06.03 11:33:40.
