data_PCOD9050175
_publ_section_title
;
Structure prediction by ZEFSAII (Michael W. Deem and Ramdas Pophale) SiO2 
 PCOD9050175
Probable space group: P -1
;
_chemical_formula_sum "Si O2"
_cell_formula_units_Z 14
_cell_length_a 12.171239
_cell_length_b 7.166853
_cell_length_c 11.578083
_cell_angle_alpha 137.636791
_cell_angle_beta 114.436732
_cell_angle_gamma 61.529750
_cell_volume 595.003607
_symmetry_space_group_name_H-M "P -1"
_symmetry_group_IT_number 2
_symmetry_cell_setting 'triclinic'
loop_
_space_group_symop_operation_xyz
x,y,z
-x,-y,-z
loop_
_atom_site_type_symbol
_atom_site_label
_atom_site_fract_x
_atom_site_fract_y
_atom_site_fract_z
Si Si1 0.072643 0.727963 0.484948
Si Si2 0.300914 0.400595 0.723635
Si Si3 0.373737 0.232820 0.915732
Si Si4 0.520936 0.419760 0.277190
Si Si5 0.117190 0.610036 0.064980
Si Si6 0.735157 0.219156 0.575279
Si Si7 0.959148 0.205834 0.221823
O O1 0.211538 0.678975 0.471521
O O2 0.053344 0.791894 0.641551
O O3 0.022932 0.448979 0.318632
O O4 0.000000 0.000000 0.500000
O O5 0.391438 0.340131 0.845299
O O6 0.377212 0.429959 0.656575
O O7 0.187345 0.687640 0.826315
O O8 0.246713 0.123624 0.566882
O O9 0.415002 0.888903 0.780444
O O10 0.450482 0.343786 0.097651
O O11 0.225113 0.364861 0.937106
O O12 0.411057 0.622422 0.397531
O O13 0.187183 0.695116 0.245703
O O14 0.052538 0.894950 0.093110
O O15 0.000000 0.500000 0.000000
#
# Coordination Sequence:
#
# PCOD9050175 Si02
#       7
#     2   2   2   2   2   2   2
#     4  11  21  44  67  99 140 169 217 281 335 394
#     4  12  24  42  71 100 134 174 224 279 331 396
#     4  10  25  47  67  96 135 181 221 276 331 392
#     4  10  24  49  67  96 135 178 226 273 332 397
#     4  11  24  44  67  99 140 177 221 273 331 410
#     4  11  24  43  72  98 134 175 223 282 330 390
#     4  11  24  40  69 102 134 175 217 273 341 397
#
# _framework density 23.529271000000001
#
# number of rings (size 3 to 8) (size 9 to 14) (size 15 to 20)
#    0.000    1.143    2.857    2.571    6.000    1.143 
#   15.429    0.000    0.000    0.000    0.000    0.000 
#    0.000    0.000    0.000    0.000    0.000    0.000 
#
# Total GULP energy -78397.772725 kJ/mol
# GULP energy per Si atom -5599.840909 kJ/mol
# Density = 2.347572 g / cm^3
# Si number density = 23.529271 Si / 1000 Ang^3
#
#
#
# Elastic Constant Matrix: (Units=GPa)
#
#
# Indices 1 2 3 4 5 6 
#
# 1 161.0931 58.2546 25.5813 24.2392 -20.3058 12.1540
# 2 58.2546 164.1769 27.4576 15.8815 -7.1170 -5.4755
# 3 25.5813 27.4576 64.5332 8.0616 -6.0546 -7.3192
# 4 24.2392 15.8815 8.0616 41.1758 -6.7997 -2.9757
# 5 -20.3058 -7.1170 -6.0546 -6.7997 40.6660 4.5219
# 6 12.1540 -5.4755 -7.3192 -2.9757 4.5219 41.0755
#
#
#
# Elastic Compliance Matrix: (Units=1/GPa)
#
#
# Indices 1 2 3 4 5 6 
#
# 1 0.008645 -0.002359 -0.002106 -0.003479 0.003440 -0.003878
# 2 -0.002359 0.007382 -0.001972 -0.001061 -0.000502 0.001309
# 3 -0.002106 -0.001972 0.017756 -0.001120 0.000685 0.003367
# 4 -0.003479 -0.001061 -0.001120 0.027508 0.002239 0.002435
# 5 0.003440 -0.000502 0.000685 0.002239 0.027118 -0.003786
# 6 -0.003878 0.001309 0.003367 0.002435 -0.003786 0.026861
#
#
# Mechanical properties :
#
#
# Convention : Reuss Voigt Hill
#
# Bulk Modulus (GPa) = 47.82517 68.04336 57.93426
# Shear Modulus (GPa) = 37.00619 43.15077 40.07848
#
# Velocity S-wave (km/s) = 3.97012 4.28707 4.13164
# Velocity P-wave (km/s) = 6.43318 7.31346 6.88740
#
# Compressibility (1/GPa) = 0.02090949
#
# Stress axis : x y z
#
# Youngs Moduli (GPa) = 115.67822 135.45859 56.31976
#
# Poissons Ratio (x) = 0.31953 0.11859
# Poissons Ratio (y) = 0.27287 0.11107
# Poissons Ratio (z) = 0.24358 0.26713
#
# Static dielectric constant tensor:
#      x y z
#    x 1.889910 -0.037080 -0.011840 
#    y -0.037080 1.886050 -0.052050 
#    z -0.011840 -0.052050 1.917710 
# 
# From -- ./inp_files/364236.got.cif
#   From: 2010.05.17/outbox.cif.g08.bks.cpg/sg2_183_cif.got.tgz:364236.got - 2010.06.03 11:33:40.
