data_PCOD9050877
_publ_section_title
;
Structure prediction by ZEFSAII (Michael W. Deem and Ramdas Pophale) SiO2 
 PCOD9050877
Probable space group: P -1
;
_chemical_formula_sum "Si O2"
_cell_formula_units_Z 16
_cell_length_a 9.233991
_cell_length_b 24.155838
_cell_length_c 8.804696
_cell_angle_alpha 132.743029
_cell_angle_beta 61.654889
_cell_angle_gamma 149.373916
_cell_volume 702.736921
_symmetry_space_group_name_H-M "P -1"
_symmetry_group_IT_number 2
_symmetry_cell_setting 'triclinic'
loop_
_space_group_symop_operation_xyz
x,y,z
-x,-y,-z
loop_
_atom_site_type_symbol
_atom_site_label
_atom_site_fract_x
_atom_site_fract_y
_atom_site_fract_z
Si Si1 0.467857 0.164079 0.579104
Si Si2 0.091481 0.424172 0.916644
Si Si3 0.829683 0.789692 0.840926
Si Si4 0.707121 0.904771 0.792139
Si Si5 0.313155 0.273885 0.877271
Si Si6 0.855641 0.729121 0.385180
Si Si7 0.663282 0.278054 0.098315
Si Si8 0.266213 0.003869 0.652956
O O1 0.438941 0.131907 0.361462
O O2 0.290069 0.174591 0.705816
O O3 0.325129 0.043493 0.522835
O O4 0.798037 0.306313 0.739499
O O5 0.199574 0.380009 0.798515
O O6 0.342311 0.570679 0.992028
O O7 0.983768 0.410625 0.112319
O O8 0.764716 0.719163 0.585489
O O9 0.552735 0.741785 0.901774
O O10 0.843284 0.758426 0.946429
O O11 0.121168 0.953914 0.977216
O O12 0.437300 0.764164 0.757709
O O13 0.972105 0.943398 0.725682
O O14 0.243630 0.275874 0.741929
O O15 0.191135 0.890174 0.517708
O O16 0.542852 0.150139 0.866775
#
# Coordination Sequence:
#
# PCOD9050877 Si02
#       8
#     2   2   2   2   2   2   2   2
#     4  11  21  37  67  97 122 165 211 265 316 359
#     4  11  27  43  57  91 137 168 204 255 318 369
#     4  11  21  39  71  95 120 161 218 264 302 375
#     4  11  17  36  64 102 118 154 216 264 310 376
#     4  12  23  44  68  87 125 177 219 248 299 382
#     4  12  24  43  65  95 126 170 206 260 321 374
#     4  10  19  37  63  92 128 158 198 270 311 361
#     4  10  17  34  65  90 124 153 207 261 312 363
#
# _framework density 22.768122000000002
#
# number of rings (size 3 to 8) (size 9 to 14) (size 15 to 20)
#    0.000    1.000    7.500    2.625    0.000    2.500 
#    4.500    1.875    0.000    0.000    0.000    0.000 
#    0.000    0.000    0.000    0.000    0.000    0.000 
#
# Total GULP energy -89141.243657 kJ/mol
# GULP energy per Si atom -5571.327729 kJ/mol
# Density = 2.271630 g / cm^3
# Si number density = 22.768122 Si / 1000 Ang^3
#
#
#
# Elastic Constant Matrix: (Units=GPa)
#
#
# Indices 1 2 3 4 5 6 
#
# 1 54.9555 16.4926 35.2553 -15.8505 6.5715 -15.2955
# 2 16.4926 104.5590 19.0628 -11.1971 9.7083 -25.3720
# 3 35.2553 19.0628 68.0648 -22.6496 19.1259 -7.1082
# 4 -15.8505 -11.1971 -22.6496 33.5293 -16.2855 9.3341
# 5 6.5715 9.7083 19.1259 -16.2855 39.3202 -1.0189
# 6 -15.2955 -25.3720 -7.1082 9.3341 -1.0189 26.7930
#
#
#
# Elastic Compliance Matrix: (Units=1/GPa)
#
#
# Indices 1 2 3 4 5 6 
#
# 1 0.032282 0.001296 -0.015597 0.002702 0.003371 0.014706
# 2 0.001296 0.013038 -0.002877 -0.001723 -0.002417 0.012831
# 3 -0.015597 -0.002877 0.027712 0.009419 -0.006464 -0.007803
# 4 0.002702 -0.001723 0.009419 0.047945 0.014894 -0.013727
# 5 0.003371 -0.002417 -0.006464 0.014894 0.034624 -0.005951
# 6 0.014706 0.012831 -0.007803 -0.013727 -0.005951 0.060355
#
#
# Mechanical properties :
#
#
# Convention : Reuss Voigt Hill
#
# Bulk Modulus (GPa) = 25.85512 41.02229 33.43871
# Shear Modulus (GPa) = 18.99678 30.37973 24.68825
#
# Velocity S-wave (km/s) = 2.89166 3.65678 3.29650
# Velocity P-wave (km/s) = 4.74652 5.99049 5.40441
#
# Compressibility (1/GPa) = 0.03867705
#
# Stress axis : x y z
#
# Youngs Moduli (GPa) = 30.97658 76.70161 36.08570
#
# Poissons Ratio (x) = -0.09943 0.56282
# Poissons Ratio (y) = -0.04016 0.10381
# Poissons Ratio (z) = 0.48314 0.22066
#
# Static dielectric constant tensor:
#      x y z
#    x 1.885300 0.012840 0.023190 
#    y 0.012840 1.895690 -0.071720 
#    z 0.023190 -0.071720 1.958890 
# 
# From -- ./inp_files/226463.got.cif
#   From: 2010.05.17/outbox.cif.g08.bks.cpg/sg2_114_cif.got.tgz:226463.got - 2010.06.03 11:33:40.
