data_PCOD9050081
_publ_section_title
;
Structure prediction by ZEFSAII (Michael W. Deem and Ramdas Pophale) SiO2 
 PCOD9050081
Probable space group: P -1
;
_chemical_formula_sum "Si O2"
_cell_formula_units_Z 12
_cell_length_a 14.789274
_cell_length_b 12.383501
_cell_length_c 8.760322
_cell_angle_alpha 141.977846
_cell_angle_beta 49.030488
_cell_angle_gamma 148.985302
_cell_volume 508.242932
_symmetry_space_group_name_H-M "P -1"
_symmetry_group_IT_number 2
_symmetry_cell_setting 'triclinic'
loop_
_space_group_symop_operation_xyz
x,y,z
-x,-y,-z
loop_
_atom_site_type_symbol
_atom_site_label
_atom_site_fract_x
_atom_site_fract_y
_atom_site_fract_z
Si Si1 0.518591 0.761783 0.410616
Si Si2 0.991996 0.925866 0.100690
Si Si3 0.603357 0.442244 0.006605
Si Si4 0.719799 0.906965 0.825857
Si Si5 0.801969 0.618662 0.424659
Si Si6 0.305084 0.832161 0.095023
O O1 0.469915 0.732808 0.257018
O O2 0.339297 0.576728 0.503271
O O3 0.657596 0.044778 0.644372
O O4 0.584441 0.632219 0.212206
O O5 0.809307 0.635239 0.007227
O O6 0.153194 0.976699 0.037151
O O7 0.023370 0.128402 0.401241
O O8 0.000000 0.000000 0.000000
O O9 0.474220 0.259510 0.083742
O O10 0.729772 0.720081 0.540620
O O11 0.769263 0.099844 0.860554
O O12 0.807951 0.462972 0.132431
O O13 0.500000 0.000000 0.000000
#
# Coordination Sequence:
#
# PCOD9050081 Si02
#       6
#     2   2   2   2   2   2
#     4   9  17  32  59  84 115 152 197 235 290 351
#     4  10  17  35  64  86 121 155 190 248 294 349
#     4  10  17  34  61  92 109 153 204 238 293 348
#     4   9  21  37  65  87 112 160 196 242 296 343
#     4   8  18  34  58  86 113 154 194 231 296 345
#     4  10  20  38  63  85 118 162 195 237 300 356
#
# _framework density 23.610755999999999
#
# number of rings (size 3 to 8) (size 9 to 14) (size 15 to 20)
#    1.000    1.667    1.667    1.000    0.000    6.000 
#    0.000    5.833   11.000    2.000    0.000    0.000 
#    0.000    0.000    0.000    0.000    0.000    0.000 
#
# Total GULP energy -67052.931578 kJ/mol
# GULP energy per Si atom -5587.744298 kJ/mol
# Density = 2.355702 g / cm^3
# Si number density = 23.610756 Si / 1000 Ang^3
#
#
#
# Elastic Constant Matrix: (Units=GPa)
#
#
# Indices 1 2 3 4 5 6 
#
# 1 106.8571 53.4075 61.9903 13.3241 23.0344 -5.5415
# 2 53.4075 78.1484 28.0988 -6.7715 10.2044 9.8415
# 3 61.9903 28.0988 154.4790 21.9631 19.1409 -14.3571
# 4 13.3241 -6.7715 21.9631 21.0349 5.2203 0.1439
# 5 23.0344 10.2044 19.1409 5.2203 26.8458 9.1179
# 6 -5.5415 9.8415 -14.3571 0.1439 9.1179 32.6783
#
#
#
# Elastic Compliance Matrix: (Units=1/GPa)
#
#
# Indices 1 2 3 4 5 6 
#
# 1 0.024981 -0.017709 -0.001374 -0.016454 -0.015017 0.013228
# 2 -0.017709 0.029260 -0.003901 0.022889 0.007769 -0.015797
# 3 -0.001374 -0.003901 0.010469 -0.010065 -0.005240 0.007048
# 4 -0.016454 0.022889 -0.010065 0.075154 0.003184 -0.015325
# 5 -0.015017 0.007769 -0.005240 0.003184 0.058266 -0.023459
# 6 0.013228 -0.015797 0.007048 -0.015325 -0.023459 0.047311
#
#
# Mechanical properties :
#
#
# Convention : Reuss Voigt Hill
#
# Bulk Modulus (GPa) = 53.35488 69.60862 61.48175
# Shear Modulus (GPa) = 16.79788 29.17768 22.98778
#
# Velocity S-wave (km/s) = 2.67020 3.51918 3.12367
# Velocity P-wave (km/s) = 5.67039 6.78665 6.25348
#
# Compressibility (1/GPa) = 0.01874243
#
# Stress axis : x y z
#
# Youngs Moduli (GPa) = 40.03026 34.17689 95.51606
#
# Poissons Ratio (x) = 0.60524 0.13124
# Poissons Ratio (y) = 0.70890 0.37259
# Poissons Ratio (z) = 0.05500 0.13332
#
# Static dielectric constant tensor:
#      x y z
#    x 1.918200 0.019520 -0.007890 
#    y 0.019520 1.866140 0.011770 
#    z -0.007890 0.011770 1.919690 
# 
# From -- ./inp_files/334545.got.cif
#   From: 2010.05.17/outbox.cif.g08.bks.cpg/sg2_168_cif.got.tgz:334545.got - 2010.06.03 11:33:40.
