data_PCOD9050876
_publ_section_title
;
Structure prediction by ZEFSAII (Michael W. Deem and Ramdas Pophale) SiO2 
 PCOD9050876
Probable space group: P -1
;
_chemical_formula_sum "Si O2"
_cell_formula_units_Z 14
_cell_length_a 10.918567
_cell_length_b 5.272274
_cell_length_c 13.952772
_cell_angle_alpha 121.486476
_cell_angle_beta 57.189824
_cell_angle_gamma 95.311536
_cell_volume 554.978483
_symmetry_space_group_name_H-M "P -1"
_symmetry_group_IT_number 2
_symmetry_cell_setting 'triclinic'
loop_
_space_group_symop_operation_xyz
x,y,z
-x,-y,-z
loop_
_atom_site_type_symbol
_atom_site_label
_atom_site_fract_x
_atom_site_fract_y
_atom_site_fract_z
Si Si1 0.647773 0.951268 0.727957
Si Si2 0.634467 0.738998 0.193435
Si Si3 0.075633 0.087032 0.279525
Si Si4 0.924152 0.220751 0.987316
Si Si5 0.724464 0.289808 0.325115
Si Si6 0.571195 0.349265 0.587946
Si Si7 0.897871 0.725783 0.415011
O O1 0.749137 0.007436 0.783236
O O2 0.615984 0.614721 0.682477
O O3 0.763435 0.909836 0.578416
O O4 0.483639 0.194400 0.831518
O O5 0.508721 0.850078 0.352360
O O6 0.739791 0.971635 0.200407
O O7 0.743295 0.401945 0.102940
O O8 0.054483 0.962801 0.158143
O O9 0.011844 0.456563 0.374303
O O10 0.986903 0.934997 0.364428
O O11 0.000000 0.500000 0.000000
O O12 0.000000 0.000000 0.000000
O O13 0.705892 0.216698 0.431250
O O14 0.568387 0.480803 0.384517
O O15 0.828148 0.525928 0.328914
#
# Coordination Sequence:
#
# PCOD9050876 Si02
#       7
#     2   2   2   2   2   2   2
#     4  10  25  44  70 111 142 186 237 288 361 424
#     4  11  24  42  73  98 145 183 238 299 345 418
#     4  12  27  47  73 103 147 197 232 289 353 424
#     4  12  30  52  72 102 139 188 246 293 352 422
#     4   9  20  37  63 106 137 180 230 285 364 405
#     4   9  20  37  64 102 141 177 224 296 352 419
#     4  11  25  43  74 109 148 187 231 295 353 429
#
# _framework density 25.226205
#
# number of rings (size 3 to 8) (size 9 to 14) (size 15 to 20)
#    0.000    1.429    0.000    3.857   16.000    0.571 
#    0.000    0.714    0.000    0.000    0.000    0.000 
#    0.000    0.000    0.000    0.000    0.000    0.000 
#
# Total GULP energy -78222.603602 kJ/mol
# GULP energy per Si atom -5587.328829 kJ/mol
# Density = 2.516879 g / cm^3
# Si number density = 25.226205 Si / 1000 Ang^3
#
#
#
# Elastic Constant Matrix: (Units=GPa)
#
#
# Indices 1 2 3 4 5 6 
#
# 1 158.8972 66.4532 29.7434 6.8050 -17.0717 -2.3350
# 2 66.4532 148.0517 50.4997 1.9751 -22.3271 -20.8389
# 3 29.7434 50.4997 91.4848 10.4602 -11.8692 -15.2347
# 4 6.8050 1.9751 10.4602 51.1996 -5.8776 -17.2897
# 5 -17.0717 -22.3271 -11.8692 -5.8776 32.1186 -2.6753
# 6 -2.3350 -20.8389 -15.2347 -17.2897 -2.6753 29.0916
#
#
#
# Elastic Compliance Matrix: (Units=1/GPa)
#
#
# Indices 1 2 3 4 5 6 
#
# 1 0.008111 -0.003687 -0.000864 -0.001835 0.000805 -0.003459
# 2 -0.003687 0.011939 -0.003401 0.004885 0.006810 0.010005
# 3 -0.000864 -0.003401 0.014330 -0.000744 0.002737 0.004809
# 4 -0.001835 0.004885 -0.000744 0.027565 0.008869 0.020160
# 5 0.000805 0.006810 0.002737 0.008869 0.040209 0.015345
# 6 -0.003459 0.010005 0.004809 0.020160 0.015345 0.057174
#
#
# Mechanical properties :
#
#
# Convention : Reuss Voigt Hill
#
# Bulk Modulus (GPa) = 54.11950 76.86959 65.49455
# Shear Modulus (GPa) = 27.56483 39.26448 33.41465
#
# Velocity S-wave (km/s) = 3.30920 3.94952 3.64345
# Velocity P-wave (km/s) = 6.00844 7.16496 6.61203
#
# Compressibility (1/GPa) = 0.01847763
#
# Stress axis : x y z
#
# Youngs Moduli (GPa) = 123.28447 83.75569 69.78582
#
# Poissons Ratio (x) = 0.30882 0.06026
# Poissons Ratio (y) = 0.45457 0.23732
# Poissons Ratio (z) = 0.10646 0.28482
#
# Static dielectric constant tensor:
#      x y z
#    x 2.039960 -0.066750 0.001120 
#    y -0.066750 2.011090 0.036140 
#    z 0.001120 0.036140 2.151970 
# 
# From -- ./inp_files/75489.got.cif
#   From: 2010.05.17/outbox.cif.g08.bks.cpg/sg2_38_cif.got.tgz:75489.got - 2010.06.03 11:33:40.
