data_PCOD9050914
_publ_section_title
;
Structure prediction by ZEFSAII (Michael W. Deem and Ramdas Pophale) SiO2 
 PCOD9050914
Probable space group: P -1
;
_chemical_formula_sum "Si O2"
_cell_formula_units_Z 14
_cell_length_a 9.512111
_cell_length_b 15.901852
_cell_length_c 9.249943
_cell_angle_alpha 65.324578
_cell_angle_beta 51.421505
_cell_angle_gamma 35.741794
_cell_volume 626.761299
_symmetry_space_group_name_H-M "P -1"
_symmetry_group_IT_number 2
_symmetry_cell_setting 'triclinic'
loop_
_space_group_symop_operation_xyz
x,y,z
-x,-y,-z
loop_
_atom_site_type_symbol
_atom_site_label
_atom_site_fract_x
_atom_site_fract_y
_atom_site_fract_z
Si Si1 0.179835 0.595077 0.108425
Si Si2 0.592990 0.218274 0.554498
Si Si3 0.606101 0.666013 0.702970
Si Si4 0.982773 0.147819 0.890971
Si Si5 0.379843 0.161129 0.254953
Si Si6 0.944075 0.900731 0.450860
Si Si7 0.873277 0.650944 0.007568
O O1 0.176509 0.495529 0.254176
O O2 0.987805 0.752836 0.183472
O O3 0.109843 0.613639 0.971050
O O4 0.500000 0.500000 0.000000
O O5 0.432638 0.330413 0.444912
O O6 0.379546 0.261591 0.777821
O O7 0.807865 0.198777 0.517112
O O8 0.766009 0.064211 0.482572
O O9 0.683700 0.738013 0.652760
O O10 0.292730 0.772208 0.898451
O O11 0.935896 0.142017 0.757679
O O12 0.278007 0.985545 0.870246
O O13 0.249037 0.113317 0.406756
O O14 0.244776 0.253362 0.127751
O O15 0.000000 0.500000 0.000000
#
# Coordination Sequence:
#
# PCOD9050914 Si02
#       7
#     2   2   2   2   2   2   2
#     4  10  25  44  72 100 142 183 237 282 349 420
#     4  11  27  45  70 106 146 181 239 289 354 414
#     4  11  24  46  72 104 142 194 229 288 353 421
#     4  11  24  45  75 103 145 187 236 284 356 419
#     4  12  25  43  76 103 139 186 239 285 356 408
#     4  11  26  44  70 110 143 179 235 302 342 418
#     4  12  27  48  70 104 144 188 231 293 354 417
#
# _framework density 22.337052
#
# number of rings (size 3 to 8) (size 9 to 14) (size 15 to 20)
#    0.000    0.857    2.857    2.571   12.000    2.857 
#    0.000    1.429    0.000    0.000    0.000    0.000 
#    0.000    0.000    0.000    0.000    0.000    0.000 
#
# Total GULP energy -78398.745568 kJ/mol
# GULP energy per Si atom -5599.910398 kJ/mol
# Density = 2.228621 g / cm^3
# Si number density = 22.337052 Si / 1000 Ang^3
#
#
#
# Elastic Constant Matrix: (Units=GPa)
#
#
# Indices 1 2 3 4 5 6 
#
# 1 147.3659 38.5706 24.1329 -3.4885 18.7075 -5.4547
# 2 38.5706 106.2512 -6.5996 -4.6432 12.8793 -6.4382
# 3 24.1329 -6.5996 72.8872 -5.9734 4.5763 -13.2638
# 4 -3.4885 -4.6432 -5.9734 29.9527 -2.6708 9.4706
# 5 18.7075 12.8793 4.5763 -2.6708 39.2570 -11.8994
# 6 -5.4547 -6.4382 -13.2638 9.4706 -11.8994 41.4538
#
#
#
# Elastic Compliance Matrix: (Units=1/GPa)
#
#
# Indices 1 2 3 4 5 6 
#
# 1 0.008403 -0.002945 -0.003077 0.000021 -0.003046 -0.001216
# 2 -0.002945 0.011008 0.002427 0.001280 -0.002033 0.001223
# 3 -0.003077 0.002427 0.015947 0.001717 0.000380 0.004791
# 4 0.000021 0.001280 0.001717 0.036316 -0.000489 -0.007686
# 5 -0.003046 -0.002033 0.000380 -0.000489 0.029976 0.008121
# 6 -0.001216 0.001223 0.004791 -0.007686 0.008121 0.029774
#
#
# Mechanical properties :
#
#
# Convention : Reuss Voigt Hill
#
# Bulk Modulus (GPa) = 35.50178 48.74578 42.12378
# Shear Modulus (GPa) = 33.78317 40.15940 36.97129
#
# Velocity S-wave (km/s) = 3.89321 4.24474 4.07277
# Velocity P-wave (km/s) = 6.01146 6.77451 6.40436
#
# Compressibility (1/GPa) = 0.02816761
#
# Stress axis : x y z
#
# Youngs Moduli (GPa) = 119.00898 90.84387 62.70726
#
# Poissons Ratio (x) = 0.26752 0.19295
# Poissons Ratio (y) = 0.35047 -0.15218
# Poissons Ratio (z) = 0.36619 -0.22046
#
# Static dielectric constant tensor:
#      x y z
#    x 1.841890 0.001710 -0.039590 
#    y 0.001710 1.827540 0.003050 
#    z -0.039590 0.003050 1.805600 
# 
# From -- ./inp_files/179854.got.cif
#   From: 2010.05.17/outbox.cif.g08.bks.cpg/sg2_90_cif.got.tgz:179854.got - 2010.06.03 11:33:40.
