data_PCOD9050270
_publ_section_title
;
Structure prediction by ZEFSAII (Michael W. Deem and Ramdas Pophale) SiO2 
 PCOD9050270
Probable space group: P -1
;
_chemical_formula_sum "Si O2"
_cell_formula_units_Z 14
_cell_length_a 20.164643
_cell_length_b 5.211548
_cell_length_c 6.115407
_cell_angle_alpha 98.113724
_cell_angle_beta 90.861089
_cell_angle_gamma 61.935039
_cell_volume 560.446141
_symmetry_space_group_name_H-M "P -1"
_symmetry_group_IT_number 2
_symmetry_cell_setting 'triclinic'
loop_
_space_group_symop_operation_xyz
x,y,z
-x,-y,-z
loop_
_atom_site_type_symbol
_atom_site_label
_atom_site_fract_x
_atom_site_fract_y
_atom_site_fract_z
Si Si1 0.714462 0.685937 0.738098
Si Si2 0.543243 0.102284 0.859433
Si Si3 0.089608 0.565318 0.595474
Si Si4 0.267303 0.890566 0.554133
Si Si5 0.802513 0.300299 0.088541
Si Si6 0.920460 0.958455 0.689032
Si Si7 0.564513 0.426270 0.315432
O O1 0.740763 0.368774 0.597206
O O2 0.742584 0.581305 0.976750
O O3 0.623943 0.868758 0.746933
O O4 0.745231 0.863733 0.606156
O O5 0.472268 0.235233 0.705376
O O6 0.564787 0.294635 0.056818
O O7 0.500000 0.000000 0.000000
O O8 0.100020 0.244998 0.495853
O O9 0.007738 0.747443 0.725894
O O10 0.084950 0.757025 0.403138
O O11 0.153165 0.571548 0.748670
O O12 0.354983 0.761633 0.602573
O O13 0.229925 0.874317 0.784905
O O14 0.865114 0.066450 0.902368
O O15 0.500000 0.500000 0.500000
#
# Coordination Sequence:
#
# PCOD9050270 Si02
#       7
#     2   2   2   2   2   2   2
#     4  12  30  49  72 112 159 195 264 312 382 473
#     4  11  25  44  75 105 136 198 257 320 380 456
#     4  10  24  49  80 116 150 203 257 318 379 456
#     4  12  30  49  73 113 152 210 253 320 386 464
#     4  12  28  49  79 113 164 209 250 319 403 452
#     4  10  24  49  80 115 153 195 268 313 372 471
#     4  11  24  46  74  99 142 192 257 317 377 435
#
# _framework density 24.980098000000002
#
# number of rings (size 3 to 8) (size 9 to 14) (size 15 to 20)
#    0.000    0.857    1.429    3.000    8.000    9.143 
#    0.000    4.286    0.000    2.571    0.000    0.000 
#    0.000    0.000    0.000    0.000    0.000    0.000 
#
# Total GULP energy -78015.279825 kJ/mol
# GULP energy per Si atom -5572.519988 kJ/mol
# Density = 2.492324 g / cm^3
# Si number density = 24.980098 Si / 1000 Ang^3
#
#
#
# Elastic Constant Matrix: (Units=GPa)
#
#
# Indices 1 2 3 4 5 6 
#
# 1 117.5263 35.3847 14.6767 -7.5201 -30.1832 -3.5797
# 2 35.3847 121.7786 33.3232 -14.5335 -19.1147 27.2398
# 3 14.6767 33.3232 55.1738 0.3441 -24.3486 -0.3385
# 4 -7.5201 -14.5335 0.3441 54.0849 -0.4773 -4.9071
# 5 -30.1832 -19.1147 -24.3486 -0.4773 62.0038 -3.5160
# 6 -3.5797 27.2398 -0.3385 -4.9071 -3.5160 42.5679
#
#
#
# Elastic Compliance Matrix: (Units=1/GPa)
#
#
# Indices 1 2 3 4 5 6 
#
# 1 0.010821 -0.003457 0.001421 0.000942 0.004974 0.003653
# 2 -0.003457 0.013396 -0.007706 0.002366 -0.001056 -0.008739
# 3 0.001421 -0.007706 0.026422 -0.001432 0.009012 0.005840
# 4 0.000942 0.002366 -0.001432 0.019350 0.000823 0.000852
# 5 0.004974 -0.001056 0.009012 0.000823 0.021944 0.003073
# 6 0.003653 -0.008739 0.005840 0.000852 0.003073 0.029790
#
#
# Mechanical properties :
#
#
# Convention : Reuss Voigt Hill
#
# Bulk Modulus (GPa) = 32.09601 51.24977 41.67289
# Shear Modulus (GPa) = 32.98340 45.80426 39.39383
#
# Velocity S-wave (km/s) = 3.63766 4.28674 3.97547
# Velocity P-wave (km/s) = 5.52448 6.71284 6.14745
#
# Compressibility (1/GPa) = 0.03115652
#
# Stress axis : x y z
#
# Youngs Moduli (GPa) = 92.41140 74.64946 37.84655
#
# Poissons Ratio (x) = 0.25807 -0.05379
# Poissons Ratio (y) = 0.31947 0.29163
# Poissons Ratio (z) = -0.13134 0.57523
#
# Static dielectric constant tensor:
#      x y z
#    x 1.974010 -0.061870 0.034920 
#    y -0.061870 2.079520 0.058470 
#    z 0.034920 0.058470 1.930600 
# 
# From -- ./inp_files/114889.got.cif
#   From: 2010.05.17/outbox.cif.g08.bks.cpg/sg2_58_cif.got.tgz:114889.got - 2010.06.03 11:33:40.
