data_PCOD9050726
_publ_section_title
;
Structure prediction by ZEFSAII (Michael W. Deem and Ramdas Pophale) SiO2 
 PCOD9050726
Probable space group: P -1
;
_chemical_formula_sum "Si O2"
_cell_formula_units_Z 16
_cell_length_a 9.002114
_cell_length_b 25.757161
_cell_length_c 16.216627
_cell_angle_alpha 24.102136
_cell_angle_beta 140.131700
_cell_angle_gamma 152.814869
_cell_volume 681.306800
_symmetry_space_group_name_H-M "P -1"
_symmetry_group_IT_number 2
_symmetry_cell_setting 'triclinic'
loop_
_space_group_symop_operation_xyz
x,y,z
-x,-y,-z
loop_
_atom_site_type_symbol
_atom_site_label
_atom_site_fract_x
_atom_site_fract_y
_atom_site_fract_z
Si Si1 0.795393 0.364467 0.244584
Si Si2 0.492098 0.521774 0.368654
Si Si3 0.362372 0.378508 0.944824
Si Si4 0.233317 0.118872 0.004192
Si Si5 0.611179 0.364673 0.520238
Si Si6 0.699443 0.031741 0.457186
Si Si7 0.022400 0.675303 0.985714
Si Si8 0.029712 0.980400 0.793997
O O1 0.671284 0.404995 0.057054
O O2 0.551584 0.147187 0.449887
O O3 0.173962 0.463154 0.272948
O O4 0.784264 0.460838 0.175134
O O5 0.500000 0.500000 0.500000
O O6 0.510163 0.393843 0.519058
O O7 0.784792 0.742388 0.174548
O O8 0.146988 0.312873 0.031161
O O9 0.460089 0.554410 0.695813
O O10 0.123760 0.214845 0.014335
O O11 0.607619 0.231523 0.972084
O O12 0.146297 0.023985 0.193876
O O13 0.000000 0.000000 0.000000
O O14 0.417329 0.157732 0.720973
O O15 0.000000 0.500000 0.500000
O O16 0.500000 0.000000 0.500000
O O17 0.901070 0.213973 0.225116
O O18 0.951531 0.031092 0.605680
#
# Coordination Sequence:
#
# PCOD9050726 Si02
#       8
#     2   2   2   2   2   2   2   2
#     4  10  25  43  74  98 143 183 238 280 357 407
#     4  11  25  46  69 103 140 184 239 289 340 424
#     4  11  26  48  69 106 144 185 232 293 358 416
#     4  11  24  43  71 100 139 189 237 284 350 417
#     4  12  28  45  71 103 141 183 232 289 358 415
#     4  11  22  41  70 104 136 179 236 288 348 408
#     4  11  25  43  69 105 142 182 231 293 348 417
#     4  11  24  46  69  99 139 185 235 287 347 420
#
# _framework density 23.484279000000001
#
# number of rings (size 3 to 8) (size 9 to 14) (size 15 to 20)
#    0.000    1.000    2.500    2.625    7.000    5.500 
#    0.000    0.000    0.000    0.000    0.000    0.000 
#    0.000    0.000    0.000    0.000    0.000    0.000 
#
# Total GULP energy -89252.883854 kJ/mol
# GULP energy per Si atom -5578.305241 kJ/mol
# Density = 2.343083 g / cm^3
# Si number density = 23.484279 Si / 1000 Ang^3
#
#
#
# Elastic Constant Matrix: (Units=GPa)
#
#
# Indices 1 2 3 4 5 6 
#
# 1 111.7073 45.5674 21.8627 -8.5841 -8.0561 -28.3416
# 2 45.5674 146.3804 18.1942 -27.9809 6.3097 -25.7061
# 3 21.8627 18.1942 61.1131 -6.1739 3.2421 -27.1556
# 4 -8.5841 -27.9809 -6.1739 47.9100 -14.0017 9.5840
# 5 -8.0561 6.3097 3.2421 -14.0017 31.4252 -0.0303
# 6 -28.3416 -25.7061 -27.1556 9.5840 -0.0303 31.0012
#
#
#
# Elastic Compliance Matrix: (Units=1/GPa)
#
#
# Indices 1 2 3 4 5 6 
#
# 1 0.012634 -0.002399 0.000406 0.000010 0.003693 0.009918
# 2 -0.002399 0.009089 0.000710 0.003767 -0.000830 0.004799
# 3 0.000406 0.000710 0.027368 -0.002230 -0.003831 0.025619
# 4 0.000010 0.003767 -0.002230 0.027717 0.011819 -0.007378
# 5 0.003693 -0.000830 -0.003831 0.011819 0.038592 -0.004284
# 6 0.009918 0.004799 0.025619 -0.007378 -0.004284 0.070021
#
#
# Mechanical properties :
#
#
# Convention : Reuss Voigt Hill
#
# Bulk Modulus (GPa) = 21.49380 54.49437 37.99408
# Shear Modulus (GPa) = 24.57060 37.63906 31.10483
#
# Velocity S-wave (km/s) = 3.23810 4.00776 3.64331
# Velocity P-wave (km/s) = 4.81172 6.68365 5.82339
#
# Compressibility (1/GPa) = 0.04652504
#
# Stress axis : x y z
#
# Youngs Moduli (GPa) = 79.14900 110.02518 36.53889
#
# Poissons Ratio (x) = 0.26396 -0.01485
# Poissons Ratio (y) = 0.18989 -0.02593
# Poissons Ratio (z) = -0.03217 -0.07807
#
# Static dielectric constant tensor:
#      x y z
#    x 1.901520 0.021180 -0.005520 
#    y 0.021180 1.916570 0.027480 
#    z -0.005520 0.027480 2.114550 
# 
# From -- ./inp_files/508727.got.cif
#   From: 2010.05.17/outbox.cif.g08.bks.cpg/sg2_255_cif.got.tgz:508727.got - 2010.06.03 11:33:40.
