data_PCOD9050718
_publ_section_title
;
Structure prediction by ZEFSAII (Michael W. Deem and Ramdas Pophale) SiO2 
 PCOD9050718
Probable space group: P -1
;
_chemical_formula_sum "Si O2"
_cell_formula_units_Z 14
_cell_length_a 8.683290
_cell_length_b 9.647441
_cell_length_c 9.226134
_cell_angle_alpha 127.072377
_cell_angle_beta 77.266442
_cell_angle_gamma 98.688240
_cell_volume 601.336434
_symmetry_space_group_name_H-M "P -1"
_symmetry_group_IT_number 2
_symmetry_cell_setting 'triclinic'
loop_
_space_group_symop_operation_xyz
x,y,z
-x,-y,-z
loop_
_atom_site_type_symbol
_atom_site_label
_atom_site_fract_x
_atom_site_fract_y
_atom_site_fract_z
Si Si1 0.813742 0.978328 0.540617
Si Si2 0.855674 0.366309 0.128738
Si Si3 0.317842 0.003736 0.099841
Si Si4 0.791817 0.684386 0.866403
Si Si5 0.696835 0.653051 0.172522
Si Si6 0.334767 0.567747 0.515807
Si Si7 0.408298 0.816635 0.440185
O O1 0.776843 0.820201 0.338720
O O2 0.724634 0.941237 0.689435
O O3 0.743761 0.158751 0.610530
O O4 0.000000 0.000000 0.500000
O O5 0.801578 0.490455 0.088702
O O6 0.786206 0.451788 0.340941
O O7 0.038249 0.338178 0.107803
O O8 0.761473 0.185831 0.014396
O O9 0.225041 0.135456 0.100202
O O10 0.500000 0.000000 0.000000
O O11 0.740510 0.539314 0.669384
O O12 0.676355 0.680984 0.025001
O O13 0.521568 0.659817 0.278610
O O14 0.500000 0.500000 0.500000
O O15 0.357991 0.767767 0.582606
O O16 0.500000 0.000000 0.500000
#
# Coordination Sequence:
#
# PCOD9050718 Si02
#       7
#     2   2   2   2   2   2   2
#     4  11  26  46  77 108 147 194 247 303 366 435
#     4  12  27  46  73 105 151 186 246 304 366 436
#     4  12  28  47  74 109 148 196 249 299 368 441
#     4  12  28  46  74 106 147 192 244 304 375 428
#     4  11  25  48  72 105 148 191 241 299 365 441
#     4  12  26  47  74 105 143 190 245 305 361 440
#     4  10  25  43  73  99 143 186 242 290 370 423
#
# _framework density 23.281476999999999
#
# number of rings (size 3 to 8) (size 9 to 14) (size 15 to 20)
#    0.000    0.571    1.429    4.714   16.000    0.571 
#    0.000    0.000    0.000    0.000    0.000    0.000 
#    0.000    0.000    0.000    0.000    0.000    0.000 
#
# Total GULP energy -78244.644727 kJ/mol
# GULP energy per Si atom -5588.903195 kJ/mol
# Density = 2.322849 g / cm^3
# Si number density = 23.281477 Si / 1000 Ang^3
#
#
#
# Elastic Constant Matrix: (Units=GPa)
#
#
# Indices 1 2 3 4 5 6 
#
# 1 123.4103 24.1071 -9.1206 12.2448 -8.3426 -13.6415
# 2 24.1071 134.6621 14.5072 -8.4346 14.0504 -33.1349
# 3 -9.1206 14.5072 100.0032 -5.0938 23.3823 10.6647
# 4 12.2448 -8.4346 -5.0938 47.4714 7.2263 5.2372
# 5 -8.3426 14.0504 23.3823 7.2263 31.9503 2.3004
# 6 -13.6415 -33.1349 10.6647 5.2372 2.3004 47.1518
#
#
#
# Elastic Compliance Matrix: (Units=1/GPa)
#
#
# Indices 1 2 3 4 5 6 
#
# 1 0.009261 -0.001895 -0.000181 -0.003539 0.004071 0.001583
# 2 -0.001895 0.010267 -0.001062 0.002233 -0.005236 0.006914
# 3 -0.000181 -0.001062 0.012886 0.003076 -0.009448 -0.003594
# 4 -0.003539 0.002233 0.003076 0.024417 -0.009507 -0.002398
# 5 0.004071 -0.005236 -0.009448 -0.009507 0.043833 -0.001447
# 6 0.001583 0.006914 -0.003594 -0.002398 -0.001447 0.027675
#
#
# Mechanical properties :
#
#
# Convention : Reuss Voigt Hill
#
# Bulk Modulus (GPa) = 38.25863 46.34033 42.29948
# Shear Modulus (GPa) = 34.88497 47.22017 41.05257
#
# Velocity S-wave (km/s) = 3.87512 4.50847 4.20374
# Velocity P-wave (km/s) = 6.04076 6.85925 6.46298
#
# Compressibility (1/GPa) = 0.02613789
#
# Stress axis : x y z
#
# Youngs Moduli (GPa) = 107.97682 97.39776 77.60296
#
# Poissons Ratio (x) = 0.18460 0.01407
# Poissons Ratio (y) = 0.20465 0.08239
# Poissons Ratio (z) = 0.01958 0.10340
#
# Static dielectric constant tensor:
#      x y z
#    x 1.976990 0.013150 -0.010440 
#    y 0.013150 1.869210 0.023150 
#    z -0.010440 0.023150 1.936170 
# 
# From -- ./inp_files/160104.got.cif
#   From: 2010.05.17/outbox.cif.g08.bks.cpg/sg2_81_cif.got.tgz:160104.got - 2010.06.03 11:33:40.
