data_PCOD9050721
_publ_section_title
;
Structure prediction by ZEFSAII (Michael W. Deem and Ramdas Pophale) SiO2 
 PCOD9050721
Probable space group: P -1
;
_chemical_formula_sum "Si O2"
_cell_formula_units_Z 16
_cell_length_a 12.287851
_cell_length_b 17.347512
_cell_length_c 10.016725
_cell_angle_alpha 31.757126
_cell_angle_beta 133.536578
_cell_angle_gamma 145.440643
_cell_volume 637.018602
_symmetry_space_group_name_H-M "P -1"
_symmetry_group_IT_number 2
_symmetry_cell_setting 'triclinic'
loop_
_space_group_symop_operation_xyz
x,y,z
-x,-y,-z
loop_
_atom_site_type_symbol
_atom_site_label
_atom_site_fract_x
_atom_site_fract_y
_atom_site_fract_z
Si Si1 0.033156 0.942018 0.809555
Si Si2 0.163815 0.388240 0.055169
Si Si3 0.179397 0.339968 0.415520
Si Si4 0.185239 0.658403 0.037448
Si Si5 0.955254 0.805059 0.229063
Si Si6 0.463935 0.150226 0.764659
Si Si7 0.318011 0.958824 0.479956
Si Si8 0.490554 0.671613 0.746864
O O1 0.035773 0.118055 0.582335
O O2 0.255612 0.047276 0.806565
O O3 0.030954 0.645993 0.018493
O O4 0.960976 0.797834 0.085643
O O5 0.286473 0.424848 0.239290
O O6 0.099998 0.196183 0.218105
O O7 0.500000 0.500000 0.000000
O O8 0.282432 0.562051 0.800416
O O9 0.109520 0.463851 0.191606
O O10 0.224075 0.327544 0.625776
O O11 0.274537 0.829936 0.759388
O O12 0.364324 0.704043 0.206352
O O13 0.140350 0.842102 0.398572
O O14 0.000000 0.000000 0.000000
O O15 0.485475 0.243904 0.502959
O O16 0.500000 0.000000 0.000000
O O17 0.369050 0.153151 0.292275
O O18 0.500000 0.000000 0.500000
#
# Coordination Sequence:
#
# PCOD9050721 Si02
#       8
#     2   2   2   2   2   2   2   2
#     4  11  25  46  75 104 145 197 243 301 370 442
#     4  12  25  45  73 108 144 193 246 302 367 441
#     4  11  25  44  73 108 142 189 248 302 363 446
#     4  12  26  45  76 106 148 195 243 308 369 447
#     4  10  25  43  74 107 146 190 248 303 376 438
#     4  12  25  49  72 108 152 194 243 306 376 437
#     4  12  25  46  74 106 150 194 246 307 377 444
#     4  12  30  46  74 109 147 192 251 305 373 443
#
# _framework density 25.117006
#
# number of rings (size 3 to 8) (size 9 to 14) (size 15 to 20)
#    0.000    0.500    3.750    3.000    7.000    2.000 
#    0.000    0.000    0.000    0.000    0.000    0.000 
#    0.000    0.000    0.000    0.000    0.000    0.000 
#
# Total GULP energy -89319.458903 kJ/mol
# GULP energy per Si atom -5582.466181 kJ/mol
# Density = 2.505984 g / cm^3
# Si number density = 25.117006 Si / 1000 Ang^3
#
#
#
# Elastic Constant Matrix: (Units=GPa)
#
#
# Indices 1 2 3 4 5 6 
#
# 1 120.8891 51.0455 55.9884 -0.4235 -19.6355 -1.6866
# 2 51.0455 96.5340 39.6972 -17.9501 1.2963 -5.4665
# 3 55.9884 39.6972 152.5770 2.8172 -22.4417 -22.4256
# 4 -0.4235 -17.9501 2.8172 45.3766 -16.5405 15.5420
# 5 -19.6355 1.2963 -22.4417 -16.5405 56.2686 -8.9868
# 6 -1.6866 -5.4665 -22.4256 15.5420 -8.9868 39.1064
#
#
#
# Elastic Compliance Matrix: (Units=1/GPa)
#
#
# Indices 1 2 3 4 5 6 
#
# 1 0.012405 -0.005605 -0.002773 -0.000493 0.003057 -0.000940
# 2 -0.005605 0.015550 -0.002792 0.006484 -0.001952 -0.002695
# 3 -0.002773 -0.002792 0.009881 -0.002972 0.003297 0.007095
# 4 -0.000493 0.006484 -0.002972 0.030896 0.005692 -0.011790
# 5 0.003057 -0.001952 0.003297 0.005692 0.022620 0.004685
# 6 -0.000940 -0.002695 0.007095 -0.011790 0.004685 0.034985
#
#
# Mechanical properties :
#
#
# Convention : Reuss Voigt Hill
#
# Bulk Modulus (GPa) = 64.53488 73.71803 69.12646
# Shear Modulus (GPa) = 32.50089 43.03491 37.76790
#
# Velocity S-wave (km/s) = 3.60109 4.14379 3.88194
# Velocity P-wave (km/s) = 6.56049 7.23244 6.90464
#
# Compressibility (1/GPa) = 0.01549550
#
# Stress axis : x y z
#
# Youngs Moduli (GPa) = 80.61414 64.30774 101.20743
#
# Poissons Ratio (x) = 0.36044 0.28067
# Poissons Ratio (y) = 0.45184 0.28257
# Poissons Ratio (z) = 0.22356 0.17954
#
# Static dielectric constant tensor:
#      x y z
#    x 2.091420 0.007630 -0.062450 
#    y 0.007630 2.103340 0.076590 
#    z -0.062450 0.076590 2.029720 
# 
# From -- ./inp_files/277365.got.cif
#   From: 2010.05.17/outbox.cif.g08.bks.cpg/sg2_139_cif.got.tgz:277365.got - 2010.06.03 11:33:40.
