data_PCOD9050933
_publ_section_title
;
Structure prediction by ZEFSAII (Michael W. Deem and Ramdas Pophale) SiO2 
 PCOD9050933
Probable space group: P -1
;
_chemical_formula_sum "Si O2"
_cell_formula_units_Z 16
_cell_length_a 14.550003
_cell_length_b 5.325505
_cell_length_c 14.184147
_cell_angle_alpha 115.799245
_cell_angle_beta 45.254138
_cell_angle_gamma 103.004664
_cell_volume 697.085248
_symmetry_space_group_name_H-M "P -1"
_symmetry_group_IT_number 2
_symmetry_cell_setting 'triclinic'
loop_
_space_group_symop_operation_xyz
x,y,z
-x,-y,-z
loop_
_atom_site_type_symbol
_atom_site_label
_atom_site_fract_x
_atom_site_fract_y
_atom_site_fract_z
Si Si1 0.461739 0.405880 0.908311
Si Si2 0.981816 0.856029 0.646239
Si Si3 0.200370 0.662053 0.044682
Si Si4 0.086734 0.243464 0.946478
Si Si5 0.652559 0.040891 0.378841
Si Si6 0.378312 0.823921 0.792370
Si Si7 0.869765 0.734693 0.513575
Si Si8 0.627022 0.463599 0.623940
O O1 0.586581 0.422710 0.753758
O O2 0.422038 0.098932 0.858056
O O3 0.500000 0.500000 0.000000
O O4 0.331400 0.611074 0.004906
O O5 0.882759 0.786006 0.624150
O O6 0.040163 0.570040 0.610080
O O7 0.906381 0.095660 0.803004
O O8 0.085799 0.010814 0.536733
O O9 0.143284 0.371594 0.021552
O O10 0.249514 0.754531 0.923849
O O11 0.213344 0.163251 0.773979
O O12 0.000000 0.500000 0.000000
O O13 0.000000 0.000000 0.000000
O O14 0.638124 0.174027 0.306726
O O15 0.685197 0.202200 0.476275
O O16 0.500000 0.000000 0.500000
O O17 0.490656 0.573462 0.692493
O O18 0.725048 0.691755 0.584312
#
# Coordination Sequence:
#
# PCOD9050933 Si02
#       8
#     2   2   2   2   2   2   2   2
#     4  11  26  44  74 111 150 196 255 314 392 460
#     4  10  25  44  72  96 149 192 245 297 380 449
#     4  11  26  47  74 105 150 203 247 314 396 461
#     4  12  29  49  77 116 156 202 263 324 397 472
#     4  12  24  50  78 108 150 202 260 324 389 462
#     4  11  24  47  72 106 146 195 246 318 383 453
#     4  10  25  45  66 109 138 193 247 310 364 447
#     4  11  26  42  74 108 142 190 255 313 378 449
#
# _framework density 22.952715000000001
#
# number of rings (size 3 to 8) (size 9 to 14) (size 15 to 20)
#    0.000    1.000    2.500    1.875   10.500    3.000 
#    0.000    0.000    0.000    0.000    0.000    0.000 
#    0.000    0.000    0.000    0.000    0.000    0.000 
#
# Total GULP energy -89322.488511 kJ/mol
# GULP energy per Si atom -5582.655532 kJ/mol
# Density = 2.290047 g / cm^3
# Si number density = 22.952715 Si / 1000 Ang^3
#
#
#
# Elastic Constant Matrix: (Units=GPa)
#
#
# Indices 1 2 3 4 5 6 
#
# 1 81.0192 7.3575 43.3432 -9.1625 19.1506 6.5335
# 2 7.3575 59.6119 6.7486 3.2612 3.6402 5.3502
# 3 43.3432 6.7486 103.9001 17.6016 6.6921 -1.8228
# 4 -9.1625 3.2612 17.6016 33.4341 1.6522 -4.1890
# 5 19.1506 3.6402 6.6921 1.6522 36.8785 -1.4903
# 6 6.5335 5.3502 -1.8228 -4.1890 -1.4903 40.2396
#
#
#
# Elastic Compliance Matrix: (Units=1/GPa)
#
#
# Indices 1 2 3 4 5 6 
#
# 1 0.022050 -0.001291 -0.010523 0.011827 -0.010066 -0.003027
# 2 -0.001291 0.017351 -0.000194 -0.002191 -0.001005 -0.002371
# 3 -0.010523 -0.000194 0.015732 -0.011128 0.003184 0.001406
# 4 0.011827 -0.002191 -0.011128 0.039725 -0.005613 0.001795
# 5 -0.010066 -0.001005 0.003184 -0.005613 0.032218 0.002521
# 6 -0.003027 -0.002371 0.001406 0.001795 0.002521 0.026002
#
#
# Mechanical properties :
#
#
# Convention : Reuss Voigt Hill
#
# Bulk Modulus (GPa) = 32.13714 39.93664 36.03689
# Shear Modulus (GPa) = 26.67149 34.58256 30.62702
#
# Velocity S-wave (km/s) = 3.41254 3.88582 3.65684
# Velocity P-wave (km/s) = 5.43683 6.12944 5.79349
#
# Compressibility (1/GPa) = 0.03111664
#
# Stress axis : x y z
#
# Youngs Moduli (GPa) = 45.35062 57.63502 63.56519
#
# Poissons Ratio (x) = 0.07440 0.66890
# Poissons Ratio (y) = 0.05854 0.01234
# Poissons Ratio (z) = 0.47723 0.01119
#
# Static dielectric constant tensor:
#      x y z
#    x 1.849820 -0.047520 -0.143140 
#    y -0.047520 1.885730 -0.034790 
#    z -0.143140 -0.034790 1.659640 
# 
# From -- ./inp_files/525984.got.cif
#   From: 2010.05.17/outbox.cif.g08.bks.cpg/sg2_263_cif.got.tgz:525984.got - 2010.06.03 11:33:40.
