data_PCOD9050194
_publ_section_title
;
Structure prediction by ZEFSAII (Michael W. Deem and Ramdas Pophale) SiO2 
 PCOD9050194
Probable space group: P -1
;
_chemical_formula_sum "Si O2"
_cell_formula_units_Z 15
_cell_length_a 11.186298
_cell_length_b 9.496586
_cell_length_c 7.933980
_cell_angle_alpha 120.274304
_cell_angle_beta 52.728923
_cell_angle_gamma 111.493629
_cell_volume 576.950014
_symmetry_space_group_name_H-M "P -1"
_symmetry_group_IT_number 2
_symmetry_cell_setting 'triclinic'
loop_
_space_group_symop_operation_xyz
x,y,z
-x,-y,-z
loop_
_atom_site_type_symbol
_atom_site_label
_atom_site_fract_x
_atom_site_fract_y
_atom_site_fract_z
Si Si1 0.539567 0.843506 0.141691
Si Si2 0.739913 0.253252 0.861445
Si Si3 0.155009 0.042357 0.202935
Si Si4 0.500000 0.500000 0.500000
Si Si5 0.103553 0.833922 0.671199
Si Si6 0.052390 0.426787 0.133242
Si Si7 0.169774 0.315130 0.635276
Si Si8 0.407236 0.803253 0.582353
O O1 0.437856 0.763533 0.030866
O O2 0.494875 0.762152 0.309907
O O3 0.508411 0.033661 0.310620
O O4 0.710959 0.852386 0.946837
O O5 0.810491 0.194501 0.592328
O O6 0.802957 0.441234 0.926035
O O7 0.788248 0.128854 0.886502
O O8 0.133624 0.153802 0.454751
O O9 0.010418 0.034411 0.201377
O O10 0.346688 0.365384 0.535799
O O11 0.400980 0.646469 0.608789
O O12 0.241289 0.851388 0.696376
O O13 0.993406 0.676242 0.725272
O O14 0.914708 0.537644 0.286486
O O15 0.087605 0.304721 0.880008
#
# Coordination Sequence:
#
# PCOD9050194 Si02
#       8
#     2   2   2   1   2   2   2   2
#     4  10  25  46  73 104 151 183 241 298 364 416
#     4  11  24  46  74 104 144 193 236 303 354 430
#     4  12  26  45  73 111 142 189 246 293 358 428
#     4  12  24  44  74 102 140 186 242 292 350 430
#     4  11  24  47  72 106 148 186 239 301 355 425
#     4  11  25  48  70 104 147 193 235 295 365 421
#     4  11  27  43  71 104 145 186 243 291 357 431
#     4  10  24  49  70 110 143 193 231 304 359 430
#
# _framework density 25.998785999999999
#
# number of rings (size 3 to 8) (size 9 to 14) (size 15 to 20)
#    0.000    1.067    2.667    2.000    5.600    0.533 
#    0.000    1.333    0.000    0.000    0.000    0.000 
#    0.000    0.000    0.000    0.000    0.000    0.000 
#
# Total GULP energy -83803.677858 kJ/mol
# GULP energy per Si atom -5586.911857 kJ/mol
# Density = 2.593961 g / cm^3
# Si number density = 25.998786 Si / 1000 Ang^3
#
#
#
# Elastic Constant Matrix: (Units=GPa)
#
#
# Indices 1 2 3 4 5 6 
#
# 1 121.6411 65.5226 26.1318 7.4948 -6.8395 12.6662
# 2 65.5226 121.2966 14.8829 9.4159 -16.7721 11.6552
# 3 26.1318 14.8829 90.2843 -2.9890 -11.2347 -6.0564
# 4 7.4948 9.4159 -2.9890 21.6914 -5.0078 4.5287
# 5 -6.8395 -16.7721 -11.2347 -5.0078 19.4359 3.2193
# 6 12.6662 11.6552 -6.0564 4.5287 3.2193 29.4446
#
#
#
# Elastic Compliance Matrix: (Units=1/GPa)
#
#
# Indices 1 2 3 4 5 6 
#
# 1 0.012626 -0.006395 -0.003241 -0.002121 -0.003013 -0.002911
# 2 -0.006395 0.013386 0.000660 -0.000449 0.010138 -0.003452
# 3 -0.003241 0.000660 0.013146 0.003907 0.007637 0.002401
# 4 -0.002121 -0.000449 0.003907 0.052956 0.016096 -0.008011
# 5 -0.003013 0.010138 0.007637 0.016096 0.069561 -0.011227
# 6 -0.002911 -0.003452 0.002401 -0.008011 -0.011227 0.039534
#
#
# Mechanical properties :
#
#
# Convention : Reuss Voigt Hill
#
# Bulk Modulus (GPa) = 47.15670 60.69961 53.92815
# Shear Modulus (GPa) = 22.10132 29.22670 25.66401
#
# Velocity S-wave (km/s) = 2.91879 3.35648 3.14526
# Velocity P-wave (km/s) = 5.43475 6.19831 5.82905
#
# Compressibility (1/GPa) = 0.02120590
#
# Stress axis : x y z
#
# Youngs Moduli (GPa) = 79.20002 74.70346 76.06832
#
# Poissons Ratio (x) = 0.47774 0.24652
# Poissons Ratio (y) = 0.50650 -0.05017
# Poissons Ratio (z) = 0.25667 -0.04927
#
# Static dielectric constant tensor:
#      x y z
#    x 2.071690 0.026670 0.033280 
#    y 0.026670 1.919880 -0.081870 
#    z 0.033280 -0.081870 2.010590 
# 
# From -- ./inp_files/235813.got.cif
#   From: 2010.05.17/outbox.cif.g08.bks.cpg/sg2_118_cif.got.tgz:235813.got - 2010.06.03 11:33:40.
