data_PCOD9050891
_publ_section_title
;
Structure prediction by ZEFSAII (Michael W. Deem and Ramdas Pophale) SiO2 
 PCOD9050891
Probable space group: P -1
;
_chemical_formula_sum "Si O2"
_cell_formula_units_Z 16
_cell_length_a 19.312375
_cell_length_b 11.724319
_cell_length_c 16.439074
_cell_angle_alpha 136.489075
_cell_angle_beta 29.555923
_cell_angle_gamma 157.185641
_cell_volume 652.375699
_symmetry_space_group_name_H-M "P -1"
_symmetry_group_IT_number 2
_symmetry_cell_setting 'triclinic'
loop_
_space_group_symop_operation_xyz
x,y,z
-x,-y,-z
loop_
_atom_site_type_symbol
_atom_site_label
_atom_site_fract_x
_atom_site_fract_y
_atom_site_fract_z
Si Si1 0.324974 0.460134 0.207420
Si Si2 0.289857 0.193586 0.871579
Si Si3 0.763100 0.474690 0.317818
Si Si4 0.326839 0.827213 0.336936
Si Si5 0.687457 0.102154 0.793870
Si Si6 0.813990 0.283057 0.305544
Si Si7 0.458448 0.417859 0.338022
Si Si8 0.904287 0.856419 0.239325
O O1 0.413541 0.530144 0.246282
O O2 0.405034 0.723265 0.233182
O O3 0.500000 0.500000 0.000000
O O4 0.012629 0.106458 0.319922
O O5 0.330899 0.342076 0.826862
O O6 0.166395 0.891174 0.820116
O O7 0.103540 0.075186 0.072064
O O8 0.890363 0.464407 0.240442
O O9 0.711833 0.585048 0.482638
O O10 0.922237 0.705719 0.195969
O O11 0.479406 0.112865 0.386498
O O12 0.410867 0.944401 0.218801
O O13 0.000000 0.500000 0.500000
O O14 0.992609 0.469412 0.690636
O O15 0.678504 0.895126 0.701179
O O16 0.500000 0.000000 0.000000
O O17 0.500000 0.000000 0.500000
O O18 0.615172 0.569494 0.342490
#
# Coordination Sequence:
#
# PCOD9050891 Si02
#       8
#     2   2   2   2   2   2   2   2
#     4  10  25  44  71 104 143 190 247 299 373 439
#     4  11  25  45  72 100 146 195 242 302 371 443
#     4  12  26  46  73 104 145 192 247 309 365 438
#     4  12  26  48  76 105 150 197 251 308 371 451
#     4  12  31  48  75 111 149 192 250 309 374 440
#     4  12  26  49  72 109 149 196 246 300 380 443
#     4  12  26  47  70 106 150 188 243 305 373 443
#     4  11  25  44  70 105 140 193 246 304 364 440
#
# _framework density 24.525746000000002
#
# number of rings (size 3 to 8) (size 9 to 14) (size 15 to 20)
#    0.000    0.500    3.750    3.000    8.750    2.000 
#    0.000    0.000    0.000    0.000    0.000    0.000 
#    0.000    0.000    0.000    0.000    0.000    0.000 
#
# Total GULP energy -89614.481634 kJ/mol
# GULP energy per Si atom -5600.905102 kJ/mol
# Density = 2.446992 g / cm^3
# Si number density = 24.525746 Si / 1000 Ang^3
#
#
#
# Elastic Constant Matrix: (Units=GPa)
#
#
# Indices 1 2 3 4 5 6 
#
# 1 121.1937 32.0148 1.6932 4.3238 19.5526 2.3210
# 2 32.0148 151.8248 12.6241 24.4985 0.1284 21.8597
# 3 1.6932 12.6241 78.8991 6.8446 13.9081 0.0025
# 4 4.3238 24.4985 6.8446 33.6053 -1.9589 2.0319
# 5 19.5526 0.1284 13.9081 -1.9589 37.2413 -8.6821
# 6 2.3210 21.8597 0.0025 2.0319 -8.6821 35.3088
#
#
#
# Elastic Compliance Matrix: (Units=1/GPa)
#
#
# Indices 1 2 3 4 5 6 
#
# 1 0.009705 -0.001967 0.001144 -0.000333 -0.005722 -0.000808
# 2 -0.001967 0.008693 -0.000837 -0.005621 -0.000138 -0.004963
# 3 0.001144 -0.000837 0.014118 -0.002720 -0.006231 -0.000934
# 4 -0.000333 -0.005621 -0.002720 0.034516 0.003584 0.002397
# 5 -0.005722 -0.000138 -0.006231 0.003584 0.034404 0.008715
# 6 -0.000808 -0.004963 -0.000934 0.002397 0.008715 0.033452
#
#
# Mechanical properties :
#
#
# Convention : Reuss Voigt Hill
#
# Bulk Modulus (GPa) = 34.25002 49.39797 41.82400
# Shear Modulus (GPa) = 33.79778 41.60345 37.70062
#
# Velocity S-wave (km/s) = 3.71624 4.12311 3.92495
# Velocity P-wave (km/s) = 5.69291 6.54612 6.13436
#
# Compressibility (1/GPa) = 0.02919706
#
# Stress axis : x y z
#
# Youngs Moduli (GPa) = 103.03657 115.04147 70.83127
#
# Poissons Ratio (x) = 0.22626 -0.08103
# Poissons Ratio (y) = 0.20265 0.05925
# Poissons Ratio (z) = -0.11787 0.09624
#
# Static dielectric constant tensor:
#      x y z
#    x 1.952310 0.010930 0.013900 
#    y 0.010930 1.946400 -0.139410 
#    z 0.013900 -0.139410 2.255920 
# 
# From -- ./inp_files/577988.got.cif
#   From: 2010.05.17/outbox.cif.g08.bks.cpg/sg2_289_cif.got.tgz:577988.got - 2010.06.03 11:33:40.
