data_PCOD9050928
_publ_section_title
;
Structure prediction by ZEFSAII (Michael W. Deem and Ramdas Pophale) SiO2 
 PCOD9050928
Probable space group: P -1
;
_chemical_formula_sum "Si O2"
_cell_formula_units_Z 14
_cell_length_a 5.116834
_cell_length_b 21.790202
_cell_length_c 8.930830
_cell_angle_alpha 142.426423
_cell_angle_beta 103.834143
_cell_angle_gamma 63.508044
_cell_volume 531.356423
_symmetry_space_group_name_H-M "P -1"
_symmetry_group_IT_number 2
_symmetry_cell_setting 'triclinic'
loop_
_space_group_symop_operation_xyz
x,y,z
-x,-y,-z
loop_
_atom_site_type_symbol
_atom_site_label
_atom_site_fract_x
_atom_site_fract_y
_atom_site_fract_z
Si Si1 0.316801 0.400680 0.890663
Si Si2 0.954943 0.092188 0.333872
Si Si3 0.116289 0.193798 0.838471
Si Si4 0.294679 0.551232 0.715287
Si Si5 0.745708 0.141789 0.923903
Si Si6 0.270774 0.201149 0.411474
Si Si7 0.633582 0.659487 0.533824
O O1 0.251197 0.294370 0.712218
O O2 0.496800 0.365622 0.688871
O O3 0.491001 0.431124 0.098457
O O4 0.000000 0.500000 0.000000
O O5 0.618500 0.117203 0.299129
O O6 0.976900 0.166116 0.618904
O O7 0.086600 0.134269 0.296603
O O8 0.148682 0.966559 0.168404
O O9 0.472158 0.146745 0.792798
O O10 0.970601 0.326496 0.105760
O O11 0.013797 0.138256 0.852411
O O12 0.500000 0.500000 0.500000
O O13 0.198249 0.459339 0.593521
O O14 0.599508 0.254830 0.219290
O O15 0.193589 0.274003 0.389005
#
# Coordination Sequence:
#
# PCOD9050928 Si02
#       7
#     2   2   2   2   2   2   2
#     4  10  25  44  72 106 152 196 244 304 374 442
#     4  12  24  48  73 105 143 200 248 304 369 432
#     4  12  26  46  72 108 150 193 249 303 379 435
#     4  12  25  44  76 108 152 194 247 305 377 445
#     4  12  27  46  72 106 150 194 249 311 360 446
#     4  10  26  43  74 104 141 191 249 297 370 437
#     4  10  26  45  70 114 145 197 237 312 370 447
#
# _framework density 26.347664000000002
#
# number of rings (size 3 to 8) (size 9 to 14) (size 15 to 20)
#    0.857    0.000    2.857    3.000    6.000    2.857 
#    0.000    0.000    0.000    0.000    0.000    0.000 
#    0.000    0.000    0.000    0.000    0.000    0.000 
#
# Total GULP energy -78542.634717 kJ/mol
# GULP energy per Si atom -5610.188194 kJ/mol
# Density = 2.628770 g / cm^3
# Si number density = 26.347664 Si / 1000 Ang^3
#
#
#
# Elastic Constant Matrix: (Units=GPa)
#
#
# Indices 1 2 3 4 5 6 
#
# 1 91.1580 37.2076 13.1177 6.3153 14.3247 -7.4300
# 2 37.2076 136.9728 25.5872 36.1197 10.8995 11.5488
# 3 13.1177 25.5872 110.9042 -4.4625 -1.2184 0.6885
# 4 6.3153 36.1197 -4.4625 64.7253 -3.7099 -5.5293
# 5 14.3247 10.8995 -1.2184 -3.7099 22.3361 -1.5023
# 6 -7.4300 11.5488 0.6885 -5.5293 -1.5023 45.8971
#
#
#
# Elastic Compliance Matrix: (Units=1/GPa)
#
#
# Indices 1 2 3 4 5 6 
#
# 1 0.013784 -0.003329 -0.000946 0.000292 -0.007024 0.002889
# 2 -0.003329 0.011197 -0.002488 -0.006741 -0.004873 -0.004291
# 3 -0.000946 -0.002488 0.009825 0.002378 0.002799 0.000704
# 4 0.000292 -0.006741 0.002378 0.020113 0.006865 0.004355
# 5 -0.007024 -0.004873 0.002799 0.006865 0.053122 0.002613
# 6 0.002889 -0.004291 0.000704 0.004355 0.002613 0.023935
#
#
# Mechanical properties :
#
#
# Convention : Reuss Voigt Hill
#
# Bulk Modulus (GPa) = 46.99142 54.54001 50.76571
# Shear Modulus (GPa) = 32.76687 44.13320 38.45003
#
# Velocity S-wave (km/s) = 3.53035 4.09716 3.82427
# Velocity P-wave (km/s) = 5.87296 6.56714 6.22973
#
# Compressibility (1/GPa) = 0.02128048
#
# Stress axis : x y z
#
# Youngs Moduli (GPa) = 72.54827 89.31103 101.78491
#
# Poissons Ratio (x) = 0.29734 0.09625
# Poissons Ratio (y) = 0.24153 0.25320
# Poissons Ratio (z) = 0.06860 0.22217
#
# Static dielectric constant tensor:
#      x y z
#    x 2.035540 0.019460 0.001390 
#    y 0.019460 2.034340 -0.026070 
#    z 0.001390 -0.026070 2.107310 
# 
# From -- ./inp_files/141750.got.cif
#   From: 2010.05.17/outbox.cif.g08.bks.cpg/sg2_71_cif.got.tgz:141750.got - 2010.06.03 11:33:40.
