data_PCOD9050133
_publ_section_title
;
Structure prediction by ZEFSAII (Michael W. Deem and Ramdas Pophale) SiO2 
 PCOD9050133
Probable space group: P -1
;
_chemical_formula_sum "Si O2"
_cell_formula_units_Z 12
_cell_length_a 13.987684
_cell_length_b 4.933145
_cell_length_c 8.481200
_cell_angle_alpha 82.901970
_cell_angle_beta 125.017211
_cell_angle_gamma 74.409292
_cell_volume 432.085373
_symmetry_space_group_name_H-M "P -1"
_symmetry_group_IT_number 2
_symmetry_cell_setting 'triclinic'
loop_
_space_group_symop_operation_xyz
x,y,z
-x,-y,-z
loop_
_atom_site_type_symbol
_atom_site_label
_atom_site_fract_x
_atom_site_fract_y
_atom_site_fract_z
Si Si1 0.705271 0.462215 0.686033
Si Si2 0.795809 0.497837 0.317880
Si Si3 0.883219 0.618781 0.059989
Si Si4 0.470294 0.636172 0.235066
Si Si5 0.624149 0.126825 0.193428
Si Si6 0.943410 0.071001 0.735724
O O1 0.573918 0.650945 0.454770
O O2 0.657136 0.313274 0.792995
O O3 0.805080 0.232170 0.674795
O O4 0.781397 0.632231 0.829956
O O5 0.820691 0.629389 0.170091
O O6 0.704570 0.326608 0.221690
O O7 0.921164 0.249097 0.535840
O O8 0.724649 0.787708 0.340208
O O9 0.948507 0.847352 0.086145
O O10 0.999410 0.284409 0.194423
O O11 0.532992 0.303162 0.238572
O O12 0.445063 0.846478 0.043492
#
# Coordination Sequence:
#
# PCOD9050133 Si02
#       6
#     2   2   2   2   2   2
#     4  11  24  48  73 109 145 193 232 297 365 428
#     4  12  24  48  76 105 143 186 248 291 353 421
#     4  12  26  48  73 108 146 189 239 294 356 427
#     4  10  24  48  78 104 146 188 242 296 358 426
#     4  11  24  49  74 107 141 188 241 299 348 422
#     4  12  26  48  73 108 146 189 239 294 356 427
#
# _framework density 27.772286000000001
#
# number of rings (size 3 to 8) (size 9 to 14) (size 15 to 20)
#    0.000    0.667    3.333    4.000    0.000    2.667 
#    0.000    1.667    0.000    0.000    0.000    0.000 
#    0.000    0.000    0.000    0.000    0.000    0.000 
#
# Total GULP energy -67423.561778 kJ/mol
# GULP energy per Si atom -5618.630148 kJ/mol
# Density = 2.770908 g / cm^3
# Si number density = 27.772286 Si / 1000 Ang^3
#
#
#
# Elastic Constant Matrix: (Units=GPa)
#
#
# Indices 1 2 3 4 5 6 
#
# 1 158.6527 46.2588 10.1163 9.4741 -4.4025 -5.2059
# 2 46.2588 105.0777 11.8555 -18.6762 -2.6303 -3.0136
# 3 10.1163 11.8555 137.1479 4.2950 15.6862 2.0409
# 4 9.4741 -18.6762 4.2950 29.1119 0.0292 -7.9203
# 5 -4.4025 -2.6303 15.6862 0.0292 52.6060 1.0467
# 6 -5.2059 -3.0136 2.0409 -7.9203 1.0467 43.5264
#
#
#
# Elastic Compliance Matrix: (Units=1/GPa)
#
#
# Indices 1 2 3 4 5 6 
#
# 1 0.007944 -0.004474 -0.000074 -0.005548 0.000474 -0.000377
# 2 -0.004474 0.013697 -0.001313 0.011111 0.000646 0.002481
# 3 -0.000074 -0.001313 0.007761 -0.002179 -0.002369 -0.000803
# 4 -0.005548 0.011111 -0.002179 0.045931 0.000545 0.008553
# 5 0.000474 0.000646 -0.002369 0.000545 0.019791 -0.000164
# 6 -0.000377 0.002481 -0.000803 0.008553 -0.000164 0.024699
#
#
# Mechanical properties :
#
#
# Convention : Reuss Voigt Hill
#
# Bulk Modulus (GPa) = 56.55862 59.70438 58.13150
# Shear Modulus (GPa) = 36.37977 47.22536 41.80257
#
# Velocity S-wave (km/s) = 3.62322 4.12812 3.88389
# Velocity P-wave (km/s) = 6.15735 6.65330 6.41012
#
# Compressibility (1/GPa) = 0.01768077
#
# Stress axis : x y z
#
# Youngs Moduli (GPa) = 125.87539 73.01066 128.84112
#
# Poissons Ratio (x) = 0.32665 0.00955
# Poissons Ratio (y) = 0.56317 0.16914
# Poissons Ratio (z) = 0.00933 0.09585
#
# Static dielectric constant tensor:
#      x y z
#    x 2.138980 0.012880 -0.001740 
#    y 0.012880 2.099470 0.027530 
#    z -0.001740 0.027530 2.249600 
# 
# From -- ./inp_files/286329.got.cif
#   From: 2010.05.17/outbox.cif.g08.bks.cpg/sg2_144_cif.got.tgz:286329.got - 2010.06.03 11:33:40.
