data_PCOD9050719
_publ_section_title
;
Structure prediction by ZEFSAII (Michael W. Deem and Ramdas Pophale) SiO2 
 PCOD9050719
Probable space group: P -1
;
_chemical_formula_sum "Si O2"
_cell_formula_units_Z 14
_cell_length_a 13.417846
_cell_length_b 9.296730
_cell_length_c 8.852504
_cell_angle_alpha 70.662093
_cell_angle_beta 51.960664
_cell_angle_gamma 106.848912
_cell_volume 613.191561
_symmetry_space_group_name_H-M "P -1"
_symmetry_group_IT_number 2
_symmetry_cell_setting 'triclinic'
loop_
_space_group_symop_operation_xyz
x,y,z
-x,-y,-z
loop_
_atom_site_type_symbol
_atom_site_label
_atom_site_fract_x
_atom_site_fract_y
_atom_site_fract_z
Si Si1 0.688682 0.603691 0.127215
Si Si2 0.141580 0.513595 0.780453
Si Si3 0.646819 0.833072 0.535790
Si Si4 0.256081 0.025646 0.925308
Si Si5 0.054932 0.387732 0.565801
Si Si6 0.535897 0.025785 0.776622
Si Si7 0.297176 0.363190 0.230865
O O1 0.795308 0.575719 0.143163
O O2 0.514035 0.379051 0.320417
O O3 0.667030 0.750487 0.173572
O O4 0.768116 0.703398 0.854403
O O5 0.067303 0.408814 0.725509
O O6 0.304074 0.743531 0.501065
O O7 0.000000 0.500000 0.000000
O O8 0.754575 0.981886 0.243730
O O9 0.759973 0.806086 0.534563
O O10 0.575485 0.898270 0.699858
O O11 0.376406 0.980946 0.867206
O O12 0.086751 0.855781 0.237305
O O13 0.235078 0.476878 0.305075
O O14 0.000000 0.500000 0.500000
O O15 0.500000 0.000000 0.000000
O O16 0.500000 0.500000 0.000000
#
# Coordination Sequence:
#
# PCOD9050719 Si02
#       7
#     2   2   2   2   2   2   2
#     4  11  25  45  74 105 150 190 246 302 375 436
#     4  12  27  45  74 109 152 195 254 311 375 442
#     4  11  24  45  75 106 151 190 248 305 373 442
#     4  12  26  45  75 107 146 195 249 302 377 447
#     4  12  28  47  74 108 154 194 248 312 373 438
#     4  12  27  44  75 109 146 200 255 303 375 451
#     4  10  25  43  74 103 147 196 242 297 376 437
#
# _framework density 22.831365000000002
#
# number of rings (size 3 to 8) (size 9 to 14) (size 15 to 20)
#    0.000    0.571    1.429    5.143   14.000    4.000 
#    0.000    0.000    0.000    0.000    0.000    0.000 
#    0.000    0.000    0.000    0.000    0.000    0.000 
#
# Total GULP energy -78270.683684 kJ/mol
# GULP energy per Si atom -5590.763120 kJ/mol
# Density = 2.277940 g / cm^3
# Si number density = 22.831365 Si / 1000 Ang^3
#
#
#
# Elastic Constant Matrix: (Units=GPa)
#
#
# Indices 1 2 3 4 5 6 
#
# 1 186.7399 45.4423 47.2683 17.5907 41.8458 -25.3199
# 2 45.4423 112.3938 18.9697 21.8751 6.5325 -10.6635
# 3 47.2683 18.9697 98.4971 15.0812 15.8948 -2.9385
# 4 17.5907 21.8751 15.0812 50.3963 6.6927 -1.5045
# 5 41.8458 6.5325 15.8948 6.6927 47.4616 11.9418
# 6 -25.3199 -10.6635 -2.9385 -1.5045 11.9418 36.4202
#
#
#
# Elastic Compliance Matrix: (Units=1/GPa)
#
#
# Indices 1 2 3 4 5 6 
#
# 1 0.010073 -0.002122 -0.002475 -0.000227 -0.010115 0.009489
# 2 -0.002122 0.010649 -0.000551 -0.003792 0.000831 0.001169
# 3 -0.002475 -0.000551 0.011993 -0.002333 -0.001281 -0.000591
# 4 -0.000227 -0.003792 -0.002333 0.022489 -0.001673 0.000021
# 5 -0.010115 0.000831 -0.001281 -0.001673 0.035194 -0.018501
# 6 0.009489 0.001169 -0.000591 0.000021 -0.018501 0.040416
#
#
# Mechanical properties :
#
#
# Convention : Reuss Voigt Hill
#
# Bulk Modulus (GPa) = 44.60674 68.99903 56.80289
# Shear Modulus (GPa) = 33.65146 45.91901 39.78523
#
# Velocity S-wave (km/s) = 3.84332 4.48953 4.17894
# Velocity P-wave (km/s) = 6.26696 7.56051 6.94392
#
# Compressibility (1/GPa) = 0.02241814
#
# Stress axis : x y z
#
# Youngs Moduli (GPa) = 99.27885 93.90500 83.38411
#
# Poissons Ratio (x) = 0.19930 0.20636
# Poissons Ratio (y) = 0.21071 0.04594
# Poissons Ratio (z) = 0.24570 0.05174
#
# Static dielectric constant tensor:
#      x y z
#    x 1.770570 -0.011000 0.002440 
#    y -0.011000 1.873450 -0.052060 
#    z 0.002440 -0.052060 1.946490 
# 
# From -- ./inp_files/237436.got.cif
#   From: 2010.05.17/outbox.cif.g08.bks.cpg/sg2_119_cif.got.tgz:237436.got - 2010.06.03 11:33:40.
