data_PCOD9050627
_publ_section_title
;
Structure prediction by ZEFSAII (Michael W. Deem and Ramdas Pophale) SiO2 
 PCOD9050627
Probable space group: P -1
;
_chemical_formula_sum "Si O2"
_cell_formula_units_Z 16
_cell_length_a 5.609296
_cell_length_b 11.390493
_cell_length_c 15.855871
_cell_angle_alpha 60.281788
_cell_angle_beta 120.706477
_cell_angle_gamma 91.630656
_cell_volume 721.412967
_symmetry_space_group_name_H-M "P -1"
_symmetry_group_IT_number 2
_symmetry_cell_setting 'triclinic'
loop_
_space_group_symop_operation_xyz
x,y,z
-x,-y,-z
loop_
_atom_site_type_symbol
_atom_site_label
_atom_site_fract_x
_atom_site_fract_y
_atom_site_fract_z
Si Si1 0.868498 0.732125 0.909636
Si Si2 0.184131 0.147501 0.798348
Si Si3 0.800834 0.413894 0.538868
Si Si4 0.899070 0.260023 0.316107
Si Si5 0.403904 0.792300 0.549143
Si Si6 0.430617 0.503834 0.084112
Si Si7 0.256095 0.068126 0.031385
Si Si8 0.918324 0.948600 0.715138
O O1 0.748894 0.608563 0.898430
O O2 0.767551 0.804916 0.954095
O O3 0.782624 0.851033 0.780791
O O4 0.217597 0.658724 0.010103
O O5 0.010902 0.302905 0.681275
O O6 0.491927 0.068175 0.840453
O O7 0.266754 0.130812 0.917475
O O8 0.012493 0.041889 0.770113
O O9 0.500000 0.500000 0.500000
O O10 0.697704 0.321960 0.482768
O O11 0.000000 0.500000 0.500000
O O12 0.764854 0.206311 0.393132
O O13 0.725011 0.426940 0.214148
O O14 0.244915 0.242908 0.379693
O O15 0.850874 0.166937 0.260155
O O16 0.276888 0.941680 0.425095
O O17 0.500000 0.500000 0.000000
O O18 0.000000 0.000000 0.000000
#
# Coordination Sequence:
#
# PCOD9050627 Si02
#       8
#     2   2   2   2   2   2   2   2
#     4  11  24  43  71 100 137 191 231 290 358 428
#     4  10  25  43  68 103 135 182 235 299 358 418
#     4  11  26  50  74 101 145 194 235 285 362 427
#     4  12  24  45  70 103 142 179 232 289 353 415
#     4  11  27  45  70 109 135 180 239 292 344 421
#     4  11  25  44  65  98 143 186 227 278 360 434
#     4  11  23  43  70 104 136 173 247 299 353 412
#     4  11  22  45  71  97 138 179 229 291 357 415
#
# _framework density 22.178697
#
# number of rings (size 3 to 8) (size 9 to 14) (size 15 to 20)
#    0.000    1.000    2.500    3.000    3.500    4.000 
#    4.500    0.000    0.000    0.000    0.000    0.000 
#    0.000    0.000    0.000    0.000    0.000    0.000 
#
# Total GULP energy -89253.294262 kJ/mol
# GULP energy per Si atom -5578.330891 kJ/mol
# Density = 2.212822 g / cm^3
# Si number density = 22.178697 Si / 1000 Ang^3
#
#
#
# Elastic Constant Matrix: (Units=GPa)
#
#
# Indices 1 2 3 4 5 6 
#
# 1 110.0557 26.4192 50.2809 -6.0787 2.5160 2.3757
# 2 26.4192 76.9322 25.6715 4.7706 -4.0278 -8.1252
# 3 50.2809 25.6715 102.9802 -6.0441 -3.8461 -3.2969
# 4 -6.0787 4.7706 -6.0441 34.1366 -7.8574 -8.2950
# 5 2.5160 -4.0278 -3.8461 -7.8574 44.1362 -2.0440
# 6 2.3757 -8.1252 -3.2969 -8.2950 -2.0440 43.9665
#
#
#
# Elastic Compliance Matrix: (Units=1/GPa)
#
#
# Indices 1 2 3 4 5 6 
#
# 1 0.012306 -0.002716 -0.005370 0.000966 -0.001312 -0.001448
# 2 -0.002716 0.015204 -0.002479 -0.002225 0.001041 0.002399
# 3 -0.005370 -0.002479 0.013203 0.002458 0.001731 0.001366
# 4 0.000966 -0.002225 0.002458 0.033149 0.006147 0.006261
# 5 -0.001312 0.001041 0.001731 0.006147 0.024196 0.002678
# 6 -0.001448 0.002399 0.001366 0.006261 0.002678 0.024674
#
#
# Mechanical properties :
#
#
# Convention : Reuss Voigt Hill
#
# Bulk Modulus (GPa) = 51.06286 54.96791 53.01539
# Shear Modulus (GPa) = 33.24652 36.95428 35.10040
#
# Velocity S-wave (km/s) = 3.87593 4.08635 3.98253
# Velocity P-wave (km/s) = 6.56535 6.86311 6.71588
#
# Compressibility (1/GPa) = 0.01958370
#
# Stress axis : x y z
#
# Youngs Moduli (GPa) = 81.25858 65.77141 75.73766
#
# Poissons Ratio (x) = 0.17861 0.40674
# Poissons Ratio (y) = 0.22067 0.18776
# Poissons Ratio (z) = 0.43639 0.16305
#
# Static dielectric constant tensor:
#      x y z
#    x 1.973410 0.017720 0.089100 
#    y 0.017720 1.795030 0.042490 
#    z 0.089100 0.042490 1.875480 
# 
# From -- ./inp_files/482765.got.cif
#   From: 2010.05.17/outbox.cif.g08.bks.cpg/sg2_242_cif.got.tgz:482765.got - 2010.06.03 11:33:40.
