data_PCOD9050961
_publ_section_title
;
Structure prediction by ZEFSAII (Michael W. Deem and Ramdas Pophale) SiO2 
 PCOD9050961
Probable space group: P -1
;
_chemical_formula_sum "Si O2"
_cell_formula_units_Z 14
_cell_length_a 17.611746
_cell_length_b 17.103184
_cell_length_c 7.836086
_cell_angle_alpha 65.199274
_cell_angle_beta 50.466108
_cell_angle_gamma 23.756993
_cell_volume 624.156817
_symmetry_space_group_name_H-M "P -1"
_symmetry_group_IT_number 2
_symmetry_cell_setting 'triclinic'
loop_
_space_group_symop_operation_xyz
x,y,z
-x,-y,-z
loop_
_atom_site_type_symbol
_atom_site_label
_atom_site_fract_x
_atom_site_fract_y
_atom_site_fract_z
Si Si1 0.786771 0.068763 0.675821
Si Si2 0.253379 0.763985 0.121660
Si Si3 0.018836 0.711183 0.834671
Si Si4 0.474586 0.989793 0.851485
Si Si5 0.326447 0.352744 0.214584
Si Si6 0.568126 0.221782 0.347648
Si Si7 0.823863 0.847743 0.369542
O O1 0.953363 0.860571 0.727581
O O2 0.971363 0.947319 0.367792
O O3 0.734088 0.194478 0.754758
O O4 0.504238 0.253333 0.903984
O O5 0.500000 0.500000 0.000000
O O6 0.281377 0.814408 0.891952
O O7 0.312225 0.453400 0.604402
O O8 0.953295 0.753879 0.086607
O O9 0.815925 0.809894 0.945763
O O10 0.658151 0.760325 0.747551
O O11 0.570286 0.992445 0.599346
O O12 0.500000 0.000000 0.000000
O O13 0.466023 0.260720 0.279450
O O14 0.042461 0.624650 0.374839
O O15 0.734287 0.015104 0.395340
#
# Coordination Sequence:
#
# PCOD9050961 Si02
#       7
#     2   2   2   2   2   2   2
#     4   9  19  37  62  92 125 162 206 255 307 369
#     4  10  17  34  66  92 120 166 208 249 310 373
#     4  11  22  40  64  95 126 163 210 259 309 364
#     4  11  24  43  65  93 124 170 209 253 316 372
#     4  10  23  44  62  90 132 164 205 260 311 370
#     4  11  23  41  65  94 125 168 207 254 317 368
#     4  12  24  42  64  92 129 162 213 259 304 371
#
# _framework density 22.430260000000001
#
# number of rings (size 3 to 8) (size 9 to 14) (size 15 to 20)
#    0.000    1.429    5.714    1.714    2.000    0.571 
#    0.000    0.714    0.000    4.286    0.000    0.000 
#    0.000    0.000    0.000    0.000    0.000    0.000 
#
# Total GULP energy -78245.543591 kJ/mol
# GULP energy per Si atom -5588.967399 kJ/mol
# Density = 2.237921 g / cm^3
# Si number density = 22.430260 Si / 1000 Ang^3
#
#
#
# Elastic Constant Matrix: (Units=GPa)
#
#
# Indices 1 2 3 4 5 6 
#
# 1 68.8078 29.5768 22.7613 -6.2577 -1.4236 22.7593
# 2 29.5768 81.5613 54.5378 -2.3579 1.5409 31.5897
# 3 22.7613 54.5378 160.0168 10.4123 -15.8982 30.4542
# 4 -6.2577 -2.3579 10.4123 34.1318 13.7955 -1.7967
# 5 -1.4236 1.5409 -15.8982 13.7955 29.0547 -4.2764
# 6 22.7593 31.5897 30.4542 -1.7967 -4.2764 30.7047
#
#
#
# Elastic Compliance Matrix: (Units=1/GPa)
#
#
# Indices 1 2 3 4 5 6 
#
# 1 0.019979 -0.001954 -0.000332 0.004147 -0.002928 -0.012634
# 2 -0.001954 0.024808 -0.005987 0.006445 -0.010579 -0.019232
# 3 -0.000332 -0.005987 0.010279 -0.007406 0.009005 -0.002968
# 4 0.004147 0.006445 -0.007406 0.042668 -0.024942 -0.003337
# 5 -0.002928 -0.010579 0.009005 -0.024942 0.053085 0.010056
# 6 -0.012634 -0.019232 -0.002968 -0.003337 0.010056 0.065868
#
#
# Mechanical properties :
#
#
# Convention : Reuss Voigt Hill
#
# Bulk Modulus (GPa) = 25.96212 58.23751 42.09981
# Shear Modulus (GPa) = 20.31905 32.34559 26.33232
#
# Velocity S-wave (km/s) = 3.01304 3.80155 3.43003
# Velocity P-wave (km/s) = 4.86871 6.72973 5.87340
#
# Compressibility (1/GPa) = 0.03851765
#
# Stress axis : x y z
#
# Youngs Moduli (GPa) = 50.05353 40.30939 97.28857
#
# Poissons Ratio (x) = 0.07878 0.03230
# Poissons Ratio (y) = 0.09783 0.58251
# Poissons Ratio (z) = 0.01662 0.24135
#
# Static dielectric constant tensor:
#      x y z
#    x 1.853180 -0.020540 -0.000700 
#    y -0.020540 1.835280 -0.009800 
#    z -0.000700 -0.009800 1.829510 
# 
# From -- ./inp_files/314940.got.cif
#   From: 2010.05.17/outbox.cif.g08.bks.cpg/sg2_158_cif.got.tgz:314940.got - 2010.06.03 11:33:40.
