data_PCOD9050178
_publ_section_title
;
Structure prediction by ZEFSAII (Michael W. Deem and Ramdas Pophale) SiO2 
 PCOD9050178
Probable space group: P -1
;
_chemical_formula_sum "Si O2"
_cell_formula_units_Z 16
_cell_length_a 7.554530
_cell_length_b 18.870163
_cell_length_c 20.039695
_cell_angle_alpha 160.215054
_cell_angle_beta 45.397043
_cell_angle_gamma 133.673207
_cell_volume 683.200089
_symmetry_space_group_name_H-M "P -1"
_symmetry_group_IT_number 2
_symmetry_cell_setting 'triclinic'
loop_
_space_group_symop_operation_xyz
x,y,z
-x,-y,-z
loop_
_atom_site_type_symbol
_atom_site_label
_atom_site_fract_x
_atom_site_fract_y
_atom_site_fract_z
Si Si1 0.728067 0.863399 0.939008
Si Si2 0.600080 0.882540 0.669015
Si Si3 0.022640 0.413800 0.289113
Si Si4 0.413446 0.487588 0.435454
Si Si5 0.095822 0.293217 0.023580
Si Si6 0.064962 0.709612 0.079687
Si Si7 0.604549 0.584392 0.183845
Si Si8 0.297528 0.856302 0.591789
O O1 0.733639 0.680607 0.831628
O O2 0.667810 0.739396 0.776456
O O3 0.510290 0.001987 0.136506
O O4 0.000000 0.000000 0.000000
O O5 0.603430 0.642053 0.476992
O O6 0.399008 0.883276 0.663810
O O7 0.836917 0.040477 0.722117
O O8 0.084446 0.658028 0.471883
O O9 0.840498 0.404012 0.391890
O O10 0.946015 0.294478 0.134672
O O11 0.500000 0.500000 0.500000
O O12 0.954411 0.351512 0.046948
O O13 0.186787 0.065807 0.786010
O O14 0.347786 0.454091 0.110525
O O15 0.794706 0.661680 0.143105
O O16 0.249710 0.571523 0.947566
O O17 0.520002 0.780909 0.421629
#
# Coordination Sequence:
#
# PCOD9050178 Si02
#       8
#     2   2   2   2   2   2   2   2
#     4  12  23  43  69  90 129 189 234 277 344 411
#     4  12  24  43  67  98 135 182 230 284 346 410
#     4  11  23  42  66  95 130 180 225 279 341 411
#     4  12  29  41  63 102 141 178 233 288 342 414
#     4  11  24  44  72 103 136 179 234 287 345 416
#     4  11  25  45  72 102 141 181 227 291 351 415
#     4  10  24  49  68 101 142 182 225 285 358 418
#     4  11  22  43  72  98 134 179 236 279 344 420
#
# _framework density 23.4192
#
# number of rings (size 3 to 8) (size 9 to 14) (size 15 to 20)
#    0.000    0.750    5.000    2.250    3.500    1.500 
#    2.250    0.000    0.000    0.000    0.000    0.000 
#    0.000    0.000    0.000    0.000    0.000    0.000 
#
# Total GULP energy -89482.094192 kJ/mol
# GULP energy per Si atom -5592.630887 kJ/mol
# Density = 2.336590 g / cm^3
# Si number density = 23.419200 Si / 1000 Ang^3
#
#
#
# Elastic Constant Matrix: (Units=GPa)
#
#
# Indices 1 2 3 4 5 6 
#
# 1 77.6431 13.1534 16.3391 8.9939 30.8460 -13.7154
# 2 13.1534 93.1304 37.6175 8.2547 8.8415 8.8834
# 3 16.3391 37.6175 132.0046 -0.9757 16.2565 5.3195
# 4 8.9939 8.2547 -0.9757 34.7864 0.1117 5.6594
# 5 30.8460 8.8415 16.2565 0.1117 27.9585 -7.2118
# 6 -13.7154 8.8834 5.3195 5.6594 -7.2118 33.5886
#
#
#
# Elastic Compliance Matrix: (Units=1/GPa)
#
#
# Indices 1 2 3 4 5 6 
#
# 1 0.025311 -0.001095 0.000073 -0.007216 -0.025980 0.006251
# 2 -0.001095 0.012883 -0.003187 -0.002310 -0.001871 -0.003362
# 3 0.000073 -0.003187 0.009160 0.001310 -0.004881 -0.001847
# 4 -0.007216 -0.002310 0.001310 0.032264 0.006079 -0.006674
# 5 -0.025980 -0.001871 -0.004881 0.006079 0.068983 0.004446
# 6 0.006251 -0.003362 -0.001847 -0.006674 0.004446 0.035585
#
#
# Mechanical properties :
#
#
# Convention : Reuss Voigt Hill
#
# Bulk Modulus (GPa) = 25.68261 48.55534 37.11897
# Shear Modulus (GPa) = 24.32146 34.97792 29.64969
#
# Velocity S-wave (km/s) = 3.22611 3.86885 3.56201
# Velocity P-wave (km/s) = 4.98672 6.38243 5.72725
#
# Compressibility (1/GPa) = 0.03893686
#
# Stress axis : x y z
#
# Youngs Moduli (GPa) = 39.50880 77.62415 109.17373
#
# Poissons Ratio (x) = 0.08497 -0.00800
# Poissons Ratio (y) = 0.04325 0.34792
# Poissons Ratio (z) = -0.00290 0.24737
#
# Static dielectric constant tensor:
#      x y z
#    x 1.953060 0.072370 -0.033050 
#    y 0.072370 1.984200 -0.002650 
#    z -0.033050 -0.002650 1.935420 
# 
# From -- ./inp_files/39890.got.cif
#   From: 2010.05.17/outbox.cif.g08.bks.cpg/sg2_20_cif.got.tgz:39890.got - 2010.06.03 11:33:40.
