data_PCOD9050220
_publ_section_title
;
Structure prediction by ZEFSAII (Michael W. Deem and Ramdas Pophale) SiO2 
 PCOD9050220
Probable space group: P -1
;
_chemical_formula_sum "Si O2"
_cell_formula_units_Z 14
_cell_length_a 5.335083
_cell_length_b 11.974332
_cell_length_c 12.510976
_cell_angle_alpha 48.587557
_cell_angle_beta 71.905935
_cell_angle_gamma 78.097186
_cell_volume 569.770290
_symmetry_space_group_name_H-M "P -1"
_symmetry_group_IT_number 2
_symmetry_cell_setting 'triclinic'
loop_
_space_group_symop_operation_xyz
x,y,z
-x,-y,-z
loop_
_atom_site_type_symbol
_atom_site_label
_atom_site_fract_x
_atom_site_fract_y
_atom_site_fract_z
Si Si1 0.082410 0.167368 0.361214
Si Si2 0.181642 0.637672 0.573102
Si Si3 0.472789 0.432681 0.827894
Si Si4 0.421513 0.168135 0.717553
Si Si5 0.475297 0.827317 0.877911
Si Si6 0.783500 0.370350 0.111607
Si Si7 0.138329 0.673467 0.318128
O O1 0.058978 0.265380 0.409625
O O2 0.869291 0.247171 0.263392
O O3 0.343698 0.165562 0.256337
O O4 0.000000 0.000000 0.500000
O O5 0.276768 0.507421 0.720563
O O6 0.425599 0.755398 0.451675
O O7 0.142628 0.589778 0.485768
O O8 0.467983 0.543617 0.859931
O O9 0.747173 0.415177 0.741104
O O10 0.390449 0.270678 0.985372
O O11 0.624897 0.206902 0.761977
O O12 0.136861 0.244383 0.716950
O O13 0.398131 0.991872 0.817082
O O14 0.245673 0.716809 0.939355
O O15 0.000000 0.500000 0.000000
#
# Coordination Sequence:
#
# PCOD9050220 Si02
#       7
#     2   2   2   2   2   2   2
#     4  11  22  44  70 103 142 191 240 304 366 434
#     4   9  23  44  71 107 141 192 247 301 360 437
#     4  11  24  46  70 106 143 195 236 310 359 445
#     4  10  25  46  74 104 146 192 248 303 358 436
#     4  12  26  44  72 108 148 190 244 305 374 436
#     4  11  26  45  68 106 147 187 243 297 375 440
#     4  10  24  49  73 106 143 193 256 295 364 431
#
# _framework density 24.571306
#
# number of rings (size 3 to 8) (size 9 to 14) (size 15 to 20)
#    0.857    0.571    2.857    0.857    4.000    5.714 
#    5.143    0.000    0.000    0.000    0.000    0.000 
#    0.000    0.000    0.000    0.000    0.000    0.000 
#
# Total GULP energy -78284.710766 kJ/mol
# GULP energy per Si atom -5591.765055 kJ/mol
# Density = 2.451538 g / cm^3
# Si number density = 24.571306 Si / 1000 Ang^3
#
#
#
# Elastic Constant Matrix: (Units=GPa)
#
#
# Indices 1 2 3 4 5 6 
#
# 1 94.9483 46.5402 30.8808 -14.1493 -11.9523 -11.6108
# 2 46.5402 144.7301 61.5645 -6.9282 1.4027 -12.3521
# 3 30.8808 61.5645 147.6755 -26.9684 2.3466 0.1429
# 4 -14.1493 -6.9282 -26.9684 43.1470 -14.4800 0.5700
# 5 -11.9523 1.4027 2.3466 -14.4800 33.3072 5.0336
# 6 -11.6108 -12.3521 0.1429 0.5700 5.0336 42.2865
#
#
#
# Elastic Compliance Matrix: (Units=1/GPa)
#
#
# Indices 1 2 3 4 5 6 
#
# 1 0.015010 -0.004337 -0.000213 0.006853 0.008295 0.001775
# 2 -0.004337 0.009992 -0.003830 -0.003426 -0.003530 0.002207
# 3 -0.000213 -0.003830 0.009478 0.006022 0.002271 -0.001561
# 4 0.006853 -0.003426 0.006022 0.034512 0.017437 -0.001680
# 5 0.008295 -0.003530 0.002271 0.017437 0.041158 -0.003896
# 6 0.001775 0.002207 -0.001561 -0.001680 -0.003896 0.025272
#
#
# Mechanical properties :
#
#
# Convention : Reuss Voigt Hill
#
# Bulk Modulus (GPa) = 56.43404 73.92501 65.17952
# Shear Modulus (GPa) = 31.62794 40.30602 35.96698
#
# Velocity S-wave (km/s) = 3.59164 4.05454 3.83009
# Velocity P-wave (km/s) = 6.34170 7.21598 6.79292
#
# Compressibility (1/GPa) = 0.01771980
#
# Stress axis : x y z
#
# Youngs Moduli (GPa) = 66.62425 100.08095 105.50666
#
# Poissons Ratio (x) = 0.43404 0.02244
# Poissons Ratio (y) = 0.28894 0.40412
# Poissons Ratio (z) = 0.01417 0.38334
#
# Static dielectric constant tensor:
#      x y z
#    x 2.028110 0.086200 -0.061340 
#    y 0.086200 1.962650 0.024760 
#    z -0.061340 0.024760 1.973410 
# 
# From -- ./inp_files/483510.got.cif
#   From: 2010.05.17/outbox.cif.g08.bks.cpg/sg2_242_cif.got.tgz:483510.got - 2010.06.03 11:33:40.
