data_PCOD9050956
_publ_section_title
;
Structure prediction by ZEFSAII (Michael W. Deem and Ramdas Pophale) SiO2 
 PCOD9050956
Probable space group: P -1
;
_chemical_formula_sum "Si O2"
_cell_formula_units_Z 15
_cell_length_a 15.179221
_cell_length_b 24.730654
_cell_length_c 5.596628
_cell_angle_alpha 112.773404
_cell_angle_beta 112.019794
_cell_angle_gamma 20.226352
_cell_volume 669.277624
_symmetry_space_group_name_H-M "P -1"
_symmetry_group_IT_number 2
_symmetry_cell_setting 'triclinic'
loop_
_space_group_symop_operation_xyz
x,y,z
-x,-y,-z
loop_
_atom_site_type_symbol
_atom_site_label
_atom_site_fract_x
_atom_site_fract_y
_atom_site_fract_z
Si Si1 0.598204 0.500147 0.237245
Si Si2 0.111419 0.817462 0.591430
Si Si3 0.583220 0.295581 0.893369
Si Si4 0.282266 0.299209 0.219987
Si Si5 0.122679 0.165275 0.440332
Si Si6 0.000000 0.000000 0.500000
Si Si7 0.403192 0.101613 0.884779
Si Si8 0.321006 0.333087 0.823365
O O1 0.379041 0.643406 0.448236
O O2 0.611022 0.547526 0.151320
O O3 0.865379 0.327979 0.319229
O O4 0.500000 0.500000 0.000000
O O5 0.990061 0.940967 0.535596
O O6 0.936029 0.860237 0.513484
O O7 0.197312 0.794957 0.896002
O O8 0.442288 0.328045 0.962743
O O9 0.729173 0.175517 0.635655
O O10 0.383170 0.267162 0.518595
O O11 0.984674 0.485770 0.201729
O O12 0.309963 0.213807 0.104340
O O13 0.401614 0.253612 0.012155
O O14 0.185729 0.189256 0.682299
O O15 0.365842 0.015896 0.261912
O O16 0.500000 0.000000 0.000000
#
# Coordination Sequence:
#
# PCOD9050956 Si02
#       8
#     2   2   2   2   2   1   2   2
#     4  11  25  44  72 107 142 189 238 301 372 438
#     4  11  25  45  72 106 146 189 235 303 368 448
#     4  11  25  42  73 105 141 190 236 304 373 447
#     4  10  25  47  71 102 144 189 251 306 367 436
#     4  11  27  46  72 107 144 189 249 300 375 445
#     4  10  26  44  64 104 144 180 242 284 374 440
#     4  11  29  46  72 105 142 198 243 309 372 436
#     4  10  25  44  74 104 139 192 244 309 369 439
#
# _framework density 22.412223000000001
#
# number of rings (size 3 to 8) (size 9 to 14) (size 15 to 20)
#    0.000    1.333    1.333    0.800   14.933    2.133 
#    0.000    0.000    0.000    0.000    0.000    0.000 
#    0.000    0.000    0.000    0.000    0.000    0.000 
#
# Total GULP energy -83597.088597 kJ/mol
# GULP energy per Si atom -5573.139240 kJ/mol
# Density = 2.236121 g / cm^3
# Si number density = 22.412223 Si / 1000 Ang^3
#
#
#
# Elastic Constant Matrix: (Units=GPa)
#
#
# Indices 1 2 3 4 5 6 
#
# 1 164.1146 43.0696 43.5456 -4.6191 3.7621 24.9414
# 2 43.0696 55.9017 40.8873 -28.7474 26.5953 22.6105
# 3 43.5456 40.8873 90.9942 6.1096 11.6772 9.3263
# 4 -4.6191 -28.7474 6.1096 -5.2927 11.9295 11.0910
# 5 3.7621 26.5953 11.6772 11.9295 24.1585 -1.3930
# 6 24.9414 22.6105 9.3263 11.0910 -1.3930 44.8078
#
#
#
# Elastic Compliance Matrix: (Units=1/GPa)
#
#
# Indices 1 2 3 4 5 6 
#
# 1 0.007990 -0.002690 -0.002678 0.002184 0.001759 -0.003019
# 2 -0.002690 0.006950 -0.001297 -0.020794 0.003866 0.003527
# 3 -0.002678 -0.001297 0.013676 0.004644 -0.007178 -0.002074
# 4 0.002184 -0.020794 0.004644 -0.002532 0.022112 0.009625
# 5 0.001759 0.003866 -0.007178 0.022112 0.029068 -0.006005
# 6 -0.003019 0.003527 -0.002074 0.009625 -0.006005 0.020080
#
#
# Mechanical properties :
#
#
# Convention : Reuss Voigt Hill
#
# Bulk Modulus (GPa) = 65.41863 62.89060 64.15462
# Shear Modulus (GPa) = 53.38597 24.96856 39.17726
#
# Velocity S-wave (km/s) = 4.88587 3.34137 4.18548
# Velocity P-wave (km/s) = 7.81544 6.55806 7.21420
#
# Compressibility (1/GPa) = 0.01528617
#
# Stress axis : x y z
#
# Youngs Moduli (GPa) = 125.16277 143.88024 73.12054
#
# Poissons Ratio (x) = 0.38700 0.19580
# Poissons Ratio (y) = 0.33665 0.09486
# Poissons Ratio (z) = 0.33516 0.18666
#
# Static dielectric constant tensor:
#      x y z
#    x -3.375540 0.633500 -0.182090 
#    y 0.633500 1.668710 0.023050 
#    z -0.182090 0.023050 1.754600 
# 
# From -- ./inp_files/101321.got.cif
#   From: 2010.05.17/outbox.cif.g08.bks.cpg/sg2_51_cif.got.tgz:101321.got - 2010.06.03 11:33:40.
