data_PCOD9050390
_publ_section_title
;
Structure prediction by ZEFSAII (Michael W. Deem and Ramdas Pophale) SiO2 
 PCOD9050390
Probable space group: P -1
;
_chemical_formula_sum "Si O2"
_cell_formula_units_Z 16
_cell_length_a 8.345110
_cell_length_b 12.213557
_cell_length_c 23.256799
_cell_angle_alpha 21.607971
_cell_angle_beta 126.379414
_cell_angle_gamma 131.977939
_cell_volume 645.347598
_symmetry_space_group_name_H-M "P -1"
_symmetry_group_IT_number 2
_symmetry_cell_setting 'triclinic'
loop_
_space_group_symop_operation_xyz
x,y,z
-x,-y,-z
loop_
_atom_site_type_symbol
_atom_site_label
_atom_site_fract_x
_atom_site_fract_y
_atom_site_fract_z
Si Si1 0.527073 0.193000 0.525634
Si Si2 0.710195 0.995187 0.755884
Si Si3 0.835136 0.168819 0.820224
Si Si4 0.200217 0.443625 0.275252
Si Si5 0.262149 0.096098 0.910730
Si Si6 0.845655 0.894447 0.250543
Si Si7 0.675794 0.722048 0.724410
Si Si8 0.645697 0.355429 0.013920
O O1 0.332225 0.256749 0.425255
O O2 0.684133 0.547427 0.405940
O O3 0.505078 0.982049 0.681409
O O4 0.635664 0.040561 0.576123
O O5 0.768034 0.211105 0.719657
O O6 0.682870 0.623161 0.940346
O O7 0.922590 0.120390 0.699656
O O8 0.906359 0.462224 0.737784
O O9 0.605689 0.886360 0.927806
O O10 0.036327 0.067801 0.904919
O O11 0.140415 0.240633 0.302072
O O12 0.309446 0.805039 0.092140
O O13 0.218614 0.053408 0.854166
O O14 0.443286 0.454413 0.784154
O O15 0.795813 0.156726 0.148727
O O16 0.710108 0.557920 0.869938
#
# Coordination Sequence:
#
# PCOD9050390 Si02
#       8
#     2   2   2   2   2   2   2   2
#     4  11  23  38  64  86 123 159 193 243 297 347
#     4  10  25  39  60  88 120 154 204 242 288 354
#     4  11  23  38  64  86 123 159 193 243 297 347
#     4  12  21  39  63  90 120 156 194 245 299 356
#     4  11  21  37  63  93 118 149 200 247 294 349
#     4  11  20  40  65  88 115 154 202 251 293 338
#     4  11  21  37  63  93 118 149 200 247 294 349
#     4  11  20  40  65  88 115 154 202 251 293 338
#
# _framework density 24.792839000000001
#
# number of rings (size 3 to 8) (size 9 to 14) (size 15 to 20)
#    0.000    1.000    5.000    2.250    0.000    0.500 
#    0.000    0.625    0.000    0.000    0.000    0.000 
#    0.000    0.000    0.000    0.000    0.000    0.000 
#
# Total GULP energy -89224.510458 kJ/mol
# GULP energy per Si atom -5576.531904 kJ/mol
# Density = 2.473641 g / cm^3
# Si number density = 24.792839 Si / 1000 Ang^3
#
#
#
# Elastic Constant Matrix: (Units=GPa)
#
#
# Indices 1 2 3 4 5 6 
#
# 1 74.4617 18.7331 16.5377 2.1514 15.2657 -16.7218
# 2 18.7331 60.7958 14.0736 15.0456 6.5322 -9.2352
# 3 16.5377 14.0736 108.4384 4.7257 30.3458 -14.7323
# 4 2.1514 15.0456 4.7257 24.2485 -0.1424 0.0395
# 5 15.2657 6.5322 30.3458 -0.1424 21.7598 -6.5041
# 6 -16.7218 -9.2352 -14.7323 0.0395 -6.5041 34.3685
#
#
#
# Elastic Compliance Matrix: (Units=1/GPa)
#
#
# Indices 1 2 3 4 5 6 
#
# 1 0.017852 -0.003768 0.002078 0.000266 -0.012433 0.006211
# 2 -0.003768 0.021714 -0.000644 -0.013031 -0.002061 0.003350
# 3 0.002078 -0.000644 0.015837 -0.003008 -0.022354 0.003400
# 4 0.000266 -0.013031 -0.003008 0.049935 0.007246 -0.003348
# 5 -0.012433 -0.002061 -0.022354 0.007246 0.086577 0.000191
# 6 0.006211 0.003350 0.003400 -0.003348 0.000191 0.034516
#
#
# Mechanical properties :
#
#
# Convention : Reuss Voigt Hill
#
# Bulk Modulus (GPa) = 19.71033 38.04275 28.87654
# Shear Modulus (GPa) = 20.16040 29.03212 24.59626
#
# Velocity S-wave (km/s) = 2.85468 3.42568 3.15313
# Velocity P-wave (km/s) = 4.33968 5.56998 4.99287
#
# Compressibility (1/GPa) = 0.05073481
#
# Stress axis : x y z
#
# Youngs Moduli (GPa) = 56.01530 46.05364 63.14264
#
# Poissons Ratio (x) = 0.17355 -0.13120
# Poissons Ratio (y) = 0.21109 0.04064
# Poissons Ratio (z) = -0.11639 0.02964
#
# Static dielectric constant tensor:
#      x y z
#    x 2.045740 -0.019480 -0.023100 
#    y -0.019480 2.020010 -0.005630 
#    z -0.023100 -0.005630 1.956720 
# 
# From -- ./inp_files/244184.got.cif
#   From: 2010.05.17/outbox.cif.g08.bks.cpg/sg2_123_cif.got.tgz:244184.got - 2010.06.03 11:33:40.
