data_PCOD9050905
_publ_section_title
;
Structure prediction by ZEFSAII (Michael W. Deem and Ramdas Pophale) SiO2 
 PCOD9050905
Probable space group: P -1
;
_chemical_formula_sum "Si O2"
_cell_formula_units_Z 14
_cell_length_a 13.132658
_cell_length_b 5.430442
_cell_length_c 12.785437
_cell_angle_alpha 64.535722
_cell_angle_beta 53.519066
_cell_angle_gamma 54.514607
_cell_volume 591.942056
_symmetry_space_group_name_H-M "P -1"
_symmetry_group_IT_number 2
_symmetry_cell_setting 'triclinic'
loop_
_space_group_symop_operation_xyz
x,y,z
-x,-y,-z
loop_
_atom_site_type_symbol
_atom_site_label
_atom_site_fract_x
_atom_site_fract_y
_atom_site_fract_z
Si Si1 0.625318 0.738232 0.094616
Si Si2 0.135924 0.805099 0.885388
Si Si3 0.164630 0.401032 0.737891
Si Si4 0.617619 0.268527 0.890747
Si Si5 0.986134 0.709917 0.602262
Si Si6 0.247733 0.326176 0.370623
Si Si7 0.472077 0.230908 0.613920
O O1 0.742161 0.395835 0.070494
O O2 0.476827 0.802495 0.122490
O O3 0.590392 0.751728 0.235168
O O4 0.687669 0.961373 0.972882
O O5 0.131118 0.574692 0.840760
O O6 0.165662 0.076472 0.775800
O O7 0.000000 0.000000 0.000000
O O8 0.328360 0.300956 0.625245
O O9 0.039129 0.641956 0.700111
O O10 0.703630 0.427520 0.752277
O O11 0.500000 0.500000 0.000000
O O12 0.827998 0.756351 0.665884
O O13 0.114630 0.442930 0.509433
O O14 0.000000 0.000000 0.500000
O O15 0.379986 0.071131 0.400498
O O16 0.500000 0.500000 0.500000
#
# Coordination Sequence:
#
# PCOD9050905 Si02
#       7
#     2   2   2   2   2   2   2
#     4  10  25  44  71 112 145 191 254 320 377 455
#     4  11  26  50  75 108 151 200 253 308 387 459
#     4  11  27  49  76 111 151 197 256 318 375 460
#     4  11  23  45  72 106 148 191 257 313 384 451
#     4  11  28  48  68 109 156 196 260 305 393 458
#     4  11  26  45  75 107 151 204 249 323 380 454
#     4  11  24  46  77 108 147 196 254 318 384 447
#
# _framework density 23.650960999999999
#
# number of rings (size 3 to 8) (size 9 to 14) (size 15 to 20)
#    0.000    1.143    1.429    2.143   14.000    2.857 
#    0.000    0.000    0.000    0.000    0.000    0.000 
#    0.000    0.000    0.000    0.000    0.000    0.000 
#
# Total GULP energy -77983.016215 kJ/mol
# GULP energy per Si atom -5570.215444 kJ/mol
# Density = 2.359713 g / cm^3
# Si number density = 23.650961 Si / 1000 Ang^3
#
#
#
# Elastic Constant Matrix: (Units=GPa)
#
#
# Indices 1 2 3 4 5 6 
#
# 1 105.5578 32.1321 49.7136 -7.2441 -4.2285 -4.0710
# 2 32.1321 110.5278 44.4281 -24.3644 2.7176 -26.0062
# 3 49.7136 44.4281 89.4591 -16.0030 -5.4226 -6.2646
# 4 -7.2441 -24.3644 -16.0030 59.2068 -2.7613 -13.8122
# 5 -4.2285 2.7176 -5.4226 -2.7613 34.1371 3.5632
# 6 -4.0710 -26.0062 -6.2646 -13.8122 3.5632 27.3524
#
#
#
# Elastic Compliance Matrix: (Units=1/GPa)
#
#
# Indices 1 2 3 4 5 6 
#
# 1 0.013059 -0.002085 -0.006626 -0.001588 0.000861 -0.002470
# 2 -0.002085 0.020372 -0.005311 0.012225 -0.004300 0.024576
# 3 -0.006626 -0.005311 0.017846 0.001606 0.002723 -0.001492
# 4 -0.001588 0.012225 0.001606 0.028203 -0.001366 0.026175
# 5 0.000861 -0.004300 0.002723 -0.001366 0.030905 -0.008052
# 6 -0.002470 0.024576 -0.001492 0.026175 -0.008052 0.073483
#
#
# Mechanical properties :
#
#
# Convention : Reuss Voigt Hill
#
# Bulk Modulus (GPa) = 43.04512 62.01028 52.52770
# Shear Modulus (GPa) = 22.76266 36.09067 29.42666
#
# Velocity S-wave (km/s) = 3.10569 3.91060 3.53116
# Velocity P-wave (km/s) = 5.57674 6.83127 6.23564
#
# Compressibility (1/GPa) = 0.02323144
#
# Stress axis : x y z
#
# Youngs Moduli (GPa) = 76.57384 49.08780 56.03441
#
# Poissons Ratio (x) = 0.10236 0.37131
# Poissons Ratio (y) = 0.15968 0.29760
# Poissons Ratio (z) = 0.50741 0.26071
#
# Static dielectric constant tensor:
#      x y z
#    x 2.087550 0.057170 0.026900 
#    y 0.057170 2.081130 0.007270 
#    z 0.026900 0.007270 2.007810 
# 
# From -- ./inp_files/410197.got.cif
#   From: 2010.05.17/outbox.cif.g08.bks.cpg/sg2_206_cif.got.tgz:410197.got - 2010.06.03 11:33:40.
