data_PCOD9050659
_publ_section_title
;
Structure prediction by ZEFSAII (Michael W. Deem and Ramdas Pophale) SiO2 
 PCOD9050659
Probable space group: P -1
;
_chemical_formula_sum "Si O2"
_cell_formula_units_Z 14
_cell_length_a 8.405913
_cell_length_b 18.354001
_cell_length_c 8.180236
_cell_angle_alpha 113.992798
_cell_angle_beta 50.574060
_cell_angle_gamma 136.594017
_cell_volume 666.324314
_symmetry_space_group_name_H-M "P -1"
_symmetry_group_IT_number 2
_symmetry_cell_setting 'triclinic'
loop_
_space_group_symop_operation_xyz
x,y,z
-x,-y,-z
loop_
_atom_site_type_symbol
_atom_site_label
_atom_site_fract_x
_atom_site_fract_y
_atom_site_fract_z
Si Si1 0.650025 0.208932 0.970706
Si Si2 0.159484 0.120855 0.457807
Si Si3 0.703228 0.109084 0.564238
Si Si4 0.806351 0.731637 0.179345
Si Si5 0.145420 0.302191 0.244628
Si Si6 0.751529 0.488923 0.713957
Si Si7 0.286229 0.596094 0.984123
O O1 0.560120 0.120049 0.815426
O O2 0.707394 0.306577 0.928829
O O3 0.928505 0.246367 0.903988
O O4 0.426659 0.168151 0.219529
O O5 0.226116 0.192994 0.637351
O O6 0.946997 0.118000 0.487277
O O7 0.000000 0.000000 0.500000
O O8 0.861554 0.211930 0.438090
O O9 0.500000 0.000000 0.500000
O O10 0.533430 0.608773 0.274910
O O11 0.839814 0.747366 0.975445
O O12 0.174816 0.400534 0.257470
O O13 0.409982 0.350461 0.231193
O O14 0.717190 0.453517 0.890630
O O15 0.000000 0.500000 0.500000
O O16 0.000000 0.500000 0.000000
#
# Coordination Sequence:
#
# PCOD9050659 Si02
#       7
#     2   2   2   2   2   2   2
#     4  11  24  46  68 100 137 173 228 279 336 403
#     4  11  27  46  69  98 131 183 232 275 338 399
#     4  11  27  45  69  99 135 178 225 284 336 397
#     4  10  25  43  70 100 135 180 223 279 339 402
#     4  11  23  45  66 103 137 174 231 272 337 410
#     4  11  24  40  68 102 138 177 222 276 339 407
#     4  11  22  40  69  98 136 176 217 277 336 397
#
# _framework density 21.010791000000001
#
# number of rings (size 3 to 8) (size 9 to 14) (size 15 to 20)
#    0.000    1.143    1.429    4.286    8.000    4.000 
#    0.000    3.571    0.000    0.000    0.000    0.000 
#    0.000    0.000    0.000    0.000    0.000    0.000 
#
# Total GULP energy -78247.553584 kJ/mol
# GULP energy per Si atom -5589.110970 kJ/mol
# Density = 2.096297 g / cm^3
# Si number density = 21.010791 Si / 1000 Ang^3
#
#
#
# Elastic Constant Matrix: (Units=GPa)
#
#
# Indices 1 2 3 4 5 6 
#
# 1 79.0834 50.8376 36.0911 11.7111 -6.6011 1.8743
# 2 50.8376 153.8284 67.4821 13.1838 4.1187 -5.5532
# 3 36.0911 67.4821 143.8340 14.3078 -18.4709 4.9483
# 4 11.7111 13.1838 14.3078 31.4197 -0.1842 5.6296
# 5 -6.6011 4.1187 -18.4709 -0.1842 27.4451 0.2819
# 6 1.8743 -5.5532 4.9483 5.6296 0.2819 38.7068
#
#
#
# Elastic Compliance Matrix: (Units=1/GPa)
#
#
# Indices 1 2 3 4 5 6 
#
# 1 0.017308 -0.005114 -0.001003 -0.003655 0.004241 -0.000943
# 2 -0.005114 0.010417 -0.004330 -0.000971 -0.005739 0.002479
# 3 -0.001003 -0.004330 0.010472 -0.002241 0.007458 -0.001640
# 4 -0.003655 -0.000971 -0.002241 0.035469 -0.001954 -0.004820
# 5 0.004241 -0.005739 0.007458 -0.001954 0.043345 -0.002014
# 6 -0.000943 0.002479 -0.001640 -0.004820 -0.002014 0.027162
#
#
# Mechanical properties :
#
#
# Convention : Reuss Voigt Hill
#
# Bulk Modulus (GPa) = 57.79221 76.17416 66.98319
# Shear Modulus (GPa) = 29.26818 34.33666 31.80242
#
# Velocity S-wave (km/s) = 3.73635 4.04696 3.89475
# Velocity P-wave (km/s) = 6.79554 7.62697 7.22323
#
# Compressibility (1/GPa) = 0.01730337
#
# Stress axis : x y z
#
# Youngs Moduli (GPa) = 57.77766 96.00091 95.48825
#
# Poissons Ratio (x) = 0.49098 0.09576
# Poissons Ratio (y) = 0.29549 0.41342
# Poissons Ratio (z) = 0.05794 0.41564
#
# Static dielectric constant tensor:
#      x y z
#    x 1.765080 0.024140 -0.006910 
#    y 0.024140 1.757810 -0.040140 
#    z -0.006910 -0.040140 1.921360 
# 
# From -- ./inp_files/184723.got.cif
#   From: 2010.05.17/outbox.cif.g08.bks.cpg/sg2_93_cif.got.tgz:184723.got - 2010.06.03 11:33:40.
