data_PCOD9050310
_publ_section_title
;
Structure prediction by ZEFSAII (Michael W. Deem and Ramdas Pophale) SiO2 
 PCOD9050310
Probable space group: P -1
;
_chemical_formula_sum "Si O2"
_cell_formula_units_Z 14
_cell_length_a 7.843964
_cell_length_b 5.000680
_cell_length_c 15.639597
_cell_angle_alpha 62.409369
_cell_angle_beta 85.050343
_cell_angle_gamma 77.847927
_cell_volume 531.474242
_symmetry_space_group_name_H-M "P -1"
_symmetry_group_IT_number 2
_symmetry_cell_setting 'triclinic'
loop_
_space_group_symop_operation_xyz
x,y,z
-x,-y,-z
loop_
_atom_site_type_symbol
_atom_site_label
_atom_site_fract_x
_atom_site_fract_y
_atom_site_fract_z
Si Si1 0.291475 0.362105 0.368894
Si Si2 0.762982 0.084286 0.814517
Si Si3 0.624959 0.233879 0.979499
Si Si4 0.864504 0.977966 0.156100
Si Si5 0.750938 0.729416 0.421946
Si Si6 0.530219 0.092585 0.256276
Si Si7 0.939279 0.307906 0.343762
O O1 0.205976 0.707008 0.297463
O O2 0.316663 0.301739 0.475734
O O3 0.146420 0.188500 0.361172
O O4 0.457081 0.299040 0.309160
O O5 0.610157 0.927989 0.807857
O O6 0.955943 0.902742 0.854710
O O7 0.699416 0.278173 0.874559
O O8 0.788480 0.060636 0.053442
O O9 0.500000 0.500000 0.000000
O O10 0.500000 0.000000 0.000000
O O11 0.703621 0.151814 0.194645
O O12 0.896548 0.613074 0.237517
O O13 0.595602 0.774258 0.352105
O O14 0.884506 0.441489 0.421304
O O15 0.840833 0.029716 0.371070
#
# Coordination Sequence:
#
# PCOD9050310 Si02
#       7
#     2   2   2   2   2   2   2
#     4  11  25  42  71 105 147 197 247 300 359 429
#     4  11  26  47  74 109 145 195 242 297 367 432
#     4  12  26  51  80 111 145 188 239 300 364 441
#     4  10  24  50  75 105 149 190 237 301 366 430
#     4  11  25  45  71 105 149 197 243 304 359 425
#     4  11  25  42  71 104 145 187 247 296 358 422
#     4  10  25  44  74 105 145 192 251 297 362 431
#
# _framework density 26.341822000000001
#
# number of rings (size 3 to 8) (size 9 to 14) (size 15 to 20)
#    0.000    1.143    1.429    2.571   12.000    2.857 
#    2.571    1.429    0.000    0.000    0.000    0.000 
#    0.000    0.000    0.000    0.000    0.000    0.000 
#
# Total GULP energy -78262.922437 kJ/mol
# GULP energy per Si atom -5590.208745 kJ/mol
# Density = 2.628187 g / cm^3
# Si number density = 26.341822 Si / 1000 Ang^3
#
#
#
# Elastic Constant Matrix: (Units=GPa)
#
#
# Indices 1 2 3 4 5 6 
#
# 1 158.1985 46.4952 46.3835 24.1823 20.1628 -5.2046
# 2 46.4952 124.4664 32.2330 39.3731 -5.7931 6.5954
# 3 46.3835 32.2330 174.4106 25.4004 1.9952 -2.8999
# 4 24.1823 39.3731 25.4004 40.6737 -0.9899 -5.4965
# 5 20.1628 -5.7931 1.9952 -0.9899 34.0607 5.4087
# 6 -5.2046 6.5954 -2.8999 -5.4965 5.4087 31.2202
#
#
#
# Elastic Compliance Matrix: (Units=1/GPa)
#
#
# Indices 1 2 3 4 5 6 
#
# 1 0.008640 -0.002893 -0.001476 -0.001190 -0.005990 0.002743
# 2 -0.002893 0.013491 -0.000136 -0.011988 0.004661 -0.006263
# 3 -0.001476 -0.000136 0.006599 -0.003133 0.000409 -0.000227
# 4 -0.001190 -0.011988 -0.003133 0.040083 -0.001472 0.009355
# 5 -0.005990 0.004661 0.000409 -0.001472 0.034943 -0.008258
# 6 0.002743 -0.006263 -0.000227 0.009355 -0.008258 0.036867
#
#
# Mechanical properties :
#
#
# Convention : Reuss Voigt Hill
#
# Bulk Modulus (GPa) = 50.70614 78.58878 64.64746
# Shear Modulus (GPa) = 32.00919 43.32182 37.66550
#
# Velocity S-wave (km/s) = 3.48968 4.05977 3.78547
# Velocity P-wave (km/s) = 5.96055 7.20240 6.61070
#
# Compressibility (1/GPa) = 0.01972148
#
# Stress axis : x y z
#
# Youngs Moduli (GPa) = 115.74552 74.12259 151.53985
#
# Poissons Ratio (x) = 0.21444 0.22361
# Poissons Ratio (y) = 0.33485 0.02053
# Poissons Ratio (z) = 0.17079 0.01004
#
# Static dielectric constant tensor:
#      x y z
#    x 2.215000 -0.086880 0.023970 
#    y -0.086880 2.145440 -0.046430 
#    z 0.023970 -0.046430 2.069150 
# 
# From -- ./inp_files/488165.got.cif
#   From: 2010.05.17/outbox.cif.g08.bks.cpg/sg2_245_cif.got.tgz:488165.got - 2010.06.03 11:33:40.
