data_PCOD9050946
_publ_section_title
;
Structure prediction by ZEFSAII (Michael W. Deem and Ramdas Pophale) SiO2 
 PCOD9050946
Probable space group: P -1
;
_chemical_formula_sum "Si O2"
_cell_formula_units_Z 16
_cell_length_a 17.667973
_cell_length_b 4.936710
_cell_length_c 13.666567
_cell_angle_alpha 100.971218
_cell_angle_beta 144.692069
_cell_angle_gamma 93.435378
_cell_volume 625.812084
_symmetry_space_group_name_H-M "P -1"
_symmetry_group_IT_number 2
_symmetry_cell_setting 'triclinic'
loop_
_space_group_symop_operation_xyz
x,y,z
-x,-y,-z
loop_
_atom_site_type_symbol
_atom_site_label
_atom_site_fract_x
_atom_site_fract_y
_atom_site_fract_z
Si Si1 0.513447 0.055382 0.402846
Si Si2 0.779828 0.642580 0.708294
Si Si3 0.818219 0.862174 0.389688
Si Si4 0.792766 0.335747 0.019165
Si Si5 0.921903 0.247754 0.953138
Si Si6 0.853300 0.952496 0.213692
Si Si7 0.578480 0.332733 0.135028
Si Si8 0.675783 0.744250 0.421990
O O1 0.622466 0.396854 0.533457
O O2 0.500000 0.000000 0.500000
O O3 0.592501 0.886864 0.410213
O O4 0.357028 0.920125 0.183065
O O5 0.799419 0.713193 0.617654
O O6 0.889835 0.480094 0.852885
O O7 0.777221 0.942899 0.773959
O O8 0.790351 0.928430 0.254172
O O9 0.739785 0.938281 0.405198
O O10 0.744949 0.500560 0.296832
O O11 0.982998 0.996611 0.593894
O O12 0.899995 0.373595 0.044096
O O13 0.782811 0.650493 0.055958
O O14 0.847635 0.226335 0.165585
O O15 0.000000 0.000000 0.000000
O O16 0.424577 0.574892 0.749263
O O17 0.500000 0.500000 0.000000
O O18 0.500000 0.000000 0.000000
#
# Coordination Sequence:
#
# PCOD9050946 Si02
#       8
#     2   2   2   2   2   2   2   2
#     4  12  29  49  72 116 156 203 256 326 393 466
#     4  11  25  45  79 106 149 197 259 313 391 458
#     4   9  25  48  77 109 155 195 260 317 384 452
#     4  12  30  47  82 107 162 198 260 312 400 453
#     4  11  26  47  75 112 148 199 259 326 375 473
#     4  11  27  52  75 114 149 207 250 324 380 468
#     4  10  25  44  73 111 149 192 249 315 375 450
#     4  10  25  45  74 109 146 203 248 316 379 466
#
# _framework density 25.566780999999999
#
# number of rings (size 3 to 8) (size 9 to 14) (size 15 to 20)
#    0.750    0.500    0.000    3.000   14.000    5.000 
#    2.250    0.625    0.000    0.000    0.000    0.000 
#    0.000    0.000    0.000    0.000    0.000    0.000 
#
# Total GULP energy -89307.407533 kJ/mol
# GULP energy per Si atom -5581.712971 kJ/mol
# Density = 2.550859 g / cm^3
# Si number density = 25.566781 Si / 1000 Ang^3
#
#
#
# Elastic Constant Matrix: (Units=GPa)
#
#
# Indices 1 2 3 4 5 6 
#
# 1 189.2488 53.4296 34.8276 -9.6354 2.2478 16.6601
# 2 53.4296 129.0255 32.0937 24.0868 -0.2140 -8.0982
# 3 34.8276 32.0937 104.2234 6.1519 -0.4405 -7.5945
# 4 -9.6354 24.0868 6.1519 51.8042 2.5559 -9.9966
# 5 2.2478 -0.2140 -0.4405 2.5559 42.6716 3.3865
# 6 16.6601 -8.0982 -7.5945 -9.9966 3.3865 39.3394
#
#
#
# Elastic Compliance Matrix: (Units=1/GPa)
#
#
# Indices 1 2 3 4 5 6 
#
# 1 0.006870 -0.003046 -0.001732 0.002282 -0.000272 -0.003267
# 2 -0.003046 0.010485 -0.001787 -0.004893 0.000342 0.001830
# 3 -0.001732 -0.001787 0.010917 -0.000328 0.000025 0.002387
# 4 0.002282 -0.004893 -0.000328 0.022892 -0.001832 0.003938
# 5 -0.000272 0.000342 0.000025 -0.001832 0.023745 -0.002319
# 6 -0.003267 0.001830 0.002387 0.003938 -0.002319 0.028841
#
#
# Mechanical properties :
#
#
# Convention : Reuss Voigt Hill
#
# Bulk Modulus (GPa) = 66.03822 73.68885 69.86353
# Shear Modulus (GPa) = 41.00814 46.90617 43.95715
#
# Velocity S-wave (km/s) = 4.00929 4.28793 4.15095
# Velocity P-wave (km/s) = 6.87883 7.30752 7.09641
#
# Compressibility (1/GPa) = 0.01514275
#
# Stress axis : x y z
#
# Youngs Moduli (GPa) = 145.56843 95.37390 91.59815
#
# Poissons Ratio (x) = 0.29047 0.15862
# Poissons Ratio (y) = 0.44334 0.16372
# Poissons Ratio (z) = 0.25208 0.17046
#
# Static dielectric constant tensor:
#      x y z
#    x 1.992500 0.005070 -0.050590 
#    y 0.005070 2.058450 -0.194180 
#    z -0.050590 -0.194180 1.007640 
# 
# From -- ./inp_files/576719.got.cif
#   From: 2010.05.17/outbox.cif.g08.bks.cpg/sg2_289_cif.got.tgz:576719.got - 2010.06.03 11:33:40.
