data_PCOD9050272
_publ_section_title
;
Structure prediction by ZEFSAII (Michael W. Deem and Ramdas Pophale) SiO2 
 PCOD9050272
Probable space group: P -1
;
_chemical_formula_sum "Si O2"
_cell_formula_units_Z 14
_cell_length_a 10.806358
_cell_length_b 6.376041
_cell_length_c 10.868092
_cell_angle_alpha 76.015847
_cell_angle_beta 132.639680
_cell_angle_gamma 118.794203
_cell_volume 478.573351
_symmetry_space_group_name_H-M "P -1"
_symmetry_group_IT_number 2
_symmetry_cell_setting 'triclinic'
loop_
_space_group_symop_operation_xyz
x,y,z
-x,-y,-z
loop_
_atom_site_type_symbol
_atom_site_label
_atom_site_fract_x
_atom_site_fract_y
_atom_site_fract_z
Si Si1 0.034025 0.723867 0.265349
Si Si2 0.915931 0.709647 0.435201
Si Si3 0.027446 0.689378 0.880940
Si Si4 0.419320 0.138288 0.013048
Si Si5 0.569794 0.062447 0.360609
Si Si6 0.762473 0.847761 0.791091
Si Si7 0.469962 0.392047 0.760315
O O1 0.900649 0.747967 0.273445
O O2 0.973701 0.452963 0.222762
O O3 0.233731 0.848281 0.452211
O O4 0.066367 0.883286 0.140099
O O5 0.000000 0.500000 0.500000
O O6 0.726259 0.600009 0.403310
O O7 0.000000 0.000000 0.500000
O O8 0.843888 0.736454 0.756245
O O9 0.000000 0.500000 0.000000
O O10 0.222532 0.937170 0.970759
O O11 0.564147 0.209349 0.213732
O O12 0.329421 0.375994 0.145811
O O13 0.439332 0.324083 0.892439
O O14 0.500000 0.000000 0.000000
O O15 0.415981 0.091117 0.338733
O O16 0.518897 0.800702 0.302170
#
# Coordination Sequence:
#
# PCOD9050272 Si02
#       7
#     2   2   2   2   2   2   2
#     4  12  28  48  83 117 164 217 277 360 428 513
#     4  12  28  50  82 129 176 228 292 365 444 529
#     4  12  28  51  76 118 166 218 280 348 435 520
#     4  10  24  49  81 110 163 217 278 350 431 513
#     4  11  25  49  76 115 157 212 282 341 429 510
#     4  12  27  47  78 113 161 214 279 343 432 510
#     4  11  25  48  77 117 165 215 280 351 428 520
#
# _framework density 29.253612
#
# number of rings (size 3 to 8) (size 9 to 14) (size 15 to 20)
#    0.000    0.571    1.429    5.571    4.000    7.429 
#    0.000    0.000    0.000    0.000    0.000    0.000 
#    0.000    0.000    0.000    0.000    0.000    0.000 
#
# Total GULP energy -77939.608418 kJ/mol
# GULP energy per Si atom -5567.114887 kJ/mol
# Density = 2.918703 g / cm^3
# Si number density = 29.253612 Si / 1000 Ang^3
#
#
#
# Elastic Constant Matrix: (Units=GPa)
#
#
# Indices 1 2 3 4 5 6 
#
# 1 240.8990 72.2324 37.7980 -2.2328 20.3788 5.3581
# 2 72.2324 199.5576 65.1956 16.6295 14.1376 -5.8130
# 3 37.7980 65.1956 108.7371 12.2456 -3.5479 6.4816
# 4 -2.2328 16.6295 12.2456 65.4745 2.7509 -6.4703
# 5 20.3788 14.1376 -3.5479 2.7509 35.7528 -2.4866
# 6 5.3581 -5.8130 6.4816 -6.4703 -2.4866 80.2915
#
#
#
# Elastic Compliance Matrix: (Units=1/GPa)
#
#
# Indices 1 2 3 4 5 6 
#
# 1 0.004945 -0.001343 -0.001061 0.000777 -0.002477 -0.000356
# 2 -0.001343 0.006974 -0.003725 -0.000952 -0.002236 0.000749
# 3 -0.001061 -0.003725 0.012162 -0.001624 0.003325 -0.001209
# 4 0.000777 -0.000952 -0.001624 0.016027 -0.001373 0.001259
# 5 -0.002477 -0.002236 0.003325 -0.001373 0.030742 0.000576
# 6 -0.000356 0.000749 -0.001209 0.001259 0.000576 0.012749
#
#
# Mechanical properties :
#
#
# Convention : Reuss Voigt Hill
#
# Bulk Modulus (GPa) = 84.57779 99.96063 92.26921
# Shear Modulus (GPa) = 50.10140 61.23493 55.66817
#
# Velocity S-wave (km/s) = 4.14292 4.58016 4.36701
# Velocity P-wave (km/s) = 7.20137 7.88765 7.55231
#
# Compressibility (1/GPa) = 0.01182343
#
# Stress axis : x y z
#
# Youngs Moduli (GPa) = 202.22777 143.39649 82.22364
#
# Poissons Ratio (x) = 0.19257 0.08723
# Poissons Ratio (y) = 0.27157 0.30627
# Poissons Ratio (z) = 0.21454 0.53412
#
# Static dielectric constant tensor:
#      x y z
#    x 2.169400 0.166460 -0.121880 
#    y 0.166460 2.539200 -0.147530 
#    z -0.121880 -0.147530 2.476130 
# 
# From -- ./inp_files/101614.got.cif
#   From: 2010.05.17/outbox.cif.g08.bks.cpg/sg2_51_cif.got.tgz:101614.got - 2010.06.03 11:33:40.
