data_PCOD9050101
_publ_section_title
;
Structure prediction by ZEFSAII (Michael W. Deem and Ramdas Pophale) SiO2 
 PCOD9050101
Probable space group: P -1
;
_chemical_formula_sum "Si O2"
_cell_formula_units_Z 15
_cell_length_a 8.741040
_cell_length_b 14.641730
_cell_length_c 5.234749
_cell_angle_alpha 78.662608
_cell_angle_beta 100.986325
_cell_angle_gamma 116.910401
_cell_volume 581.790978
_symmetry_space_group_name_H-M "P -1"
_symmetry_group_IT_number 2
_symmetry_cell_setting 'triclinic'
loop_
_space_group_symop_operation_xyz
x,y,z
-x,-y,-z
loop_
_atom_site_type_symbol
_atom_site_label
_atom_site_fract_x
_atom_site_fract_y
_atom_site_fract_z
Si Si1 0.500000 0.000000 0.500000
Si Si2 0.947845 0.380767 0.112204
Si Si3 0.135948 0.336329 0.583397
Si Si4 0.827754 0.181966 0.852737
Si Si5 0.724155 0.441897 0.322793
Si Si6 0.489084 0.640712 0.182983
Si Si7 0.840330 0.020304 0.339454
Si Si8 0.484433 0.135613 0.945712
O O1 0.289147 0.979654 0.479198
O O2 0.472997 0.914894 0.769790
O O3 0.848635 0.287785 0.942000
O O4 0.821637 0.371715 0.317772
O O5 0.108555 0.362091 0.271473
O O6 0.000000 0.500000 0.000000
O O7 0.145369 0.437700 0.679658
O O8 0.318598 0.339435 0.698741
O O9 0.975303 0.229198 0.661210
O O10 0.882019 0.116726 0.108304
O O11 0.616375 0.126182 0.771712
O O12 0.628007 0.409603 0.579025
O O13 0.592070 0.425484 0.058711
O O14 0.491249 0.750313 0.067889
O O15 0.708612 0.925342 0.180201
O O16 0.000000 0.000000 0.500000
#
# Coordination Sequence:
#
# PCOD9050101 Si02
#       8
#     1   2   2   2   2   2   2   2
#     4  10  24  48  76 106 156 202 256 330 398 480
#     4  12  25  45  74 111 153 208 266 321 395 478
#     4  12  28  44  76 111 158 200 270 324 401 478
#     4  11  25  47  75 111 154 206 268 328 403 481
#     4  12  26  50  75 112 161 211 259 325 399 480
#     4  12  29  47  81 112 161 208 262 331 401 477
#     4  11  28  49  81 113 157 205 271 338 411 481
#     4  11  26  50  75 112 153 208 265 329 412 478
#
# _framework density 25.782454000000001
#
# number of rings (size 3 to 8) (size 9 to 14) (size 15 to 20)
#    0.000    0.533    2.667    4.400    7.467    4.800 
#    0.000    0.000    0.000    0.000    0.000    0.000 
#    0.000    0.000    0.000    0.000    0.000    0.000 
#
# Total GULP energy -83845.271547 kJ/mol
# GULP energy per Si atom -5589.684770 kJ/mol
# Density = 2.572377 g / cm^3
# Si number density = 25.782454 Si / 1000 Ang^3
#
#
#
# Elastic Constant Matrix: (Units=GPa)
#
#
# Indices 1 2 3 4 5 6 
#
# 1 119.6100 35.5502 48.2612 -9.7094 50.6610 22.5628
# 2 35.5502 110.3035 25.9219 -27.8611 7.0598 22.3228
# 3 48.2612 25.9219 132.4624 -12.3675 26.1811 29.1424
# 4 -9.7094 -27.8611 -12.3675 32.2386 7.8229 -2.4121
# 5 50.6610 7.0598 26.1811 7.8229 62.0290 6.8830
# 6 22.5628 22.3228 29.1424 -2.4121 6.8830 38.6531
#
#
#
# Elastic Compliance Matrix: (Units=1/GPa)
#
#
# Indices 1 2 3 4 5 6 
#
# 1 0.016096 -0.001696 -0.001519 0.005475 -0.012480 -0.004707
# 2 -0.001696 0.013733 0.000662 0.011408 -0.001172 -0.006519
# 3 -0.001519 0.000662 0.010424 0.004366 -0.003060 -0.006537
# 4 0.005475 0.011408 0.004366 0.046671 -0.012621 -0.007916
# 5 -0.012480 -0.001172 -0.003060 -0.012621 0.028849 0.004344
# 6 -0.004707 -0.006519 -0.006537 -0.007916 0.004344 0.036044
#
#
# Mechanical properties :
#
#
# Convention : Reuss Voigt Hill
#
# Bulk Modulus (GPa) = 28.45379 64.64918 46.55148
# Shear Modulus (GPa) = 29.64899 43.42698 36.53798
#
# Velocity S-wave (km/s) = 3.39480 4.10855 3.76861
# Velocity P-wave (km/s) = 5.14065 6.90190 6.08533
#
# Compressibility (1/GPa) = 0.03514471
#
# Stress axis : x y z
#
# Youngs Moduli (GPa) = 62.12811 72.81801 95.93325
#
# Poissons Ratio (x) = 0.12353 0.14573
# Poissons Ratio (y) = 0.10540 -0.06347
# Poissons Ratio (z) = 0.09438 -0.04818
#
# Static dielectric constant tensor:
#      x y z
#    x 2.066770 0.032500 -0.083600 
#    y 0.032500 2.137540 0.148470 
#    z -0.083600 0.148470 2.201000 
# 
# From -- ./inp_files/37672.got.cif
#   From: 2010.05.17/outbox.cif.g08.bks.cpg/sg2_19_cif.got.tgz:37672.got - 2010.06.03 11:33:40.
