data_PCOD9050757
_publ_section_title
;
Structure prediction by ZEFSAII (Michael W. Deem and Ramdas Pophale) SiO2 
 PCOD9050757
Probable space group: P -1
;
_chemical_formula_sum "Si O2"
_cell_formula_units_Z 14
_cell_length_a 9.078180
_cell_length_b 11.364594
_cell_length_c 9.183665
_cell_angle_alpha 110.688319
_cell_angle_beta 132.963539
_cell_angle_gamma 81.202466
_cell_volume 643.281491
_symmetry_space_group_name_H-M "P -1"
_symmetry_group_IT_number 2
_symmetry_cell_setting 'triclinic'
loop_
_space_group_symop_operation_xyz
x,y,z
-x,-y,-z
loop_
_atom_site_type_symbol
_atom_site_label
_atom_site_fract_x
_atom_site_fract_y
_atom_site_fract_z
Si Si1 0.762233 0.975341 0.525920
Si Si2 0.777540 0.525980 0.317312
Si Si3 0.875322 0.138819 0.435228
Si Si4 0.363975 0.750610 0.921920
Si Si5 0.574026 0.462493 0.693608
Si Si6 0.217299 0.302666 0.881383
Si Si7 0.360027 0.808424 0.262780
O O1 0.710717 0.040515 0.365716
O O2 0.748856 0.086232 0.682222
O O3 0.599613 0.861998 0.426769
O O4 0.972288 0.926358 0.596697
O O5 0.662736 0.397029 0.118287
O O6 0.636306 0.553858 0.366215
O O7 0.789188 0.630608 0.249623
O O8 0.000000 0.500000 0.500000
O O9 0.768919 0.229036 0.298517
O O10 0.007291 0.210786 0.687149
O O11 0.595678 0.778945 0.037954
O O12 0.293849 0.808320 0.048691
O O13 0.500000 0.500000 0.500000
O O14 0.660858 0.328331 0.727800
O O15 0.725074 0.583928 0.913307
#
# Coordination Sequence:
#
# PCOD9050757 Si02
#       7
#     2   2   2   2   2   2   2
#     4  10  25  44  65  92 138 176 220 270 313 387
#     4  11  20  38  67  98 127 174 207 259 337 398
#     4  11  23  44  68  99 124 172 232 265 313 393
#     4  11  21  37  71  95 129 170 216 267 332 383
#     4  11  24  41  67 102 133 166 213 273 338 383
#     4  11  21  43  67 100 132 170 211 275 329 396
#     4  11  22  45  65  94 139 173 211 275 330 381
#
# _framework density 21.763413
#
# number of rings (size 3 to 8) (size 9 to 14) (size 15 to 20)
#    0.000    1.143    5.714    0.857    4.000    1.143 
#    2.571    1.429    0.000    0.000    0.000    0.000 
#    0.000    0.000    0.000    0.000    0.000    0.000 
#
# Total GULP energy -78002.338710 kJ/mol
# GULP energy per Si atom -5571.595622 kJ/mol
# Density = 2.171388 g / cm^3
# Si number density = 21.763413 Si / 1000 Ang^3
#
#
#
# Elastic Constant Matrix: (Units=GPa)
#
#
# Indices 1 2 3 4 5 6 
#
# 1 65.2492 18.9671 24.2462 7.0244 -10.8088 3.3001
# 2 18.9671 81.7051 37.4826 16.3540 -2.3066 10.5655
# 3 24.2462 37.4826 108.5730 1.4025 -3.6403 1.2798
# 4 7.0244 16.3540 1.4025 34.8597 -6.9627 -1.7302
# 5 -10.8088 -2.3066 -3.6403 -6.9627 26.6678 -3.4798
# 6 3.3001 10.5655 1.2798 -1.7302 -3.4798 29.0605
#
#
#
# Elastic Compliance Matrix: (Units=1/GPa)
#
#
# Indices 1 2 3 4 5 6 
#
# 1 0.018370 -0.002405 -0.003036 -0.001178 0.006467 -0.000374
# 2 -0.002405 0.017885 -0.005556 -0.008696 -0.003358 -0.006904
# 3 -0.003036 -0.005556 0.011774 0.003045 0.000971 0.002144
# 4 -0.001178 -0.008696 0.003045 0.035025 0.009158 0.006343
# 5 0.006467 -0.003358 0.000971 0.009158 0.043156 0.006156
# 6 -0.000374 -0.006904 0.002144 0.006343 0.006156 0.037984
#
#
# Mechanical properties :
#
#
# Convention : Reuss Voigt Hill
#
# Bulk Modulus (GPa) = 38.40902 46.32434 42.36668
# Shear Modulus (GPa) = 25.65859 29.77303 27.71581
#
# Velocity S-wave (km/s) = 3.43735 3.70270 3.57249
# Velocity P-wave (km/s) = 5.78278 6.29378 6.04368
#
# Compressibility (1/GPa) = 0.02603555
#
# Stress axis : x y z
#
# Youngs Moduli (GPa) = 54.43663 55.91310 84.93013
#
# Poissons Ratio (x) = 0.13448 0.25781
# Poissons Ratio (y) = 0.13093 0.47188
# Poissons Ratio (z) = 0.16525 0.31066
#
# Static dielectric constant tensor:
#      x y z
#    x 1.881470 0.029180 0.051970 
#    y 0.029180 1.850530 0.083950 
#    z 0.051970 0.083950 1.860630 
# 
# From -- ./inp_files/182022.got.cif
#   From: 2010.05.17/outbox.cif.g08.bks.cpg/sg2_92_cif.got.tgz:182022.got - 2010.06.03 11:33:40.
