data_PCOD9050088
_publ_section_title
;
Structure prediction by ZEFSAII (Michael W. Deem and Ramdas Pophale) SiO2 
 PCOD9050088
Probable space group: P -1
;
_chemical_formula_sum "Si O2"
_cell_formula_units_Z 15
_cell_length_a 5.075836
_cell_length_b 14.157177
_cell_length_c 12.752694
_cell_angle_alpha 130.296938
_cell_angle_beta 106.972238
_cell_angle_gamma 54.054396
_cell_volume 560.103939
_symmetry_space_group_name_H-M "P -1"
_symmetry_group_IT_number 2
_symmetry_cell_setting 'triclinic'
loop_
_space_group_symop_operation_xyz
x,y,z
-x,-y,-z
loop_
_atom_site_type_symbol
_atom_site_label
_atom_site_fract_x
_atom_site_fract_y
_atom_site_fract_z
Si Si1 0.500000 0.000000 0.500000
Si Si2 0.265717 0.884794 0.589097
Si Si3 0.201646 0.341017 0.354312
Si Si4 0.771496 0.335168 0.946300
Si Si5 0.997356 0.479356 0.220381
Si Si6 0.357807 0.890957 0.208115
Si Si7 0.795020 0.311767 0.699137
Si Si8 0.759564 0.948084 0.898826
O O1 0.428862 0.925201 0.546184
O O2 0.496531 0.881842 0.333403
O O3 0.509697 0.751151 0.596035
O O4 0.047929 0.835612 0.462083
O O5 0.027306 0.003848 0.731101
O O6 0.087051 0.226479 0.233886
O O7 0.000000 0.500000 0.500000
O O8 0.240573 0.391771 0.281340
O O9 0.901397 0.264308 0.796991
O O10 0.599384 0.261836 0.927311
O O11 0.500000 0.500000 0.000000
O O12 0.004598 0.354398 0.061499
O O13 0.607081 0.593160 0.287436
O O14 0.102967 0.578034 0.246504
O O15 0.403941 0.968056 0.169858
O O16 0.500000 0.000000 0.000000
O O17 0.000000 0.000000 0.000000
#
# Coordination Sequence:
#
# PCOD9050088 Si02
#       8
#     1   2   2   2   2   2   2   2
#     4  12  26  50  80 116 162 208 280 338 418 492
#     4  12  27  48  80 120 162 215 277 345 420 498
#     4  12  27  52  82 120 165 219 281 350 418 500
#     4  10  24  48  75 113 159 212 271 337 407 496
#     4  11  26  47  72 112 158 209 266 333 406 482
#     4  12  27  49  82 116 161 215 279 343 421 499
#     4  11  25  45  76 113 158 206 266 332 407 479
#     4  12  29  55  81 117 169 221 278 342 424 510
#
# _framework density 26.780742
#
# number of rings (size 3 to 8) (size 9 to 14) (size 15 to 20)
#    0.000    0.533    4.000    2.400    3.733    4.800 
#    4.800    0.000    0.000    0.000    0.000    0.000 
#    0.000    0.000    0.000    0.000    0.000    0.000 
#
# Total GULP energy -83848.068798 kJ/mol
# GULP energy per Si atom -5589.871253 kJ/mol
# Density = 2.671979 g / cm^3
# Si number density = 26.780742 Si / 1000 Ang^3
#
#
#
# Elastic Constant Matrix: (Units=GPa)
#
#
# Indices 1 2 3 4 5 6 
#
# 1 105.2812 23.2034 42.8098 -8.5575 -14.6076 25.4811
# 2 23.2034 188.3477 49.7238 -19.1496 -6.5871 15.2143
# 3 42.8098 49.7238 158.9056 -9.2873 9.2950 12.3261
# 4 -8.5575 -19.1496 -9.2873 78.3759 1.3561 1.6504
# 5 -14.6076 -6.5871 9.2950 1.3561 44.3289 5.1726
# 6 25.4811 15.2143 12.3261 1.6504 5.1726 50.2273
#
#
#
# Elastic Compliance Matrix: (Units=1/GPa)
#
#
# Indices 1 2 3 4 5 6 
#
# 1 0.013364 0.000104 -0.003398 0.001120 0.005870 -0.006619
# 2 0.000104 0.006092 -0.001817 0.001294 0.001473 -0.001647
# 3 -0.003398 -0.001817 0.007920 0.000164 -0.003131 0.000648
# 4 0.001120 0.001294 0.000164 0.013243 0.000293 -0.001466
# 5 0.005870 0.001473 -0.003131 0.000293 0.025983 -0.005341
# 6 -0.006619 -0.001647 0.000648 -0.001466 -0.005341 0.024206
#
#
# Mechanical properties :
#
#
# Convention : Reuss Voigt Hill
#
# Bulk Modulus (GPa) = 58.29140 76.00095 67.14617
# Shear Modulus (GPa) = 46.83994 57.03957 51.93976
#
# Velocity S-wave (km/s) = 4.18666 4.62006 4.40869
# Velocity P-wave (km/s) = 6.72192 7.54324 7.14440
#
# Compressibility (1/GPa) = 0.01715519
#
# Stress axis : x y z
#
# Youngs Moduli (GPa) = 74.82572 164.14097 126.27047
#
# Poissons Ratio (x) = -0.01713 0.42901
# Poissons Ratio (y) = -0.00781 0.22948
# Poissons Ratio (z) = 0.25422 0.29830
#
# Static dielectric constant tensor:
#      x y z
#    x 2.040920 -0.021080 -0.019460 
#    y -0.021080 2.044620 0.155040 
#    z -0.019460 0.155040 2.330030 
# 
# From -- ./inp_files/363435.got.cif
#   From: 2010.05.17/outbox.cif.g08.bks.cpg/sg2_182_cif.got.tgz:363435.got - 2010.06.03 11:33:40.
