data_PCOD9050073
_publ_section_title
;
Structure prediction by ZEFSAII (Michael W. Deem and Ramdas Pophale) SiO2 
 PCOD9050073
Probable space group: P -1
;
_chemical_formula_sum "Si O2"
_cell_formula_units_Z 16
_cell_length_a 8.332710
_cell_length_b 8.160454
_cell_length_c 11.210818
_cell_angle_alpha 64.227219
_cell_angle_beta 112.315566
_cell_angle_gamma 112.010815
_cell_volume 614.630491
_symmetry_space_group_name_H-M "P -1"
_symmetry_group_IT_number 2
_symmetry_cell_setting 'triclinic'
loop_
_space_group_symop_operation_xyz
x,y,z
-x,-y,-z
loop_
_atom_site_type_symbol
_atom_site_label
_atom_site_fract_x
_atom_site_fract_y
_atom_site_fract_z
Si Si1 0.965249 0.213773 0.153893
Si Si2 0.119660 0.702355 0.519058
Si Si3 0.627446 0.505185 0.248409
Si Si4 0.290525 0.355111 0.363980
Si Si5 0.776541 0.271870 0.704317
Si Si6 0.683101 0.093666 0.962058
Si Si7 0.789634 0.845206 0.373899
Si Si8 0.849348 0.754500 0.055742
O O1 0.098922 0.322302 0.255284
O O2 0.802030 0.266361 0.018569
O O3 0.102939 0.220664 0.078142
O O4 0.847800 0.033877 0.252486
O O5 0.257000 0.649229 0.663559
O O6 0.220401 0.809844 0.398980
O O7 0.000000 0.500000 0.500000
O O8 0.979764 0.813778 0.481988
O O9 0.437836 0.408683 0.284649
O O10 0.706295 0.680584 0.306460
O O11 0.675455 0.598339 0.102519
O O12 0.286122 0.537073 0.384662
O O13 0.315078 0.196515 0.515902
O O14 0.976153 0.283619 0.813188
O O15 0.645344 0.153850 0.801077
O O16 0.805570 0.947413 0.025141
O O17 0.500000 0.000000 0.000000
#
# Coordination Sequence:
#
# PCOD9050073 Si02
#       8
#     2   2   2   2   2   2   2   2
#     4  11  25  41  62  86 131 167 194 250 313 366
#     4  10  17  34  61  92 105 155 211 254 289 342
#     4  11  21  36  65  93 117 156 213 257 290 356
#     4  12  25  38  57  98 128 159 199 255 315 350
#     4  11  20  36  62  87 124 158 199 251 300 358
#     4  11  23  39  65  93 114 154 212 253 296 361
#     4  11  20  41  65  86 119 166 211 248 302 364
#     4  11  21  42  65  89 118 163 208 245 301 370
#
# _framework density 26.031901000000001
#
# number of rings (size 3 to 8) (size 9 to 14) (size 15 to 20)
#    0.000    1.000    6.250    3.750    0.000    2.500 
#    0.000    3.125    0.000    0.000    0.000    0.000 
#    0.000    0.000    0.000    0.000    0.000    0.000 
#
# Total GULP energy -89318.690252 kJ/mol
# GULP energy per Si atom -5582.418141 kJ/mol
# Density = 2.597265 g / cm^3
# Si number density = 26.031901 Si / 1000 Ang^3
#
#
#
# Elastic Constant Matrix: (Units=GPa)
#
#
# Indices 1 2 3 4 5 6 
#
# 1 99.6063 19.8817 25.3084 -7.9834 -32.2836 19.0878
# 2 19.8817 34.2677 29.0600 0.8363 -10.9622 19.6358
# 3 25.3084 29.0600 134.1889 -27.1096 -47.8053 9.4280
# 4 -7.9834 0.8363 -27.1096 31.9237 8.3014 -3.6259
# 5 -32.2836 -10.9622 -47.8053 8.3014 62.7021 -15.3446
# 6 19.0878 19.6358 9.4280 -3.6259 -15.3446 30.8178
#
#
#
# Elastic Compliance Matrix: (Units=1/GPa)
#
#
# Indices 1 2 3 4 5 6 
#
# 1 0.013530 -0.007293 0.002204 0.003623 0.006739 -0.000626
# 2 -0.007293 0.074075 -0.021698 -0.023412 -0.015649 -0.046588
# 3 0.002204 -0.021698 0.018358 0.015033 0.013045 0.015107
# 4 0.003623 -0.023412 0.015033 0.045635 0.007381 0.017119
# 5 0.006739 -0.015649 0.013045 0.007381 0.029955 0.017590
# 6 -0.000626 -0.046588 0.015107 0.017119 0.017590 0.068671
#
#
# Mechanical properties :
#
#
# Convention : Reuss Voigt Hill
#
# Bulk Modulus (GPa) = 19.08777 46.28479 32.68628
# Shear Modulus (GPa) = 15.56371 38.00959 26.78665
#
# Velocity S-wave (km/s) = 2.44779 3.82529 3.21127
# Velocity P-wave (km/s) = 3.91628 6.10975 5.13159
#
# Compressibility (1/GPa) = 0.05238958
#
# Stress axis : x y z
#
# Youngs Moduli (GPa) = 73.91214 13.49987 54.47131
#
# Poissons Ratio (x) = 0.09846 -0.12007
# Poissons Ratio (y) = 0.53905 1.18190
# Poissons Ratio (z) = -0.16292 0.29292
#
# Static dielectric constant tensor:
#      x y z
#    x 2.082280 0.040390 -0.042410 
#    y 0.040390 2.164260 0.007480 
#    z -0.042410 0.007480 2.103090 
# 
# From -- ./inp_files/381415.got.cif
#   From: 2010.05.17/outbox.cif.g08.bks.cpg/sg2_191_cif.got.tgz:381415.got - 2010.06.03 11:33:40.
