data_PCOD9050380
_publ_section_title
;
Structure prediction by ZEFSAII (Michael W. Deem and Ramdas Pophale) SiO2 
 PCOD9050380
Probable space group: P -1
;
_chemical_formula_sum "Si O2"
_cell_formula_units_Z 14
_cell_length_a 4.649933
_cell_length_b 14.528351
_cell_length_c 28.354067
_cell_angle_alpha 15.989751
_cell_angle_beta 69.085282
_cell_angle_gamma 66.984894
_cell_volume 484.302583
_symmetry_space_group_name_H-M "P -1"
_symmetry_group_IT_number 2
_symmetry_cell_setting 'triclinic'
loop_
_space_group_symop_operation_xyz
x,y,z
-x,-y,-z
loop_
_atom_site_type_symbol
_atom_site_label
_atom_site_fract_x
_atom_site_fract_y
_atom_site_fract_z
Si Si1 0.552561 0.824113 0.785492
Si Si2 0.866471 0.209563 0.358266
Si Si3 0.864071 0.710099 0.358956
Si Si4 0.572973 0.302223 0.799065
Si Si5 0.786366 0.176090 0.985043
Si Si6 0.253144 0.213929 0.517934
Si Si7 0.187734 0.345830 0.004968
O O1 0.904385 0.619969 0.864548
O O2 0.326112 0.544159 0.941307
O O3 0.472475 0.092226 0.700824
O O4 0.432647 0.007013 0.653028
O O5 0.087869 0.481280 0.200833
O O6 0.921792 0.092335 0.880145
O O7 0.000000 0.000000 0.500000
O O8 0.820092 0.000842 0.417079
O O9 0.000000 0.500000 0.500000
O O10 0.933253 0.441526 0.445010
O O11 0.058658 0.006040 0.190369
O O12 0.467729 0.571947 0.713526
O O13 0.536849 0.528459 0.642331
O O14 0.338373 0.036569 0.944565
O O15 0.512876 0.745802 0.001697
#
# Coordination Sequence:
#
# PCOD9050380 Si02
#       7
#     2   2   2   2   2   2   2
#     4  11  28  51  88 126 172 223 287 354 430 514
#     4  12  30  55  86 130 176 227 291 359 437 513
#     4  10  24  55  85 128 172 227 283 354 432 520
#     4  12  27  55  85 118 168 224 287 353 425 510
#     4  12  29  54  87 121 168 226 288 353 429 509
#     4  11  27  53  87 128 172 228 286 361 431 514
#     4  12  26  53  88 125 170 226 289 355 427 511
#
# _framework density 28.907547999999998
#
# number of rings (size 3 to 8) (size 9 to 14) (size 15 to 20)
#    0.000    0.571    1.429    3.857    6.000    2.286 
#    0.000    4.286    0.000    0.000    0.000    0.000 
#    0.000    0.000    0.000    0.000    0.000    0.000 
#
# Total GULP energy -78746.686302 kJ/mol
# GULP energy per Si atom -5624.763307 kJ/mol
# Density = 2.884175 g / cm^3
# Si number density = 28.907548 Si / 1000 Ang^3
#
#
#
# Elastic Constant Matrix: (Units=GPa)
#
#
# Indices 1 2 3 4 5 6 
#
# 1 200.5278 80.0874 97.8273 -6.7844 14.6391 -11.5363
# 2 80.0874 237.8286 102.6158 -37.2559 12.0627 -16.4240
# 3 97.8273 102.6158 207.5314 7.5171 19.7199 -11.4207
# 4 -6.7844 -37.2559 7.5171 63.1628 -2.3612 -3.4652
# 5 14.6391 12.0627 19.7199 -2.3612 56.9378 -0.4233
# 6 -11.5363 -16.4240 -11.4207 -3.4652 -0.4233 64.5137
#
#
#
# Elastic Compliance Matrix: (Units=1/GPa)
#
#
# Indices 1 2 3 4 5 6 
#
# 1 0.006754 -0.001011 -0.002616 0.000446 -0.000594 0.000507
# 2 -0.001011 0.006487 -0.002819 0.004120 0.000041 0.001193
# 3 -0.002616 -0.002819 0.007696 -0.002915 -0.001516 0.000010
# 4 0.000446 0.004120 -0.002915 0.018777 0.000813 0.001627
# 5 -0.000594 0.000041 -0.001516 0.000813 0.018264 -0.000201
# 6 0.000507 0.001193 0.000010 0.001627 -0.000201 0.015983
#
#
# Mechanical properties :
#
#
# Convention : Reuss Voigt Hill
#
# Bulk Modulus (GPa) = 124.27880 134.10544 129.19212
# Shear Modulus (GPa) = 55.84485 61.28002 58.56243
#
# Velocity S-wave (km/s) = 4.40004 4.60919 4.50583
# Velocity P-wave (km/s) = 8.30054 8.64974 8.47694
#
# Compressibility (1/GPa) = 0.00804642
#
# Stress axis : x y z
#
# Youngs Moduli (GPa) = 148.05283 154.15636 129.94417
#
# Poissons Ratio (x) = 0.15581 0.33993
# Poissons Ratio (y) = 0.14964 0.36626
# Poissons Ratio (z) = 0.38730 0.43451
#
# Static dielectric constant tensor:
#      x y z
#    x 2.200250 -0.006800 -0.013020 
#    y -0.006800 2.281860 -0.006070 
#    z -0.013020 -0.006070 2.277020 
# 
# From -- ./inp_files/435920.got.cif
#   From: 2010.05.17/outbox.cif.g08.bks.cpg/sg2_218_cif.got.tgz:435920.got - 2010.06.03 11:33:40.
