data_PCOD9050193
_publ_section_title
;
Structure prediction by ZEFSAII (Michael W. Deem and Ramdas Pophale) SiO2 
 PCOD9050193
Probable space group: P -1
;
_chemical_formula_sum "Si O2"
_cell_formula_units_Z 12
_cell_length_a 13.874032
_cell_length_b 5.128902
_cell_length_c 7.979761
_cell_angle_alpha 80.104318
_cell_angle_beta 107.143683
_cell_angle_gamma 65.062962
_cell_volume 462.386323
_symmetry_space_group_name_H-M "P -1"
_symmetry_group_IT_number 2
_symmetry_cell_setting 'triclinic'
loop_
_space_group_symop_operation_xyz
x,y,z
-x,-y,-z
loop_
_atom_site_type_symbol
_atom_site_label
_atom_site_fract_x
_atom_site_fract_y
_atom_site_fract_z
Si Si1 0.756193 0.405823 0.313924
Si Si2 0.707963 0.419062 0.927442
Si Si3 0.084077 0.109948 0.763449
Si Si4 0.740404 0.739057 0.589476
Si Si5 0.959674 0.726906 0.793237
Si Si6 0.460387 0.635614 0.649781
O O1 0.860111 0.063317 0.363234
O O2 0.788946 0.558619 0.461292
O O3 0.638191 0.419806 0.313735
O O4 0.727511 0.553465 0.096767
O O5 0.736946 0.539541 0.762032
O O6 0.575290 0.502794 0.834931
O O7 0.801810 0.062805 0.039288
O O8 0.001481 0.973859 0.793949
O O9 0.026129 0.469486 0.711901
O O10 0.822236 0.867508 0.682039
O O11 0.609841 0.000163 0.451273
O O12 0.000000 0.500000 0.000000
O O13 0.500000 0.500000 0.500000
#
# Coordination Sequence:
#
# PCOD9050193 Si02
#       6
#     2   2   2   2   2   2
#     4  10  26  47  71 110 144 194 251 303 380 441
#     4  10  24  49  70 106 146 191 248 304 377 440
#     4  10  27  46  76 111 144 205 244 305 378 440
#     4  12  27  45  74 107 146 197 248 310 373 445
#     4  12  25  47  78 109 154 196 250 307 372 448
#     4  12  26  45  75 106 147 194 250 313 374 446
#
# _framework density 25.952324000000001
#
# number of rings (size 3 to 8) (size 9 to 14) (size 15 to 20)
#    1.000    0.000    3.333    1.500    7.000    2.000 
#    3.000    0.000    0.000    0.000    0.000    0.000 
#    0.000    0.000    0.000    0.000    0.000    0.000 
#
# Total GULP energy -67228.880079 kJ/mol
# GULP energy per Si atom -5602.406673 kJ/mol
# Density = 2.589326 g / cm^3
# Si number density = 25.952324 Si / 1000 Ang^3
#
#
#
# Elastic Constant Matrix: (Units=GPa)
#
#
# Indices 1 2 3 4 5 6 
#
# 1 115.4176 22.1968 30.1461 10.9950 24.2944 1.0957
# 2 22.1968 124.7423 36.5045 5.0876 -2.8725 -12.7479
# 3 30.1461 36.5045 142.9111 10.5007 13.9750 -2.1125
# 4 10.9950 5.0876 10.5007 47.7206 -32.7112 -6.9379
# 5 24.2944 -2.8725 13.9750 -32.7112 43.9898 -2.6557
# 6 1.0957 -12.7479 -2.1125 -6.9379 -2.6557 37.9163
#
#
#
# Elastic Compliance Matrix: (Units=1/GPa)
#
#
# Indices 1 2 3 4 5 6 
#
# 1 0.018660 -0.004596 0.002410 -0.028351 -0.033024 -0.009451
# 2 -0.004596 0.010346 -0.003476 0.009813 0.011981 0.006052
# 3 0.002410 -0.003476 0.009651 -0.012709 -0.014318 -0.004029
# 4 -0.028351 0.009813 -0.012709 0.098801 0.095506 0.028178
# 5 -0.033024 0.011981 -0.014318 0.095506 0.119132 0.030004
# 6 -0.009451 0.006052 -0.004029 0.028178 0.030004 0.035715
#
#
# Mechanical properties :
#
#
# Convention : Reuss Voigt Hill
#
# Bulk Modulus (GPa) = 36.58485 62.30730 49.44608
# Shear Modulus (GPa) = 15.98775 45.54026 30.76400
#
# Velocity S-wave (km/s) = 2.48471 4.19354 3.44671
# Velocity P-wave (km/s) = 4.72856 6.89262 5.91048
#
# Compressibility (1/GPa) = 0.02733372
#
# Stress axis : x y z
#
# Youngs Moduli (GPa) = 53.59033 96.65771 103.61361
#
# Poissons Ratio (x) = 0.44422 -0.24975
# Poissons Ratio (y) = 0.24629 0.36020
# Poissons Ratio (z) = -0.12918 0.33602
#
# Static dielectric constant tensor:
#      x y z
#    x 2.050400 -0.017750 -0.020410 
#    y -0.017750 2.047150 0.011140 
#    z -0.020410 0.011140 2.078320 
# 
# From -- ./inp_files/279079.got.cif
#   From: 2010.05.17/outbox.cif.g08.bks.cpg/sg2_140_cif.got.tgz:279079.got - 2010.06.03 11:33:40.
