data_PCOD9050458
_publ_section_title
;
Structure prediction by ZEFSAII (Michael W. Deem and Ramdas Pophale) SiO2 
 PCOD9050458
Probable space group: P -1
;
_chemical_formula_sum "Si O2"
_cell_formula_units_Z 16
_cell_length_a 13.515174
_cell_length_b 8.164346
_cell_length_c 12.336809
_cell_angle_alpha 106.129736
_cell_angle_beta 38.237266
_cell_angle_gamma 123.219740
_cell_volume 673.566755
_symmetry_space_group_name_H-M "P -1"
_symmetry_group_IT_number 2
_symmetry_cell_setting 'triclinic'
loop_
_space_group_symop_operation_xyz
x,y,z
-x,-y,-z
loop_
_atom_site_type_symbol
_atom_site_label
_atom_site_fract_x
_atom_site_fract_y
_atom_site_fract_z
Si Si1 0.888342 0.973965 0.699156
Si Si2 0.281132 0.817154 0.664443
Si Si3 0.586351 0.573643 0.775022
Si Si4 0.422624 0.812979 0.200802
Si Si5 0.841157 0.628947 0.376560
Si Si6 0.892380 0.176890 0.389243
Si Si7 0.761336 0.407755 0.893715
Si Si8 0.178375 0.793990 0.997219
O O1 0.687488 0.768591 0.805377
O O2 0.999266 0.925941 0.682744
O O3 0.000000 0.000000 0.500000
O O4 0.960431 0.211246 0.697376
O O5 0.244892 0.609221 0.606068
O O6 0.167877 0.876094 0.693245
O O7 0.222935 0.784889 0.832972
O O8 0.500000 0.000000 0.500000
O O9 0.620055 0.402443 0.757314
O O10 0.681072 0.636672 0.584421
O O11 0.367306 0.500175 0.955412
O O12 0.290554 0.872386 0.390230
O O13 0.648342 0.982970 0.063847
O O14 0.356928 0.776690 0.125150
O O15 0.955204 0.724216 0.182828
O O16 0.047916 0.420536 0.301088
O O17 0.800559 0.358495 0.971200
#
# Coordination Sequence:
#
# PCOD9050458 Si02
#       8
#     2   2   2   2   2   2   2   2
#     4  10  25  41  71 104 150 178 231 292 360 419
#     4  12  25  51  76  98 139 193 245 294 337 427
#     4  11  23  45  66 107 152 185 224 291 365 425
#     4  12  24  43  73 107 143 187 236 292 360 422
#     4  11  24  45  71 100 140 191 233 291 353 408
#     4  12  25  46  73 103 143 191 242 283 359 420
#     4  12  26  40  72 111 148 180 234 295 360 426
#     4  12  26  44  74 105 141 185 247 288 347 422
#
# _framework density 23.754141000000001
#
# number of rings (size 3 to 8) (size 9 to 14) (size 15 to 20)
#    0.000    0.500    5.000    2.250    8.750    0.000 
#    0.000    4.375    0.000    0.000    0.000    0.000 
#    0.000    0.000    0.000    0.000    0.000    0.000 
#
# Total GULP energy -89216.337698 kJ/mol
# GULP energy per Si atom -5576.021106 kJ/mol
# Density = 2.370008 g / cm^3
# Si number density = 23.754141 Si / 1000 Ang^3
#
#
#
# Elastic Constant Matrix: (Units=GPa)
#
#
# Indices 1 2 3 4 5 6 
#
# 1 105.8616 20.2558 22.0775 6.3203 18.8382 3.8218
# 2 20.2558 117.8062 19.7843 -14.2011 -2.2253 14.9560
# 3 22.0775 19.7843 126.5898 -2.2412 5.4920 4.6528
# 4 6.3203 -14.2011 -2.2412 41.2327 11.2573 -0.6961
# 5 18.8382 -2.2253 5.4920 11.2573 38.0074 -2.1505
# 6 3.8218 14.9560 4.6528 -0.6961 -2.1505 26.7067
#
#
#
# Elastic Compliance Matrix: (Units=1/GPa)
#
#
# Indices 1 2 3 4 5 6 
#
# 1 0.011087 -0.001787 -0.001420 -0.001001 -0.005142 -0.000779
# 2 -0.001787 0.010040 -0.001022 0.003510 0.000294 -0.005074
# 3 -0.001420 -0.001022 0.008376 0.000516 -0.000760 -0.000732
# 4 -0.001001 0.003510 0.000516 0.027710 -0.007682 -0.001809
# 5 -0.005142 0.000294 -0.000760 -0.007682 0.031434 0.003034
# 6 -0.000779 -0.005074 -0.000732 -0.001809 0.003034 0.040721
#
#
# Mechanical properties :
#
#
# Convention : Reuss Voigt Hill
#
# Bulk Modulus (GPa) = 47.51563 52.72142 50.11852
# Shear Modulus (GPa) = 34.52050 40.39869 37.45960
#
# Velocity S-wave (km/s) = 3.81628 4.12843 3.97542
# Velocity P-wave (km/s) = 6.28213 6.70582 6.49743
#
# Compressibility (1/GPa) = 0.02104571
#
# Stress axis : x y z
#
# Youngs Moduli (GPa) = 90.19247 99.59995 119.38945
#
# Poissons Ratio (x) = 0.17797 0.16958
# Poissons Ratio (y) = 0.16116 0.12197
# Poissons Ratio (z) = 0.12811 0.10176
#
# Static dielectric constant tensor:
#      x y z
#    x 1.890190 0.049020 0.049190 
#    y 0.049020 1.982210 -0.018400 
#    z 0.049190 -0.018400 1.943410 
# 
# From -- ./inp_files/446279.got.cif
#   From: 2010.05.17/outbox.cif.g08.bks.cpg/sg2_224_cif.got.tgz:446279.got - 2010.06.03 11:33:40.
