data_PCOD9050925
_publ_section_title
;
Structure prediction by ZEFSAII (Michael W. Deem and Ramdas Pophale) SiO2 
 PCOD9050925
Probable space group: P -1
;
_chemical_formula_sum "Si O2"
_cell_formula_units_Z 16
_cell_length_a 30.149605
_cell_length_b 5.558028
_cell_length_c 8.970907
_cell_angle_alpha 102.728744
_cell_angle_beta 150.552543
_cell_angle_gamma 68.820585
_cell_volume 674.397275
_symmetry_space_group_name_H-M "P -1"
_symmetry_group_IT_number 2
_symmetry_cell_setting 'triclinic'
loop_
_space_group_symop_operation_xyz
x,y,z
-x,-y,-z
loop_
_atom_site_type_symbol
_atom_site_label
_atom_site_fract_x
_atom_site_fract_y
_atom_site_fract_z
Si Si1 0.396182 0.516287 0.755185
Si Si2 0.961593 0.739037 0.747897
Si Si3 0.791287 0.077633 0.871095
Si Si4 0.528975 0.655664 0.737229
Si Si5 0.128985 0.248955 0.214789
Si Si6 0.863323 0.288396 0.373442
Si Si7 0.701294 0.710483 0.095255
Si Si8 0.662027 0.898790 0.666674
O O1 0.308451 0.769890 0.482960
O O2 0.372699 0.284339 0.569572
O O3 0.500000 0.500000 0.000000
O O4 0.403706 0.502721 0.953375
O O5 0.930217 0.827431 0.837751
O O6 0.912180 0.513419 0.549224
O O7 0.924762 0.992756 0.569138
O O8 0.074116 0.557857 0.056871
O O9 0.863109 0.907899 0.935117
O O10 0.757255 0.919058 0.875156
O O11 0.831958 0.265166 0.109312
O O12 0.500000 0.500000 0.500000
O O13 0.430751 0.835347 0.552684
O O14 0.596475 0.788870 0.871534
O O15 0.231981 0.200442 0.585269
O O16 0.767328 0.402884 0.212981
O O17 0.685695 0.814469 0.895284
#
# Coordination Sequence:
#
# PCOD9050925 Si02
#       8
#     2   2   2   2   2   2   2   2
#     4  12  26  44  66 101 142 188 237 294 362 418
#     4  10  25  51  73 106 147 188 233 310 371 434
#     4  12  25  44  72 104 138 190 241 294 356 437
#     4  12  26  42  69 102 141 192 238 296 352 423
#     4  10  25  44  72 106 137 185 239 300 364 436
#     4  11  24  48  74 102 147 189 240 297 369 435
#     4  11  24  44  71 104 136 195 240 295 353 437
#     4  12  25  48  67  97 151 188 236 297 358 419
#
# _framework density 23.724888
#
# number of rings (size 3 to 8) (size 9 to 14) (size 15 to 20)
#    0.000    0.750    2.500    4.500    5.250    5.500 
#    2.250    0.000    0.000    0.000    0.000    0.000 
#    0.000    0.000    0.000    0.000    0.000    0.000 
#
# Total GULP energy -89479.859433 kJ/mol
# GULP energy per Si atom -5592.491215 kJ/mol
# Density = 2.367089 g / cm^3
# Si number density = 23.724888 Si / 1000 Ang^3
#
#
#
# Elastic Constant Matrix: (Units=GPa)
#
#
# Indices 1 2 3 4 5 6 
#
# 1 112.9126 28.5510 27.7366 10.9740 -25.7425 -17.0965
# 2 28.5510 71.6023 27.3267 3.2159 -6.6099 -2.8684
# 3 27.7366 27.3267 110.7310 3.2039 -17.3214 12.0057
# 4 10.9740 3.2159 3.2039 50.4567 4.8733 -8.8355
# 5 -25.7425 -6.6099 -17.3214 4.8733 39.0369 -7.4530
# 6 -17.0965 -2.8684 12.0057 -8.8355 -7.4530 36.5072
#
#
#
# Elastic Compliance Matrix: (Units=1/GPa)
#
#
# Indices 1 2 3 4 5 6 
#
# 1 0.013847 -0.003467 -0.001960 -0.002135 0.009523 0.008284
# 2 -0.003467 0.016601 -0.003443 0.000116 -0.000891 0.000659
# 3 -0.001960 -0.003443 0.011284 -0.001121 0.002377 -0.004685
# 4 -0.002135 0.000116 -0.001121 0.021378 -0.003835 0.003769
# 5 0.009523 -0.000891 0.002377 -0.003835 0.035161 0.009858
# 6 0.008284 0.000659 -0.004685 0.003769 0.009858 0.035789
#
#
# Mechanical properties :
#
#
# Convention : Reuss Voigt Hill
#
# Bulk Modulus (GPa) = 41.67774 51.38605 46.53190
# Shear Modulus (GPa) = 31.28981 39.30894 35.29938
#
# Velocity S-wave (km/s) = 3.63555 4.07488 3.86147
# Velocity P-wave (km/s) = 5.93534 6.62160 6.28784
#
# Compressibility (1/GPa) = 0.02399362
#
# Stress axis : x y z
#
# Youngs Moduli (GPa) = 72.21523 60.23655 88.62398
#
# Poissons Ratio (x) = 0.20883 0.17368
# Poissons Ratio (y) = 0.25035 0.30512
# Poissons Ratio (z) = 0.14153 0.20738
#
# Static dielectric constant tensor:
#      x y z
#    x 2.019040 0.022810 -0.083400 
#    y 0.022810 1.962770 0.000810 
#    z -0.083400 0.000810 2.042100 
# 
# From -- ./inp_files/107310.got.cif
#   From: 2010.05.17/outbox.cif.g08.bks.cpg/sg2_54_cif.got.tgz:107310.got - 2010.06.03 11:33:40.
