data_PCOD9050251
_publ_section_title
;
Structure prediction by ZEFSAII (Michael W. Deem and Ramdas Pophale) SiO2 
 PCOD9050251
Probable space group: P -1
;
_chemical_formula_sum "Si O2"
_cell_formula_units_Z 14
_cell_length_a 9.388436
_cell_length_b 13.708639
_cell_length_c 4.953621
_cell_angle_alpha 97.701689
_cell_angle_beta 108.135307
_cell_angle_gamma 98.031319
_cell_volume 589.161168
_symmetry_space_group_name_H-M "P -1"
_symmetry_group_IT_number 2
_symmetry_cell_setting 'triclinic'
loop_
_space_group_symop_operation_xyz
x,y,z
-x,-y,-z
loop_
_atom_site_type_symbol
_atom_site_label
_atom_site_fract_x
_atom_site_fract_y
_atom_site_fract_z
Si Si1 0.930131 0.118370 0.240668
Si Si2 0.738941 0.279565 0.280956
Si Si3 0.564714 0.407091 0.865347
Si Si4 0.251996 0.427862 0.273755
Si Si5 0.046437 0.406937 0.641721
Si Si6 0.416355 0.255600 0.330286
Si Si7 0.136060 0.110237 0.847519
O O1 0.804316 0.187239 0.161057
O O2 0.069779 0.153162 0.552010
O O3 0.856146 0.005504 0.246459
O O4 0.005919 0.112994 0.993572
O O5 0.582503 0.241231 0.331519
O O6 0.889024 0.329263 0.552879
O O7 0.693866 0.365337 0.092205
O O8 0.450738 0.304291 0.669340
O O9 0.500000 0.500000 0.000000
O O10 0.644317 0.461932 0.659869
O O11 0.118940 0.425947 0.981383
O O12 0.176528 0.388974 0.498777
O O13 0.352315 0.349096 0.203052
O O14 0.000000 0.500000 0.500000
O O15 0.289457 0.164790 0.110767
#
# Coordination Sequence:
#
# PCOD9050251 Si02
#       7
#     2   2   2   2   2   2   2
#     4  10  24  49  77 107 134 181 229 301 339 430
#     4  12  27  41  70 104 142 176 240 291 348 401
#     4  12  26  45  64 101 146 192 231 289 342 415
#     4  12  25  45  65  88 136 186 235 267 339 405
#     4  12  25  42  64  94 129 180 233 289 326 396
#     4  12  27  42  71 100 139 192 228 288 349 425
#     4  10  24  50  78 101 141 179 233 280 372 414
#
# _framework density 23.762599999999999
#
# number of rings (size 3 to 8) (size 9 to 14) (size 15 to 20)
#    0.000    0.571    2.857    4.286    6.000    0.571 
#    0.000    0.714    0.000    0.000    0.000    0.000 
#    0.000    0.000    0.000    0.000    0.000    0.000 
#
# Total GULP energy -78136.657410 kJ/mol
# GULP energy per Si atom -5581.189815 kJ/mol
# Density = 2.370852 g / cm^3
# Si number density = 23.762600 Si / 1000 Ang^3
#
#
#
# Elastic Constant Matrix: (Units=GPa)
#
#
# Indices 1 2 3 4 5 6 
#
# 1 121.6332 38.8518 26.7324 12.9410 5.6238 -29.6405
# 2 38.8518 74.1219 16.4796 10.8926 14.2123 -24.1861
# 3 26.7324 16.4796 126.2677 13.3701 20.8002 -2.0212
# 4 12.9410 10.8926 13.3701 40.3098 10.1792 7.2375
# 5 5.6238 14.2123 20.8002 10.1792 43.9970 -3.3198
# 6 -29.6405 -24.1861 -2.0212 7.2375 -3.3198 39.8478
#
#
#
# Elastic Compliance Matrix: (Units=1/GPa)
#
#
# Indices 1 2 3 4 5 6 
#
# 1 0.011863 -0.002977 -0.001858 -0.004280 0.001907 0.007859
# 2 -0.002977 0.020160 -0.000650 -0.005219 -0.003816 0.010619
# 3 -0.001858 -0.000650 0.009099 -0.001049 -0.003720 -0.001434
# 4 -0.004280 -0.005219 -0.001049 0.031601 -0.005533 -0.012606
# 5 0.001907 -0.003816 -0.003720 -0.005533 0.026919 0.002162
# 6 0.007859 0.010619 -0.001434 -0.012606 0.002162 0.039784
#
#
# Mechanical properties :
#
#
# Convention : Reuss Voigt Hill
#
# Bulk Modulus (GPa) = 33.16540 54.01672 43.59106
# Shear Modulus (GPa) = 31.16296 40.82817 35.99557
#
# Velocity S-wave (km/s) = 3.62529 4.14958 3.89626
# Velocity P-wave (km/s) = 5.61346 6.76312 6.21493
#
# Compressibility (1/GPa) = 0.03015190
#
# Stress axis : x y z
#
# Youngs Moduli (GPa) = 84.29354 49.60356 109.90549
#
# Poissons Ratio (x) = 0.14768 0.20422
# Poissons Ratio (y) = 0.25096 0.07139
# Poissons Ratio (z) = 0.15663 0.03222
#
# Static dielectric constant tensor:
#      x y z
#    x 2.404330 0.052870 -0.048850 
#    y 0.052870 1.944730 0.025220 
#    z -0.048850 0.025220 1.966370 
# 
# From -- ./inp_files/40114.got.cif
#   From: 2010.05.17/outbox.cif.g08.bks.cpg/sg2_21_cif.got.tgz:40114.got - 2010.06.03 11:33:40.
