data_PCOD9050363
_publ_section_title
;
Structure prediction by ZEFSAII (Michael W. Deem and Ramdas Pophale) SiO2 
 PCOD9050363
Probable space group: P -1
;
_chemical_formula_sum "Si O2"
_cell_formula_units_Z 12
_cell_length_a 4.877733
_cell_length_b 9.675367
_cell_length_c 11.232859
_cell_angle_alpha 62.828480
_cell_angle_beta 80.853244
_cell_angle_gamma 94.835887
_cell_volume 458.133928
_symmetry_space_group_name_H-M "P -1"
_symmetry_group_IT_number 2
_symmetry_cell_setting 'triclinic'
loop_
_space_group_symop_operation_xyz
x,y,z
-x,-y,-z
loop_
_atom_site_type_symbol
_atom_site_label
_atom_site_fract_x
_atom_site_fract_y
_atom_site_fract_z
Si Si1 0.241786 0.443966 0.303950
Si Si2 0.500000 0.500000 0.000000
Si Si3 0.669507 0.700762 0.298411
Si Si4 0.700858 0.904907 0.591348
Si Si5 0.000000 0.500000 0.500000
Si Si6 0.506720 0.961944 0.839167
Si Si7 0.891726 0.777912 0.999327
O O1 0.326898 0.508006 0.141152
O O2 0.382381 0.570196 0.348476
O O3 0.341811 0.278280 0.363884
O O4 0.934306 0.427359 0.391508
O O5 0.247599 0.362913 0.022067
O O6 0.859838 0.657702 0.407867
O O7 0.559136 0.865611 0.246745
O O8 0.852813 0.715317 0.159937
O O9 0.500000 0.000000 0.500000
O O10 0.657110 0.914193 0.730635
O O11 0.000000 0.000000 0.500000
O O12 0.716007 0.922976 0.943449
O O13 0.212469 0.842396 0.919815
#
# Coordination Sequence:
#
# PCOD9050363 Si02
#       7
#     2   1   2   2   1   2   2
#     4  11  27  49  77 113 154 212 260 330 393 473
#     4  10  24  52  78 120 152 208 262 334 388 478
#     4  11  28  47  79 114 160 208 262 328 397 481
#     4  12  28  48  75 111 159 209 264 322 393 474
#     4  12  28  46  76 110 160 206 262 316 398 472
#     4  12  26  50  79 118 156 205 268 333 394 465
#     4  11  26  48  83 118 156 206 264 330 400 467
#
# _framework density 26.193214000000001
#
# number of rings (size 3 to 8) (size 9 to 14) (size 15 to 20)
#    0.000    0.667    1.667    3.500   11.667    0.667 
#    0.000    0.000    0.000    0.000    0.000    0.000 
#    0.000    0.000    0.000    0.000    0.000    0.000 
#
# Total GULP energy -66848.416838 kJ/mol
# GULP energy per Si atom -5570.701403 kJ/mol
# Density = 2.613360 g / cm^3
# Si number density = 26.193214 Si / 1000 Ang^3
#
#
#
# Elastic Constant Matrix: (Units=GPa)
#
#
# Indices 1 2 3 4 5 6 
#
# 1 133.2684 18.5998 57.7660 -18.9619 -2.5989 -0.3225
# 2 18.5998 137.3492 66.8244 -0.5443 1.4523 -4.7940
# 3 57.7660 66.8244 179.9122 6.0539 20.3104 -10.3135
# 4 -18.9619 -0.5443 6.0539 55.4820 -8.4005 -7.1204
# 5 -2.5989 1.4523 20.3104 -8.4005 48.9925 -13.6063
# 6 -0.3225 -4.7940 -10.3135 -7.1204 -13.6063 38.4293
#
#
#
# Elastic Compliance Matrix: (Units=1/GPa)
#
#
# Indices 1 2 3 4 5 6 
#
# 1 0.009741 0.000532 -0.003761 0.004347 0.003094 0.001040
# 2 0.000532 0.009029 -0.003702 0.001060 0.001741 0.000950
# 3 -0.003761 -0.003702 0.008709 -0.002945 -0.004264 -0.000211
# 4 0.004347 0.001060 -0.002945 0.021598 0.006723 0.005761
# 5 0.003094 0.001741 -0.004264 0.006723 0.026107 0.009588
# 6 0.001040 0.000950 -0.000211 0.005761 0.009588 0.030554
#
#
# Mechanical properties :
#
#
# Convention : Reuss Voigt Hill
#
# Bulk Modulus (GPa) = 73.44236 81.87894 77.66065
# Shear Modulus (GPa) = 40.27698 49.07005 44.67352
#
# Velocity S-wave (km/s) = 3.92559 4.33296 4.13430
# Velocity P-wave (km/s) = 6.97471 7.50734 7.24592
#
# Compressibility (1/GPa) = 0.01361612
#
# Stress axis : x y z
#
# Youngs Moduli (GPa) = 102.65859 110.75703 114.82141
#
# Poissons Ratio (x) = -0.05887 0.43185
# Poissons Ratio (y) = -0.05456 0.42506
# Poissons Ratio (z) = 0.38610 0.41001
#
# Static dielectric constant tensor:
#      x y z
#    x 1.985560 -0.311640 -0.284130 
#    y -0.311640 2.314040 0.526910 
#    z -0.284130 0.526910 2.744560 
# 
# From -- ./inp_files/359730.got.cif
#   From: 2010.05.17/outbox.cif.g08.bks.cpg/sg2_180_cif.got.tgz:359730.got - 2010.06.03 11:33:40.
