data_PCOD9050797
_publ_section_title
;
Structure prediction by ZEFSAII (Michael W. Deem and Ramdas Pophale) SiO2 
 PCOD9050797
Probable space group: P -1
;
_chemical_formula_sum "Si O2"
_cell_formula_units_Z 16
_cell_length_a 16.538042
_cell_length_b 10.097588
_cell_length_c 8.977021
_cell_angle_alpha 69.141134
_cell_angle_beta 60.127399
_cell_angle_gamma 31.945283
_cell_volume 680.526657
_symmetry_space_group_name_H-M "P -1"
_symmetry_group_IT_number 2
_symmetry_cell_setting 'triclinic'
loop_
_space_group_symop_operation_xyz
x,y,z
-x,-y,-z
loop_
_atom_site_type_symbol
_atom_site_label
_atom_site_fract_x
_atom_site_fract_y
_atom_site_fract_z
Si Si1 0.670520 0.616852 0.745024
Si Si2 0.478460 0.901897 0.343111
Si Si3 0.248927 0.602803 0.538224
Si Si4 0.606437 0.230767 0.964004
Si Si5 0.240506 0.379231 0.037425
Si Si6 0.997936 0.728757 0.846235
Si Si7 0.307846 0.844206 0.416857
Si Si8 0.056581 0.357986 0.350159
O O1 0.752344 0.409671 0.633209
O O2 0.763556 0.512295 0.859574
O O3 0.641114 0.814171 0.634909
O O4 0.487582 0.785580 0.877439
O O5 0.621238 0.682585 0.416966
O O6 0.373807 0.887498 0.441234
O O7 0.588230 0.804750 0.134145
O O8 0.074281 0.779396 0.697111
O O9 0.311374 0.674473 0.515708
O O10 0.597289 0.250409 0.786656
O O11 0.500000 0.500000 0.000000
O O12 0.798751 0.987229 0.934764
O O13 0.207854 0.265589 0.185280
O O14 0.091733 0.582685 0.973480
O O15 0.042123 0.555889 0.745838
O O16 0.119815 0.124814 0.438033
O O17 0.000000 0.500000 0.500000
#
# Coordination Sequence:
#
# PCOD9050797 Si02
#       8
#     2   2   2   2   2   2   2   2
#     4  12  22  42  75 102 132 187 239 286 337 416
#     4  11  22  41  69 101 135 186 235 288 343 406
#     4  11  25  43  67 100 146 180 233 290 347 410
#     4  11  23  45  72 100 138 181 231 281 352 420
#     4  11  22  43  70  98 138 178 232 291 340 409
#     4  10  25  44  68 101 140 184 227 284 349 411
#     4  11  22  43  68  98 141 186 227 285 355 407
#     4  11  23  42  69 101 137 179 231 288 345 412
#
# _framework density 23.511202000000001
#
# number of rings (size 3 to 8) (size 9 to 14) (size 15 to 20)
#    0.000    1.000    3.750    3.750    0.000    3.000 
#    4.500    0.625    0.000    0.000    0.000    0.000 
#    0.000    0.000    0.000    0.000    0.000    0.000 
#
# Total GULP energy -89314.299453 kJ/mol
# GULP energy per Si atom -5582.143716 kJ/mol
# Density = 2.345769 g / cm^3
# Si number density = 23.511202 Si / 1000 Ang^3
#
#
#
# Elastic Constant Matrix: (Units=GPa)
#
#
# Indices 1 2 3 4 5 6 
#
# 1 158.9106 41.3181 45.7036 -4.2019 -13.8785 -1.9989
# 2 41.3181 74.1742 25.0931 -4.6516 10.9003 3.6372
# 3 45.7036 25.0931 80.7014 -0.8903 -4.3856 3.6965
# 4 -4.2019 -4.6516 -0.8903 19.4400 3.2321 2.2187
# 5 -13.8785 10.9003 -4.3856 3.2321 47.6379 -2.4136
# 6 -1.9989 3.6372 3.6965 2.2187 -2.4136 43.0260
#
#
#
# Elastic Compliance Matrix: (Units=1/GPa)
#
#
# Indices 1 2 3 4 5 6 
#
# 1 0.008686 -0.004188 -0.003498 0.000038 0.003227 0.001237
# 2 -0.004188 0.018288 -0.003506 0.004561 -0.006139 -0.002019
# 3 -0.003498 -0.003506 0.015568 -0.000962 0.001227 -0.001085
# 4 0.000038 0.004561 -0.000962 0.053698 -0.004934 -0.003347
# 5 0.003227 -0.006139 0.001227 -0.004934 0.023893 0.002158
# 6 0.001237 -0.002019 -0.001085 -0.003347 0.002158 0.023857
#
#
# Mechanical properties :
#
#
# Convention : Reuss Voigt Hill
#
# Bulk Modulus (GPa) = 49.60450 59.77955 54.69203
# Shear Modulus (GPa) = 28.88632 35.46554 32.17593
#
# Velocity S-wave (km/s) = 3.50897 3.88809 3.70339
# Velocity P-wave (km/s) = 6.12872 6.75556 6.44976
#
# Compressibility (1/GPa) = 0.02015946
#
# Stress axis : x y z
#
# Youngs Moduli (GPa) = 115.12661 54.68192 64.23386
#
# Poissons Ratio (x) = 0.22899 0.22469
# Poissons Ratio (y) = 0.48211 0.22517
# Poissons Ratio (z) = 0.40271 0.19169
#
# Static dielectric constant tensor:
#      x y z
#    x 1.956370 -0.005850 0.009660 
#    y -0.005850 1.916150 0.003300 
#    z 0.009660 0.003300 1.929830 
# 
# From -- ./inp_files/298207.got.cif
#   From: 2010.05.17/outbox.cif.g08.bks.cpg/sg2_150_cif.got.tgz:298207.got - 2010.06.03 11:33:40.
