data_PCOD9050791
_publ_section_title
;
Structure prediction by ZEFSAII (Michael W. Deem and Ramdas Pophale) SiO2 
 PCOD9050791
Probable space group: P -1
;
_chemical_formula_sum "Si O2"
_cell_formula_units_Z 16
_cell_length_a 18.814185
_cell_length_b 5.219151
_cell_length_c 12.023647
_cell_angle_alpha 120.817030
_cell_angle_beta 39.582719
_cell_angle_gamma 123.636344
_cell_volume 618.176387
_symmetry_space_group_name_H-M "P -1"
_symmetry_group_IT_number 2
_symmetry_cell_setting 'triclinic'
loop_
_space_group_symop_operation_xyz
x,y,z
-x,-y,-z
loop_
_atom_site_type_symbol
_atom_site_label
_atom_site_fract_x
_atom_site_fract_y
_atom_site_fract_z
Si Si1 0.572882 0.766962 0.894221
Si Si2 0.328620 0.671712 0.469285
Si Si3 0.868910 0.797980 0.131390
Si Si4 0.295927 0.312181 0.911299
Si Si5 0.879197 0.890832 0.384767
Si Si6 0.813451 0.210106 0.746695
Si Si7 0.549944 0.606629 0.584209
Si Si8 0.123963 0.829206 0.099724
O O1 0.613371 0.589554 0.705702
O O2 0.693132 0.940762 0.846040
O O3 0.500000 0.500000 0.000000
O O4 0.500000 0.000000 0.000000
O O5 0.191823 0.470620 0.576255
O O6 0.372912 0.632709 0.532030
O O7 0.386108 0.013243 0.421088
O O8 0.775680 0.780702 0.140084
O O9 0.834688 0.902345 0.315441
O O10 0.888450 0.461538 0.029262
O O11 0.000000 0.000000 0.000000
O O12 0.427393 0.508160 0.779051
O O13 0.228236 0.487588 0.114286
O O14 0.261920 0.993320 0.949487
O O15 0.017486 0.958153 0.223723
O O16 0.857058 0.131965 0.556600
O O17 0.895537 0.218634 0.755090
O O18 0.500000 0.500000 0.500000
#
# Coordination Sequence:
#
# PCOD9050791 Si02
#       8
#     2   2   2   2   2   2   2   2
#     4  11  23  42  71 100 142 190 242 295 360 436
#     4  11  26  45  69 107 140 192 243 307 362 431
#     4  11  24  45  69 104 137 188 243 300 364 433
#     4  11  25  44  73 103 145 188 239 299 371 439
#     4  11  24  47  72 102 145 185 249 299 366 439
#     4  10  25  44  67 106 142 189 236 300 371 435
#     4  12  27  46  73 106 149 195 247 305 369 442
#     4  11  25  44  71 104 140 191 238 301 367 438
#
# _framework density 25.882580000000001
#
# number of rings (size 3 to 8) (size 9 to 14) (size 15 to 20)
#    0.000    1.000    1.250    4.125    8.750    1.500 
#    4.500    0.000    0.000    0.000    0.000    0.000 
#    0.000    0.000    0.000    0.000    0.000    0.000 
#
# Total GULP energy -89226.716717 kJ/mol
# GULP energy per Si atom -5576.669795 kJ/mol
# Density = 2.582367 g / cm^3
# Si number density = 25.882580 Si / 1000 Ang^3
#
#
#
# Elastic Constant Matrix: (Units=GPa)
#
#
# Indices 1 2 3 4 5 6 
#
# 1 72.9819 16.5775 42.7684 12.4960 -5.2547 9.0340
# 2 16.5775 133.9345 46.5510 -20.0821 -10.6196 8.7481
# 3 42.7684 46.5510 131.4168 7.4627 9.5816 2.3154
# 4 12.4960 -20.0821 7.4627 43.2135 20.2398 5.5833
# 5 -5.2547 -10.6196 9.5816 20.2398 42.0562 -0.6203
# 6 9.0340 8.7481 2.3154 5.5833 -0.6203 29.2748
#
#
#
# Elastic Compliance Matrix: (Units=1/GPa)
#
#
# Indices 1 2 3 4 5 6 
#
# 1 0.019915 -0.000638 -0.006285 -0.008028 0.007567 -0.003767
# 2 -0.000638 0.009911 -0.003596 0.005649 0.000471 -0.003548
# 3 -0.006285 -0.003596 0.011202 -0.000103 -0.004165 0.002059
# 4 -0.008028 0.005649 -0.000103 0.037185 -0.017547 -0.006666
# 5 0.007567 0.000471 -0.004165 -0.017547 0.034264 0.001926
# 6 -0.003767 -0.003548 0.002059 -0.006666 0.001926 0.037531
#
#
# Mechanical properties :
#
#
# Convention : Reuss Voigt Hill
#
# Bulk Modulus (GPa) = 50.02279 61.12524 55.57402
# Shear Modulus (GPa) = 28.13586 38.40466 33.27026
#
# Velocity S-wave (km/s) = 3.30063 3.85620 3.58918
# Velocity P-wave (km/s) = 5.82188 6.59505 6.22049
#
# Compressibility (1/GPa) = 0.01999089
#
# Stress axis : x y z
#
# Youngs Moduli (GPa) = 50.21227 100.89597 89.27303
#
# Poissons Ratio (x) = 0.06441 0.56105
# Poissons Ratio (y) = 0.03205 0.32100
# Poissons Ratio (z) = 0.31557 0.36279
#
# Static dielectric constant tensor:
#      x y z
#    x 2.112270 -0.169890 0.054220 
#    y -0.169890 2.324790 -0.126820 
#    z 0.054220 -0.126820 2.027200 
# 
# From -- ./inp_files/468465.got.cif
#   From: 2010.05.17/outbox.cif.g08.bks.cpg/sg2_235_cif.got.tgz:468465.got - 2010.06.03 11:33:40.
