data_PCOD9050789
_publ_section_title
;
Structure prediction by ZEFSAII (Michael W. Deem and Ramdas Pophale) SiO2 
 PCOD9050789
Probable space group: P -1
;
_chemical_formula_sum "Si O2"
_cell_formula_units_Z 16
_cell_length_a 9.660676
_cell_length_b 8.341290
_cell_length_c 15.346363
_cell_angle_alpha 106.038173
_cell_angle_beta 112.153913
_cell_angle_gamma 126.782385
_cell_volume 675.270915
_symmetry_space_group_name_H-M "P -1"
_symmetry_group_IT_number 2
_symmetry_cell_setting 'triclinic'
loop_
_space_group_symop_operation_xyz
x,y,z
-x,-y,-z
loop_
_atom_site_type_symbol
_atom_site_label
_atom_site_fract_x
_atom_site_fract_y
_atom_site_fract_z
Si Si1 0.338369 0.015478 0.679965
Si Si2 0.108131 0.762528 0.744122
Si Si3 0.941096 0.941635 0.579193
Si Si4 0.504775 0.363781 0.334166
Si Si5 0.773138 0.640054 0.860639
Si Si6 0.271464 0.123097 0.985351
Si Si7 0.221081 0.506462 0.759597
Si Si8 0.615273 0.206322 0.478751
O O1 0.133317 0.967872 0.652968
O O2 0.584642 0.323877 0.759479
O O3 0.329812 0.912532 0.752864
O O4 0.256042 0.823538 0.554411
O O5 0.187871 0.993457 0.851526
O O6 0.106740 0.583275 0.766664
O O7 0.827807 0.515128 0.609172
O O8 0.021836 0.184629 0.677618
O O9 0.000000 0.000000 0.500000
O O10 0.662486 0.640227 0.466856
O O11 0.299517 0.286369 0.220368
O O12 0.674782 0.442423 0.306727
O O13 0.459738 0.175931 0.365556
O O14 0.055436 0.847300 0.949427
O O15 0.733014 0.692055 0.952453
O O16 0.541729 0.303206 0.095957
O O17 0.500000 0.000000 0.500000
#
# Coordination Sequence:
#
# PCOD9050789 Si02
#       8
#     2   2   2   2   2   2   2   2
#     4  12  21  38  65  93 126 169 210 263 319 372
#     4  12  24  38  66  96 131 168 211 266 318 382
#     4  10  17  34  64  96 119 161 216 259 314 369
#     4  10  19  39  67  94 123 169 211 259 321 380
#     4  10  22  42  71  88 131 174 211 263 312 382
#     4  10  22  43  64  93 130 173 216 257 316 372
#     4  10  20  40  68  92 127 167 218 264 310 374
#     4  12  25  40  62  99 136 163 206 264 333 385
#
# _framework density 23.694192000000001
#
# number of rings (size 3 to 8) (size 9 to 14) (size 15 to 20)
#    0.000    1.250    6.250    3.000    0.000    0.500 
#    0.000    5.625   11.000    0.000    0.000    0.000 
#    0.000    0.000    0.000    0.000    0.000    0.000 
#
# Total GULP energy -89157.146668 kJ/mol
# GULP energy per Si atom -5572.321667 kJ/mol
# Density = 2.364026 g / cm^3
# Si number density = 23.694192 Si / 1000 Ang^3
#
#
#
# Elastic Constant Matrix: (Units=GPa)
#
#
# Indices 1 2 3 4 5 6 
#
# 1 34.9992 -2.3777 17.9846 -7.8356 -11.7434 3.9268
# 2 -2.3777 87.2423 26.7332 3.1242 -7.3006 1.6522
# 3 17.9846 26.7332 141.1124 0.3553 -8.1172 -0.6098
# 4 -7.8356 3.1242 0.3553 14.7662 19.4622 -3.7442
# 5 -11.7434 -7.3006 -8.1172 19.4622 14.9825 -3.1432
# 6 3.9268 1.6522 -0.6098 -3.7442 -3.1432 22.4874
#
#
#
# Elastic Compliance Matrix: (Units=1/GPa)
#
#
# Indices 1 2 3 4 5 6 
#
# 1 0.035513 0.001566 -0.005056 0.021588 -0.002867 -0.003260
# 2 0.001566 0.011171 -0.002918 0.011453 -0.009925 -0.000654
# 3 -0.005056 -0.002918 0.008139 0.001408 -0.002554 0.001196
# 4 0.021588 0.011453 0.001408 -0.064689 0.107221 -0.000357
# 5 -0.002867 -0.009925 -0.002554 0.107221 -0.079340 0.007923
# 6 -0.003260 -0.000654 0.001196 -0.000357 0.007923 0.046167
#
#
# Mechanical properties :
#
#
# Convention : Reuss Voigt Hill
#
# Bulk Modulus (GPa) = 23.80636 38.67046 31.23841
# Shear Modulus (GPa) = -308.26645 25.18147 -141.54249
#
# Velocity S-wave (km/s) = -11.41861 3.26355 -7.73737
# Velocity P-wave (km/s) = 12.79754 5.52785 8.16149
#
# Compressibility (1/GPa) = 0.04200559
#
# Stress axis : x y z
#
# Youngs Moduli (GPa) = 28.15837 89.51729 122.87199
#
# Poissons Ratio (x) = -0.14018 0.62126
# Poissons Ratio (y) = -0.04409 0.35859
# Poissons Ratio (z) = 0.14237 0.26125
#
# Static dielectric constant tensor:
#      x y z
#    x 1.939050 0.019230 -0.013600 
#    y 0.019230 1.687540 0.056880 
#    z -0.013600 0.056880 1.842780 
# 
# From -- ./inp_files/515951.got.cif
#   From: 2010.05.17/outbox.cif.g08.bks.cpg/sg2_258_cif.got.tgz:515951.got - 2010.06.03 11:33:40.
