data_PCOD9050326
_publ_section_title
;
Structure prediction by ZEFSAII (Michael W. Deem and Ramdas Pophale) SiO2 
 PCOD9050326
Probable space group: P -1
;
_chemical_formula_sum "Si O2"
_cell_formula_units_Z 16
_cell_length_a 16.355995
_cell_length_b 14.865918
_cell_length_c 8.918897
_cell_angle_alpha 140.593291
_cell_angle_beta 33.347498
_cell_angle_gamma 139.282407
_cell_volume 716.381981
_symmetry_space_group_name_H-M "P -1"
_symmetry_group_IT_number 2
_symmetry_cell_setting 'triclinic'
loop_
_space_group_symop_operation_xyz
x,y,z
-x,-y,-z
loop_
_atom_site_type_symbol
_atom_site_label
_atom_site_fract_x
_atom_site_fract_y
_atom_site_fract_z
Si Si1 0.670554 0.496360 0.931610
Si Si2 0.380385 0.841637 0.036962
Si Si3 0.523549 0.998459 0.285916
Si Si4 0.826028 0.725695 0.567483
Si Si5 0.841655 0.160980 0.877222
Si Si6 0.411819 0.261540 0.825190
Si Si7 0.292709 0.517627 0.794671
Si Si8 0.074362 0.513294 0.686371
O O1 0.636170 0.638151 0.094158
O O2 0.841105 0.497325 0.613010
O O3 0.547612 0.360495 0.854791
O O4 0.657981 0.495480 0.127650
O O5 0.405570 0.859319 0.200241
O O6 0.220624 0.839619 0.198187
O O7 0.391601 0.677312 0.777815
O O8 0.500000 0.000000 0.000000
O O9 0.704513 0.032611 0.005843
O O10 0.500000 0.000000 0.500000
O O11 0.472644 0.140369 0.497509
O O12 0.736089 0.798868 0.914339
O O13 0.714285 0.623529 0.480152
O O14 0.881691 0.602957 0.419288
O O15 0.981057 0.838393 0.401507
O O16 0.853280 0.319352 0.141336
O O17 0.111404 0.517812 0.079067
#
# Coordination Sequence:
#
# PCOD9050326 Si02
#       8
#     2   2   2   2   2   2   2   2
#     4  10  21  34  59  90 123 152 185 264 302 350
#     4  10  21  33  59  86 118 157 202 240 273 353
#     4  11  23  41  62  84 116 164 205 239 279 361
#     4  10  20  36  64  89 122 154 183 265 307 346
#     4  10  18  38  59  88 113 154 206 234 298 344
#     4  10  22  40  56  86 126 157 193 236 323 347
#     4  11  19  35  59  99 115 149 206 245 300 350
#     4  10  17  34  62  88 122 150 190 256 302 347
#
# _framework density 22.334454000000001
#
# number of rings (size 3 to 8) (size 9 to 14) (size 15 to 20)
#    0.000    1.750    3.750    1.875    0.000    0.500 
#    0.000    5.000    0.000    0.000    0.000    0.000 
#    0.000    0.000    0.000    0.000    0.000    0.000 
#
# Total GULP energy -89364.732101 kJ/mol
# GULP energy per Si atom -5585.295756 kJ/mol
# Density = 2.228362 g / cm^3
# Si number density = 22.334454 Si / 1000 Ang^3
#
#
#
# Elastic Constant Matrix: (Units=GPa)
#
#
# Indices 1 2 3 4 5 6 
#
# 1 106.0288 35.2408 17.1309 -3.2877 19.6732 2.4264
# 2 35.2408 73.7450 24.6951 -4.9955 6.0188 12.9951
# 3 17.1309 24.6951 75.6209 -19.3692 2.4614 6.9551
# 4 -3.2877 -4.9955 -19.3692 26.6179 -1.3219 3.4763
# 5 19.6732 6.0188 2.4614 -1.3219 31.0336 -4.1151
# 6 2.4264 12.9951 6.9551 3.4763 -4.1151 25.8082
#
#
#
# Elastic Compliance Matrix: (Units=1/GPa)
#
#
# Indices 1 2 3 4 5 6 
#
# 1 0.012588 -0.005258 -0.001173 -0.000726 -0.006793 0.000795
# 2 -0.005258 0.019027 -0.003940 0.001090 -0.001105 -0.008348
# 3 -0.001173 -0.003940 0.018610 0.013272 -0.000028 -0.004713
# 4 -0.000726 0.001090 0.013272 0.048724 -0.000139 -0.010642
# 5 -0.006793 -0.001105 -0.000028 -0.000139 0.037699 0.007233
# 6 0.000795 -0.008348 -0.004713 -0.010642 0.007233 0.046733
#
#
# Mechanical properties :
#
#
# Convention : Reuss Voigt Hill
#
# Bulk Modulus (GPa) = 33.91539 45.50314 39.70927
# Shear Modulus (GPa) = 23.37002 28.58046 25.97524
#
# Velocity S-wave (km/s) = 3.23827 3.58111 3.41400
# Velocity P-wave (km/s) = 5.40371 6.12510 5.77568
#
# Compressibility (1/GPa) = 0.02948514
#
# Stress axis : x y z
#
# Youngs Moduli (GPa) = 79.44059 52.55692 53.73484
#
# Poissons Ratio (x) = 0.27632 0.06302
# Poissons Ratio (y) = 0.41767 0.21169
# Poissons Ratio (z) = 0.09316 0.20705
#
# Static dielectric constant tensor:
#      x y z
#    x 1.872000 -0.053110 -0.006540 
#    y -0.053110 1.882020 -0.030450 
#    z -0.006540 -0.030450 1.820020 
# 
# From -- ./inp_files/261675.got.cif
#   From: 2010.05.17/outbox.cif.g08.bks.cpg/sg2_131_cif.got.tgz:261675.got - 2010.06.03 11:33:40.
