data_PCOD9050662
_publ_section_title
;
Structure prediction by ZEFSAII (Michael W. Deem and Ramdas Pophale) SiO2 
 PCOD9050662
Probable space group: P -1
;
_chemical_formula_sum "Si O2"
_cell_formula_units_Z 16
_cell_length_a 8.896939
_cell_length_b 13.130177
_cell_length_c 8.158977
_cell_angle_alpha 134.558716
_cell_angle_beta 85.433337
_cell_angle_gamma 87.851216
_cell_volume 671.097879
_symmetry_space_group_name_H-M "P -1"
_symmetry_group_IT_number 2
_symmetry_cell_setting 'triclinic'
loop_
_space_group_symop_operation_xyz
x,y,z
-x,-y,-z
loop_
_atom_site_type_symbol
_atom_site_label
_atom_site_fract_x
_atom_site_fract_y
_atom_site_fract_z
Si Si1 0.706597 0.102877 0.348256
Si Si2 0.820017 0.364777 0.980329
Si Si3 0.716543 0.998025 0.872804
Si Si4 0.983613 0.883145 0.104556
Si Si5 0.209041 0.332029 0.492707
Si Si6 0.867075 0.373364 0.618934
Si Si7 0.562214 0.174307 0.776060
Si Si8 0.269801 0.313242 0.126788
O O1 0.748908 0.259784 0.469864
O O2 0.866636 0.024354 0.324344
O O3 0.591203 0.106547 0.515628
O O4 0.655438 0.032304 0.103144
O O5 0.792831 0.523430 0.238346
O O6 0.657350 0.309889 0.912104
O O7 0.898629 0.368426 0.803047
O O8 0.922848 0.237340 0.924714
O O9 0.883832 0.051942 0.930792
O O10 0.737881 0.829496 0.632633
O O11 0.631763 0.083473 0.825025
O O12 0.855467 0.792023 0.947284
O O13 0.318821 0.345886 0.343243
O O14 0.028098 0.338233 0.477088
O O15 0.799461 0.534629 0.765538
O O16 0.391076 0.232836 0.903008
#
# Coordination Sequence:
#
# PCOD9050662 Si02
#       8
#     2   2   2   2   2   2   2   2
#     4  11  23  44  71 101 136 184 225 285 343 404
#     4  10  25  43  70 103 134 181 229 280 348 402
#     4  11  24  46  74 102 135 179 235 282 347 401
#     4  11  22  42  73 102 133 175 234 283 341 402
#     4  12  23  42  72 101 131 177 231 288 335 401
#     4  11  24  42  71 105 134 173 232 291 341 398
#     4  10  28  48  64 102 145 182 227 278 341 421
#     4  12  26  43  66 102 141 179 227 277 348 411
#
# _framework density 23.841529000000001
#
# number of rings (size 3 to 8) (size 9 to 14) (size 15 to 20)
#    0.000    1.000    3.750    1.875    5.250    5.000 
#    2.250    0.000    0.000    0.000    0.000    0.000 
#    0.000    0.000    0.000    0.000    0.000    0.000 
#
# Total GULP energy -89350.989371 kJ/mol
# GULP energy per Si atom -5584.436836 kJ/mol
# Density = 2.378726 g / cm^3
# Si number density = 23.841529 Si / 1000 Ang^3
#
#
#
# Elastic Constant Matrix: (Units=GPa)
#
#
# Indices 1 2 3 4 5 6 
#
# 1 -31.2149 44.4043 91.7199 37.4509 70.6851 98.9253
# 2 44.4043 95.5130 48.8345 -2.8442 -36.1059 -18.9496
# 3 91.7199 48.8345 115.7612 -31.3693 -60.0847 -21.5643
# 4 37.4509 -2.8442 -31.3693 8.8294 -37.4887 -57.1257
# 5 70.6851 -36.1059 -60.0847 -37.4887 -30.0518 -73.3503
# 6 98.9253 -18.9496 -21.5643 -57.1257 -73.3503 -47.6524
#
#
#
# Elastic Compliance Matrix: (Units=1/GPa)
#
#
# Indices 1 2 3 4 5 6 
#
# 1 0.015219 -0.000544 -0.003467 0.011366 0.006896 0.009140
# 2 -0.000544 0.014613 -0.006204 -0.006478 0.002618 -0.000397
# 3 -0.003467 -0.006204 0.012285 -0.001995 0.001268 -0.009851
# 4 0.011366 -0.006478 -0.001995 0.032948 -0.010057 0.003057
# 5 0.006896 0.002618 0.001268 -0.010057 0.025614 -0.014670
# 6 0.009140 -0.000397 -0.009851 0.003057 -0.014670 0.021520
#
#
# Mechanical properties :
#
#
# Convention : Reuss Voigt Hill
#
# Bulk Modulus (GPa) = 46.11107 61.10853 53.60980
# Shear Modulus (GPa) = 33.36498 -14.10156 9.63171
#
# Velocity S-wave (km/s) = 3.74498 -2.43465 2.01213
# Velocity P-wave (km/s) = 6.17110 4.21703 5.28516
#
# Compressibility (1/GPa) = 0.02168677
#
# Stress axis : x y z
#
# Youngs Moduli (GPa) = 65.70851 68.43332 81.39841
#
# Poissons Ratio (x) = 0.03724 0.28220
# Poissons Ratio (y) = 0.03576 0.50498
# Poissons Ratio (z) = 0.22781 0.42455
#
# Static dielectric constant tensor:
#      x y z
#    x 1.962060 -0.001570 0.036230 
#    y -0.001570 1.911870 0.015830 
#    z 0.036230 0.015830 1.961370 
# 
# From -- ./inp_files/209271.got.cif
#   From: 2010.05.17/outbox.cif.g08.bks.cpg/sg2_105_cif.got.tgz:209271.got - 2010.06.03 11:33:40.
