data_PCOD9050565
_publ_section_title
;
Structure prediction by ZEFSAII (Michael W. Deem and Ramdas Pophale) SiO2 
 PCOD9050565
Probable space group: P -1
;
_chemical_formula_sum "Si O2"
_cell_formula_units_Z 14
_cell_length_a 16.686225
_cell_length_b 14.265863
_cell_length_c 11.400390
_cell_angle_alpha 28.669945
_cell_angle_beta 41.300852
_cell_angle_gamma 27.005731
_cell_volume 585.388173
_symmetry_space_group_name_H-M "P -1"
_symmetry_group_IT_number 2
_symmetry_cell_setting 'triclinic'
loop_
_space_group_symop_operation_xyz
x,y,z
-x,-y,-z
loop_
_atom_site_type_symbol
_atom_site_label
_atom_site_fract_x
_atom_site_fract_y
_atom_site_fract_z
Si Si1 0.155331 0.366868 0.348371
Si Si2 0.647456 0.896415 0.359531
Si Si3 0.632203 0.107526 0.521148
Si Si4 0.152695 0.805309 0.816099
Si Si5 0.673930 0.925609 0.919285
Si Si6 0.872598 0.454389 0.411610
Si Si7 0.481934 0.631834 0.198845
O O1 0.191816 0.242290 0.574234
O O2 0.010325 0.434704 0.351198
O O3 0.338017 0.113278 0.349257
O O4 0.124832 0.633666 0.096393
O O5 0.712054 0.652151 0.466141
O O6 0.500000 0.000000 0.500000
O O7 0.590731 0.149148 0.067630
O O8 0.728717 0.169935 0.274264
O O9 0.465226 0.422469 0.413106
O O10 0.738582 0.927562 0.721273
O O11 0.301531 0.593117 0.783395
O O12 0.970083 0.134357 0.632485
O O13 0.614449 0.176429 0.790974
O O14 0.806215 0.638337 0.165283
O O15 0.500000 0.000000 0.000000
#
# Coordination Sequence:
#
# PCOD9050565 Si02
#       7
#     2   2   2   2   2   2   2
#     4  11  21  42  67  92 133 169 205 262 319 372
#     4  11  21  40  69  93 128 171 208 261 313 376
#     4   9  21  39  64  92 128 160 217 255 308 377
#     4   9  20  41  61  92 129 165 207 259 311 378
#     4  11  22  41  67  91 129 171 209 266 317 372
#     4  10  25  43  61  97 128 162 219 258 316 381
#     4   9  20  41  60  95 129 159 214 259 305 373
#
# _framework density 23.915754
#
# number of rings (size 3 to 8) (size 9 to 14) (size 15 to 20)
#    0.857    1.143    1.429    1.714    2.000    3.429 
#    7.714    2.143    0.000    0.000    0.000    0.000 
#    0.000    0.000    0.000    0.000    0.000    0.000 
#
# Total GULP energy -77980.743002 kJ/mol
# GULP energy per Si atom -5570.053072 kJ/mol
# Density = 2.386132 g / cm^3
# Si number density = 23.915754 Si / 1000 Ang^3
#
#
#
# Elastic Constant Matrix: (Units=GPa)
#
#
# Indices 1 2 3 4 5 6 
#
# 1 95.2692 18.3874 67.3166 -3.0495 18.0564 20.7976
# 2 18.3874 100.1742 55.4327 -19.5975 13.8135 18.6666
# 3 67.3166 55.4327 160.1774 -25.5296 1.6010 38.2817
# 4 -3.0495 -19.5975 -25.5296 47.2818 3.3695 -3.1754
# 5 18.0564 13.8135 1.6010 3.3695 41.0344 4.3247
# 6 20.7976 18.6666 38.2817 -3.1754 4.3247 48.3347
#
#
#
# Elastic Compliance Matrix: (Units=1/GPa)
#
#
# Indices 1 2 3 4 5 6 
#
# 1 0.017423 0.002192 -0.007936 -0.001797 -0.007791 -0.001479
# 2 0.002192 0.014017 -0.004669 0.003701 -0.005603 -0.001914
# 3 -0.007936 -0.004669 0.013026 0.003891 0.004792 -0.005272
# 4 -0.001797 0.003701 0.003891 0.024715 -0.002437 -0.001896
# 5 -0.007791 -0.005603 0.004792 -0.002437 0.029814 -0.001106
# 6 -0.001479 -0.001914 -0.005272 -0.001896 -0.001106 0.026215
#
#
# Mechanical properties :
#
#
# Convention : Reuss Voigt Hill
#
# Bulk Modulus (GPa) = 42.29926 70.87715 56.58821
# Shear Modulus (GPa) = 32.48519 41.62913 37.05716
#
# Velocity S-wave (km/s) = 3.68953 4.17664 3.94062
# Velocity P-wave (km/s) = 5.98961 7.27734 6.66465
#
# Compressibility (1/GPa) = 0.02364107
#
# Stress axis : x y z
#
# Youngs Moduli (GPa) = 57.39553 71.34106 76.76824
#
# Poissons Ratio (x) = -0.15636 0.60922
# Poissons Ratio (y) = -0.12580 0.35840
# Poissons Ratio (z) = 0.45548 0.33306
#
# Static dielectric constant tensor:
#      x y z
#    x 1.993230 -0.137500 -0.007040 
#    y -0.137500 2.136520 -0.055710 
#    z -0.007040 -0.055710 1.891200 
# 
# From -- ./inp_files/465736.got.cif
#   From: 2010.05.17/outbox.cif.g08.bks.cpg/sg2_233_cif.got.tgz:465736.got - 2010.06.03 11:33:40.
