data_PCOD9050929
_publ_section_title
;
Structure prediction by ZEFSAII (Michael W. Deem and Ramdas Pophale) SiO2 
 PCOD9050929
Probable space group: P -1
;
_chemical_formula_sum "Si O2"
_cell_formula_units_Z 14
_cell_length_a 10.676587
_cell_length_b 8.084288
_cell_length_c 7.556738
_cell_angle_alpha 105.458018
_cell_angle_beta 103.278729
_cell_angle_gamma 107.975694
_cell_volume 562.282030
_symmetry_space_group_name_H-M "P -1"
_symmetry_group_IT_number 2
_symmetry_cell_setting 'triclinic'
loop_
_space_group_symop_operation_xyz
x,y,z
-x,-y,-z
loop_
_atom_site_type_symbol
_atom_site_label
_atom_site_fract_x
_atom_site_fract_y
_atom_site_fract_z
Si Si1 0.093826 0.512394 0.776275
Si Si2 0.637568 0.841080 0.906004
Si Si3 0.244539 0.266405 0.768471
Si Si4 0.089070 0.872462 0.033344
Si Si5 0.326547 0.753326 0.644219
Si Si6 0.126812 0.884687 0.469247
Si Si7 0.334898 0.411246 0.441395
O O1 0.176900 0.400814 0.872301
O O2 0.035040 0.651799 0.894942
O O3 0.215597 0.644668 0.726309
O O4 0.980615 0.329267 0.585598
O O5 0.485171 0.824327 0.789347
O O6 0.706211 0.743881 0.762189
O O7 0.638210 0.747618 0.068189
O O8 0.761357 0.043015 0.996525
O O9 0.295929 0.336810 0.606930
O O10 0.125121 0.058622 0.634228
O O11 0.118193 0.893115 0.258201
O O12 0.000000 0.000000 0.000000
O O13 0.282853 0.903069 0.577965
O O14 0.296666 0.586492 0.446237
O O15 0.500000 0.500000 0.500000
#
# Coordination Sequence:
#
# PCOD9050929 Si02
#       7
#     2   2   2   2   2   2   2
#     4  11  26  46  72 108 143 193 248 300 360 440
#     4  11  24  48  72 108 153 187 247 296 363 436
#     4  11  24  45  76 108 142 197 238 300 365 423
#     4  12  28  47  74 107 148 194 242 308 364 436
#     4  10  25  44  72 107 145 194 240 304 360 430
#     4  12  25  45  71 107 149 192 246 296 368 432
#     4   9  21  43  67 106 144 190 234 295 355 428
#
# _framework density 24.898536
#
# number of rings (size 3 to 8) (size 9 to 14) (size 15 to 20)
#    0.000    1.143    1.429    3.000    4.000    9.143 
#    2.571    0.000    0.000    0.000    0.000    0.000 
#    0.000    0.000    0.000    0.000    0.000    0.000 
#
# Total GULP energy -78076.937452 kJ/mol
# GULP energy per Si atom -5576.924104 kJ/mol
# Density = 2.484187 g / cm^3
# Si number density = 24.898536 Si / 1000 Ang^3
#
#
#
# Elastic Constant Matrix: (Units=GPa)
#
#
# Indices 1 2 3 4 5 6 
#
# 1 107.1307 51.2381 46.2012 0.2717 7.5245 -8.9528
# 2 51.2381 111.8329 61.4074 20.7774 -3.6350 -24.2663
# 3 46.2012 61.4074 106.0589 -0.0351 3.5873 -19.6419
# 4 0.2717 20.7774 -0.0351 50.9477 -14.0846 -3.7416
# 5 7.5245 -3.6350 3.5873 -14.0846 55.8062 9.7745
# 6 -8.9528 -24.2663 -19.6419 -3.7416 9.7745 41.3419
#
#
#
# Elastic Compliance Matrix: (Units=1/GPa)
#
#
# Indices 1 2 3 4 5 6 
#
# 1 0.012930 -0.004816 -0.002985 0.001454 -0.001323 -0.001000
# 2 -0.004816 0.017377 -0.006964 -0.006790 -0.000419 0.005333
# 3 -0.002985 -0.006964 0.015349 0.002854 -0.000846 0.003017
# 4 0.001454 -0.006790 0.002854 0.023788 0.005435 -0.001447
# 5 -0.001323 -0.000419 -0.000846 0.005435 0.020419 -0.005270
# 6 -0.001000 0.005333 0.003017 -0.001447 -0.005270 0.029651
#
#
# Mechanical properties :
#
#
# Convention : Reuss Voigt Hill
#
# Bulk Modulus (GPa) = 62.00110 71.41286 66.70698
# Shear Modulus (GPa) = 32.37947 40.69755 36.53851
#
# Velocity S-wave (km/s) = 3.61010 4.04733 3.83495
# Velocity P-wave (km/s) = 6.50635 7.11231 6.81607
#
# Compressibility (1/GPa) = 0.01612875
#
# Stress axis : x y z
#
# Youngs Moduli (GPa) = 77.33759 57.54666 65.14986
#
# Poissons Ratio (x) = 0.27712 0.19444
# Poissons Ratio (y) = 0.37242 0.45370
# Poissons Ratio (z) = 0.23081 0.40075
#
# Static dielectric constant tensor:
#      x y z
#    x 2.034320 -0.074070 -0.037480 
#    y -0.074070 2.158680 0.075610 
#    z -0.037480 0.075610 2.456400 
# 
# From -- ./inp_files/240699.got.cif
#   From: 2010.05.17/outbox.cif.g08.bks.cpg/sg2_121_cif.got.tgz:240699.got - 2010.06.03 11:33:40.
