data_PCOD9050895
_publ_section_title
;
Structure prediction by ZEFSAII (Michael W. Deem and Ramdas Pophale) SiO2 
 PCOD9050895
Probable space group: P -1
;
_chemical_formula_sum "Si O2"
_cell_formula_units_Z 12
_cell_length_a 9.134414
_cell_length_b 15.283473
_cell_length_c 15.259941
_cell_angle_alpha 160.696568
_cell_angle_beta 130.373689
_cell_angle_gamma 49.543056
_cell_volume 530.526077
_symmetry_space_group_name_H-M "P -1"
_symmetry_group_IT_number 2
_symmetry_cell_setting 'triclinic'
loop_
_space_group_symop_operation_xyz
x,y,z
-x,-y,-z
loop_
_atom_site_type_symbol
_atom_site_label
_atom_site_fract_x
_atom_site_fract_y
_atom_site_fract_z
Si Si1 0.053408 0.274804 0.002879
Si Si2 0.691240 0.430568 0.344364
Si Si3 0.065248 0.436642 0.603098
Si Si4 0.273214 0.053920 0.470644
Si Si5 0.537062 0.035482 0.151820
Si Si6 0.026943 0.277324 0.726849
O O1 0.231725 0.053643 0.835150
O O2 0.022876 0.317297 0.135099
O O3 0.092519 0.556594 0.242053
O O4 0.853213 0.189386 0.808684
O O5 0.788933 0.503165 0.359907
O O6 0.570613 0.188967 0.056476
O O7 0.877029 0.344917 0.398619
O O8 0.555321 0.679778 0.574250
O O9 0.182325 0.229906 0.520088
O O10 0.231112 0.205141 0.689223
O O11 0.500000 0.000000 0.500000
O O12 0.500000 0.000000 0.000000
O O13 0.000000 0.000000 0.500000
O O14 0.000000 0.500000 0.000000
#
# Coordination Sequence:
#
# PCOD9050895 Si02
#       6
#     2   2   2   2   2   2
#     4  11  25  45  74 103 147 187 235 298 354 424
#     4  11  26  45  73 108 143 189 231 295 345 440
#     4  10  25  44  71 105 146 186 239 286 360 414
#     4  11  26  47  73 102 146 190 240 298 356 419
#     4  12  25  43  72 105 143 182 236 283 363 414
#     4  11  24  47  71 100 137 184 236 293 350 414
#
# _framework density 22.619057000000002
#
# number of rings (size 3 to 8) (size 9 to 14) (size 15 to 20)
#    0.000    1.000    3.333    1.500    7.000    6.667 
#    0.000    0.000    0.000    0.000    0.000    0.000 
#    0.000    0.000    0.000    0.000    0.000    0.000 
#
# Total GULP energy -67010.574407 kJ/mol
# GULP energy per Si atom -5584.214534 kJ/mol
# Density = 2.256758 g / cm^3
# Si number density = 22.619057 Si / 1000 Ang^3
#
#
#
# Elastic Constant Matrix: (Units=GPa)
#
#
# Indices 1 2 3 4 5 6 
#
# 1 159.3592 83.0460 47.8241 4.8822 -12.8328 -4.5229
# 2 83.0460 99.7940 44.5905 17.0138 2.5876 -7.3117
# 3 47.8241 44.5905 111.0151 10.7951 5.1713 -1.6495
# 4 4.8822 17.0138 10.7951 35.1130 1.4417 -2.0149
# 5 -12.8328 2.5876 5.1713 1.4417 37.5248 -10.5171
# 6 -4.5229 -7.3117 -1.6495 -2.0149 -10.5171 39.8772
#
#
#
# Elastic Compliance Matrix: (Units=1/GPa)
#
#
# Indices 1 2 3 4 5 6 
#
# 1 0.012560 -0.010305 -0.001864 0.003659 0.005423 0.001073
# 2 -0.010305 0.021575 -0.003269 -0.007785 -0.003919 0.001225
# 3 -0.001864 -0.003269 0.011369 -0.001619 -0.002197 -0.001002
# 4 0.003659 -0.007785 -0.001619 0.032246 0.001000 0.000814
# 5 0.005423 -0.003919 -0.002197 0.001000 0.031312 0.008114
# 6 0.001073 0.001225 -0.001002 0.000814 0.008114 0.027563
#
#
# Mechanical properties :
#
#
# Convention : Reuss Voigt Hill
#
# Bulk Modulus (GPa) = 68.36100 80.12107 74.24104
# Shear Modulus (GPa) = 29.00619 35.48350 32.24485
#
# Velocity S-wave (km/s) = 3.58492 3.96503 3.77976
# Velocity P-wave (km/s) = 6.88650 7.51404 7.20710
#
# Compressibility (1/GPa) = 0.01462822
#
# Stress axis : x y z
#
# Youngs Moduli (GPa) = 79.62049 46.34936 87.96047
#
# Poissons Ratio (x) = 0.47761 0.16396
# Poissons Ratio (y) = 0.82046 0.28755
# Poissons Ratio (z) = 0.14841 0.15152
#
# Static dielectric constant tensor:
#      x y z
#    x 1.817010 0.030360 0.007260 
#    y 0.030360 1.894460 0.018660 
#    z 0.007260 0.018660 1.882720 
# 
# From -- ./inp_files/131626.got.cif
#   From: 2010.05.17/outbox.cif.g08.bks.cpg/sg2_66_cif.got.tgz:131626.got - 2010.06.03 11:33:40.
