data_PCOD9050058
_publ_section_title
;
Structure prediction by ZEFSAII (Michael W. Deem and Ramdas Pophale) SiO2 
 PCOD9050058
Probable space group: P -1
;
_chemical_formula_sum "Si O2"
_cell_formula_units_Z 13
_cell_length_a 7.037505
_cell_length_b 13.448162
_cell_length_c 7.205659
_cell_angle_alpha 78.444964
_cell_angle_beta 85.549022
_cell_angle_gamma 133.730502
_cell_volume 459.756373
_symmetry_space_group_name_H-M "P -1"
_symmetry_group_IT_number 2
_symmetry_cell_setting 'triclinic'
loop_
_space_group_symop_operation_xyz
x,y,z
-x,-y,-z
loop_
_atom_site_type_symbol
_atom_site_label
_atom_site_fract_x
_atom_site_fract_y
_atom_site_fract_z
Si Si1 0.246203 0.012826 0.495337
Si Si2 0.315352 0.014485 0.914628
Si Si3 0.500000 0.500000 0.000000
Si Si4 0.118449 0.292772 0.512037
Si Si5 0.679466 0.750739 0.171040
Si Si6 0.921059 0.567770 0.212453
Si Si7 0.859427 0.315568 0.238775
O O1 0.265620 0.978840 0.714019
O O2 0.453652 0.830260 0.634223
O O3 0.142930 0.881665 0.426063
O O4 0.000000 0.000000 0.500000
O O5 0.008832 0.889637 0.068662
O O6 0.423217 0.172941 0.855006
O O7 0.500000 0.000000 0.000000
O O8 0.429267 0.362870 0.939833
O O9 0.366141 0.512908 0.830959
O O10 0.346400 0.315385 0.600465
O O11 0.045571 0.355964 0.632700
O O12 0.109072 0.338794 0.286907
O O13 0.933847 0.452676 0.268170
O O14 0.116706 0.675090 0.986655
#
# Coordination Sequence:
#
# PCOD9050058 Si02
#       7
#     2   2   1   2   2   2   2
#     4  12  27  48  75 117 158 202 261 334 397 470
#     4  11  25  49  80 115 160 213 267 329 405 486
#     4  10  24  48  74 108 154 206 260 330 390 476
#     4  11  24  49  76 115 152 205 260 332 396 471
#     4  10  24  49  75 115 160 207 271 324 404 478
#     4  10  26  51  78 110 154 210 260 324 401 476
#     4  11  26  50  76 112 159 200 268 325 395 484
#
# _framework density 28.275845
#
# number of rings (size 3 to 8) (size 9 to 14) (size 15 to 20)
#    0.000    1.231    1.538    1.846    6.462    1.846 
#   16.615    2.308    0.000    0.000    0.000    0.000 
#    0.000    0.000    0.000    0.000    0.000    0.000 
#
# Total GULP energy -72792.534412 kJ/mol
# GULP energy per Si atom -5599.425724 kJ/mol
# Density = 2.821149 g / cm^3
# Si number density = 28.275845 Si / 1000 Ang^3
#
#
#
# Elastic Constant Matrix: (Units=GPa)
#
#
# Indices 1 2 3 4 5 6 
#
# 1 172.3113 47.8447 36.4784 -11.8977 60.6933 -11.1435
# 2 47.8447 178.0488 90.1117 25.7922 30.3237 -35.3873
# 3 36.4784 90.1117 171.3680 26.9416 56.9104 3.0552
# 4 -11.8977 25.7922 26.9416 60.1037 2.0179 -8.2631
# 5 60.6933 30.3237 56.9104 2.0179 19.8903 -8.4027
# 6 -11.1435 -35.3873 3.0552 -8.2631 -8.4027 35.4582
#
#
#
# Elastic Compliance Matrix: (Units=1/GPa)
#
#
# Indices 1 2 3 4 5 6 
#
# 1 0.001599 0.001411 -0.007572 0.003554 0.017455 0.007528
# 2 0.001411 0.009719 -0.002276 -0.001488 -0.009155 0.007822
# 3 -0.007572 -0.002276 0.001711 -0.002036 0.021846 -0.000096
# 4 0.003554 -0.001488 -0.002036 0.019494 -0.003213 0.003588
# 5 0.017455 -0.009155 0.021846 -0.003213 -0.059856 -0.020467
# 6 0.007528 0.007822 -0.000096 0.003588 -0.020467 0.034369
#
#
# Mechanical properties :
#
#
# Convention : Reuss Voigt Hill
#
# Bulk Modulus (GPa) = -260.05763 96.73307 -81.66228
# Shear Modulus (GPa) = 220.98240 46.24332 133.61286
#
# Velocity S-wave (km/s) = 8.84997 4.04844 6.88157
# Velocity P-wave (km/s) = 3.50115 7.49252 5.84790
#
# Compressibility (1/GPa) = -0.00384530
#
# Stress axis : x y z
#
# Youngs Moduli (GPa) = 625.50155 102.89570 584.60151
#
# Poissons Ratio (x) = -0.14521 4.42657
# Poissons Ratio (y) = -0.88271 1.33046
# Poissons Ratio (z) = 4.73626 0.23417
#
# Static dielectric constant tensor:
#      x y z
#    x 2.155730 0.007160 -0.043470 
#    y 0.007160 2.246340 -0.166170 
#    z -0.043470 -0.166170 2.266720 
# 
# From -- ./inp_files/163519.got.cif
#   From: 2010.05.17/outbox.cif.g08.bks.cpg/sg2_82_cif.got.tgz:163519.got - 2010.06.03 11:33:40.
