data_PCOD9050436
_publ_section_title
;
Structure prediction by ZEFSAII (Michael W. Deem and Ramdas Pophale) SiO2 
 PCOD9050436
Probable space group: P -1
;
_chemical_formula_sum "Si O2"
_cell_formula_units_Z 16
_cell_length_a 14.647663
_cell_length_b 11.832220
_cell_length_c 15.034779
_cell_angle_alpha 27.603764
_cell_angle_beta 43.401961
_cell_angle_gamma 60.689616
_cell_volume 725.652008
_symmetry_space_group_name_H-M "P -1"
_symmetry_group_IT_number 2
_symmetry_cell_setting 'triclinic'
loop_
_space_group_symop_operation_xyz
x,y,z
-x,-y,-z
loop_
_atom_site_type_symbol
_atom_site_label
_atom_site_fract_x
_atom_site_fract_y
_atom_site_fract_z
Si Si1 0.922069 0.669458 0.975258
Si Si2 0.056080 0.024496 0.093621
Si Si3 0.654772 0.127063 0.603209
Si Si4 0.657509 0.984555 0.015768
Si Si5 0.825248 0.626777 0.401131
Si Si6 0.454029 0.188048 0.276898
Si Si7 0.680482 0.720060 0.007927
Si Si8 0.399676 0.147684 0.547778
O O1 0.843839 0.754470 0.893103
O O2 0.780357 0.445876 0.290090
O O3 0.011263 0.918380 0.808046
O O4 0.000000 0.500000 0.000000
O O5 0.209233 0.023271 0.016574
O O6 0.089916 0.262505 0.829642
O O7 0.943231 0.743338 0.317949
O O8 0.648407 0.007813 0.592652
O O9 0.491310 0.090466 0.769883
O O10 0.690699 0.945039 0.773271
O O11 0.723558 0.296578 0.712107
O O12 0.618206 0.779158 0.102841
O O13 0.722303 0.777092 0.378910
O O14 0.382592 0.124143 0.469955
O O15 0.594359 0.121322 0.231981
O O16 0.500000 0.500000 0.000000
O O17 0.563942 0.414192 0.267709
#
# Coordination Sequence:
#
# PCOD9050436 Si02
#       8
#     2   2   2   2   2   2   2   2
#     4  11  27  45  64  91 136 174 218 266 326 393
#     4  10  25  41  66  95 131 181 212 259 333 388
#     4  12  23  40  69  98 126 171 218 272 328 379
#     4  11  23  40  69 100 133 164 217 276 325 383
#     4  11  22  43  66  97 133 168 216 271 321 391
#     4  11  22  39  59  95 130 166 213 267 319 381
#     4  11  23  41  67 101 127 167 216 276 325 382
#     4  11  23  37  66  95 128 168 216 268 323 374
#
# _framework density 22.049136000000001
#
# number of rings (size 3 to 8) (size 9 to 14) (size 15 to 20)
#    0.000    1.000    3.750    2.250    3.500    1.500 
#    0.000    0.000    0.000    0.000    0.000    0.000 
#    0.000    0.000    0.000    0.000    0.000    0.000 
#
# Total GULP energy -89524.222146 kJ/mol
# GULP energy per Si atom -5595.263884 kJ/mol
# Density = 2.199895 g / cm^3
# Si number density = 22.049136 Si / 1000 Ang^3
#
#
#
# Elastic Constant Matrix: (Units=GPa)
#
#
# Indices 1 2 3 4 5 6 
#
# 1 134.3236 53.1849 5.1415 -4.2508 12.2583 2.7279
# 2 53.1849 109.0770 4.0205 -2.3431 2.4435 2.2647
# 3 5.1415 4.0205 43.7072 -12.9810 8.4295 -9.6629
# 4 -4.2508 -2.3431 -12.9810 25.8448 -4.9873 4.2358
# 5 12.2583 2.4435 8.4295 -4.9873 27.2666 -9.2087
# 6 2.7279 2.2647 -9.6629 4.2358 -9.2087 49.6208
#
#
#
# Elastic Compliance Matrix: (Units=1/GPa)
#
#
# Indices 1 2 3 4 5 6 
#
# 1 0.009691 -0.004595 0.000009 0.000554 -0.004237 -0.001155
# 2 -0.004595 0.011416 -0.000739 0.000179 0.001237 -0.000198
# 3 0.000009 -0.000739 0.028497 0.012658 -0.005240 0.003529
# 4 0.000554 0.000179 0.012658 0.046052 0.003987 -0.000765
# 5 -0.004237 0.001237 -0.005240 0.003987 0.043121 0.006818
# 6 -0.001155 -0.000198 0.003529 -0.000765 0.006818 0.022243
#
#
# Mechanical properties :
#
#
# Convention : Reuss Voigt Hill
#
# Bulk Modulus (GPa) = 25.67109 45.75573 35.71341
# Shear Modulus (GPa) = 27.07763 35.53050 31.30406
#
# Velocity S-wave (km/s) = 3.50817 4.01861 3.77203
# Velocity P-wave (km/s) = 5.29883 6.50608 5.93324
#
# Compressibility (1/GPa) = 0.03895433
#
# Stress axis : x y z
#
# Youngs Moduli (GPa) = 103.18495 87.59811 35.09168
#
# Poissons Ratio (x) = 0.40251 -0.00031
# Poissons Ratio (y) = 0.47413 0.02592
# Poissons Ratio (z) = -0.00091 0.06470
#
# Static dielectric constant tensor:
#      x y z
#    x 1.827720 0.011900 -0.021590 
#    y 0.011900 1.826910 -0.005840 
#    z -0.021590 -0.005840 1.792070 
# 
# From -- ./inp_files/532250.got.cif
#   From: 2010.05.17/outbox.cif.g08.bks.cpg/sg2_267_cif.got.tgz:532250.got - 2010.06.03 11:33:40.
