data_PCOD9050514
_publ_section_title
;
Structure prediction by ZEFSAII (Michael W. Deem and Ramdas Pophale) SiO2 
 PCOD9050514
Probable space group: P -1
;
_chemical_formula_sum "Si O2"
_cell_formula_units_Z 14
_cell_length_a 5.587572
_cell_length_b 19.417176
_cell_length_c 15.638442
_cell_angle_alpha 153.350583
_cell_angle_beta 63.444822
_cell_angle_gamma 127.384628
_cell_volume 582.524376
_symmetry_space_group_name_H-M "P -1"
_symmetry_group_IT_number 2
_symmetry_cell_setting 'triclinic'
loop_
_space_group_symop_operation_xyz
x,y,z
-x,-y,-z
loop_
_atom_site_type_symbol
_atom_site_label
_atom_site_fract_x
_atom_site_fract_y
_atom_site_fract_z
Si Si1 0.907269 0.553091 0.163009
Si Si2 0.677161 0.399366 0.384982
Si Si3 0.574156 0.770463 0.464390
Si Si4 0.043169 0.586990 0.824409
Si Si5 0.068200 0.102759 0.850427
Si Si6 0.460265 0.945015 0.542329
Si Si7 0.203995 0.025701 0.079610
O O1 0.683924 0.631409 0.269097
O O2 0.819627 0.422642 0.114808
O O3 0.210467 0.733708 0.347098
O O4 0.000000 0.500000 0.000000
O O5 0.500000 0.500000 0.500000
O O6 0.401040 0.236428 0.301392
O O7 0.000000 0.500000 0.500000
O O8 0.750554 0.347241 0.221741
O O9 0.219175 0.623566 0.384894
O O10 0.700206 0.924447 0.539764
O O11 0.751468 0.913134 0.669181
O O12 0.917771 0.725897 0.004874
O O13 0.043392 0.111324 0.965092
O O14 0.332659 0.059495 0.734290
O O15 0.500000 0.000000 0.500000
O O16 0.500000 0.000000 0.000000
O O17 0.000000 0.000000 0.000000
#
# Coordination Sequence:
#
# PCOD9050514 Si02
#       7
#     2   2   2   2   2   2   2
#     4  10  25  43  68 100 140 187 238 303 369 446
#     4  12  28  48  79 109 153 197 253 315 379 456
#     4  10  25  45  68  99 147 180 246 300 369 438
#     4  11  26  45  72 106 137 198 241 301 377 444
#     4  11  26  45  72 103 143 193 241 309 367 449
#     4  10  25  42  68 102 135 187 242 302 370 439
#     4  12  27  49  73 113 151 195 256 307 381 455
#
# _framework density 24.033328000000001
#
# number of rings (size 3 to 8) (size 9 to 14) (size 15 to 20)
#    0.000    1.143    1.429    1.714   16.000    2.286 
#    0.000    0.000    0.000    0.000    0.000    0.000 
#    0.000    0.000    0.000    0.000    0.000    0.000 
#
# Total GULP energy -77962.033364 kJ/mol
# GULP energy per Si atom -5568.716669 kJ/mol
# Density = 2.397863 g / cm^3
# Si number density = 24.033328 Si / 1000 Ang^3
#
#
#
# Elastic Constant Matrix: (Units=GPa)
#
#
# Indices 1 2 3 4 5 6 
#
# 1 69.6631 -4.1924 2.5954 -7.9953 12.2325 -76.2586
# 2 -4.1924 85.7781 -20.9218 -11.2784 26.5107 -97.4425
# 3 2.5954 -20.9218 67.5237 8.8626 15.6352 -48.4722
# 4 -7.9953 -11.2784 8.8626 46.4874 12.7038 -8.0316
# 5 12.2325 26.5107 15.6352 12.7038 23.5037 52.5467
# 6 -76.2586 -97.4425 -48.4722 -8.0316 52.5467 10.1255
#
#
#
# Elastic Compliance Matrix: (Units=1/GPa)
#
#
# Indices 1 2 3 4 5 6 
#
# 1 0.011413 -0.004112 -0.004209 -0.000006 0.005390 -0.001740
# 2 -0.004112 0.005898 -0.001314 -0.000777 0.004285 -0.003356
# 3 -0.004209 -0.001314 0.012793 -0.004707 0.002992 -0.002364
# 4 -0.000006 -0.000777 -0.004707 0.022252 -0.001859 -0.002754
# 5 0.005390 0.004285 0.002992 -0.001859 0.016765 0.007674
# 6 -0.001740 -0.003356 -0.002364 -0.002754 0.007674 0.000035
#
#
# Mechanical properties :
#
#
# Convention : Reuss Voigt Hill
#
# Bulk Modulus (GPa) = 92.30427 19.76972 56.03700
# Shear Modulus (GPa) = 54.32748 32.38890 43.35819
#
# Velocity S-wave (km/s) = 4.75964 3.67504 4.25206
# Velocity P-wave (km/s) = 8.28829 5.12364 6.89012
#
# Compressibility (1/GPa) = 0.01083373
#
# Stress axis : x y z
#
# Youngs Moduli (GPa) = 87.62203 169.56307 78.17044
#
# Poissons Ratio (x) = 0.69717 0.32900
# Poissons Ratio (y) = 0.36027 0.10273
# Poissons Ratio (z) = 0.36878 0.22283
#
# Static dielectric constant tensor:
#      x y z
#    x 2.472210 -0.005960 0.130710 
#    y -0.005960 1.613630 -0.187080 
#    z 0.130710 -0.187080 1.806110 
# 
# From -- ./inp_files/46061.got.cif
#   From: 2010.05.17/outbox.cif.g08.bks.cpg/sg2_24_cif.got.tgz:46061.got - 2010.06.03 11:33:40.
