data_PCOD9050103
_publ_section_title
;
Structure prediction by ZEFSAII (Michael W. Deem and Ramdas Pophale) SiO2 
 PCOD9050103
Probable space group: P -1
;
_chemical_formula_sum "Si O2"
_cell_formula_units_Z 16
_cell_length_a 14.674975
_cell_length_b 12.143115
_cell_length_c 9.072627
_cell_angle_alpha 59.806640
_cell_angle_beta 111.472533
_cell_angle_gamma 59.388999
_cell_volume 659.300832
_symmetry_space_group_name_H-M "P -1"
_symmetry_group_IT_number 2
_symmetry_cell_setting 'triclinic'
loop_
_space_group_symop_operation_xyz
x,y,z
-x,-y,-z
loop_
_atom_site_type_symbol
_atom_site_label
_atom_site_fract_x
_atom_site_fract_y
_atom_site_fract_z
Si Si1 0.764205 0.342480 0.435277
Si Si2 0.569062 0.405662 0.773849
Si Si3 0.827389 0.930781 0.416963
Si Si4 0.011015 0.497616 0.334125
Si Si5 0.521846 0.794800 0.792825
Si Si6 0.263095 0.440790 0.448756
Si Si7 0.584524 0.018847 0.719193
Si Si8 0.918233 0.188898 0.145257
O O1 0.615633 0.399353 0.360835
O O2 0.767450 0.435300 0.512445
O O3 0.678576 0.519787 0.131005
O O4 0.962805 0.053688 0.706701
O O5 0.500000 0.500000 0.500000
O O6 0.710063 0.360894 0.933972
O O7 0.695816 0.138242 0.069543
O O8 0.965578 0.665463 0.617183
O O9 0.951563 0.903095 0.584679
O O10 0.679783 0.033615 0.378004
O O11 0.000000 0.500000 0.500000
O O12 0.195807 0.374408 0.487599
O O13 0.809593 0.790682 0.978261
O O14 0.561194 0.892695 0.812000
O O15 0.519848 0.820349 0.600212
O O16 0.478930 0.200658 0.672962
O O17 0.123172 0.648804 0.098467
#
# Coordination Sequence:
#
# PCOD9050103 Si02
#       8
#     2   2   2   2   2   2   2   2
#     4  11  27  50  75 112 155 205 258 316 382 465
#     4  11  26  49  75 110 154 205 258 309 378 458
#     4  11  27  50  76 117 159 197 262 324 381 465
#     4  12  29  47  79 113 154 204 255 318 395 460
#     4  10  24  48  76 107 159 196 255 317 389 451
#     4  12  27  48  79 114 156 197 262 319 380 466
#     4  11  26  45  76 111 149 201 250 319 385 450
#     4  12  28  47  80 112 154 205 257 319 387 451
#
# _framework density 24.268132000000001
#
# number of rings (size 3 to 8) (size 9 to 14) (size 15 to 20)
#    0.000    0.750    2.500    2.250   10.500    7.000 
#    0.000    0.000    0.000    0.000    0.000    0.000 
#    0.000    0.000    0.000    0.000    0.000    0.000 
#
# Total GULP energy -89683.480344 kJ/mol
# GULP energy per Si atom -5605.217521 kJ/mol
# Density = 2.421290 g / cm^3
# Si number density = 24.268132 Si / 1000 Ang^3
#
#
#
# Elastic Constant Matrix: (Units=GPa)
#
#
# Indices 1 2 3 4 5 6 
#
# 1 126.9395 19.4936 12.9561 8.8535 4.9347 -5.8937
# 2 19.4936 122.4174 21.1601 -9.7660 8.2895 9.9673
# 3 12.9561 21.1601 82.6455 9.7596 -7.9097 -5.0839
# 4 8.8535 -9.7660 9.7596 40.9230 -2.1639 4.0281
# 5 4.9347 8.2895 -7.9097 -2.1639 45.5553 6.7645
# 6 -5.8937 9.9673 -5.0839 4.0281 6.7645 25.2360
#
#
#
# Elastic Compliance Matrix: (Units=1/GPa)
#
#
# Indices 1 2 3 4 5 6 
#
# 1 0.008567 -0.001648 -0.000549 -0.002511 -0.001333 0.003299
# 2 -0.001648 0.009787 -0.003140 0.003888 -0.001193 -0.005184
# 3 -0.000549 -0.003140 0.013951 -0.004231 0.002259 0.003992
# 4 -0.002511 0.003888 -0.004231 0.027748 0.001299 -0.007752
# 5 -0.001333 -0.001193 0.002259 0.001299 0.023647 -0.005931
# 6 0.003299 -0.005184 0.003992 -0.007752 -0.005931 0.046075
#
#
# Mechanical properties :
#
#
# Convention : Reuss Voigt Hill
#
# Bulk Modulus (GPa) = 46.22855 48.80244 47.51549
# Shear Modulus (GPa) = 33.86166 40.90236 37.38201
#
# Velocity S-wave (km/s) = 3.73944 4.10986 3.92902
# Velocity P-wave (km/s) = 6.14288 6.53258 6.34073
#
# Compressibility (1/GPa) = 0.02163165
#
# Stress axis : x y z
#
# Youngs Moduli (GPa) = 116.72708 102.17751 71.67804
#
# Poissons Ratio (x) = 0.16838 0.03936
# Poissons Ratio (y) = 0.19236 0.22504
# Poissons Ratio (z) = 0.06410 0.32080
#
# Static dielectric constant tensor:
#      x y z
#    x 1.938060 -0.007850 0.020300 
#    y -0.007850 1.908920 -0.023450 
#    z 0.020300 -0.023450 2.009260 
# 
# From -- ./inp_files/306778.got.cif
#   From: 2010.05.17/outbox.cif.g08.bks.cpg/sg2_154_cif.got.tgz:306778.got - 2010.06.03 11:33:40.
