data_PCOD9050823
_publ_section_title
;
Structure prediction by ZEFSAII (Michael W. Deem and Ramdas Pophale) SiO2 
 PCOD9050823
Probable space group: P -1
;
_chemical_formula_sum "Si O2"
_cell_formula_units_Z 14
_cell_length_a 11.200712
_cell_length_b 8.708025
_cell_length_c 9.161464
_cell_angle_alpha 63.665952
_cell_angle_beta 60.788860
_cell_angle_gamma 106.689331
_cell_volume 534.820036
_symmetry_space_group_name_H-M "P -1"
_symmetry_group_IT_number 2
_symmetry_cell_setting 'triclinic'
loop_
_space_group_symop_operation_xyz
x,y,z
-x,-y,-z
loop_
_atom_site_type_symbol
_atom_site_label
_atom_site_fract_x
_atom_site_fract_y
_atom_site_fract_z
Si Si1 0.200098 0.636970 0.761678
Si Si2 0.800865 0.720259 0.952974
Si Si3 0.580980 0.964919 0.807886
Si Si4 0.689476 0.570161 0.747901
Si Si5 0.936868 0.575009 0.378542
Si Si6 0.692119 0.993003 0.037310
Si Si7 0.774693 0.979081 0.437582
O O1 0.172900 0.581257 0.628117
O O2 0.284364 0.887890 0.653140
O O3 0.265929 0.514129 0.843627
O O4 0.000000 0.500000 0.000000
O O5 0.767477 0.681882 0.814009
O O6 0.708241 0.806383 0.057101
O O7 0.018937 0.901927 0.767638
O O8 0.664493 0.072815 0.868454
O O9 0.751274 0.025034 0.597401
O O10 0.447895 0.694384 0.026412
O O11 0.472077 0.039317 0.773455
O O12 0.825390 0.613468 0.527462
O O13 0.641422 0.710051 0.635493
O O14 0.000000 0.500000 0.500000
O O15 0.114290 0.802224 0.106685
#
# Coordination Sequence:
#
# PCOD9050823 Si02
#       7
#     2   2   2   2   2   2   2
#     4  10  25  44  68  98 138 170 225 279 331 390
#     4  11  23  45  69  99 134 176 224 275 331 392
#     4  11  24  39  64 106 137 169 220 282 330 386
#     4  12  23  38  73 100 128 172 228 272 324 394
#     4  12  22  41  71 101 126 176 232 272 323 394
#     4  11  23  39  65  96 141 168 219 274 334 380
#     4  11  22  42  66  96 131 178 216 278 322 391
#
# _framework density 26.177029999999998
#
# number of rings (size 3 to 8) (size 9 to 14) (size 15 to 20)
#    0.000    0.857    4.286    4.286    2.000    0.571 
#    0.000    1.429    0.000    0.000    0.000    0.000 
#    0.000    0.000    0.000    0.000    0.000    0.000 
#
# Total GULP energy -77988.338175 kJ/mol
# GULP energy per Si atom -5570.595584 kJ/mol
# Density = 2.611745 g / cm^3
# Si number density = 26.177030 Si / 1000 Ang^3
#
#
#
# Elastic Constant Matrix: (Units=GPa)
#
#
# Indices 1 2 3 4 5 6 
#
# 1 145.4966 85.2656 50.9586 -4.1897 2.4806 -36.2430
# 2 85.2656 128.6961 39.9625 -26.7401 15.3073 -35.2611
# 3 50.9586 39.9625 54.3541 -9.8391 9.3942 -15.0646
# 4 -4.1897 -26.7401 -9.8391 46.8434 1.6425 7.9519
# 5 2.4806 15.3073 9.3942 1.6425 41.3265 0.9272
# 6 -36.2430 -35.2611 -15.0646 7.9519 0.9272 60.1228
#
#
#
# Elastic Compliance Matrix: (Units=1/GPa)
#
#
# Indices 1 2 3 4 5 6 
#
# 1 0.015567 -0.008372 -0.009530 -0.006024 0.004509 0.002814
# 2 -0.008372 0.017152 -0.001183 0.008376 -0.005998 0.003701
# 3 -0.009530 -0.001183 0.030317 0.004952 -0.006091 0.000597
# 4 -0.006024 0.008376 0.004952 0.026967 -0.004917 -0.000969
# 5 0.004509 -0.005998 -0.006091 -0.004917 0.027776 -0.002104
# 6 0.002814 0.003701 0.000597 -0.000969 -0.002104 0.020809
#
#
# Mechanical properties :
#
#
# Convention : Reuss Voigt Hill
#
# Bulk Modulus (GPa) = 40.21441 75.65779 57.93610
# Shear Modulus (GPa) = 27.02023 39.81590 33.41807
#
# Velocity S-wave (km/s) = 3.21629 3.90426 3.57686
# Velocity P-wave (km/s) = 5.40264 7.02064 6.26410
#
# Compressibility (1/GPa) = 0.02486671
#
# Stress axis : x y z
#
# Youngs Moduli (GPa) = 64.23697 58.30256 32.98507
#
# Poissons Ratio (x) = 0.48810 0.31434
# Poissons Ratio (y) = 0.53778 0.03903
# Poissons Ratio (z) = 0.61215 0.06898
#
# Static dielectric constant tensor:
#      x y z
#    x 2.229140 -0.215670 -0.078150 
#    y -0.215670 2.212580 0.045820 
#    z -0.078150 0.045820 2.375280 
# 
# From -- ./inp_files/242898.got.cif
#   From: 2010.05.17/outbox.cif.g08.bks.cpg/sg2_122_cif.got.tgz:242898.got - 2010.06.03 11:33:40.
