data_PCOD9050102
_publ_section_title
;
Structure prediction by ZEFSAII (Michael W. Deem and Ramdas Pophale) SiO2 
 PCOD9050102
Probable space group: P -1
;
_chemical_formula_sum "Si O2"
_cell_formula_units_Z 16
_cell_length_a 14.318791
_cell_length_b 5.165189
_cell_length_c 9.149236
_cell_angle_alpha 90.545287
_cell_angle_beta 105.212350
_cell_angle_gamma 105.376923
_cell_volume 627.306563
_symmetry_space_group_name_H-M "P -1"
_symmetry_group_IT_number 2
_symmetry_cell_setting 'triclinic'
loop_
_space_group_symop_operation_xyz
x,y,z
-x,-y,-z
loop_
_atom_site_type_symbol
_atom_site_label
_atom_site_fract_x
_atom_site_fract_y
_atom_site_fract_z
Si Si1 0.911167 0.675385 0.307031
Si Si2 0.246489 0.228271 0.337266
Si Si3 0.637083 0.439017 0.371722
Si Si4 0.621791 0.638787 0.054541
Si Si5 0.480731 0.139277 0.640665
Si Si6 0.869352 0.164322 0.470109
Si Si7 0.667694 0.063925 0.856575
Si Si8 0.815831 0.560066 0.963111
O O1 0.849278 0.404466 0.366311
O O2 0.893874 0.647562 0.126246
O O3 0.026719 0.711822 0.398938
O O4 0.885244 0.937311 0.363302
O O5 0.288850 0.488192 0.458951
O O6 0.205887 0.994866 0.437887
O O7 0.330016 0.149452 0.271905
O O8 0.169750 0.286437 0.185042
O O9 0.662575 0.592549 0.229467
O O10 0.599220 0.121505 0.322473
O O11 0.554083 0.593819 0.385297
O O12 0.709186 0.574121 0.990017
O O13 0.500000 0.500000 0.000000
O O14 0.633106 0.935958 0.998565
O O15 0.500000 0.000000 0.500000
O O16 0.583615 0.201399 0.771620
O O17 0.782990 0.243599 0.911597
#
# Coordination Sequence:
#
# PCOD9050102 Si02
#       8
#     2   2   2   2   2   2   2   2
#     4  10  24  48  77 104 138 177 221 282 343 409
#     4  11  26  42  66 103 135 178 229 279 340 412
#     4  12  26  40  68  94 125 182 234 281 334 395
#     4  11  24  43  63  96 132 182 236 286 335 395
#     4  12  24  42  63  88 133 178 227 283 334 390
#     4  10  24  48  76 107 136 173 227 280 341 413
#     4  11  25  42  62  93 141 178 227 283 337 399
#     4  11  26  43  68  99 141 184 224 283 345 405
#
# _framework density 25.505868
#
# number of rings (size 3 to 8) (size 9 to 14) (size 15 to 20)
#    0.000    1.000    2.500    2.625   10.500    1.500 
#    0.000    0.625    0.000    0.000    0.000    0.000 
#    0.000    0.000    0.000    0.000    0.000    0.000 
#
# Total GULP energy -89411.962823 kJ/mol
# GULP energy per Si atom -5588.247676 kJ/mol
# Density = 2.544782 g / cm^3
# Si number density = 25.505868 Si / 1000 Ang^3
#
#
#
# Elastic Constant Matrix: (Units=GPa)
#
#
# Indices 1 2 3 4 5 6 
#
# 1 26.4320 2.8792 9.3498 0.6074 12.0255 -8.2779
# 2 2.8792 96.9971 26.4487 -13.1984 13.1109 -2.5610
# 3 9.3498 26.4487 170.0365 -7.1341 28.4311 -1.6217
# 4 0.6074 -13.1984 -7.1341 40.9176 6.1619 1.5601
# 5 12.0255 13.1109 28.4311 6.1619 46.5241 -2.0413
# 6 -8.2779 -2.5610 -1.6217 1.5601 -2.0413 26.3272
#
#
#
# Elastic Compliance Matrix: (Units=1/GPa)
#
#
# Indices 1 2 3 4 5 6 
#
# 1 0.047654 0.000790 -0.000639 0.000649 -0.011618 0.014082
# 2 0.000790 0.011602 -0.001124 0.003997 -0.003280 0.000817
# 3 -0.000639 -0.001124 0.006796 0.001425 -0.003872 -0.000276
# 4 0.000649 0.003997 0.001425 0.026891 -0.005787 -0.001362
# 5 -0.011618 -0.003280 -0.003872 -0.005787 0.028481 -0.001659
# 6 0.014082 0.000817 -0.000276 -0.001362 -0.001659 0.042426
#
#
# Mechanical properties :
#
#
# Convention : Reuss Voigt Hill
#
# Bulk Modulus (GPa) = 15.59950 41.20233 28.40091
# Shear Modulus (GPa) = 26.71471 39.73963 33.22717
#
# Velocity S-wave (km/s) = 3.23986 3.95151 3.61325
# Velocity P-wave (km/s) = 4.48608 6.08345 5.34477
#
# Compressibility (1/GPa) = 0.06410462
#
# Stress axis : x y z
#
# Youngs Moduli (GPa) = 20.98476 86.19570 147.15345
#
# Poissons Ratio (x) = -0.06811 0.09406
# Poissons Ratio (y) = -0.01658 0.16541
# Poissons Ratio (z) = 0.01341 0.09689
#
# Static dielectric constant tensor:
#      x y z
#    x 2.099090 0.003100 -0.021150 
#    y 0.003100 2.277650 0.023150 
#    z -0.021150 0.023150 1.988640 
# 
# From -- ./inp_files/47904.got.cif
#   From: 2010.05.17/outbox.cif.g08.bks.cpg/sg2_24_cif.got.tgz:47904.got - 2010.06.03 11:33:40.
