data_PCOD9050117
_publ_section_title
;
Structure prediction by ZEFSAII (Michael W. Deem and Ramdas Pophale) SiO2 
 PCOD9050117
Probable space group: P -1
;
_chemical_formula_sum "Si O2"
_cell_formula_units_Z 12
_cell_length_a 9.407398
_cell_length_b 16.741341
_cell_length_c 5.815831
_cell_angle_alpha 103.091321
_cell_angle_beta 128.572485
_cell_angle_gamma 46.796839
_cell_volume 488.675907
_symmetry_space_group_name_H-M "P -1"
_symmetry_group_IT_number 2
_symmetry_cell_setting 'triclinic'
loop_
_space_group_symop_operation_xyz
x,y,z
-x,-y,-z
loop_
_atom_site_type_symbol
_atom_site_label
_atom_site_fract_x
_atom_site_fract_y
_atom_site_fract_z
Si Si1 0.729856 0.361082 0.660478
Si Si2 0.729855 0.071220 0.403534
Si Si3 0.188460 0.612589 0.738177
Si Si4 0.314738 0.270562 0.789210
Si Si5 0.272024 0.092224 0.506720
Si Si6 0.277091 0.793450 0.171349
O O1 0.500000 0.500000 0.500000
O O2 0.837338 0.322960 0.482292
O O3 0.654577 0.294389 0.620585
O O4 0.879245 0.345792 0.031940
O O5 0.758780 0.104041 0.700712
O O6 0.688510 0.987466 0.304761
O O7 0.480135 0.199020 0.135991
O O8 0.000000 0.000000 0.500000
O O9 0.986853 0.606992 0.449374
O O10 0.500000 0.500000 0.000000
O O11 0.291918 0.183007 0.621332
O O12 0.493386 0.272873 0.822800
O O13 0.500000 0.000000 0.500000
O O14 0.992370 0.152639 0.168381
#
# Coordination Sequence:
#
# PCOD9050117 Si02
#       6
#     2   2   2   2   2   2
#     4  10  24  48  77 103 143 190 245 309 373 437
#     4  12  26  43  68 109 147 192 248 302 361 449
#     4  10  24  48  77 104 140 193 250 304 376 436
#     4  12  26  44  73 103 147 197 244 303 375 436
#     4  12  24  45  68  97 153 192 240 300 366 443
#     4  12  26  45  71 106 149 189 252 304 367 445
#
# _framework density 24.556153999999999
#
# number of rings (size 3 to 8) (size 9 to 14) (size 15 to 20)
#    0.000    0.667    5.000    2.000    9.333    0.000 
#    0.000    6.667    0.000    0.000    0.000    0.000 
#    0.000    0.000    0.000    0.000    0.000    0.000 
#
# Total GULP energy -66816.620806 kJ/mol
# GULP energy per Si atom -5568.051734 kJ/mol
# Density = 2.450026 g / cm^3
# Si number density = 24.556154 Si / 1000 Ang^3
#
#
#
# Elastic Constant Matrix: (Units=GPa)
#
#
# Indices 1 2 3 4 5 6 
#
# 1 161.2582 10.5091 55.2843 -15.2126 10.6326 13.5981
# 2 10.5091 48.4464 21.3455 -0.2000 3.9212 10.3450
# 3 55.2843 21.3455 171.5656 -10.5413 8.9697 2.8738
# 4 -15.2126 -0.2000 -10.5413 36.7071 2.3500 0.9957
# 5 10.6326 3.9212 8.9697 2.3500 57.9404 -8.5146
# 6 13.5981 10.3450 2.8738 0.9957 -8.5146 38.2157
#
#
#
# Elastic Compliance Matrix: (Units=1/GPa)
#
#
# Indices 1 2 3 4 5 6 
#
# 1 0.007540 0.000083 -0.002141 0.002694 -0.001604 -0.002972
# 2 0.000083 0.023417 -0.002736 -0.000307 -0.002138 -0.006631
# 3 -0.002141 -0.002736 0.006933 0.001092 -0.000413 0.000861
# 4 0.002694 -0.000307 0.001092 0.028867 -0.002135 -0.002185
# 5 -0.001604 -0.002138 -0.000413 -0.002135 0.018641 0.005390
# 6 -0.002972 -0.006631 0.000861 -0.002185 0.005390 0.030213
#
#
# Mechanical properties :
#
#
# Convention : Reuss Voigt Hill
#
# Bulk Modulus (GPa) = 35.33263 61.72754 48.53009
# Shear Modulus (GPa) = 37.13803 46.18139 41.65971
#
# Velocity S-wave (km/s) = 3.89314 4.34134 4.12334
# Velocity P-wave (km/s) = 5.88460 7.09377 6.51729
#
# Compressibility (1/GPa) = 0.02830245
#
# Stress axis : x y z
#
# Youngs Moduli (GPa) = 132.62073 42.70452 144.23226
#
# Poissons Ratio (x) = -0.00355 0.30879
# Poissons Ratio (y) = -0.01104 0.39465
# Poissons Ratio (z) = 0.28393 0.11685
#
# Static dielectric constant tensor:
#      x y z
#    x 2.004510 -0.020100 -0.001210 
#    y -0.020100 2.241660 -0.164030 
#    z -0.001210 -0.164030 2.145000 
# 
# From -- ./inp_files/3057.got.cif
#   From: 2010.05.17/outbox.cif.g08.bks.cpg/sg2_2_cif.got.tgz:3057.got - 2010.06.03 11:33:40.
