data_PCOD9050047
_publ_section_title
;
Structure prediction by ZEFSAII (Michael W. Deem and Ramdas Pophale) SiO2 
 PCOD9050047
Probable space group: P -1
;
_chemical_formula_sum "Si O2"
_cell_formula_units_Z 16
_cell_length_a 11.409065
_cell_length_b 5.918699
_cell_length_c 14.172212
_cell_angle_alpha 61.930420
_cell_angle_beta 109.906695
_cell_angle_gamma 130.600825
_cell_volume 640.310824
_symmetry_space_group_name_H-M "P -1"
_symmetry_group_IT_number 2
_symmetry_cell_setting 'triclinic'
loop_
_space_group_symop_operation_xyz
x,y,z
-x,-y,-z
loop_
_atom_site_type_symbol
_atom_site_label
_atom_site_fract_x
_atom_site_fract_y
_atom_site_fract_z
Si Si1 0.320148 0.796345 0.813756
Si Si2 0.350694 0.157909 0.572733
Si Si3 0.959551 0.197585 0.229854
Si Si4 0.078763 0.858640 0.418547
Si Si5 0.230933 0.831462 0.282233
Si Si6 0.604853 0.858282 0.919890
Si Si7 0.596361 0.280144 0.498064
Si Si8 0.110839 0.043113 0.937600
O O1 0.204992 0.865353 0.810717
O O2 0.488032 0.957187 0.875369
O O3 0.220948 0.414213 0.865357
O O4 0.346689 0.919239 0.690309
O O5 0.409567 0.986305 0.520857
O O6 0.354523 0.413309 0.602583
O O7 0.195487 0.048660 0.497752
O O8 0.085081 0.539508 0.243729
O O9 0.993932 0.162993 0.138699
O O10 0.967965 0.957630 0.345070
O O11 0.171317 0.933066 0.331282
O O12 0.000000 0.500000 0.500000
O O13 0.316573 0.708189 0.387875
O O14 0.346322 0.095841 0.186432
O O15 0.500000 0.500000 0.000000
O O16 0.769137 0.032700 0.982855
O O17 0.500000 0.500000 0.500000
O O18 0.000000 0.000000 0.000000
#
# Coordination Sequence:
#
# PCOD9050047 Si02
#       8
#     2   2   2   2   2   2   2   2
#     4  11  25  45  71 106 145 184 239 297 363 431
#     4  11  23  42  66 107 144 183 239 280 359 431
#     4  12  26  44  71 103 146 187 242 301 359 437
#     4  12  26  42  70 108 149 195 239 292 354 437
#     4  12  24  46  73 104 141 194 245 293 365 428
#     4  10  24  48  74 100 141 183 244 305 365 427
#     4  11  23  42  70  99 143 190 232 294 349 431
#     4  11  25  50  75 104 139 189 243 306 368 424
#
# _framework density 24.987864999999999
#
# number of rings (size 3 to 8) (size 9 to 14) (size 15 to 20)
#    0.000    0.750    3.750    3.750    1.750    4.500 
#    0.000    2.500    0.000    0.000    0.000    0.000 
#    0.000    0.000    0.000    0.000    0.000    0.000 
#
# Total GULP energy -89249.205881 kJ/mol
# GULP energy per Si atom -5578.075368 kJ/mol
# Density = 2.493099 g / cm^3
# Si number density = 24.987865 Si / 1000 Ang^3
#
#
#
# Elastic Constant Matrix: (Units=GPa)
#
#
# Indices 1 2 3 4 5 6 
#
# 1 128.1096 12.1621 60.9976 -0.9577 20.3077 20.3145
# 2 12.1621 71.0567 40.9438 -5.8953 0.9586 12.3675
# 3 60.9976 40.9438 156.8644 -8.8820 15.9386 10.4998
# 4 -0.9577 -5.8953 -8.8820 49.6871 10.2519 4.4069
# 5 20.3077 0.9586 15.9386 10.2519 54.1213 4.9113
# 6 20.3145 12.3675 10.4998 4.4069 4.9113 22.7664
#
#
#
# Elastic Compliance Matrix: (Units=1/GPa)
#
#
# Indices 1 2 3 4 5 6 
#
# 1 0.011379 0.002089 -0.004048 0.001064 -0.002491 -0.009090
# 2 0.002089 0.018496 -0.004926 0.002081 0.000873 -0.010231
# 3 -0.004048 -0.004926 0.009315 0.001134 -0.001543 0.002106
# 4 0.001064 0.002081 0.001134 0.022030 -0.004406 -0.005917
# 5 -0.002491 0.000873 -0.001543 -0.004406 0.020792 -0.001172
# 6 -0.009090 -0.010231 0.002106 -0.005917 -0.001172 0.058021
#
#
# Mechanical properties :
#
#
# Convention : Reuss Voigt Hill
#
# Bulk Modulus (GPa) = 39.34019 64.91529 52.12774
# Shear Modulus (GPa) = 30.81166 41.44345 36.12755
#
# Velocity S-wave (km/s) = 3.51531 4.07694 3.80650
# Velocity P-wave (km/s) = 5.67930 6.94241 6.34238
#
# Compressibility (1/GPa) = 0.02541930
#
# Stress axis : x y z
#
# Youngs Moduli (GPa) = 87.87850 54.06637 107.35396
#
# Poissons Ratio (x) = -0.11295 0.43461
# Poissons Ratio (y) = -0.18358 0.52883
# Poissons Ratio (z) = 0.35577 0.26633
#
# Static dielectric constant tensor:
#      x y z
#    x 1.234380 0.076670 -0.106400 
#    y 0.076670 2.001610 0.056100 
#    z -0.106400 0.056100 1.913620 
# 
# From -- ./inp_files/510196.got.cif
#   From: 2010.05.17/outbox.cif.g08.bks.cpg/sg2_256_cif.got.tgz:510196.got - 2010.06.03 11:33:40.
