data_PCOD9050110
_publ_section_title
;
Structure prediction by ZEFSAII (Michael W. Deem and Ramdas Pophale) SiO2 
 PCOD9050110
Probable space group: P -1
;
_chemical_formula_sum "Si O2"
_cell_formula_units_Z 14
_cell_length_a 14.580156
_cell_length_b 11.542368
_cell_length_c 15.936576
_cell_angle_alpha 142.425570
_cell_angle_beta 159.397194
_cell_angle_gamma 37.415810
_cell_volume 558.082841
_symmetry_space_group_name_H-M "P -1"
_symmetry_group_IT_number 2
_symmetry_cell_setting 'triclinic'
loop_
_space_group_symop_operation_xyz
x,y,z
-x,-y,-z
loop_
_atom_site_type_symbol
_atom_site_label
_atom_site_fract_x
_atom_site_fract_y
_atom_site_fract_z
Si Si1 0.936925 0.795800 0.353494
Si Si2 0.760318 0.250267 0.928413
Si Si3 0.320853 0.113545 0.263009
Si Si4 0.596432 0.496306 0.358170
Si Si5 0.362795 0.955717 0.031222
Si Si6 0.852256 0.660497 0.030737
Si Si7 0.190247 0.614115 0.776474
O O1 0.630321 0.848197 0.149982
O O2 0.125102 0.663375 0.506858
O O3 0.993751 0.661594 0.241909
O O4 0.000000 0.000000 0.500000
O O5 0.615852 0.082916 0.738878
O O6 0.554553 0.433456 0.817399
O O7 0.909668 0.307502 0.171175
O O8 0.993570 0.169058 0.014009
O O9 0.434284 0.061272 0.237530
O O10 0.398700 0.299593 0.475767
O O11 0.427548 0.385923 0.209631
O O12 0.194332 0.125182 0.925625
O O13 0.207759 0.801765 0.844726
O O14 0.000000 0.500000 0.000000
O O15 0.000000 0.500000 0.500000
O O16 0.500000 0.500000 0.000000
#
# Coordination Sequence:
#
# PCOD9050110 Si02
#       7
#     2   2   2   2   2   2   2
#     4  12  28  47  75 111 160 215 262 334 406 480
#     4  10  24  48  76 112 153 202 265 324 403 475
#     4  10  24  48  77 110 150 204 261 328 400 481
#     4  12  25  45  79 109 155 207 265 330 400 487
#     4  11  26  52  75 117 156 203 275 328 410 482
#     4  12  28  49  76 111 149 208 273 332 404 479
#     4  11  29  50  80 119 161 213 266 338 410 491
#
# _framework density 25.085881000000001
#
# number of rings (size 3 to 8) (size 9 to 14) (size 15 to 20)
#    0.000    0.857    1.429    3.429    8.000    2.286 
#   10.286    2.143    0.000    0.000    0.000    0.000 
#    0.000    0.000    0.000    0.000    0.000    0.000 
#
# Total GULP energy -78513.068831 kJ/mol
# GULP energy per Si atom -5608.076345 kJ/mol
# Density = 2.502878 g / cm^3
# Si number density = 25.085881 Si / 1000 Ang^3
#
#
#
# Elastic Constant Matrix: (Units=GPa)
#
#
# Indices 1 2 3 4 5 6 
#
# 1 125.3313 49.5874 32.1054 -2.3281 -17.2695 -3.0246
# 2 49.5874 164.8050 49.7036 -2.2810 -10.0867 26.4702
# 3 32.1054 49.7036 84.9973 17.8044 -16.2279 7.2998
# 4 -2.3281 -2.2810 17.8044 55.3052 -1.3933 0.2028
# 5 -17.2695 -10.0867 -16.2279 -1.3933 34.7974 8.4693
# 6 -3.0246 26.4702 7.2998 0.2028 8.4693 55.4967
#
#
#
# Elastic Compliance Matrix: (Units=1/GPa)
#
#
# Indices 1 2 3 4 5 6 
#
# 1 0.009934 -0.002389 -0.002157 0.001082 0.002905 0.001517
# 2 -0.002389 0.008682 -0.004107 0.001604 0.000404 -0.003799
# 3 -0.002157 -0.004107 0.017434 -0.005717 0.005967 -0.001341
# 4 0.001082 0.001604 -0.005717 0.020011 -0.000890 0.000109
# 5 0.002905 0.000404 0.005967 -0.000890 0.034525 -0.006085
# 6 0.001517 -0.003799 -0.001341 0.000109 -0.006085 0.021018
#
#
# Mechanical properties :
#
#
# Convention : Reuss Voigt Hill
#
# Bulk Modulus (GPa) = 53.35489 70.88071 62.11780
# Shear Modulus (GPa) = 36.99339 45.36899 41.18119
#
# Velocity S-wave (km/s) = 3.84431 4.25731 4.05607
# Velocity P-wave (km/s) = 6.40469 7.24451 6.83750
#
# Compressibility (1/GPa) = 0.01874243
#
# Stress axis : x y z
#
# Youngs Moduli (GPa) = 100.66600 115.17454 57.36018
#
# Poissons Ratio (x) = 0.27518 0.12374
# Poissons Ratio (y) = 0.24052 0.23559
# Poissons Ratio (z) = 0.21717 0.47305
#
# Static dielectric constant tensor:
#      x y z
#    x 1.978370 -0.036620 -0.025970 
#    y -0.036620 1.969130 -0.014350 
#    z -0.025970 -0.014350 2.042400 
# 
# From -- ./inp_files/573490.got.cif
#   From: 2010.05.17/outbox.cif.g08.bks.cpg/sg2_287_cif.got.tgz:573490.got - 2010.06.03 11:33:40.
