data_PCOD9050520
_publ_section_title
;
Structure prediction by ZEFSAII (Michael W. Deem and Ramdas Pophale) SiO2 
 PCOD9050520
Probable space group: P -1
;
_chemical_formula_sum "Si O2"
_cell_formula_units_Z 14
_cell_length_a 6.946929
_cell_length_b 20.486061
_cell_length_c 11.893336
_cell_angle_alpha 159.559932
_cell_angle_beta 95.902104
_cell_angle_gamma 76.532707
_cell_volume 540.648821
_symmetry_space_group_name_H-M "P -1"
_symmetry_group_IT_number 2
_symmetry_cell_setting 'triclinic'
loop_
_space_group_symop_operation_xyz
x,y,z
-x,-y,-z
loop_
_atom_site_type_symbol
_atom_site_label
_atom_site_fract_x
_atom_site_fract_y
_atom_site_fract_z
Si Si1 0.606615 0.888672 0.982802
Si Si2 0.913179 0.756955 0.325324
Si Si3 0.317925 0.508537 0.087554
Si Si4 0.245788 0.879546 0.796390
Si Si5 0.036547 0.529322 0.729793
Si Si6 0.585316 0.651700 0.814271
Si Si7 0.152344 0.862722 0.192171
O O1 0.381194 0.937679 0.991369
O O2 0.604930 0.816540 0.993461
O O3 0.777079 0.687744 0.609219
O O4 0.688954 0.057476 0.219229
O O5 0.086701 0.656842 0.268095
O O6 0.875826 0.989269 0.675824
O O7 0.707788 0.705015 0.247190
O O8 0.013537 0.633991 0.018464
O O9 0.331110 0.634701 0.401403
O O10 0.500000 0.500000 0.000000
O O11 0.000000 0.000000 0.000000
O O12 0.811885 0.534765 0.691444
O O13 0.089450 0.671199 0.871660
O O14 0.500000 0.500000 0.500000
O O15 0.401197 0.773943 0.088676
O O16 0.000000 0.000000 0.500000
#
# Coordination Sequence:
#
# PCOD9050520 Si02
#       7
#     2   2   2   2   2   2   2
#     4  11  26  44  70 107 138 180 237 276 355 413
#     4  10  25  42  68  96 138 174 235 274 345 405
#     4  11  25  43  69  97 131 184 228 285 335 404
#     4  11  27  45  74  99 142 184 226 294 343 404
#     4  11  24  46  70 101 144 182 224 292 347 413
#     4  12  27  41  74 105 138 185 232 283 350 417
#     4  10  25  45  67 100 139 180 228 281 349 411
#
# _framework density 25.894815999999999
#
# number of rings (size 3 to 8) (size 9 to 14) (size 15 to 20)
#    0.000    1.143    1.429    2.143   10.000    6.857 
#    0.000    0.000    0.000    0.000    0.000    0.000 
#    0.000    0.000    0.000    0.000    0.000    0.000 
#
# Total GULP energy -78425.901685 kJ/mol
# GULP energy per Si atom -5601.850120 kJ/mol
# Density = 2.583588 g / cm^3
# Si number density = 25.894816 Si / 1000 Ang^3
#
#
#
# Elastic Constant Matrix: (Units=GPa)
#
#
# Indices 1 2 3 4 5 6 
#
# 1 166.9191 31.4344 37.4514 10.7517 -14.6943 24.9024
# 2 31.4344 47.2020 16.3533 9.0005 5.1887 25.7265
# 3 37.4514 16.3533 80.0479 12.4947 -3.5738 12.0649
# 4 10.7517 9.0005 12.4947 45.6243 15.4784 2.0767
# 5 -14.6943 5.1887 -3.5738 15.4784 62.5675 8.0560
# 6 24.9024 25.7265 12.0649 2.0767 8.0560 55.8117
#
#
#
# Elastic Compliance Matrix: (Units=1/GPa)
#
#
# Indices 1 2 3 4 5 6 
#
# 1 0.007716 -0.003457 -0.002346 -0.001263 0.002490 -0.001655
# 2 -0.003457 0.031933 -0.002487 -0.003885 -0.001052 -0.012343
# 3 -0.002346 -0.002487 0.014879 -0.003494 0.001513 -0.001112
# 4 -0.001263 -0.003885 -0.003494 0.026191 -0.007059 0.003154
# 5 0.002490 -0.001052 0.001513 -0.007059 0.018928 -0.003423
# 6 -0.001655 -0.012343 -0.001112 0.003154 -0.003423 0.024962
#
#
# Mechanical properties :
#
#
# Convention : Reuss Voigt Hill
#
# Bulk Modulus (GPa) = 26.35116 51.62748 38.98932
# Shear Modulus (GPa) = 32.50209 46.72935 39.61572
#
# Velocity S-wave (km/s) = 3.54666 4.25265 3.91560
# Velocity P-wave (km/s) = 5.19327 6.64033 5.96088
#
# Compressibility (1/GPa) = 0.03794899
#
# Stress axis : x y z
#
# Youngs Moduli (GPa) = 129.60600 31.31568 67.21089
#
# Poissons Ratio (x) = 0.10824 0.15767
# Poissons Ratio (y) = 0.44799 0.16713
# Poissons Ratio (z) = 0.30405 0.07787
#
# Static dielectric constant tensor:
#      x y z
#    x 2.037880 0.031070 0.019640 
#    y 0.031070 2.068980 -0.014310 
#    z 0.019640 -0.014310 2.037530 
# 
# From -- ./inp_files/78201.got.cif
#   From: 2010.05.17/outbox.cif.g08.bks.cpg/sg2_40_cif.got.tgz:78201.got - 2010.06.03 11:33:40.
