data_PCOD9050661
_publ_section_title
;
Structure prediction by ZEFSAII (Michael W. Deem and Ramdas Pophale) SiO2 
 PCOD9050661
Probable space group: P -1
;
_chemical_formula_sum "Si O2"
_cell_formula_units_Z 10
_cell_length_a 15.755320
_cell_length_b 19.053510
_cell_length_c 4.951499
_cell_angle_alpha 135.480935
_cell_angle_beta 43.679994
_cell_angle_gamma 160.560421
_cell_volume 338.523060
_symmetry_space_group_name_H-M "P -1"
_symmetry_group_IT_number 2
_symmetry_cell_setting 'triclinic'
loop_
_space_group_symop_operation_xyz
x,y,z
-x,-y,-z
loop_
_atom_site_type_symbol
_atom_site_label
_atom_site_fract_x
_atom_site_fract_y
_atom_site_fract_z
Si Si1 0.178174 0.392967 0.383473
Si Si2 0.621081 0.986185 0.800232
Si Si3 0.357649 0.142096 0.148178
Si Si4 0.231212 0.255315 0.544304
Si Si5 0.134731 0.540991 0.547918
O O1 0.409184 0.622710 0.611044
O O2 0.110935 0.407308 0.302976
O O3 0.221350 0.307865 0.997427
O O4 0.916455 0.209258 0.651248
O O5 0.571389 0.916239 0.028339
O O6 0.451284 0.785090 0.452826
O O7 0.500000 0.000000 0.000000
O O8 0.270423 0.165463 0.193543
O O9 0.062643 0.934213 0.403256
O O10 0.500000 0.500000 0.500000
O O11 0.000000 0.500000 0.500000
O O12 0.000000 0.500000 0.000000
#
# Coordination Sequence:
#
# PCOD9050661 Si02
#       5
#     2   2   2   2   2
#     4  11  25  44  71 106 146 197 248 316 382 453
#     4  11  24  44  71 103 149 197 250 311 379 453
#     4  10  25  43  70 100 144 183 257 302 382 448
#     4  11  25  45  71 104 143 196 251 319 383 455
#     4  11  26  46  73 109 151 200 259 310 379 465
#
# _framework density 29.540082000000002
#
# number of rings (size 3 to 8) (size 9 to 14) (size 15 to 20)
#    0.000    1.200    2.000    1.800    2.800   15.200 
#    0.000    0.000    0.000    0.000    0.000    0.000 
#    0.000    0.000    0.000    0.000    0.000    0.000 
#
# Total GULP energy -55779.532199 kJ/mol
# GULP energy per Si atom -5577.953220 kJ/mol
# Density = 2.947285 g / cm^3
# Si number density = 29.540082 Si / 1000 Ang^3
#
#
#
# Elastic Constant Matrix: (Units=GPa)
#
#
# Indices 1 2 3 4 5 6 
#
# 1 844.8294 599.3762 893.1161 -366.6918 41.6974 -74.0446
# 2 599.3762 743.3500 757.8200 -297.4084 52.5473 -30.8054
# 3 893.1161 757.8200 1243.7889 -469.1439 45.5743 -55.9125
# 4 -366.6918 -297.4084 -469.1439 251.7288 -31.6282 17.9220
# 5 41.6974 52.5473 45.5743 -31.6282 70.8635 -0.0756
# 6 -74.0446 -30.8054 -55.9125 17.9220 -0.0756 75.2328
#
#
#
# Elastic Compliance Matrix: (Units=1/GPa)
#
#
# Indices 1 2 3 4 5 6 
#
# 1 0.006062 -0.001128 -0.002637 0.002375 0.000028 0.002979
# 2 -0.001128 0.003885 -0.001586 -0.000119 -0.001251 -0.000671
# 3 -0.002637 -0.001586 0.005097 0.003966 0.001219 -0.000400
# 4 0.002375 -0.000119 0.003966 0.014914 0.002799 0.001686
# 5 0.000028 -0.001251 0.001219 0.002799 0.015487 -0.000229
# 6 0.002979 -0.000671 -0.000400 0.001686 -0.000229 0.015250
#
#
# Mechanical properties :
#
#
# Convention : Reuss Voigt Hill
#
# Bulk Modulus (GPa) = 230.32231 814.73255 522.52743
# Shear Modulus (GPa) = 68.63769 118.34208 93.48988
#
# Velocity S-wave (km/s) = 4.82555 6.33628 5.63180
# Velocity P-wave (km/s) = 10.44924 18.16414 14.81760
#
# Compressibility (1/GPa) = 0.00434174
#
# Stress axis : x y z
#
# Youngs Moduli (GPa) = 164.94873 257.40294 196.17916
#
# Poissons Ratio (x) = 0.29037 0.51738
# Poissons Ratio (y) = 0.18608 0.31117
# Poissons Ratio (z) = 0.43502 0.40829
#
# Static dielectric constant tensor:
#      x y z
#    x 2.309250 0.175050 -0.132450 
#    y 0.175050 2.102740 0.273420 
#    z -0.132450 0.273420 1.809830 
# 
# From -- ./inp_files/2970.got.cif
#   From: 2010.05.17/outbox.cif.g08.bks.cpg/sg2_2_cif.got.tgz:2970.got - 2010.06.03 11:33:40.
