data_PCOD9050170
_publ_section_title
;
Structure prediction by ZEFSAII (Michael W. Deem and Ramdas Pophale) SiO2 
 PCOD9050170
Probable space group: P -1
;
_chemical_formula_sum "Si O2"
_cell_formula_units_Z 13
_cell_length_a 23.802960
_cell_length_b 22.317209
_cell_length_c 5.671139
_cell_angle_alpha 54.419849
_cell_angle_beta 125.570333
_cell_angle_gamma 167.761140
_cell_volume 517.904260
_symmetry_space_group_name_H-M "P -1"
_symmetry_group_IT_number 2
_symmetry_cell_setting 'triclinic'
loop_
_space_group_symop_operation_xyz
x,y,z
-x,-y,-z
loop_
_atom_site_type_symbol
_atom_site_label
_atom_site_fract_x
_atom_site_fract_y
_atom_site_fract_z
Si Si1 0.714088 0.039936 0.518528
Si Si2 0.564126 0.410282 0.565766
Si Si3 0.000000 0.000000 0.500000
Si Si4 0.460374 0.527333 0.130595
Si Si5 0.925596 0.167130 0.121558
Si Si6 0.712861 0.195944 0.381266
Si Si7 0.198136 0.562656 0.161162
O O1 0.664009 0.061807 0.500892
O O2 0.976703 0.327885 0.355469
O O3 0.444802 0.763359 0.347426
O O4 0.766915 0.019670 0.832947
O O5 0.549402 0.437845 0.719817
O O6 0.839665 0.649573 0.722110
O O7 0.297188 0.086203 0.657038
O O8 0.571650 0.462409 0.218883
O O9 0.195519 0.206082 0.267825
O O10 0.251833 0.215780 0.754956
O O11 0.056956 0.382061 0.002807
O O12 0.000000 0.500000 0.500000
O O13 0.500000 0.000000 0.500000
O O14 0.713364 0.261862 0.039911
#
# Coordination Sequence:
#
# PCOD9050170 Si02
#       7
#     2   2   1   2   2   2   2
#     4  12  26  45  70  97 132 187 242 309 375 444
#     4  12  28  47  74 111 160 198 244 298 360 434
#     4  10  24  48  84 112 152 192 246 296 356 422
#     4  11  26  48  76 116 150 197 240 300 356 421
#     4  12  28  45  70 101 146 196 242 300 356 448
#     4  12  24  44  68  95 135 170 240 317 388 431
#     4  12  26  45  70  97 132 187 242 309 375 444
#
# _framework density 25.101164000000001
#
# number of rings (size 3 to 8) (size 9 to 14) (size 15 to 20)
#    0.000    0.308    1.538    6.462    8.615    3.692 
#    0.000    0.000    0.000    0.000    0.000    0.000 
#    0.000    0.000    0.000    0.000    0.000    0.000 
#
# Total GULP energy -72467.038370 kJ/mol
# GULP energy per Si atom -5574.387567 kJ/mol
# Density = 2.504403 g / cm^3
# Si number density = 25.101164 Si / 1000 Ang^3
#
#
#
# Elastic Constant Matrix: (Units=GPa)
#
#
# Indices 1 2 3 4 5 6 
#
# 1 82.7040 26.2530 24.6821 13.9488 -11.8193 20.7238
# 2 26.2530 170.4206 53.5384 34.3043 -3.0996 70.0060
# 3 24.6821 53.5384 223.6392 1.3729 22.0252 25.1476
# 4 13.9488 34.3043 1.3729 65.5612 4.2541 5.8409
# 5 -11.8193 -3.0996 22.0252 4.2541 30.0284 5.9225
# 6 20.7238 70.0060 25.1476 5.8409 5.9225 53.5990
#
#
#
# Elastic Compliance Matrix: (Units=1/GPa)
#
#
# Indices 1 2 3 4 5 6 
#
# 1 0.017285 0.004594 -0.002849 -0.005758 0.012571 -0.012108
# 2 0.004594 0.018321 -0.003284 -0.009104 0.012235 -0.024525
# 3 -0.002849 -0.003284 0.005868 0.002359 -0.006714 0.003123
# 4 -0.005758 -0.009104 0.002359 0.020798 -0.010225 0.011874
# 5 0.012571 0.012235 -0.006714 -0.010225 0.050250 -0.022129
# 6 -0.012108 -0.024525 0.003123 0.011874 -0.022129 0.055056
#
#
# Mechanical properties :
#
#
# Convention : Reuss Voigt Hill
#
# Bulk Modulus (GPa) = 26.04473 76.19009 51.11741
# Shear Modulus (GPa) = 27.25457 54.65708 40.95583
#
# Velocity S-wave (km/s) = 3.29871 4.67140 4.04373
# Velocity P-wave (km/s) = 4.99070 7.71460 6.49700
#
# Compressibility (1/GPa) = 0.03839549
#
# Stress axis : x y z
#
# Youngs Moduli (GPa) = 57.85391 54.58100 170.42296
#
# Poissons Ratio (x) = -0.25073 0.48546
# Poissons Ratio (y) = -0.26576 0.55974
# Poissons Ratio (z) = 0.16480 0.17927
#
# Static dielectric constant tensor:
#      x y z
#    x 2.111830 -0.131700 0.031440 
#    y -0.131700 1.980670 -0.003020 
#    z 0.031440 -0.003020 2.011110 
# 
# From -- ./inp_files/125236.got.cif
#   From: 2010.05.17/outbox.cif.g08.bks.cpg/sg2_63_cif.got.tgz:125236.got - 2010.06.03 11:33:40.
