data_PCOD9050236
_publ_section_title
;
Structure prediction by ZEFSAII (Michael W. Deem and Ramdas Pophale) SiO2 
 PCOD9050236
Probable space group: P -1
;
_chemical_formula_sum "Si O2"
_cell_formula_units_Z 14
_cell_length_a 9.330445
_cell_length_b 11.865777
_cell_length_c 7.907157
_cell_angle_alpha 59.510367
_cell_angle_beta 49.262512
_cell_angle_gamma 84.400020
_cell_volume 533.781998
_symmetry_space_group_name_H-M "P -1"
_symmetry_group_IT_number 2
_symmetry_cell_setting 'triclinic'
loop_
_space_group_symop_operation_xyz
x,y,z
-x,-y,-z
loop_
_atom_site_type_symbol
_atom_site_label
_atom_site_fract_x
_atom_site_fract_y
_atom_site_fract_z
Si Si1 0.167025 0.492963 0.504973
Si Si2 0.763202 0.943529 0.676743
Si Si3 0.642371 0.180773 0.404074
Si Si4 0.699822 0.484663 0.268182
Si Si5 0.970395 0.198991 0.874969
Si Si6 0.590372 0.636048 0.951632
Si Si7 0.235138 0.053382 0.956195
O O1 0.130917 0.480698 0.743152
O O2 0.375462 0.617395 0.220704
O O3 0.000000 0.500000 0.500000
O O4 0.160599 0.337690 0.584306
O O5 0.711450 0.071537 0.542130
O O6 0.693509 0.803212 0.722810
O O7 0.667579 0.901735 0.970525
O O8 0.000000 0.000000 0.500000
O O9 0.659135 0.328190 0.360046
O O10 0.782230 0.218493 0.101847
O O11 0.401214 0.098718 0.644895
O O12 0.500000 0.500000 0.500000
O O13 0.734111 0.589805 0.004597
O O14 0.875867 0.112356 0.847922
O O15 0.064172 0.115592 0.992976
O O16 0.500000 0.500000 0.000000
#
# Coordination Sequence:
#
# PCOD9050236 Si02
#       7
#     2   2   2   2   2   2   2
#     4  11  26  45  70 107 156 196 267 321 397 470
#     4  12  27  49  78 117 161 206 273 329 405 489
#     4  12  26  45  82 109 152 213 265 323 412 476
#     4  10  24  49  75 107 157 209 261 328 404 473
#     4  11  26  45  72 112 151 204 261 329 396 480
#     4  11  27  48  80 112 158 210 263 334 404 478
#     4  11  24  46  73 107 161 200 256 329 397 475
#
# _framework density 26.227934999999999
#
# number of rings (size 3 to 8) (size 9 to 14) (size 15 to 20)
#    0.000    0.857    1.429    5.143    8.000    1.714 
#    0.000    0.000    0.000    0.000    0.000    0.000 
#    0.000    0.000    0.000    0.000    0.000    0.000 
#
# Total GULP energy -78268.680659 kJ/mol
# GULP energy per Si atom -5590.620047 kJ/mol
# Density = 2.616824 g / cm^3
# Si number density = 26.227935 Si / 1000 Ang^3
#
#
#
# Elastic Constant Matrix: (Units=GPa)
#
#
# Indices 1 2 3 4 5 6 
#
# 1 134.6483 39.1014 15.6539 -2.0542 17.2332 -4.2037
# 2 39.1014 168.0789 37.2140 -24.1419 1.8351 -3.8510
# 3 15.6539 37.2140 98.6828 -5.2181 -25.2302 -1.3391
# 4 -2.0542 -24.1419 -5.2181 46.7196 -1.9806 -5.2323
# 5 17.2332 1.8351 -25.2302 -1.9806 43.0394 -7.6882
# 6 -4.2037 -3.8510 -1.3391 -5.2323 -7.6882 38.2747
#
#
#
# Elastic Compliance Matrix: (Units=1/GPa)
#
#
# Indices 1 2 3 4 5 6 
#
# 1 0.008724 -0.001677 -0.002010 -0.000947 -0.004707 -0.000356
# 2 -0.001677 0.007442 -0.002557 0.003539 -0.000841 0.000790
# 3 -0.002010 -0.002557 0.013903 0.000770 0.009459 0.002014
# 4 -0.000947 0.003539 0.000770 0.023836 0.002498 0.004039
# 5 -0.004707 -0.000841 0.009459 0.002498 0.031975 0.006494
# 6 -0.000356 0.000790 0.002014 0.004039 0.006494 0.028094
#
#
# Mechanical properties :
#
#
# Convention : Reuss Voigt Hill
#
# Bulk Modulus (GPa) = 56.88255 65.03876 60.96065
# Shear Modulus (GPa) = 37.78637 46.23610 42.01124
#
# Velocity S-wave (km/s) = 3.79976 4.20319 4.00656
# Velocity P-wave (km/s) = 6.40201 6.95752 6.68554
#
# Compressibility (1/GPa) = 0.01758008
#
# Stress axis : x y z
#
# Youngs Moduli (GPa) = 114.62098 134.37952 71.92668
#
# Poissons Ratio (x) = 0.22542 0.14455
# Poissons Ratio (y) = 0.19227 0.18394
# Poissons Ratio (z) = 0.23036 0.34365
#
# Static dielectric constant tensor:
#      x y z
#    x 2.445460 0.027880 0.632940 
#    y 0.027880 2.170280 0.034840 
#    z 0.632940 0.034840 3.019110 
# 
# From -- ./inp_files/184725.got.cif
#   From: 2010.05.17/outbox.cif.g08.bks.cpg/sg2_93_cif.got.tgz:184725.got - 2010.06.03 11:33:40.
