data_PCOD9050536
_publ_section_title
;
Structure prediction by ZEFSAII (Michael W. Deem and Ramdas Pophale) SiO2 
 PCOD9050536
Probable space group: P -1
;
_chemical_formula_sum "Si O2"
_cell_formula_units_Z 16
_cell_length_a 19.100834
_cell_length_b 9.497207
_cell_length_c 20.331816
_cell_angle_alpha 37.860732
_cell_angle_beta 152.787068
_cell_angle_gamma 150.298488
_cell_volume 833.338703
_symmetry_space_group_name_H-M "P -1"
_symmetry_group_IT_number 2
_symmetry_cell_setting 'triclinic'
loop_
_space_group_symop_operation_xyz
x,y,z
-x,-y,-z
loop_
_atom_site_type_symbol
_atom_site_label
_atom_site_fract_x
_atom_site_fract_y
_atom_site_fract_z
Si Si1 0.900623 0.223060 0.217487
Si Si2 0.819429 0.507728 0.854279
Si Si3 0.858324 0.878225 0.635596
Si Si4 0.062357 0.471499 0.634079
Si Si5 0.851084 0.690164 0.957017
Si Si6 0.890410 0.658778 0.527183
Si Si7 0.404553 0.044477 0.708559
Si Si8 0.578860 0.705391 0.226800
O O1 0.984504 0.092573 0.291985
O O2 0.061538 0.410564 0.338020
O O3 0.701538 0.963932 0.180974
O O4 0.888479 0.451325 0.085805
O O5 0.781941 0.611317 0.717093
O O6 0.842032 0.696496 0.867272
O O7 0.622945 0.200743 0.816743
O O8 0.000000 0.500000 0.000000
O O9 0.704168 0.881293 0.461555
O O10 0.969416 0.142908 0.681164
O O11 0.000000 0.500000 0.500000
O O12 0.976819 0.574047 0.575966
O O13 0.287210 0.704419 0.738933
O O14 0.645544 0.531616 0.879340
O O15 0.000000 0.000000 0.000000
O O16 0.679949 0.548137 0.374562
O O17 0.000000 0.000000 0.500000
O O18 0.394359 0.150027 0.733120
#
# Coordination Sequence:
#
# PCOD9050536 Si02
#       8
#     2   2   2   2   2   2   2   2
#     4  11  20  39  65  85 120 155 194 242 298 354
#     4  11  24  44  59  78 123 169 198 232 292 357
#     4  11  22  39  61  94 119 153 194 244 298 348
#     4  10  19  34  60  97 121 141 193 253 296 339
#     4  11  26  43  59  83 121 160 203 245 284 347
#     4  10  17  34  63  90 116 146 190 248 295 347
#     4  10  19  38  64  89 117 154 195 241 294 355
#     4  10  19  38  66  90 114 154 197 240 300 349
#
# _framework density 19.199874999999999
#
# number of rings (size 3 to 8) (size 9 to 14) (size 15 to 20)
#    0.000    1.500    5.000    3.000    1.750    0.000 
#    6.750    1.250    0.000    0.000    0.000    0.000 
#    0.000    0.000    0.000    0.000    0.000    0.000 
#
# Total GULP energy -89128.180782 kJ/mol
# GULP energy per Si atom -5570.511299 kJ/mol
# Density = 1.915618 g / cm^3
# Si number density = 19.199875 Si / 1000 Ang^3
#
#
#
# Elastic Constant Matrix: (Units=GPa)
#
#
# Indices 1 2 3 4 5 6 
#
# 1 91.5224 30.7827 11.4661 2.6293 10.9274 -3.7205
# 2 30.7827 85.7506 21.0769 26.4925 16.6925 -5.1402
# 3 11.4661 21.0769 59.0525 8.8726 14.9618 4.6247
# 4 2.6293 26.4925 8.8726 23.9941 9.1962 -2.1557
# 5 10.9274 16.6925 14.9618 9.1962 36.5852 0.6236
# 6 -3.7205 -5.1402 4.6247 -2.1557 0.6236 27.5912
#
#
#
# Elastic Compliance Matrix: (Units=1/GPa)
#
#
# Indices 1 2 3 4 5 6 
#
# 1 0.013220 -0.005986 -0.000887 0.006584 -0.002534 0.001388
# 2 -0.005986 0.021551 -0.003134 -0.021230 -0.001463 0.002107
# 3 -0.000887 -0.003134 0.020391 -0.002031 -0.006063 -0.004143
# 4 0.006584 -0.021230 -0.002031 0.068769 -0.008784 0.002845
# 5 -0.002534 -0.001463 -0.006063 -0.008784 0.033463 -0.001041
# 6 0.001388 0.002107 -0.004143 0.002845 -0.001041 0.037763
#
#
# Mechanical properties :
#
#
# Convention : Reuss Voigt Hill
#
# Bulk Modulus (GPa) = 28.45033 40.33077 34.39055
# Shear Modulus (GPa) = 22.03748 29.16741 25.60244
#
# Velocity S-wave (km/s) = 3.39158 3.90185 3.65563
# Velocity P-wave (km/s) = 5.49429 6.43044 5.98071
#
# Compressibility (1/GPa) = 0.03514897
#
# Stress axis : x y z
#
# Youngs Moduli (GPa) = 75.64110 46.40195 49.04215
#
# Poissons Ratio (x) = 0.27774 0.04348
# Poissons Ratio (y) = 0.45275 0.15371
# Poissons Ratio (z) = 0.06706 0.14544
#
# Static dielectric constant tensor:
#      x y z
#    x 1.696140 0.023980 -0.021500 
#    y 0.023980 1.691100 -0.004910 
#    z -0.021500 -0.004910 1.734830 
# 
# From -- ./inp_files/405497.got.cif
#   From: 2010.05.17/outbox.cif.g08.bks.cpg/sg2_203_cif.got.tgz:405497.got - 2010.06.03 11:33:40.
