data_PCOD9050134
_publ_section_title
;
Structure prediction by ZEFSAII (Michael W. Deem and Ramdas Pophale) SiO2 
 PCOD9050134
Probable space group: P -1
;
_chemical_formula_sum "Si O2"
_cell_formula_units_Z 13
_cell_length_a 14.516797
_cell_length_b 8.485320
_cell_length_c 5.713566
_cell_angle_alpha 77.372113
_cell_angle_beta 48.976382
_cell_angle_gamma 59.826086
_cell_volume 452.294116
_symmetry_space_group_name_H-M "P -1"
_symmetry_group_IT_number 2
_symmetry_cell_setting 'triclinic'
loop_
_space_group_symop_operation_xyz
x,y,z
-x,-y,-z
loop_
_atom_site_type_symbol
_atom_site_label
_atom_site_fract_x
_atom_site_fract_y
_atom_site_fract_z
Si Si1 0.078220 0.979132 0.623990
Si Si2 0.301789 0.111164 0.750435
Si Si3 0.393487 0.720580 0.221530
Si Si4 0.622017 0.313480 0.224774
Si Si5 0.785367 0.541620 0.926920
Si Si6 0.923709 0.678641 0.299501
Si Si7 0.500000 0.000000 0.000000
O O1 0.104339 0.154553 0.532025
O O2 0.227591 0.790661 0.452717
O O3 0.000000 0.000000 0.500000
O O4 0.000000 0.000000 0.000000
O O5 0.149481 0.230851 0.848043
O O6 0.309928 0.911620 0.837166
O O7 0.313367 0.244802 0.890286
O O8 0.413123 0.088222 0.372844
O O9 0.444070 0.650025 0.421189
O O10 0.465745 0.630369 0.885445
O O11 0.407921 0.902606 0.146096
O O12 0.722603 0.405262 0.034328
O O13 0.854318 0.566033 0.567582
O O14 0.910060 0.442507 0.936763
#
# Coordination Sequence:
#
# PCOD9050134 Si02
#       7
#     2   2   2   2   2   2   1
#     4  12  24  40  71 107 144 188 242 305 366 443
#     4  11  25  47  72 104 141 201 247 309 369 442
#     4  11  23  46  70 112 139 198 248 304 368 441
#     4  11  25  47  75 104 150 189 254 299 379 437
#     4  11  26  44  71 109 150 194 239 321 366 456
#     4  11  24  43  67 110 148 190 251 299 386 437
#     4  10  24  48  78 104 150 194 262 302 360 454
#
# _framework density 28.742357999999999
#
# number of rings (size 3 to 8) (size 9 to 14) (size 15 to 20)
#    0.000    0.923    3.077    4.154    4.308    2.462 
#    0.000    6.154    0.000    0.000    0.000    0.000 
#    0.000    0.000    0.000    0.000    0.000    0.000 
#
# Total GULP energy -72563.863353 kJ/mol
# GULP energy per Si atom -5581.835643 kJ/mol
# Density = 2.867694 g / cm^3
# Si number density = 28.742358 Si / 1000 Ang^3
#
#
#
# Elastic Constant Matrix: (Units=GPa)
#
#
# Indices 1 2 3 4 5 6 
#
# 1 135.1681 44.2541 42.0460 -18.9503 25.6038 16.8179
# 2 44.2541 121.8127 33.9952 -23.1271 20.5957 34.2559
# 3 42.0460 33.9952 123.7299 -5.7201 15.6977 26.6068
# 4 -18.9503 -23.1271 -5.7201 55.4859 23.6543 12.6111
# 5 25.6038 20.5957 15.6977 23.6543 49.6529 -0.8895
# 6 16.8179 34.2559 26.6068 12.6111 -0.8895 71.3001
#
#
#
# Elastic Compliance Matrix: (Units=1/GPa)
#
#
# Indices 1 2 3 4 5 6 
#
# 1 0.011450 0.001277 -0.001396 0.009985 -0.010834 -0.004695
# 2 0.001277 0.016943 0.000275 0.017071 -0.016117 -0.011765
# 3 -0.001396 0.000275 0.010104 0.003488 -0.004326 -0.004244
# 4 0.009985 0.017071 0.003488 0.049628 -0.037353 -0.021102
# 5 -0.010834 -0.016117 -0.004326 -0.037353 0.051917 0.019167
# 6 -0.004695 -0.011765 -0.004244 -0.021102 0.019167 0.026340
#
#
# Mechanical properties :
#
#
# Convention : Reuss Voigt Hill
#
# Bulk Modulus (GPa) = 25.76763 69.03347 47.40055
# Shear Modulus (GPa) = 27.93182 52.64881 40.29031
#
# Velocity S-wave (km/s) = 3.12075 4.28454 3.74809
# Velocity P-wave (km/s) = 4.68721 6.96753 5.93786
#
# Compressibility (1/GPa) = 0.03880839
#
# Stress axis : x y z
#
# Youngs Moduli (GPa) = 87.33294 59.02109 98.97203
#
# Poissons Ratio (x) = -0.07539 0.13821
# Poissons Ratio (y) = -0.11156 -0.02717
# Poissons Ratio (z) = 0.12196 -0.01620
#
# Static dielectric constant tensor:
#      x y z
#    x 2.239330 -0.160760 0.057370 
#    y -0.160760 2.413940 0.032830 
#    z 0.057370 0.032830 2.299230 
# 
# From -- ./inp_files/88703.got.cif
#   From: 2010.05.17/outbox.cif.g08.bks.cpg/sg2_45_cif.got.tgz:88703.got - 2010.06.03 11:33:40.
