data_PCOD9050904
_publ_section_title
;
Structure prediction by ZEFSAII (Michael W. Deem and Ramdas Pophale) SiO2 
 PCOD9050904
Probable space group: P -1
;
_chemical_formula_sum "Si O2"
_cell_formula_units_Z 16
_cell_length_a 8.738302
_cell_length_b 21.496107
_cell_length_c 7.304900
_cell_angle_alpha 40.476128
_cell_angle_beta 51.674014
_cell_angle_gamma 57.984326
_cell_volume 694.138620
_symmetry_space_group_name_H-M "P -1"
_symmetry_group_IT_number 2
_symmetry_cell_setting 'triclinic'
loop_
_space_group_symop_operation_xyz
x,y,z
-x,-y,-z
loop_
_atom_site_type_symbol
_atom_site_label
_atom_site_fract_x
_atom_site_fract_y
_atom_site_fract_z
Si Si1 0.520240 0.762781 0.660674
Si Si2 0.168993 0.274261 0.197648
Si Si3 0.855691 0.730244 0.208214
Si Si4 0.593466 0.089649 0.884282
Si Si5 0.758029 0.381266 0.880415
Si Si6 0.168389 0.058847 0.168783
Si Si7 0.269989 0.722996 0.474566
Si Si8 0.597469 0.567229 0.416950
O O1 0.660290 0.782366 0.680161
O O2 0.661599 0.715880 0.497003
O O3 0.411660 0.856635 0.432395
O O4 0.374333 0.685401 0.988687
O O5 0.953619 0.265933 0.455297
O O6 0.176116 0.250670 0.028210
O O7 0.224458 0.383771 0.914503
O O8 0.020698 0.641007 0.304520
O O9 0.916981 0.829274 0.025314
O O10 0.660520 0.171174 0.784495
O O11 0.746570 0.995035 0.957725
O O12 0.370380 0.064205 0.125740
O O13 0.679548 0.492988 0.680741
O O14 0.754112 0.331184 0.192563
O O15 0.000000 0.000000 0.500000
O O16 0.437593 0.652648 0.410125
O O17 0.500000 0.500000 0.500000
#
# Coordination Sequence:
#
# PCOD9050904 Si02
#       8
#     2   2   2   2   2   2   2   2
#     4  10  20  38  60  84 122 161 197 245 298 346
#     4  11  23  39  61  87 121 163 203 244 300 352
#     4  10  23  39  62  91 118 158 200 244 296 363
#     4   9  20  37  61  90 117 156 197 240 299 358
#     4  10  21  40  58  83 120 159 204 246 299 350
#     4  10  17  34  65  92 116 150 197 242 296 357
#     4  10  23  40  60  85 120 163 198 250 297 350
#     4  12  24  37  57  90 120 156 207 250 295 354
#
# _framework density 23.050153000000002
#
# number of rings (size 3 to 8) (size 9 to 14) (size 15 to 20)
#    0.000    1.750    1.250    4.875    1.750    3.500 
#    0.000    0.625    0.000   18.750    0.000    0.000 
#    0.000    0.000    0.000    0.000    0.000    0.000 
#
# Total GULP energy -89321.331051 kJ/mol
# GULP energy per Si atom -5582.583191 kJ/mol
# Density = 2.299769 g / cm^3
# Si number density = 23.050153 Si / 1000 Ang^3
#
#
#
# Elastic Constant Matrix: (Units=GPa)
#
#
# Indices 1 2 3 4 5 6 
#
# 1 78.5099 31.0381 21.3380 -2.3639 -9.3395 4.0792
# 2 31.0381 112.3361 5.0441 -5.5383 -12.8387 6.4528
# 3 21.3380 5.0441 64.9707 -8.6622 -25.5932 3.8190
# 4 -2.3639 -5.5383 -8.6622 34.5911 2.4616 -10.1542
# 5 -9.3395 -12.8387 -25.5932 2.4616 47.6415 -0.3643
# 6 4.0792 6.4528 3.8190 -10.1542 -0.3643 19.2229
#
#
#
# Elastic Compliance Matrix: (Units=1/GPa)
#
#
# Indices 1 2 3 4 5 6 
#
# 1 0.015767 -0.004185 -0.005251 -0.001324 -0.000802 -0.001612
# 2 -0.004185 0.010503 0.002026 0.000961 0.003030 -0.002475
# 3 -0.005251 0.002026 0.021982 0.004246 0.011095 -0.001480
# 4 -0.001324 0.000961 0.004246 0.035194 0.000598 0.017717
# 5 -0.000802 0.003030 0.011095 0.000598 0.027562 -0.002213
# 6 -0.001612 -0.002475 -0.001480 0.017717 -0.002213 0.062805
#
#
# Mechanical properties :
#
#
# Convention : Reuss Voigt Hill
#
# Bulk Modulus (GPa) = 29.91028 41.18411 35.54720
# Shear Modulus (GPa) = 25.02779 33.51755 29.27267
#
# Velocity S-wave (km/s) = 3.29872 3.81742 3.56751
# Velocity P-wave (km/s) = 5.24529 6.11034 5.69426
#
# Compressibility (1/GPa) = 0.03343332
#
# Stress axis : x y z
#
# Youngs Moduli (GPa) = 63.42182 95.21092 45.49080
#
# Poissons Ratio (x) = 0.39845 0.23887
# Poissons Ratio (y) = 0.26542 -0.09217
# Poissons Ratio (z) = 0.33303 -0.19291
#
# Static dielectric constant tensor:
#      x y z
#    x 1.974990 0.006390 0.011260 
#    y 0.006390 1.856260 0.013900 
#    z 0.011260 0.013900 1.875820 
# 
# From -- ./inp_files/225213.got.cif
#   From: 2010.05.17/outbox.cif.g08.bks.cpg/sg2_113_cif.got.tgz:225213.got - 2010.06.03 11:33:40.
