data_PCOD9050267
_publ_section_title
;
Structure prediction by ZEFSAII (Michael W. Deem and Ramdas Pophale) SiO2 
 PCOD9050267
Probable space group: P -1
;
_chemical_formula_sum "Si O2"
_cell_formula_units_Z 8
_cell_length_a 7.660451
_cell_length_b 5.362142
_cell_length_c 13.910691
_cell_angle_alpha 80.346429
_cell_angle_beta 32.623320
_cell_angle_gamma 81.563210
_cell_volume 303.672063
_symmetry_space_group_name_H-M "P -1"
_symmetry_group_IT_number 2
_symmetry_cell_setting 'triclinic'
loop_
_space_group_symop_operation_xyz
x,y,z
-x,-y,-z
loop_
_atom_site_type_symbol
_atom_site_label
_atom_site_fract_x
_atom_site_fract_y
_atom_site_fract_z
Si Si1 0.208141 0.202096 0.638501
Si Si2 0.944554 0.274341 0.962799
Si Si3 0.304543 0.023464 0.232251
Si Si4 0.243131 0.648893 0.444560
O O1 0.300491 0.431906 0.511597
O O2 0.170654 0.285437 0.762160
O O3 0.500000 0.000000 0.500000
O O4 0.845325 0.098679 0.787016
O O5 0.570241 0.245055 0.100829
O O6 0.000000 0.500000 0.000000
O O7 0.000000 0.000000 0.000000
O O8 0.966288 0.137942 0.419107
O O9 0.421458 0.805814 0.266756
O O10 0.000000 0.500000 0.500000
#
# Coordination Sequence:
#
# PCOD9050267 Si02
#       4
#     2   2   2   2
#     4  11  27  49  83 121 157 210 271 327 401 481
#     4  12  32  51  79 120 167 211 268 332 402 473
#     4  10  24  49  79 113 159 211 262 332 399 471
#     4   9  22  43  81 112 158 202 268 323 405 467
#
# _framework density 26.344204000000001
#
# number of rings (size 3 to 8) (size 9 to 14) (size 15 to 20)
#    0.000    1.500    0.000    0.750   21.000    2.000 
#    0.000    1.250    0.000    0.000    0.000    0.000 
#    0.000    0.000    0.000    0.000    0.000    0.000 
#
# Total GULP energy -44599.255190 kJ/mol
# GULP energy per Si atom -5574.906899 kJ/mol
# Density = 2.628424 g / cm^3
# Si number density = 26.344204 Si / 1000 Ang^3
#
#
#
# Elastic Constant Matrix: (Units=GPa)
#
#
# Indices 1 2 3 4 5 6 
#
# 1 197.0472 96.5069 56.9613 -2.4006 29.0433 12.1077
# 2 96.5069 179.7747 74.6076 -5.4494 11.3440 1.1966
# 3 56.9613 74.6076 136.4153 -8.7723 -0.0313 15.2358
# 4 -2.4006 -5.4494 -8.7723 56.4524 19.0949 -11.3042
# 5 29.0433 11.3440 -0.0313 19.0949 49.0998 -3.2636
# 6 12.1077 1.1966 15.2358 -11.3042 -3.2636 73.7873
#
#
#
# Elastic Compliance Matrix: (Units=1/GPa)
#
#
# Indices 1 2 3 4 5 6 
#
# 1 0.007786 -0.003355 -0.001237 0.001076 -0.004316 -0.000994
# 2 -0.003355 0.008850 -0.003545 0.000456 -0.000160 0.001202
# 3 -0.001237 -0.003545 0.009999 0.000383 0.001296 -0.001688
# 4 0.001076 0.000456 0.000383 0.021394 -0.008887 0.002622
# 5 -0.004316 -0.000160 0.001296 -0.008887 0.026430 0.000251
# 6 -0.000994 0.001202 -0.001688 0.002622 0.000251 0.014457
#
#
# Mechanical properties :
#
#
# Convention : Reuss Voigt Hill
#
# Bulk Modulus (GPa) = 96.50080 107.70986 102.10533
# Shear Modulus (GPa) = 46.02198 54.87866 50.45032
#
# Velocity S-wave (km/s) = 4.18419 4.56909 4.38087
# Velocity P-wave (km/s) = 7.74942 8.29517 8.02693
#
# Compressibility (1/GPa) = 0.01036261
#
# Stress axis : x y z
#
# Youngs Moduli (GPa) = 128.43936 112.99109 100.00853
#
# Poissons Ratio (x) = 0.37904 0.12373
# Poissons Ratio (y) = 0.43086 0.35448
# Poissons Ratio (z) = 0.15890 0.40050
#
# Static dielectric constant tensor:
#      x y z
#    x 2.274850 0.053980 -0.111250 
#    y 0.053980 2.058390 -0.032100 
#    z -0.111250 -0.032100 2.301310 
# 
# From -- ./inp_files/47108.got.cif
#   From: 2010.05.17/outbox.cif.g08.bks.cpg/sg2_24_cif.got.tgz:47108.got - 2010.06.03 11:33:40.
