data_PCOD9050568
_publ_section_title
;
Structure prediction by ZEFSAII (Michael W. Deem and Ramdas Pophale) SiO2 
 PCOD9050568
Probable space group: P -1
;
_chemical_formula_sum "Si O2"
_cell_formula_units_Z 12
_cell_length_a 6.270643
_cell_length_b 12.604253
_cell_length_c 9.138956
_cell_angle_alpha 53.751369
_cell_angle_beta 99.429604
_cell_angle_gamma 111.595287
_cell_volume 540.232171
_symmetry_space_group_name_H-M "P -1"
_symmetry_group_IT_number 2
_symmetry_cell_setting 'triclinic'
loop_
_space_group_symop_operation_xyz
x,y,z
-x,-y,-z
loop_
_atom_site_type_symbol
_atom_site_label
_atom_site_fract_x
_atom_site_fract_y
_atom_site_fract_z
Si Si1 0.320451 0.784579 0.650879
Si Si2 0.633987 0.371304 0.767233
Si Si3 0.009607 0.367722 0.018197
Si Si4 0.459514 0.343051 0.444859
Si Si5 0.707465 0.805482 0.893387
Si Si6 0.000281 0.929955 0.398244
O O1 0.140871 0.748788 0.792001
O O2 0.367748 0.664565 0.658323
O O3 0.555547 0.844673 0.719082
O O4 0.207752 0.866938 0.464104
O O5 0.588078 0.356228 0.603078
O O6 0.619841 0.522349 0.688674
O O7 0.876154 0.365110 0.854548
O O8 0.440389 0.249117 0.933772
O O9 0.233820 0.329053 0.047262
O O10 0.000000 0.500000 0.000000
O O11 0.239183 0.199090 0.538975
O O12 0.936563 0.941653 0.815015
O O13 0.000000 0.000000 0.500000
#
# Coordination Sequence:
#
# PCOD9050568 Si02
#       6
#     2   2   2   2   2   2
#     4  11  21  38  66  92 122 165 206 258 305 364
#     4  10  25  43  62  93 128 167 203 256 313 367
#     4  11  21  38  64  94 123 162 210 257 306 364
#     4  11  24  43  64  91 129 165 208 253 312 372
#     4  11  23  40  64  94 127 159 212 257 306 366
#     4  12  23  40  65  97 123 163 210 257 309 367
#
# _framework density 22.212669999999999
#
# number of rings (size 3 to 8) (size 9 to 14) (size 15 to 20)
#    0.000    1.000    3.333    3.500    0.000    4.667 
#    0.000    5.833    0.000    0.000    0.000    0.000 
#    0.000    0.000    0.000    0.000    0.000    0.000 
#
# Total GULP energy -66954.905394 kJ/mol
# GULP energy per Si atom -5579.575450 kJ/mol
# Density = 2.216211 g / cm^3
# Si number density = 22.212670 Si / 1000 Ang^3
#
#
#
# Elastic Constant Matrix: (Units=GPa)
#
#
# Indices 1 2 3 4 5 6 
#
# 1 54.5031 1.3481 -0.1362 5.7299 14.2776 -8.2206
# 2 1.3481 63.8488 7.0394 -5.1249 12.7714 7.5704
# 3 -0.1362 7.0394 49.1004 -0.2533 5.4035 12.3045
# 4 5.7299 -5.1249 -0.2533 33.6820 -0.1008 -4.3617
# 5 14.2776 12.7714 5.4035 -0.1008 30.8283 -8.2871
# 6 -8.2206 7.5704 12.3045 -4.3617 -8.2871 21.6774
#
#
#
# Elastic Compliance Matrix: (Units=1/GPa)
#
#
# Indices 1 2 3 4 5 6 
#
# 1 0.021670 0.000711 0.000028 -0.003120 -0.009336 0.003757
# 2 0.000711 0.019281 0.001390 0.001307 -0.011631 -0.011436
# 3 0.000028 0.001390 0.026298 -0.002201 -0.010549 -0.019878
# 4 -0.003120 0.001307 -0.002201 0.031343 0.003323 0.007187
# 5 -0.009336 -0.011631 -0.010549 0.003323 0.050566 0.026509
# 6 0.003757 -0.011436 -0.019878 0.007187 0.026509 0.074413
#
#
# Mechanical properties :
#
#
# Convention : Reuss Voigt Hill
#
# Bulk Modulus (GPa) = 13.98443 20.43944 17.21193
# Shear Modulus (GPa) = 20.56352 27.85092 24.20722
#
# Velocity S-wave (km/s) = 3.04593 3.54479 3.30478
# Velocity P-wave (km/s) = 4.32199 5.09664 4.72521
#
# Compressibility (1/GPa) = 0.07150811
#
# Stress axis : x y z
#
# Youngs Moduli (GPa) = 46.14609 51.86439 38.02554
#
# Poissons Ratio (x) = -0.03687 -0.00107
# Poissons Ratio (y) = -0.03281 -0.05287
# Poissons Ratio (z) = -0.00129 -0.07211
#
# Static dielectric constant tensor:
#      x y z
#    x 1.839890 0.029590 0.012850 
#    y 0.029590 1.880360 -0.127930 
#    z 0.012850 -0.127930 1.932240 
# 
# From -- ./inp_files/20486.got.cif
#   From: 2010.05.17/outbox.cif.g08.bks.cpg/sg2_11_cif.got.tgz:20486.got - 2010.06.03 11:33:40.
