data_PCOD9050738
_publ_section_title
;
Structure prediction by ZEFSAII (Michael W. Deem and Ramdas Pophale) SiO2 
 PCOD9050738
Probable space group: P -1
;
_chemical_formula_sum "Si O2"
_cell_formula_units_Z 16
_cell_length_a 24.054752
_cell_length_b 6.587545
_cell_length_c 9.428398
_cell_angle_alpha 72.465117
_cell_angle_beta 128.195650
_cell_angle_gamma 133.793399
_cell_volume 826.173266
_symmetry_space_group_name_H-M "P -1"
_symmetry_group_IT_number 2
_symmetry_cell_setting 'triclinic'
loop_
_space_group_symop_operation_xyz
x,y,z
-x,-y,-z
loop_
_atom_site_type_symbol
_atom_site_label
_atom_site_fract_x
_atom_site_fract_y
_atom_site_fract_z
Si Si1 0.330380 0.271356 0.647007
Si Si2 0.461640 0.903666 0.799943
Si Si3 0.807241 0.718381 0.170698
Si Si4 0.918662 0.589141 0.229750
Si Si5 0.591733 0.763532 0.499590
Si Si6 0.128366 0.898291 0.532459
Si Si7 0.355365 0.963113 0.974288
Si Si8 0.250812 0.942050 0.081834
O O1 0.369974 0.566768 0.716353
O O2 0.371583 0.325578 0.543709
O O3 0.215778 0.038789 0.533650
O O4 0.369068 0.152200 0.826408
O O5 0.439573 0.084290 0.659433
O O6 0.500000 0.000000 0.000000
O O7 0.547084 0.952477 0.845332
O O8 0.891536 0.763345 0.213398
O O9 0.720824 0.373991 0.115638
O O10 0.840168 0.872818 0.342608
O O11 0.773013 0.856193 0.001242
O O12 0.892873 0.364412 0.360411
O O13 0.029971 0.779993 0.334006
O O14 0.847845 0.386654 0.031177
O O15 0.500000 0.500000 0.500000
O O16 0.682854 0.985922 0.698258
O O17 0.312365 0.013159 0.023534
#
# Coordination Sequence:
#
# PCOD9050738 Si02
#       8
#     2   2   2   2   2   2   2   2
#     4  12  24  40  63  94 129 161 211 263 310 373
#     4  12  26  40  68  92 122 165 212 261 316 373
#     4  10  17  34  64  92 124 164 203 255 315 365
#     4   9  19  35  62  94 131 162 210 257 318 367
#     4  12  28  44  62  94 130 170 209 260 317 378
#     4  10  19  35  60  98 127 162 209 269 305 371
#     4  11  21  38  63  92 125 162 209 259 308 371
#     4  10  22  39  61  89 130 166 209 257 311 372
#
# _framework density 19.366396999999999
#
# number of rings (size 3 to 8) (size 9 to 14) (size 15 to 20)
#    0.000    1.250    5.000    3.000    1.750    4.000 
#    0.000    0.625    0.000    1.500    0.000    0.000 
#    0.000    0.000    0.000    0.000    0.000    0.000 
#
# Total GULP energy -89383.811020 kJ/mol
# GULP energy per Si atom -5586.488189 kJ/mol
# Density = 1.932232 g / cm^3
# Si number density = 19.366397 Si / 1000 Ang^3
#
#
#
# Elastic Constant Matrix: (Units=GPa)
#
#
# Indices 1 2 3 4 5 6 
#
# 1 117.1834 47.7401 50.6860 4.3374 17.8931 -2.4057
# 2 47.7401 67.3038 33.1526 -6.9964 8.1836 -2.7545
# 3 50.6860 33.1526 125.9108 6.5929 12.4112 2.5286
# 4 4.3374 -6.9964 6.5929 19.8791 1.2273 11.8712
# 5 17.8931 8.1836 12.4112 1.2273 34.2805 2.2088
# 6 -2.4057 -2.7545 2.5286 11.8712 2.2088 30.7156
#
#
#
# Elastic Compliance Matrix: (Units=1/GPa)
#
#
# Indices 1 2 3 4 5 6 
#
# 1 0.014346 -0.008933 -0.002684 -0.007315 -0.004359 0.003684
# 2 -0.008933 0.024166 -0.003400 0.013704 -0.000138 -0.003539
# 3 -0.002684 -0.003400 0.010263 -0.004130 -0.001377 0.000335
# 4 -0.007315 0.013704 -0.004130 0.074722 0.001169 -0.027967
# 5 -0.004359 -0.000138 -0.001377 0.001169 0.032129 -0.003003
# 6 0.003684 -0.003539 0.000335 -0.027967 -0.003003 0.043525
#
#
# Mechanical properties :
#
#
# Convention : Reuss Voigt Hill
#
# Bulk Modulus (GPa) = 53.36055 63.72836 58.54445
# Shear Modulus (GPa) = 21.23756 28.89633 25.06695
#
# Velocity S-wave (km/s) = 3.31512 3.86694 3.60161
# Velocity P-wave (km/s) = 6.50125 7.27432 6.89863
#
# Compressibility (1/GPa) = 0.01874044
#
# Stress axis : x y z
#
# Youngs Moduli (GPa) = 69.70554 41.38098 97.43738
#
# Poissons Ratio (x) = 0.36967 0.26154
# Poissons Ratio (y) = 0.62271 0.33125
# Poissons Ratio (z) = 0.18710 0.14068
#
# Static dielectric constant tensor:
#      x y z
#    x 1.715680 0.007150 0.010640 
#    y 0.007150 1.677620 0.022350 
#    z 0.010640 0.022350 1.677240 
# 
# From -- ./inp_files/90018.got.cif
#   From: 2010.05.17/outbox.cif.g08.bks.cpg/sg2_46_cif.got.tgz:90018.got - 2010.06.03 11:33:40.
