data_PCOD9050093
_publ_section_title
;
Structure prediction by ZEFSAII (Michael W. Deem and Ramdas Pophale) SiO2 
 PCOD9050093
Probable space group: P -1
;
_chemical_formula_sum "Si O2"
_cell_formula_units_Z 16
_cell_length_a 17.021563
_cell_length_b 20.705068
_cell_length_c 6.452433
_cell_angle_alpha 73.300730
_cell_angle_beta 108.855055
_cell_angle_gamma 160.253252
_cell_volume 726.081668
_symmetry_space_group_name_H-M "P -1"
_symmetry_group_IT_number 2
_symmetry_cell_setting 'triclinic'
loop_
_space_group_symop_operation_xyz
x,y,z
-x,-y,-z
loop_
_atom_site_type_symbol
_atom_site_label
_atom_site_fract_x
_atom_site_fract_y
_atom_site_fract_z
Si Si1 0.226873 0.695425 0.640417
Si Si2 0.333468 0.631874 0.956431
Si Si3 0.457546 0.873646 0.272529
Si Si4 0.449557 0.409104 0.856018
Si Si5 0.133295 0.724103 0.886840
Si Si6 0.340650 0.112299 0.653479
Si Si7 0.804715 0.674505 0.533578
Si Si8 0.452135 0.626021 0.713623
O O1 0.307958 0.692389 0.843031
O O2 0.438496 0.873410 0.500234
O O3 0.145280 0.696119 0.704428
O O4 0.000000 0.500000 0.500000
O O5 0.313923 0.576603 0.776907
O O6 0.579992 0.807667 0.121657
O O7 0.121082 0.447656 0.094751
O O8 0.475864 0.807566 0.326077
O O9 0.678564 0.073250 0.156383
O O10 0.234582 0.743364 0.108215
O O11 0.663581 0.560775 0.735406
O O12 0.258007 0.300666 0.648357
O O13 0.500000 0.500000 0.000000
O O14 0.413442 0.314965 0.049068
O O15 0.378603 0.204512 0.451497
O O16 0.081435 0.885350 0.616997
O O17 0.711150 0.546709 0.409119
#
# Coordination Sequence:
#
# PCOD9050093 Si02
#       8
#     2   2   2   2   2   2   2   2
#     4  12  22  42  66  88 127 182 235 282 341 402
#     4  12  25  42  66  99 139 180 229 291 345 399
#     4  11  24  43  62  97 128 180 234 284 343 402
#     4   9  21  48  77 104 135 181 223 269 342 414
#     4  11  25  43  64  89 136 183 232 287 340 402
#     4  12  26  43  66 107 140 175 229 289 346 404
#     4  10  24  48  76 102 142 178 221 279 339 418
#     4  11  25  45  70 104 139 182 228 277 346 406
#
# _framework density 22.036087999999999
#
# number of rings (size 3 to 8) (size 9 to 14) (size 15 to 20)
#    0.000    1.000    3.750    2.250    3.500    2.500 
#    4.500    8.750    0.000    0.000    0.000    0.000 
#    0.000    0.000    0.000    0.000    0.000    0.000 
#
# Total GULP energy -89385.691392 kJ/mol
# GULP energy per Si atom -5586.605712 kJ/mol
# Density = 2.198593 g / cm^3
# Si number density = 22.036088 Si / 1000 Ang^3
#
#
#
# Elastic Constant Matrix: (Units=GPa)
#
#
# Indices 1 2 3 4 5 6 
#
# 1 77.9067 28.8302 26.5808 6.5686 -7.3312 -8.8474
# 2 28.8302 74.5525 32.4778 4.7873 -6.1301 1.2181
# 3 26.5808 32.4778 119.2605 -2.4352 5.2732 -0.2366
# 4 6.5686 4.7873 -2.4352 19.3065 -4.4670 0.2188
# 5 -7.3312 -6.1301 5.2732 -4.4670 49.7607 -0.7721
# 6 -8.8474 1.2181 -0.2366 0.2188 -0.7721 24.5808
#
#
#
# Elastic Compliance Matrix: (Units=1/GPa)
#
#
# Indices 1 2 3 4 5 6 
#
# 1 0.016853 -0.005084 -0.002530 -0.004442 0.001825 0.006390
# 2 -0.005084 0.017335 -0.003713 -0.002660 0.001500 -0.002654
# 3 -0.002530 -0.003713 0.010087 0.002676 -0.001670 -0.000706
# 4 -0.004442 -0.002660 0.002676 0.055172 0.003659 -0.001818
# 5 0.001825 0.001500 -0.001670 0.003659 0.021074 0.001196
# 6 0.006390 -0.002654 -0.000706 -0.001818 0.001196 0.043161
#
#
# Mechanical properties :
#
#
# Convention : Reuss Voigt Hill
#
# Bulk Modulus (GPa) = 46.25539 49.72192 47.98865
# Shear Modulus (GPa) = 25.83416 30.98500 28.40958
#
# Velocity S-wave (km/s) = 3.42768 3.75387 3.59448
# Velocity P-wave (km/s) = 6.05819 6.43441 6.24913
#
# Compressibility (1/GPa) = 0.02161910
#
# Stress axis : x y z
#
# Youngs Moduli (GPa) = 59.33833 57.68828 99.13426
#
# Poissons Ratio (x) = 0.29327 0.25085
# Poissons Ratio (y) = 0.30166 0.36813
# Poissons Ratio (z) = 0.15015 0.21422
#
# Static dielectric constant tensor:
#      x y z
#    x 1.845900 -0.011210 0.018620 
#    y -0.011210 1.785420 0.001370 
#    z 0.018620 0.001370 1.843790 
# 
# From -- ./inp_files/46989.got.cif
#   From: 2010.05.17/outbox.cif.g08.bks.cpg/sg2_24_cif.got.tgz:46989.got - 2010.06.03 11:33:40.
