data_PCOD9050809
_publ_section_title
;
Structure prediction by ZEFSAII (Michael W. Deem and Ramdas Pophale) SiO2 
 PCOD9050809
Probable space group: P -1
;
_chemical_formula_sum "Si O2"
_cell_formula_units_Z 15
_cell_length_a 16.386006
_cell_length_b 12.139999
_cell_length_c 11.540393
_cell_angle_alpha 35.678682
_cell_angle_beta 43.024578
_cell_angle_gamma 26.892390
_cell_volume 605.431455
_symmetry_space_group_name_H-M "P -1"
_symmetry_group_IT_number 2
_symmetry_cell_setting 'triclinic'
loop_
_space_group_symop_operation_xyz
x,y,z
-x,-y,-z
loop_
_atom_site_type_symbol
_atom_site_label
_atom_site_fract_x
_atom_site_fract_y
_atom_site_fract_z
Si Si1 0.050695 0.528150 0.260138
Si Si2 0.838151 0.830954 0.910991
Si Si3 0.431754 0.379505 0.359415
Si Si4 0.342214 0.076696 0.773946
Si Si5 0.681172 0.335976 0.515904
Si Si6 0.500000 0.500000 0.000000
Si Si7 0.161382 0.029562 0.702157
Si Si8 0.108931 0.736378 0.842964
O O1 0.863549 0.668035 0.281089
O O2 0.977694 0.770569 0.220314
O O3 0.153584 0.237012 0.464152
O O4 0.169110 0.493401 0.070612
O O5 0.914657 0.895803 0.866272
O O6 0.785417 0.015361 0.697898
O O7 0.681077 0.907537 0.076215
O O8 0.000000 0.500000 0.000000
O O9 0.438542 0.148481 0.564072
O O10 0.366313 0.530418 0.421996
O O11 0.630050 0.240145 0.238541
O O12 0.335653 0.571899 0.181922
O O13 0.437629 0.774211 0.894703
O O14 0.500000 0.500000 0.500000
O O15 0.787773 0.350106 0.310045
O O16 0.120479 0.910740 0.758020
#
# Coordination Sequence:
#
# PCOD9050809 Si02
#       8
#     2   2   2   2   2   1   2   2
#     4  10  25  44  68 106 138 187 236 293 355 420
#     4  11  26  48  72 105 141 192 245 294 365 434
#     4  12  26  47  71 108 141 188 238 296 365 419
#     4  11  25  45  75 102 139 190 237 298 350 435
#     4  12  26  46  73 106 146 186 242 301 364 430
#     4  12  24  46  70 104 146 182 244 284 362 428
#     4  11  24  45  68 105 145 178 238 296 355 430
#     4  11  25  45  72 100 141 192 231 293 357 436
#
# _framework density 24.775718000000001
#
# number of rings (size 3 to 8) (size 9 to 14) (size 15 to 20)
#    0.000    0.800    4.000    2.000    5.600    2.133 
#    7.200    2.000    0.000    0.000    0.000    0.000 
#    0.000    0.000    0.000    0.000    0.000    0.000 
#
# Total GULP energy -83743.041714 kJ/mol
# GULP energy per Si atom -5582.869448 kJ/mol
# Density = 2.471933 g / cm^3
# Si number density = 24.775718 Si / 1000 Ang^3
#
#
#
# Elastic Constant Matrix: (Units=GPa)
#
#
# Indices 1 2 3 4 5 6 
#
# 1 49.3737 10.9758 10.1307 -4.0690 -6.1111 0.9044
# 2 10.9758 94.6311 59.1953 0.9979 1.0052 16.8759
# 3 10.1307 59.1953 184.3071 20.0581 -1.3111 14.8086
# 4 -4.0690 0.9979 20.0581 56.2619 12.2119 9.4260
# 5 -6.1111 1.0052 -1.3111 12.2119 32.9223 2.4990
# 6 0.9044 16.8759 14.8086 9.4260 2.4990 33.0293
#
#
#
# Elastic Compliance Matrix: (Units=1/GPa)
#
#
# Indices 1 2 3 4 5 6 
#
# 1 0.021388 -0.002225 -0.000559 0.000952 0.003643 0.000254
# 2 -0.002225 0.014627 -0.004370 0.002474 -0.001492 -0.006047
# 3 -0.000559 -0.004370 0.007195 -0.002777 0.001368 -0.000289
# 4 0.000952 0.002474 -0.002777 0.021352 -0.007506 -0.005571
# 5 0.003643 -0.001492 0.001368 -0.007506 0.033964 -0.000378
# 6 0.000254 -0.006047 -0.000289 -0.005571 -0.000378 0.035107
#
#
# Mechanical properties :
#
#
# Convention : Reuss Voigt Hill
#
# Bulk Modulus (GPa) = 34.59954 54.32395 44.46174
# Shear Modulus (GPa) = 31.73124 40.97669 36.35397
#
# Velocity S-wave (km/s) = 3.58262 4.07124 3.83472
# Velocity P-wave (km/s) = 5.57755 6.63881 6.13118
#
# Compressibility (1/GPa) = 0.02890212
#
# Stress axis : x y z
#
# Youngs Moduli (GPa) = 46.75565 68.36751 138.98530
#
# Poissons Ratio (x) = 0.15212 0.07771
# Poissons Ratio (y) = 0.10403 0.60731
# Poissons Ratio (z) = 0.02614 0.29874
#
# Static dielectric constant tensor:
#      x y z
#    x 1.560950 0.044630 -0.386180 
#    y 0.044630 2.048070 0.238010 
#    z -0.386180 0.238010 1.770390 
# 
# From -- ./inp_files/36915.got.cif
#   From: 2010.05.17/outbox.cif.g08.bks.cpg/sg2_19_cif.got.tgz:36915.got - 2010.06.03 11:33:40.
