data_PCOD9050131
_publ_section_title
;
Structure prediction by ZEFSAII (Michael W. Deem and Ramdas Pophale) SiO2 
 PCOD9050131
Probable space group: P -1
;
_chemical_formula_sum "Si O2"
_cell_formula_units_Z 15
_cell_length_a 19.983620
_cell_length_b 5.144374
_cell_length_c 7.795305
_cell_angle_alpha 121.163642
_cell_angle_beta 130.120315
_cell_angle_gamma 64.023120
_cell_volume 517.642359
_symmetry_space_group_name_H-M "P -1"
_symmetry_group_IT_number 2
_symmetry_cell_setting 'triclinic'
loop_
_space_group_symop_operation_xyz
x,y,z
-x,-y,-z
loop_
_atom_site_type_symbol
_atom_site_label
_atom_site_fract_x
_atom_site_fract_y
_atom_site_fract_z
Si Si1 0.777104 0.636337 0.172123
Si Si2 0.552785 0.231476 0.328249
Si Si3 0.243386 0.730252 0.576889
Si Si4 0.609287 0.541404 0.046044
Si Si5 0.945666 0.138331 0.684524
Si Si6 0.949095 0.426585 0.172688
Si Si7 0.500000 0.000000 0.500000
Si Si8 0.685078 0.690714 0.712549
O O1 0.695863 0.481580 0.050518
O O2 0.862140 0.452717 0.157482
O O3 0.777592 0.916548 0.402930
O O4 0.732099 0.815824 0.991993
O O5 0.638438 0.386471 0.561916
O O6 0.583021 0.902242 0.174023
O O7 0.482612 0.164269 0.333507
O O8 0.485182 0.517691 0.208965
O O9 0.346015 0.647479 0.782855
O O10 0.149236 0.750041 0.527679
O O11 0.243155 0.439959 0.353562
O O12 0.019040 0.261159 0.731188
O O13 0.939395 0.276901 0.916522
O O14 0.975784 0.784060 0.663115
O O15 0.605500 0.940154 0.605176
#
# Coordination Sequence:
#
# PCOD9050131 Si02
#       8
#     2   2   2   2   2   2   1   2
#     4  12  27  46  72 111 144 192 254 296 377 450
#     4  11  25  46  71  99 152 192 245 312 365 440
#     4  12  27  47  75 106 149 193 241 317 366 453
#     4  11  26  45  67 111 145 191 249 309 368 441
#     4  10  24  49  78 109 155 192 249 313 384 446
#     4  10  24  48  77 114 145 201 247 310 380 465
#     4  12  24  44  70 100 136 202 246 284 384 430
#     4  12  26  47  71 107 141 199 244 303 364 446
#
# _framework density 28.977540000000001
#
# number of rings (size 3 to 8) (size 9 to 14) (size 15 to 20)
#    0.000    0.800    5.333    0.400    5.600    1.600 
#    2.400    0.000    0.000    0.000    0.000    0.000 
#    0.000    0.000    0.000    0.000    0.000    0.000 
#
# Total GULP energy -83596.661813 kJ/mol
# GULP energy per Si atom -5573.110788 kJ/mol
# Density = 2.891159 g / cm^3
# Si number density = 28.977540 Si / 1000 Ang^3
#
#
#
# Elastic Constant Matrix: (Units=GPa)
#
#
# Indices 1 2 3 4 5 6 
#
# 1 181.6298 45.5165 15.8267 -10.1544 0.9483 -21.6029
# 2 45.5165 133.6085 7.9028 -12.7937 3.0344 -18.2592
# 3 15.8267 7.9028 71.2393 -6.8244 5.4077 -12.1912
# 4 -10.1544 -12.7937 -6.8244 48.4118 -11.1055 4.9024
# 5 0.9483 3.0344 5.4077 -11.1055 42.3587 -8.1842
# 6 -21.6029 -18.2592 -12.1912 4.9024 -8.1842 52.6658
#
#
#
# Elastic Compliance Matrix: (Units=1/GPa)
#
#
# Indices 1 2 3 4 5 6 
#
# 1 0.006278 -0.001792 -0.000872 0.000682 0.000623 0.001785
# 2 -0.001792 0.008544 -0.000047 0.001730 0.000294 0.002101
# 3 -0.000872 -0.000047 0.014923 0.001401 -0.000974 0.002799
# 4 0.000682 0.001730 0.001401 0.022752 0.005640 -0.000037
# 5 0.000623 0.000294 -0.000974 0.005640 0.025877 0.003628
# 6 0.001785 0.002101 0.002799 -0.000037 0.003628 0.021663
#
#
# Mechanical properties :
#
#
# Convention : Reuss Voigt Hill
#
# Bulk Modulus (GPa) = 41.11315 58.32995 49.72155
# Shear Modulus (GPa) = 44.02695 49.83602 46.93149
#
# Velocity S-wave (km/s) = 3.90211 4.15156 4.02877
# Velocity P-wave (km/s) = 5.87543 6.56915 6.23195
#
# Compressibility (1/GPa) = 0.02432312
#
# Stress axis : x y z
#
# Youngs Moduli (GPa) = 159.28576 117.04273 67.00929
#
# Poissons Ratio (x) = 0.20974 0.05846
# Poissons Ratio (y) = 0.28544 0.00313
# Poissons Ratio (z) = 0.13895 0.00547
#
# Static dielectric constant tensor:
#      x y z
#    x 2.287440 0.013650 -0.208710 
#    y 0.013650 2.010900 -0.088270 
#    z -0.208710 -0.088270 2.511560 
# 
# From -- ./inp_files/340568.got.cif
#   From: 2010.05.17/outbox.cif.g08.bks.cpg/sg2_171_cif.got.tgz:340568.got - 2010.06.03 11:33:40.
