data_PCOD9050265
_publ_section_title
;
Structure prediction by ZEFSAII (Michael W. Deem and Ramdas Pophale) SiO2 
 PCOD9050265
Probable space group: P -1
;
_chemical_formula_sum "Si O2"
_cell_formula_units_Z 16
_cell_length_a 9.105623
_cell_length_b 14.079216
_cell_length_c 8.410138
_cell_angle_alpha 101.814351
_cell_angle_beta 135.284230
_cell_angle_gamma 61.737059
_cell_volume 652.886915
_symmetry_space_group_name_H-M "P -1"
_symmetry_group_IT_number 2
_symmetry_cell_setting 'triclinic'
loop_
_space_group_symop_operation_xyz
x,y,z
-x,-y,-z
loop_
_atom_site_type_symbol
_atom_site_label
_atom_site_fract_x
_atom_site_fract_y
_atom_site_fract_z
Si Si1 0.395730 0.047390 0.257642
Si Si2 0.493574 0.229638 0.268259
Si Si3 0.490337 0.391844 0.893652
Si Si4 0.123865 0.011691 0.773429
Si Si5 0.383644 0.429474 0.459266
Si Si6 0.981354 0.160394 0.196753
Si Si7 0.047724 0.782563 0.479917
Si Si8 0.914989 0.614103 0.206188
O O1 0.525228 0.114481 0.314343
O O2 0.129539 0.135631 0.141599
O O3 0.500000 0.000000 0.500000
O O4 0.367097 0.981748 0.059230
O O5 0.501636 0.307732 0.437285
O O6 0.698099 0.220181 0.302267
O O7 0.242092 0.298906 0.017041
O O8 0.418918 0.416902 0.666814
O O9 0.277430 0.387999 0.824217
O O10 0.500000 0.500000 0.000000
O O11 0.735901 0.275472 0.040030
O O12 0.058584 0.137017 0.724076
O O13 0.031809 0.950450 0.803826
O O14 0.000000 0.000000 0.500000
O O15 0.500000 0.500000 0.500000
O O16 0.100728 0.496623 0.240585
O O17 0.099573 0.175914 0.455842
O O18 0.068855 0.664851 0.422779
#
# Coordination Sequence:
#
# PCOD9050265 Si02
#       8
#     2   2   2   2   2   2   2   2
#     4  12  28  47  78 123 164 203 264 337 405 469
#     4  12  26  46  75 112 154 201 265 324 396 471
#     4  12  28  48  76 112 152 204 268 320 391 473
#     4  10  24  49  79 111 156 209 260 320 397 482
#     4  12  27  45  75 110 151 203 262 329 393 466
#     4  11  26  46  77 108 158 205 259 325 391 469
#     4  11  23  49  73 112 151 205 255 319 387 487
#     4  12  25  49  74 105 154 205 261 321 397 464
#
# _framework density 24.506540999999999
#
# number of rings (size 3 to 8) (size 9 to 14) (size 15 to 20)
#    0.000    0.500    3.750    3.375    8.750    0.000 
#    0.000    4.375    0.000    0.000    0.000    0.000 
#    0.000    0.000    0.000    0.000    0.000    0.000 
#
# Total GULP energy -89126.588066 kJ/mol
# GULP energy per Si atom -5570.411754 kJ/mol
# Density = 2.445076 g / cm^3
# Si number density = 24.506541 Si / 1000 Ang^3
#
#
#
# Elastic Constant Matrix: (Units=GPa)
#
#
# Indices 1 2 3 4 5 6 
#
# 1 121.9117 36.2556 43.9342 -0.1609 1.4181 7.8154
# 2 36.2556 72.5889 38.5038 5.0297 3.0680 16.7724
# 3 43.9342 38.5038 124.9687 -9.9374 -17.7627 10.3732
# 4 -0.1609 5.0297 -9.9374 53.7869 -0.7434 4.5613
# 5 1.4181 3.0680 -17.7627 -0.7434 39.9758 -2.0784
# 6 7.8154 16.7724 10.3732 4.5613 -2.0784 40.8360
#
#
#
# Elastic Compliance Matrix: (Units=1/GPa)
#
#
# Indices 1 2 3 4 5 6 
#
# 1 0.010268 -0.003683 -0.002682 -0.000153 -0.001267 0.000182
# 2 -0.003683 0.020119 -0.005158 -0.002377 -0.004071 -0.006190
# 3 -0.002682 -0.005158 0.011584 0.002720 0.005672 -0.000326
# 4 -0.000153 -0.002377 0.002720 0.019490 0.001667 -0.001778
# 5 -0.001267 -0.004071 0.005672 0.001667 0.028013 0.001713
# 6 0.000182 -0.006190 -0.000326 -0.001778 0.001713 0.027364
#
#
# Mechanical properties :
#
#
# Convention : Reuss Voigt Hill
#
# Bulk Modulus (GPa) = 52.84426 61.87296 57.35861
# Shear Modulus (GPa) = 34.20180 40.30478 37.25329
#
# Velocity S-wave (km/s) = 3.73985 4.05983 3.90312
# Velocity P-wave (km/s) = 6.34498 6.87595 6.61579
#
# Compressibility (1/GPa) = 0.01892353
#
# Stress axis : x y z
#
# Youngs Moduli (GPa) = 97.39436 49.70489 86.32925
#
# Poissons Ratio (x) = 0.18308 0.23154
# Poissons Ratio (y) = 0.35875 0.44525
# Poissons Ratio (z) = 0.26122 0.25636
#
# Static dielectric constant tensor:
#      x y z
#    x 2.170340 -0.214460 -0.034420 
#    y -0.214460 2.112470 -0.009250 
#    z -0.034420 -0.009250 2.091450 
# 
# From -- ./inp_files/208077.got.cif
#   From: 2010.05.17/outbox.cif.g08.bks.cpg/sg2_105_cif.got.tgz:208077.got - 2010.06.03 11:33:40.
