data_PCOD9050866
_publ_section_title
;
Structure prediction by ZEFSAII (Michael W. Deem and Ramdas Pophale) SiO2 
 PCOD9050866
Probable space group: P -1
;
_chemical_formula_sum "Si O2"
_cell_formula_units_Z 16
_cell_length_a 12.277778
_cell_length_b 17.487400
_cell_length_c 9.319805
_cell_angle_alpha 47.410762
_cell_angle_beta 25.819911
_cell_angle_gamma 49.900539
_cell_volume 637.823362
_symmetry_space_group_name_H-M "P -1"
_symmetry_group_IT_number 2
_symmetry_cell_setting 'triclinic'
loop_
_space_group_symop_operation_xyz
x,y,z
-x,-y,-z
loop_
_atom_site_type_symbol
_atom_site_label
_atom_site_fract_x
_atom_site_fract_y
_atom_site_fract_z
Si Si1 0.656085 0.592894 0.347903
Si Si2 0.970871 0.763025 0.664198
Si Si3 0.233884 0.017203 0.871063
Si Si4 0.537852 0.275022 0.355827
Si Si5 0.729019 0.563369 0.710686
Si Si6 0.015157 0.818707 0.243059
Si Si7 0.658594 0.924460 0.018694
Si Si8 0.561638 0.375054 0.747994
O O1 0.431727 0.647032 0.646349
O O2 0.725800 0.473111 0.460622
O O3 0.558241 0.600220 0.293839
O O4 0.875289 0.667650 0.987726
O O5 0.871509 0.770781 0.607003
O O6 0.265441 0.733391 0.327846
O O7 0.877185 0.861967 0.745011
O O8 0.251777 0.019160 0.018289
O O9 0.121993 0.129747 0.799491
O O10 0.500000 0.000000 0.500000
O O11 0.093765 0.921904 0.100468
O O12 0.288028 0.336940 0.501849
O O13 0.500807 0.163698 0.610768
O O14 0.753182 0.257146 0.002128
O O15 0.000000 0.500000 0.500000
O O16 0.500000 0.500000 0.000000
O O17 0.639143 0.612784 0.905055
O O18 0.500000 0.000000 0.000000
#
# Coordination Sequence:
#
# PCOD9050866 Si02
#       8
#     2   2   2   2   2   2   2   2
#     4  10  25  44  70 103 154 192 245 317 383 464
#     4  11  25  43  70 105 148 191 258 307 392 457
#     4  11  24  46  72 100 148 192 250 322 388 456
#     4  11  24  48  73 115 145 201 260 308 394 468
#     4  12  28  50  81 116 159 205 265 330 394 471
#     4  11  25  43  74 106 140 195 255 313 390 462
#     4  11  26  47  72 105 153 199 251 323 390 464
#     4  11  24  45  72 108 146 203 250 313 394 462
#
# _framework density 25.085315000000001
#
# number of rings (size 3 to 8) (size 9 to 14) (size 15 to 20)
#    0.000    1.000    3.750    1.125    5.250    9.500 
#    0.000    0.000    0.000    0.000    0.000    0.000 
#    0.000    0.000    0.000    0.000    0.000    0.000 
#
# Total GULP energy -89451.212664 kJ/mol
# GULP energy per Si atom -5590.700792 kJ/mol
# Density = 2.502822 g / cm^3
# Si number density = 25.085315 Si / 1000 Ang^3
#
#
#
# Elastic Constant Matrix: (Units=GPa)
#
#
# Indices 1 2 3 4 5 6 
#
# 1 143.9231 46.1089 43.4299 17.8606 40.6978 -4.6636
# 2 46.1089 123.0483 47.6886 27.4603 15.4755 -17.7141
# 3 43.4299 47.6886 101.3034 20.9482 35.5815 1.2903
# 4 17.8606 27.4603 20.9482 58.4050 5.3149 8.5890
# 5 40.6978 15.4755 35.5815 5.3149 49.8903 6.6627
# 6 -4.6636 -17.7141 1.2903 8.5890 6.6627 52.5765
#
#
#
# Elastic Compliance Matrix: (Units=1/GPa)
#
#
# Indices 1 2 3 4 5 6 
#
# 1 0.010042 -0.002165 -0.000479 -0.001420 -0.007203 0.001318
# 2 -0.002165 0.012077 -0.004252 -0.004243 0.000895 0.004561
# 3 -0.000479 -0.004252 0.015907 -0.002675 -0.009317 -0.000248
# 4 -0.001420 -0.004243 -0.002675 0.021029 0.002848 -0.005286
# 5 -0.007203 0.000895 -0.009317 0.002848 0.032612 -0.004707
# 6 0.001318 0.004561 -0.000248 -0.005286 -0.004707 0.022140
#
#
# Mechanical properties :
#
#
# Convention : Reuss Voigt Hill
#
# Bulk Modulus (GPa) = 41.26465 71.41441 56.33953
# Shear Modulus (GPa) = 36.85191 47.57751 42.21471
#
# Velocity S-wave (km/s) = 3.83699 4.35975 4.10670
# Velocity P-wave (km/s) = 6.00961 7.33987 6.70780
#
# Compressibility (1/GPa) = 0.02423382
#
# Stress axis : x y z
#
# Youngs Moduli (GPa) = 99.58091 82.80122 62.86357
#
# Poissons Ratio (x) = 0.17925 0.03013
# Poissons Ratio (y) = 0.21557 0.26732
# Poissons Ratio (z) = 0.04773 0.35210
#
# Static dielectric constant tensor:
#      x y z
#    x 2.014960 -0.003170 -0.055770 
#    y -0.003170 2.047480 -0.080270 
#    z -0.055770 -0.080270 2.114100 
# 
# From -- ./inp_files/278915.got.cif
#   From: 2010.05.17/outbox.cif.g08.bks.cpg/sg2_140_cif.got.tgz:278915.got - 2010.06.03 11:33:40.
