data_PCOD9050829
_publ_section_title
;
Structure prediction by ZEFSAII (Michael W. Deem and Ramdas Pophale) SiO2 
 PCOD9050829
Probable space group: P -1
;
_chemical_formula_sum "Si O2"
_cell_formula_units_Z 14
_cell_length_a 8.833895
_cell_length_b 12.951368
_cell_length_c 9.340792
_cell_angle_alpha 73.620187
_cell_angle_beta 107.989739
_cell_angle_gamma 54.172562
_cell_volume 659.213835
_symmetry_space_group_name_H-M "P -1"
_symmetry_group_IT_number 2
_symmetry_cell_setting 'triclinic'
loop_
_space_group_symop_operation_xyz
x,y,z
-x,-y,-z
loop_
_atom_site_type_symbol
_atom_site_label
_atom_site_fract_x
_atom_site_fract_y
_atom_site_fract_z
Si Si1 0.083624 0.575116 0.061962
Si Si2 0.169479 0.652978 0.763296
Si Si3 0.746015 0.590903 0.323699
Si Si4 0.763587 0.173208 0.420748
Si Si5 0.500554 0.621306 0.505739
Si Si6 0.353667 0.997702 0.562262
Si Si7 0.383674 0.144835 0.013922
O O1 0.296594 0.463029 0.281516
O O2 0.868040 0.738301 0.022190
O O3 0.160866 0.608885 0.936373
O O4 0.000000 0.500000 0.000000
O O5 0.232752 0.529009 0.716376
O O6 0.309402 0.695840 0.762019
O O7 0.906237 0.824669 0.586462
O O8 0.569103 0.660435 0.376435
O O9 0.650673 0.729718 0.135937
O O10 0.000000 0.500000 0.500000
O O11 0.751295 0.234899 0.547544
O O12 0.613887 0.141345 0.421963
O O13 0.000000 0.000000 0.500000
O O14 0.500000 0.500000 0.500000
O O15 0.500000 0.000000 0.500000
O O16 0.435791 0.947047 0.767517
O O17 0.500000 0.000000 0.000000
#
# Coordination Sequence:
#
# PCOD9050829 Si02
#       7
#     2   2   2   2   2   2   2
#     4  12  24  43  71 107 138 188 246 292 342 429
#     4  11  23  44  70  97 140 187 234 291 349 422
#     4  12  24  43  69  99 143 186 232 292 352 415
#     4  10  25  44  68  99 140 182 233 283 359 415
#     4  12  26  44  71 106 144 185 235 295 357 418
#     4  11  24  42  72  99 136 184 237 290 350 417
#     4  12  26  40  66 108 139 174 236 301 351 404
#
# _framework density 21.237416
#
# number of rings (size 3 to 8) (size 9 to 14) (size 15 to 20)
#    0.000    0.571    5.714    1.714    4.000    1.714 
#    0.000    0.000    0.000    5.143    0.000    0.000 
#    0.000    0.000    0.000    0.000    0.000    0.000 
#
# Total GULP energy -78099.547935 kJ/mol
# GULP energy per Si atom -5578.539138 kJ/mol
# Density = 2.118908 g / cm^3
# Si number density = 21.237416 Si / 1000 Ang^3
#
#
#
# Elastic Constant Matrix: (Units=GPa)
#
#
# Indices 1 2 3 4 5 6 
#
# 1 116.1707 48.0797 45.3305 -6.9015 -47.1649 1.2177
# 2 48.0797 182.9834 40.0193 -6.2963 -14.0668 -6.7223
# 3 45.3305 40.0193 143.7999 -7.3556 -29.2090 0.8631
# 4 -6.9015 -6.2963 -7.3556 28.3728 -7.7600 -5.1606
# 5 -47.1649 -14.0668 -29.2090 -7.7600 54.4592 -4.5209
# 6 1.2177 -6.7223 0.8631 -5.1606 -4.5209 52.6301
#
#
#
# Elastic Compliance Matrix: (Units=1/GPa)
#
#
# Indices 1 2 3 4 5 6 
#
# 1 0.016167 -0.002640 -0.001214 0.007011 0.013766 0.001179
# 2 -0.002640 0.006365 -0.001163 0.000303 -0.001154 0.000824
# 3 -0.001214 -0.001163 0.008537 0.002713 0.003640 0.000318
# 4 0.007011 0.000303 0.002713 0.042525 0.014098 0.005213
# 5 0.013766 -0.001154 0.003640 0.014098 0.034262 0.003800
# 6 0.001179 0.000824 0.000318 0.005213 0.003800 0.019911
#
#
# Mechanical properties :
#
#
# Convention : Reuss Voigt Hill
#
# Bulk Modulus (GPa) = 47.54010 78.86810 63.20410
# Shear Modulus (GPa) = 34.52737 47.72738 41.12738
#
# Velocity S-wave (km/s) = 4.03647 4.74574 4.40540
# Velocity P-wave (km/s) = 6.64513 8.20039 7.46338
#
# Compressibility (1/GPa) = 0.02103488
#
# Stress axis : x y z
#
# Youngs Moduli (GPa) = 61.85334 157.11192 117.14104
#
# Poissons Ratio (x) = 0.41473 0.14223
# Poissons Ratio (y) = 0.16327 0.13625
# Poissons Ratio (z) = 0.07510 0.18275
#
# Static dielectric constant tensor:
#      x y z
#    x 1.935710 -0.060540 0.055960 
#    y -0.060540 1.724030 -0.013300 
#    z 0.055960 -0.013300 1.719190 
# 
# From -- ./inp_files/154607.got.cif
#   From: 2010.05.17/outbox.cif.g08.bks.cpg/sg2_78_cif.got.tgz:154607.got - 2010.06.03 11:33:40.
