data_PCOD9050818
_publ_section_title
;
Structure prediction by ZEFSAII (Michael W. Deem and Ramdas Pophale) SiO2 
 PCOD9050818
Probable space group: P -1
;
_chemical_formula_sum "Si O2"
_cell_formula_units_Z 15
_cell_length_a 8.897949
_cell_length_b 8.531012
_cell_length_c 9.411942
_cell_angle_alpha 70.158630
_cell_angle_beta 89.073373
_cell_angle_gamma 64.716936
_cell_volume 600.652248
_symmetry_space_group_name_H-M "P -1"
_symmetry_group_IT_number 2
_symmetry_cell_setting 'triclinic'
loop_
_space_group_symop_operation_xyz
x,y,z
-x,-y,-z
loop_
_atom_site_type_symbol
_atom_site_label
_atom_site_fract_x
_atom_site_fract_y
_atom_site_fract_z
Si Si1 0.034323 0.854000 0.280168
Si Si2 0.509073 0.134695 0.627391
Si Si3 0.000000 0.500000 0.000000
Si Si4 0.318835 0.908695 0.653508
Si Si5 0.176688 0.498500 0.542875
Si Si6 0.432321 0.846877 0.062540
Si Si7 0.717429 0.457604 0.155612
Si Si8 0.090656 0.138881 0.013386
O O1 0.170409 0.685570 0.419245
O O2 0.864407 0.932382 0.351109
O O3 0.021424 0.769630 0.152726
O O4 0.056441 0.032509 0.176868
O O5 0.641367 0.091515 0.513666
O O6 0.334322 0.315979 0.538055
O O7 0.569596 0.180239 0.759513
O O8 0.457047 0.966503 0.699169
O O9 0.144430 0.290710 0.023559
O O10 0.865441 0.412632 0.053178
O O11 0.325531 0.713296 0.760185
O O12 0.202794 0.504458 0.710274
O O13 0.000000 0.500000 0.500000
O O14 0.549313 0.643886 0.064499
O O15 0.240036 0.959160 0.985489
O O16 0.500000 0.000000 0.000000
#
# Coordination Sequence:
#
# PCOD9050818 Si02
#       8
#     2   2   1   2   2   2   2   2
#     4  11  24  45  66  97 135 176 221 277 335 401
#     4  10  25  44  68  97 135 176 225 274 337 397
#     4  12  22  46  64 104 130 168 226 276 328 402
#     4  11  23  46  64 101 138 170 225 282 327 398
#     4  11  23  44  69  95 134 179 220 276 337 397
#     4  11  23  45  69  93 135 180 219 273 338 402
#     4  11  26  42  70 100 136 174 226 276 331 400
#     4  11  25  44  69  96 132 178 222 273 340 398
#
# _framework density 24.972852
#
# number of rings (size 3 to 8) (size 9 to 14) (size 15 to 20)
#    0.000    1.067    4.000    1.600    3.733    2.667 
#    4.800    2.667    0.000    0.000    0.000    0.000 
#    0.000    0.000    0.000    0.000    0.000    0.000 
#
# Total GULP energy -83633.388425 kJ/mol
# GULP energy per Si atom -5575.559228 kJ/mol
# Density = 2.491601 g / cm^3
# Si number density = 24.972852 Si / 1000 Ang^3
#
#
#
# Elastic Constant Matrix: (Units=GPa)
#
#
# Indices 1 2 3 4 5 6 
#
# 1 67.3475 30.1428 29.9012 -8.3496 -25.3303 7.0474
# 2 30.1428 121.1720 32.8837 -22.3935 -21.2473 10.1073
# 3 29.9012 32.8837 92.3281 -2.5841 -9.4795 -12.3275
# 4 -8.3496 -22.3935 -2.5841 45.8889 5.2072 -12.6813
# 5 -25.3303 -21.2473 -9.4795 5.2072 47.3928 -3.4530
# 6 7.0474 10.1073 -12.3275 -12.6813 -3.4530 35.6613
#
#
#
# Elastic Compliance Matrix: (Units=1/GPa)
#
#
# Indices 1 2 3 4 5 6 
#
# 1 0.022682 -0.001700 -0.006423 0.000421 0.009656 -0.005136
# 2 -0.001700 0.010954 -0.003256 0.003923 0.002757 -0.002232
# 3 -0.006423 -0.003256 0.014908 0.000259 -0.001407 0.007302
# 4 0.000421 0.003923 0.000259 0.026075 -0.000236 0.008144
# 5 0.009656 0.002757 -0.001407 -0.000236 0.027196 -0.000627
# 6 -0.005136 -0.002232 0.007302 0.008144 -0.000627 0.035049
#
#
# Mechanical properties :
#
#
# Convention : Reuss Voigt Hill
#
# Bulk Modulus (GPa) = 38.77980 51.85590 45.31785
# Shear Modulus (GPa) = 29.72346 38.31662 34.02004
#
# Velocity S-wave (km/s) = 3.45371 3.92130 3.69491
# Velocity P-wave (km/s) = 5.60952 6.42745 6.03236
#
# Compressibility (1/GPa) = 0.02578662
#
# Stress axis : x y z
#
# Youngs Moduli (GPa) = 44.08738 91.29155 67.07633
#
# Poissons Ratio (x) = 0.15520 0.43083
# Poissons Ratio (y) = 0.07495 0.21839
# Poissons Ratio (z) = 0.28317 0.29724
#
# Static dielectric constant tensor:
#      x y z
#    x 2.101230 -0.027750 0.008800 
#    y -0.027750 2.024470 0.016780 
#    z 0.008800 0.016780 2.008310 
# 
# From -- ./inp_files/157434.got.cif
#   From: 2010.05.17/outbox.cif.g08.bks.cpg/sg2_79_cif.got.tgz:157434.got - 2010.06.03 11:33:40.
