data_PCOD9050094
_publ_section_title
;
Structure prediction by ZEFSAII (Michael W. Deem and Ramdas Pophale) SiO2 
 PCOD9050094
Probable space group: P -1
;
_chemical_formula_sum "Si O2"
_cell_formula_units_Z 14
_cell_length_a 15.042682
_cell_length_b 9.651324
_cell_length_c 8.646250
_cell_angle_alpha 91.030396
_cell_angle_beta 65.466206
_cell_angle_gamma 142.503482
_cell_volume 574.748861
_symmetry_space_group_name_H-M "P -1"
_symmetry_group_IT_number 2
_symmetry_cell_setting 'triclinic'
loop_
_space_group_symop_operation_xyz
x,y,z
-x,-y,-z
loop_
_atom_site_type_symbol
_atom_site_label
_atom_site_fract_x
_atom_site_fract_y
_atom_site_fract_z
Si Si1 0.131060 0.542995 0.981155
Si Si2 0.175618 0.622158 0.317372
Si Si3 0.476755 0.627511 0.453499
Si Si4 0.048638 0.905230 0.415221
Si Si5 0.494083 0.160980 0.301579
Si Si6 0.956967 0.822701 0.140496
Si Si7 0.475671 0.432133 0.192129
O O1 0.166242 0.606677 0.138869
O O2 0.344613 0.756603 0.771484
O O3 0.017164 0.268990 0.000628
O O4 0.000000 0.500000 0.000000
O O5 0.000000 0.500000 0.500000
O O6 0.124942 0.408853 0.416418
O O7 0.360088 0.920155 0.269234
O O8 0.500000 0.500000 0.500000
O O9 0.594737 0.883979 0.475622
O O10 0.256804 0.410249 0.635862
O O11 0.518175 0.631652 0.250168
O O12 0.079373 0.942617 0.208771
O O13 0.246400 0.112230 0.367305
O O14 0.000000 0.000000 0.500000
O O15 0.574071 0.405757 0.172651
O O16 0.000000 0.000000 0.000000
O O17 0.500000 0.500000 0.000000
#
# Coordination Sequence:
#
# PCOD9050094 Si02
#       7
#     2   2   2   2   2   2   2
#     4  11  26  47  71 108 150 194 246 303 378 443
#     4  12  25  49  74 103 152 195 249 311 366 450
#     4   9  21  42  67 103 139 183 238 296 367 424
#     4  12  25  44  74 108 143 193 250 303 379 440
#     4  10  24  48  76 102 151 199 247 304 373 443
#     4  11  24  43  70 105 143 187 244 308 365 438
#     4  11  24  43  74 113 146 192 249 306 369 447
#
# _framework density 24.358464999999999
#
# number of rings (size 3 to 8) (size 9 to 14) (size 15 to 20)
#    0.000    1.143    2.857    2.143    8.000    0.000 
#    0.000    9.286    0.000    0.000    0.000    0.000 
#    0.000    0.000    0.000    0.000    0.000    0.000 
#
# Total GULP energy -78110.942798 kJ/mol
# GULP energy per Si atom -5579.353057 kJ/mol
# Density = 2.430302 g / cm^3
# Si number density = 24.358465 Si / 1000 Ang^3
#
#
#
# Elastic Constant Matrix: (Units=GPa)
#
#
# Indices 1 2 3 4 5 6 
#
# 1 156.4468 74.1440 37.9306 12.9413 -10.9647 -9.8763
# 2 74.1440 175.2502 64.0935 58.8785 9.9328 -8.6010
# 3 37.9306 64.0935 111.7023 51.4226 4.8033 -3.6739
# 4 12.9413 58.8785 51.4226 51.5063 4.2750 -0.0033
# 5 -10.9647 9.9328 4.8033 4.2750 37.9969 6.7015
# 6 -9.8763 -8.6010 -3.6739 -0.0033 6.7015 51.1587
#
#
#
# Elastic Compliance Matrix: (Units=1/GPa)
#
#
# Indices 1 2 3 4 5 6 
#
# 1 0.009392 -0.005150 -0.003458 0.006673 0.003705 0.000214
# 2 -0.005150 0.012337 0.001180 -0.013687 -0.003609 0.001636
# 3 -0.003458 0.001180 0.017974 -0.018283 -0.001706 0.001044
# 4 0.006673 -0.013687 -0.018283 0.051431 0.002496 -0.002649
# 5 0.003705 -0.003609 -0.001706 0.002496 0.028936 -0.003804
# 6 0.000214 0.001636 0.001044 -0.002649 -0.003804 0.020437
#
#
# Mechanical properties :
#
#
# Convention : Reuss Voigt Hill
#
# Bulk Modulus (GPa) = 40.24754 88.41505 64.33129
# Shear Modulus (GPa) = 30.55373 45.94780 38.25076
#
# Velocity S-wave (km/s) = 3.54550 4.34789 3.96703
# Velocity P-wave (km/s) = 5.77232 7.84740 6.88845
#
# Compressibility (1/GPa) = 0.02484624
#
# Stress axis : x y z
#
# Youngs Moduli (GPa) = 106.46804 81.05865 55.63584
#
# Poissons Ratio (x) = 0.41747 0.19241
# Poissons Ratio (y) = 0.54834 -0.06565
# Poissons Ratio (z) = 0.36820 -0.09565
#
# Static dielectric constant tensor:
#      x y z
#    x 1.960720 0.124420 0.103000 
#    y 0.124420 2.234690 -0.080550 
#    z 0.103000 -0.080550 2.091780 
# 
# From -- ./inp_files/298749.got.cif
#   From: 2010.05.17/outbox.cif.g08.bks.cpg/sg2_150_cif.got.tgz:298749.got - 2010.06.03 11:33:40.
