data_PCOD9050387
_publ_section_title
;
Structure prediction by ZEFSAII (Michael W. Deem and Ramdas Pophale) SiO2 
 PCOD9050387
Probable space group: P -1
;
_chemical_formula_sum "Si O2"
_cell_formula_units_Z 16
_cell_length_a 10.290099
_cell_length_b 15.685103
_cell_length_c 11.999281
_cell_angle_alpha 35.942432
_cell_angle_beta 105.149420
_cell_angle_gamma 129.069944
_cell_volume 739.265262
_symmetry_space_group_name_H-M "P -1"
_symmetry_group_IT_number 2
_symmetry_cell_setting 'triclinic'
loop_
_space_group_symop_operation_xyz
x,y,z
-x,-y,-z
loop_
_atom_site_type_symbol
_atom_site_label
_atom_site_fract_x
_atom_site_fract_y
_atom_site_fract_z
Si Si1 0.664761 0.740861 0.733955
Si Si2 0.927001 0.206621 0.993891
Si Si3 0.374704 0.588926 0.655758
Si Si4 0.238274 0.422881 0.462623
Si Si5 0.133322 0.833912 0.243425
Si Si6 0.340323 0.280093 0.833109
Si Si7 0.509017 0.957560 0.173936
Si Si8 0.043734 0.090453 0.575998
O O1 0.533714 0.742572 0.625997
O O2 0.819310 0.789183 0.631294
O O3 0.500000 0.500000 0.000000
O O4 0.812385 0.923542 0.666221
O O5 0.739941 0.149040 0.060026
O O6 0.928148 0.048673 0.218294
O O7 0.886995 0.164925 0.895818
O O8 0.152002 0.444338 0.800175
O O9 0.377848 0.424721 0.787165
O O10 0.445433 0.739544 0.407130
O O11 0.275373 0.325186 0.665252
O O12 0.458124 0.643573 0.239064
O O13 0.130307 0.272812 0.489357
O O14 0.074811 0.394599 0.514928
O O15 0.326620 0.896576 0.254446
O O16 0.174440 0.029689 0.088616
O O17 0.500000 0.000000 0.000000
#
# Coordination Sequence:
#
# PCOD9050387 Si02
#       8
#     2   2   2   2   2   2   2   2
#     4  11  23  36  60  92 117 155 207 257 303 345
#     4  11  20  37  60  84 126 162 198 246 299 355
#     4  12  22  40  62  92 124 156 201 253 301 355
#     4  11  21  34  58  87 125 155 191 246 307 354
#     4  11  23  36  57  90 126 167 194 230 306 373
#     4  11  22  34  61  90 123 151 196 246 307 362
#     4  10  25  39  55  85 131 169 200 235 293 369
#     4  11  21  37  59  91 122 152 201 258 305 348
#
# _framework density 21.643111999999999
#
# number of rings (size 3 to 8) (size 9 to 14) (size 15 to 20)
#    0.000    1.000    6.250    1.125    5.250    3.000 
#    0.000    0.000    0.000    0.750    0.000    3.500 
#    0.000    0.000    0.000    0.000    0.000    0.000 
#
# Total GULP energy -89366.754779 kJ/mol
# GULP energy per Si atom -5585.422174 kJ/mol
# Density = 2.159385 g / cm^3
# Si number density = 21.643112 Si / 1000 Ang^3
#
#
#
# Elastic Constant Matrix: (Units=GPa)
#
#
# Indices 1 2 3 4 5 6 
#
# 1 68.4365 23.1788 18.8908 -12.3125 -27.6368 32.6176
# 2 23.1788 110.5045 10.0816 -14.3054 -8.7850 22.6436
# 3 18.8908 10.0816 102.0528 -9.1814 -25.1027 14.7842
# 4 -12.3125 -14.3054 -9.1814 30.7835 11.5309 -14.8635
# 5 -27.6368 -8.7850 -25.1027 11.5309 39.2354 -11.8338
# 6 32.6176 22.6436 14.7842 -14.8635 -11.8338 32.6310
#
#
#
# Elastic Compliance Matrix: (Units=1/GPa)
#
#
# Indices 1 2 3 4 5 6 
#
# 1 0.036863 -0.000458 0.002212 -0.008732 0.019453 -0.034455
# 2 -0.000458 0.010630 0.000014 0.001909 -0.000360 -0.006187
# 3 0.002212 0.000014 0.012016 -0.001047 0.007973 -0.005250
# 4 -0.008732 0.001909 -0.001047 0.046000 -0.012593 0.024264
# 5 0.019453 -0.000360 0.007973 -0.012593 0.044129 -0.012540
# 6 -0.034455 -0.006187 -0.005250 0.024264 -0.012540 0.078263
#
#
# Mechanical properties :
#
#
# Convention : Reuss Voigt Hill
#
# Bulk Modulus (GPa) = 15.86129 42.81066 29.33597
# Shear Modulus (GPa) = 20.37663 35.78614 28.08138
#
# Velocity S-wave (km/s) = 3.07169 4.07069 3.60595
# Velocity P-wave (km/s) = 4.46372 6.47436 5.56067
#
# Compressibility (1/GPa) = 0.06304659
#
# Stress axis : x y z
#
# Youngs Moduli (GPa) = 27.12750 94.07043 83.22517
#
# Poissons Ratio (x) = 0.04305 -0.18413
# Poissons Ratio (y) = 0.01241 -0.00116
# Poissons Ratio (z) = -0.06002 -0.00131
#
# Static dielectric constant tensor:
#      x y z
#    x 1.856780 0.020700 -0.031290 
#    y 0.020700 1.803450 0.006030 
#    z -0.031290 0.006030 1.799400 
# 
# From -- ./inp_files/437244.got.cif
#   From: 2010.05.17/outbox.cif.g08.bks.cpg/sg2_219_cif.got.tgz:437244.got - 2010.06.03 11:33:40.
