data_PCOD9050529
_publ_section_title
;
Structure prediction by ZEFSAII (Michael W. Deem and Ramdas Pophale) SiO2 
 PCOD9050529
Probable space group: P -1
;
_chemical_formula_sum "Si O2"
_cell_formula_units_Z 12
_cell_length_a 4.793364
_cell_length_b 16.733599
_cell_length_c 9.579184
_cell_angle_alpha 138.367237
_cell_angle_beta 79.578887
_cell_angle_gamma 103.115273
_cell_volume 497.064647
_symmetry_space_group_name_H-M "P -1"
_symmetry_group_IT_number 2
_symmetry_cell_setting 'triclinic'
loop_
_space_group_symop_operation_xyz
x,y,z
-x,-y,-z
loop_
_atom_site_type_symbol
_atom_site_label
_atom_site_fract_x
_atom_site_fract_y
_atom_site_fract_z
Si Si1 0.924861 0.793655 0.303770
Si Si2 0.529910 0.278578 0.957585
Si Si3 0.787172 0.508407 0.401060
Si Si4 0.898345 0.892101 0.033939
Si Si5 0.424897 0.050279 0.311399
Si Si6 0.166040 0.233915 0.416009
O O1 0.678152 0.701681 0.127723
O O2 0.753565 0.909880 0.488189
O O3 0.989655 0.758609 0.410972
O O4 0.229254 0.805700 0.215724
O O5 0.293844 0.217841 0.011047
O O6 0.728237 0.395977 0.153176
O O7 0.500000 0.500000 0.500000
O O8 0.823261 0.633902 0.477941
O O9 0.000000 0.500000 0.500000
O O10 0.725805 0.003531 0.233508
O O11 0.915209 0.854649 0.823305
O O12 0.218731 0.938215 0.114063
O O13 0.435986 0.170890 0.369961
#
# Coordination Sequence:
#
# PCOD9050529 Si02
#       6
#     2   2   2   2   2   2
#     4  10  26  44  67 105 144 176 228 277 355 403
#     4  12  25  45  70 106 135 185 226 282 348 404
#     4  12  27  47  75 102 134 177 237 291 338 404
#     4  12  23  42  75  98 143 180 236 275 333 414
#     4  10  25  42  70 103 138 186 226 279 342 399
#     4  10  26  47  70 104 138 182 234 284 338 410
#
# _framework density 24.141729000000002
#
# number of rings (size 3 to 8) (size 9 to 14) (size 15 to 20)
#    1.000    0.000    1.667    4.000    2.333    9.333 
#    0.000    0.000    0.000    0.000    0.000    0.000 
#    0.000    0.000    0.000    0.000    0.000    0.000 
#
# Total GULP energy -66924.526342 kJ/mol
# GULP energy per Si atom -5577.043862 kJ/mol
# Density = 2.408678 g / cm^3
# Si number density = 24.141729 Si / 1000 Ang^3
#
#
#
# Elastic Constant Matrix: (Units=GPa)
#
#
# Indices 1 2 3 4 5 6 
#
# 1 128.3497 24.8319 38.9546 -13.5609 18.3714 -2.5041
# 2 24.8319 130.7104 45.9838 5.1572 9.9255 -8.8031
# 3 38.9546 45.9838 120.1779 -9.4913 21.4529 -0.3598
# 4 -13.5609 5.1572 -9.4913 40.6677 4.8081 -4.2406
# 5 18.3714 9.9255 21.4529 4.8081 48.0972 -7.7101
# 6 -2.5041 -8.8031 -0.3598 -4.2406 -7.7101 21.3235
#
#
#
# Elastic Compliance Matrix: (Units=1/GPa)
#
#
# Indices 1 2 3 4 5 6 
#
# 1 0.009290 -0.000997 -0.001886 0.003140 -0.002772 0.000270
# 2 -0.000997 0.009350 -0.003553 -0.002072 0.000815 0.003565
# 3 -0.001886 -0.003553 0.011253 0.002688 -0.004234 -0.002495
# 4 0.003140 -0.002072 0.002688 0.027382 -0.004146 0.003505
# 5 -0.002772 0.000815 -0.004234 -0.004146 0.025310 0.008266
# 6 0.000270 0.003565 -0.002495 0.003505 0.008266 0.052044
#
#
# Mechanical properties :
#
#
# Convention : Reuss Voigt Hill
#
# Bulk Modulus (GPa) = 58.75085 66.53096 62.64091
# Shear Modulus (GPa) = 32.64258 39.98221 36.31239
#
# Velocity S-wave (km/s) = 3.68111 4.07399 3.88252
# Velocity P-wave (km/s) = 6.51583 7.05324 6.78986
#
# Compressibility (1/GPa) = 0.01702103
#
# Stress axis : x y z
#
# Youngs Moduli (GPa) = 107.63844 106.95527 88.86906
#
# Poissons Ratio (x) = 0.10658 0.16765
# Poissons Ratio (y) = 0.10726 0.31574
# Poissons Ratio (z) = 0.20305 0.37999
#
# Static dielectric constant tensor:
#      x y z
#    x 1.885450 -0.012610 0.004220 
#    y -0.012610 1.931990 -0.019090 
#    z 0.004220 -0.019090 1.913770 
# 
# From -- ./inp_files/136401.got.cif
#   From: 2010.05.17/outbox.cif.g08.bks.cpg/sg2_69_cif.got.tgz:136401.got - 2010.06.03 11:33:40.
