data_PCOD9050715
_publ_section_title
;
Structure prediction by ZEFSAII (Michael W. Deem and Ramdas Pophale) SiO2 
 PCOD9050715
Probable space group: P -1
;
_chemical_formula_sum "Si O2"
_cell_formula_units_Z 13
_cell_length_a 9.059862
_cell_length_b 9.458209
_cell_length_c 9.273115
_cell_angle_alpha 119.915185
_cell_angle_beta 64.984359
_cell_angle_gamma 133.620387
_cell_volume 494.650844
_symmetry_space_group_name_H-M "P -1"
_symmetry_group_IT_number 2
_symmetry_cell_setting 'triclinic'
loop_
_space_group_symop_operation_xyz
x,y,z
-x,-y,-z
loop_
_atom_site_type_symbol
_atom_site_label
_atom_site_fract_x
_atom_site_fract_y
_atom_site_fract_z
Si Si1 0.005817 0.113466 0.750157
Si Si2 0.814991 0.477571 0.982549
Si Si3 0.388886 0.529492 0.193461
Si Si4 0.565754 0.768520 0.808576
Si Si5 0.945663 0.207953 0.506715
Si Si6 0.663772 0.330422 0.443272
Si Si7 0.500000 0.000000 0.500000
O O1 0.023959 0.182315 0.613659
O O2 0.163285 0.323263 0.872224
O O3 0.771201 0.998189 0.835056
O O4 0.049466 0.951177 0.673433
O O5 0.605830 0.277853 0.032255
O O6 0.795642 0.492926 0.827569
O O7 0.000000 0.500000 0.000000
O O8 0.366846 0.370100 0.235663
O O9 0.460400 0.717969 0.373619
O O10 0.500000 0.500000 0.000000
O O11 0.459987 0.688856 0.654843
O O12 0.710063 0.111034 0.572409
O O13 0.116135 0.449527 0.525303
O O14 0.659214 0.134533 0.359799
#
# Coordination Sequence:
#
# PCOD9050715 Si02
#       7
#     2   2   2   2   2   2   1
#     4  11  24  44  75 106 135 200 246 287 369 432
#     4  11  27  47  70 105 159 189 237 306 368 439
#     4  10  25  43  73 107 143 191 237 304 361 436
#     4  11  23  47  76 104 139 197 249 303 351 434
#     4  11  25  43  74 108 142 185 253 305 350 431
#     4  12  24  46  76 106 147 187 246 306 362 428
#     4  12  28  40  72 114 148 180 240 320 362 422
#
# _framework density 26.281167
#
# number of rings (size 3 to 8) (size 9 to 14) (size 15 to 20)
#    0.000    0.923    4.615    0.923    6.462    2.462 
#    0.000    1.538    0.000    0.000    0.000    0.000 
#    0.000    0.000    0.000    0.000    0.000    0.000 
#
# Total GULP energy -72385.711157 kJ/mol
# GULP energy per Si atom -5568.131627 kJ/mol
# Density = 2.622135 g / cm^3
# Si number density = 26.281167 Si / 1000 Ang^3
#
#
#
# Elastic Constant Matrix: (Units=GPa)
#
#
# Indices 1 2 3 4 5 6 
#
# 1 121.3775 40.3268 24.6865 -9.0452 18.8425 -26.2260
# 2 40.3268 168.3880 -0.0132 -7.2175 0.7706 9.0205
# 3 24.6865 -0.0132 81.1635 -2.1124 21.5607 -18.9144
# 4 -9.0452 -7.2175 -2.1124 30.4817 -4.8205 9.9310
# 5 18.8425 0.7706 21.5607 -4.8205 51.6254 -19.8011
# 6 -26.2260 9.0205 -18.9144 9.9310 -19.8011 41.0947
#
#
#
# Elastic Compliance Matrix: (Units=1/GPa)
#
#
# Indices 1 2 3 4 5 6 
#
# 1 0.011130 -0.003005 -0.001637 0.000210 -0.000791 0.006577
# 2 -0.003005 0.006966 0.000132 0.002029 -0.000441 -0.004089
# 3 -0.001637 0.000132 0.014842 -0.001418 -0.004166 0.004093
# 4 0.000210 0.002029 -0.001418 0.036434 0.000172 -0.009686
# 5 -0.000791 -0.000441 -0.004166 0.000172 0.025164 0.009758
# 6 0.006577 -0.004089 0.004093 -0.009686 0.009758 0.038355
#
#
# Mechanical properties :
#
#
# Convention : Reuss Voigt Hill
#
# Bulk Modulus (GPa) = 41.80955 55.65881 48.73418
# Shear Modulus (GPa) = 33.35874 45.03562 39.19718
#
# Velocity S-wave (km/s) = 3.56659 4.14407 3.86613
# Velocity P-wave (km/s) = 5.73619 6.64243 6.20587
#
# Compressibility (1/GPa) = 0.02391798
#
# Stress axis : x y z
#
# Youngs Moduli (GPa) = 89.84871 143.54462 67.37480
#
# Poissons Ratio (x) = 0.43139 0.11031
# Poissons Ratio (y) = 0.27002 -0.00891
# Poissons Ratio (z) = 0.14711 -0.01899
#
# Static dielectric constant tensor:
#      x y z
#    x 1.888630 0.362130 0.058350 
#    y 0.362130 1.427150 -0.232180 
#    z 0.058350 -0.232180 2.072050 
# 
# From -- ./inp_files/159700.got.cif
#   From: 2010.05.17/outbox.cif.g08.bks.cpg/sg2_80_cif.got.tgz:159700.got - 2010.06.03 11:33:40.
