data_PCOD9050560
_publ_section_title
;
Structure prediction by ZEFSAII (Michael W. Deem and Ramdas Pophale) SiO2 
 PCOD9050560
Probable space group: P -1
;
_chemical_formula_sum "Si O2"
_cell_formula_units_Z 15
_cell_length_a 12.710480
_cell_length_b 9.470135
_cell_length_c 19.677669
_cell_angle_alpha 40.716900
_cell_angle_beta 26.007081
_cell_angle_gamma 48.370418
_cell_volume 676.313671
_symmetry_space_group_name_H-M "P -1"
_symmetry_group_IT_number 2
_symmetry_cell_setting 'triclinic'
loop_
_space_group_symop_operation_xyz
x,y,z
-x,-y,-z
loop_
_atom_site_type_symbol
_atom_site_label
_atom_site_fract_x
_atom_site_fract_y
_atom_site_fract_z
Si Si1 0.549811 0.418561 0.682121
Si Si2 0.728257 0.024666 0.173713
Si Si3 0.439988 0.134616 0.418656
Si Si4 0.066997 0.768302 0.722425
Si Si5 0.407369 0.031122 0.117673
Si Si6 0.000000 0.500000 0.000000
Si Si7 0.784611 0.561787 0.354984
Si Si8 0.334269 0.703112 0.017172
O O1 0.630589 0.631431 0.601731
O O2 0.261852 0.406626 0.860078
O O3 0.637152 0.456658 0.541036
O O4 0.653694 0.202624 0.729195
O O5 0.662179 0.778623 0.322999
O O6 0.677007 0.159135 0.223358
O O7 0.604956 0.147266 0.139244
O O8 0.000000 0.000000 0.000000
O O9 0.500000 0.000000 0.500000
O O10 0.236535 0.988148 0.551732
O O11 0.018138 0.665486 0.862294
O O12 0.177562 0.591545 0.674540
O O13 0.822241 0.827789 0.806506
O O14 0.609081 0.151633 0.003066
O O15 0.500000 0.000000 0.000000
O O16 0.053796 0.630050 0.200858
O O17 0.500000 0.500000 0.000000
#
# Coordination Sequence:
#
# PCOD9050560 Si02
#       8
#     2   2   2   2   2   1   2   2
#     4  12  29  48  76 108 156 195 251 312 386 443
#     4  10  25  42  78 106 144 192 255 301 374 435
#     4  12  26  48  73 114 150 192 249 321 368 445
#     4  12  28  48  78 109 156 193 260 310 381 453
#     4  12  29  49  74 113 149 201 248 310 385 461
#     4  12  26  46  78 108 146 196 256 314 366 454
#     4  11  26  50  75 116 147 200 252 319 374 446
#     4  11  26  48  76 106 154 200 251 307 378 457
#
# _framework density 22.179058999999999
#
# number of rings (size 3 to 8) (size 9 to 14) (size 15 to 20)
#    0.000    0.533    5.333    0.000   11.200    4.267 
#    0.000    0.000    0.000    0.000    0.000    0.000 
#    0.000    0.000    0.000    0.000    0.000    0.000 
#
# Total GULP energy -83717.773825 kJ/mol
# GULP energy per Si atom -5581.184922 kJ/mol
# Density = 2.212858 g / cm^3
# Si number density = 22.179059 Si / 1000 Ang^3
#
#
#
# Elastic Constant Matrix: (Units=GPa)
#
#
# Indices 1 2 3 4 5 6 
#
# 1 116.1411 47.8210 46.3632 -3.5216 15.9946 0.5933
# 2 47.8210 115.4567 36.8988 -15.1282 25.0899 -9.0945
# 3 46.3632 36.8988 112.1974 10.9826 34.7090 3.3551
# 4 -3.5216 -15.1282 10.9826 36.7884 0.5925 5.7154
# 5 15.9946 25.0899 34.7090 0.5925 57.2688 -3.3845
# 6 0.5933 -9.0945 3.3551 5.7154 -3.3845 52.6488
#
#
#
# Elastic Compliance Matrix: (Units=1/GPa)
#
#
# Indices 1 2 3 4 5 6 
#
# 1 0.011589 -0.003644 -0.003859 0.000840 0.000657 -0.000563
# 2 -0.003644 0.012319 -0.002160 0.005170 -0.003032 0.001551
# 3 -0.003859 -0.002160 0.013690 -0.005080 -0.006283 -0.001055
# 4 0.000840 0.005170 -0.005080 0.031241 0.000127 -0.002176
# 5 0.000657 -0.003032 -0.006283 0.000127 0.022490 0.001301
# 6 -0.000563 0.001551 -0.001055 -0.002176 0.001301 0.019655
#
#
# Mechanical properties :
#
#
# Convention : Reuss Voigt Hill
#
# Bulk Modulus (GPa) = 54.72652 67.32903 61.02778
# Shear Modulus (GPa) = 36.65634 43.52202 40.08918
#
# Velocity S-wave (km/s) = 4.06981 4.43459 4.25611
# Velocity P-wave (km/s) = 6.84199 7.52620 7.19224
#
# Compressibility (1/GPa) = 0.01827268
#
# Stress axis : x y z
#
# Youngs Moduli (GPa) = 86.28910 81.17348 73.04367
#
# Poissons Ratio (x) = 0.29577 0.28188
# Poissons Ratio (y) = 0.31441 0.15779
# Poissons Ratio (z) = 0.33300 0.17536
#
# Static dielectric constant tensor:
#      x y z
#    x 1.787450 0.037610 -0.014830 
#    y 0.037610 1.800170 -0.019660 
#    z -0.014830 -0.019660 1.809940 
# 
# From -- ./inp_files/242777.got.cif
#   From: 2010.05.17/outbox.cif.g08.bks.cpg/sg2_122_cif.got.tgz:242777.got - 2010.06.03 11:33:40.
