data_PCOD9050833
_publ_section_title
;
Structure prediction by ZEFSAII (Michael W. Deem and Ramdas Pophale) SiO2 
 PCOD9050833
Probable space group: P -1
;
_chemical_formula_sum "Si O2"
_cell_formula_units_Z 13
_cell_length_a 14.021396
_cell_length_b 16.542715
_cell_length_c 19.520916
_cell_angle_alpha 159.357634
_cell_angle_beta 158.478951
_cell_angle_gamma 30.713842
_cell_volume 583.513929
_symmetry_space_group_name_H-M "P -1"
_symmetry_group_IT_number 2
_symmetry_cell_setting 'triclinic'
loop_
_space_group_symop_operation_xyz
x,y,z
-x,-y,-z
loop_
_atom_site_type_symbol
_atom_site_label
_atom_site_fract_x
_atom_site_fract_y
_atom_site_fract_z
Si Si1 0.222448 0.552569 0.326198
Si Si2 0.253053 0.802664 0.761691
Si Si3 0.015928 0.366811 0.332616
Si Si4 0.000000 0.500000 0.000000
Si Si5 0.868941 0.132749 0.812140
Si Si6 0.354945 0.937322 0.244399
Si Si7 0.829188 0.981340 0.272051
O O1 0.500000 0.500000 0.500000
O O2 0.132962 0.801820 0.480682
O O3 0.231448 0.500978 0.211588
O O4 0.992540 0.374320 0.059199
O O5 0.137669 0.547572 0.500863
O O6 0.204069 0.896716 0.727234
O O7 0.102525 0.967856 0.841591
O O8 0.560128 0.846682 0.011874
O O9 0.000000 0.500000 0.500000
O O10 0.208111 0.165285 0.311053
O O11 0.741902 0.247623 0.025095
O O12 0.026318 0.787083 0.245030
O O13 0.747019 0.156419 0.824052
O O14 0.655816 0.014829 0.523227
#
# Coordination Sequence:
#
# PCOD9050833 Si02
#       7
#     2   2   2   1   2   2   2
#     4  12  24  47  73 103 145 193 234 300 363 433
#     4  11  22  43  72  99 140 188 233 297 361 434
#     4  11  23  45  69 104 135 186 241 298 363 426
#     4  12  26  44  68 106 140 184 250 290 360 438
#     4  11  22  47  69 102 142 188 239 296 365 436
#     4  10  25  44  69 100 143 184 239 299 360 431
#     4  11  24  45  68 104 143 187 240 292 366 431
#
# _framework density 22.278817
#
# number of rings (size 3 to 8) (size 9 to 14) (size 15 to 20)
#    0.000    0.923    4.615    2.308    2.154    0.615 
#    8.308    0.000    0.000    0.000    0.000    0.000 
#    0.000    0.000    0.000    0.000    0.000    0.000 
#
# Total GULP energy -72378.644286 kJ/mol
# GULP energy per Si atom -5567.588022 kJ/mol
# Density = 2.222811 g / cm^3
# Si number density = 22.278817 Si / 1000 Ang^3
#
#
#
# Elastic Constant Matrix: (Units=GPa)
#
#
# Indices 1 2 3 4 5 6 
#
# 1 57.3444 25.4970 68.8071 -11.8612 -9.4743 -5.7839
# 2 25.4970 74.9966 46.1203 22.4179 6.2369 18.3246
# 3 68.8071 46.1203 135.5793 34.4357 -1.5025 17.9160
# 4 -11.8612 22.4179 34.4357 32.0267 3.6249 -14.0083
# 5 -9.4743 6.2369 -1.5025 3.6249 43.0991 -2.9285
# 6 -5.7839 18.3246 17.9160 -14.0083 -2.9285 22.3489
#
#
#
# Elastic Compliance Matrix: (Units=1/GPa)
#
#
# Indices 1 2 3 4 5 6 
#
# 1 0.001456 0.008485 0.004622 -0.020438 -0.000602 -0.023175
# 2 0.008485 0.014923 -0.011399 0.006359 -0.001026 0.002949
# 3 0.004622 -0.011399 0.004019 0.011589 0.002847 0.014958
# 4 -0.020438 0.006359 0.011589 -0.002151 -0.006321 -0.021970
# 5 -0.000602 -0.001026 0.002847 -0.006321 0.023682 -0.002456
# 6 -0.023175 0.002949 0.014958 -0.021970 -0.002456 0.010246
#
#
# Mechanical properties :
#
#
# Convention : Reuss Voigt Hill
#
# Bulk Modulus (GPa) = 41.99175 60.97435 51.48305
# Shear Modulus (GPa) = 88.18923 27.99467 58.09195
#
# Velocity S-wave (km/s) = 6.29843 3.54864 5.11191
# Velocity P-wave (km/s) = 8.47248 6.64971 7.61582
#
# Compressibility (1/GPa) = 0.02381420
#
# Stress axis : x y z
#
# Youngs Moduli (GPa) = 687.04087 67.00989 248.81128
#
# Poissons Ratio (x) = -0.56858 -1.14997
# Poissons Ratio (y) = -5.82952 2.83611
# Poissons Ratio (z) = -3.17541 0.76382
#
# Static dielectric constant tensor:
#      x y z
#    x 1.911880 0.031030 -0.037040 
#    y 0.031030 1.863540 -0.016330 
#    z -0.037040 -0.016330 1.854100 
# 
# From -- ./inp_files/168295.got.cif
#   From: 2010.05.17/outbox.cif.g08.bks.cpg/sg2_85_cif.got.tgz:168295.got - 2010.06.03 11:33:40.
