data_PCOD9050599
_publ_section_title
;
Structure prediction by ZEFSAII (Michael W. Deem and Ramdas Pophale) SiO2 
 PCOD9050599
Probable space group: P -1
;
_chemical_formula_sum "Si O2"
_cell_formula_units_Z 14
_cell_length_a 15.034868
_cell_length_b 12.457721
_cell_length_c 5.396204
_cell_angle_alpha 102.527231
_cell_angle_beta 130.463586
_cell_angle_gamma 50.459304
_cell_volume 558.851732
_symmetry_space_group_name_H-M "P -1"
_symmetry_group_IT_number 2
_symmetry_cell_setting 'triclinic'
loop_
_space_group_symop_operation_xyz
x,y,z
-x,-y,-z
loop_
_atom_site_type_symbol
_atom_site_label
_atom_site_fract_x
_atom_site_fract_y
_atom_site_fract_z
Si Si1 0.129347 0.373213 0.356215
Si Si2 0.352266 0.600071 0.102783
Si Si3 0.560575 0.301629 0.091216
Si Si4 0.936000 0.364853 0.383105
Si Si5 0.476638 0.102050 0.787479
Si Si6 0.836850 0.043511 0.683197
Si Si7 0.799868 0.926040 0.049502
O O1 0.152175 0.465794 0.622919
O O2 0.291550 0.230244 0.461925
O O3 0.053084 0.324845 0.355727
O O4 0.000000 0.500000 0.000000
O O5 0.500000 0.500000 0.500000
O O6 0.409552 0.472932 0.936449
O O7 0.358913 0.710796 0.025425
O O8 0.187524 0.652831 0.914488
O O9 0.700572 0.221346 0.503816
O O10 0.510832 0.207192 0.978674
O O11 0.053119 0.249165 0.751730
O O12 0.500000 0.000000 0.000000
O O13 0.621960 0.993407 0.806123
O O14 0.833715 0.982106 0.382078
O O15 0.804042 0.985106 0.825810
O O16 0.000000 0.000000 0.000000
#
# Coordination Sequence:
#
# PCOD9050599 Si02
#       7
#     2   2   2   2   2   2   2
#     4  11  26  45  75 104 150 200 257 327 380 460
#     4  11  25  42  73 102 153 198 249 313 385 460
#     4  10  25  43  66 108 142 195 251 311 381 460
#     4  11  25  46  70 112 146 198 266 312 387 462
#     4  11  23  50  73 106 153 198 260 318 391 458
#     4  11  25  45  73 106 151 194 253 310 382 461
#     4  11  26  44  77 107 150 197 252 317 384 459
#
# _framework density 25.051366000000002
#
# number of rings (size 3 to 8) (size 9 to 14) (size 15 to 20)
#    0.000    1.143    2.857    1.286   10.000    0.000 
#    2.571    3.571    0.000    0.000    0.000    0.000 
#    0.000    0.000    0.000    0.000    0.000    0.000 
#
# Total GULP energy -78293.640046 kJ/mol
# GULP energy per Si atom -5592.402860 kJ/mol
# Density = 2.499435 g / cm^3
# Si number density = 25.051366 Si / 1000 Ang^3
#
#
#
# Elastic Constant Matrix: (Units=GPa)
#
#
# Indices 1 2 3 4 5 6 
#
# 1 164.5138 23.4495 82.9926 -7.6880 15.2965 31.8335
# 2 23.4495 111.2009 25.8089 -17.3352 7.1444 -8.4100
# 3 82.9926 25.8089 151.0033 -26.3349 17.8490 15.4568
# 4 -7.6880 -17.3352 -26.3349 48.5994 3.5027 -3.9776
# 5 15.2965 7.1444 17.8490 3.5027 65.9217 -10.1626
# 6 31.8335 -8.4100 15.4568 -3.9776 -10.1626 51.0975
#
#
#
# Elastic Compliance Matrix: (Units=1/GPa)
#
#
# Indices 1 2 3 4 5 6 
#
# 1 0.009768 -0.001572 -0.004695 -0.001888 -0.001554 -0.005380
# 2 -0.001572 0.010230 -0.000575 0.003359 -0.000298 0.003039
# 3 -0.004695 -0.000575 0.010407 0.004806 -0.001973 -0.000336
# 4 -0.001888 0.003359 0.004806 0.024384 -0.002257 0.001724
# 5 -0.001554 -0.000298 -0.001973 -0.002257 0.016943 0.004710
# 6 -0.005380 0.003039 -0.000336 0.001724 0.004710 0.024595
#
#
# Mechanical properties :
#
#
# Convention : Reuss Voigt Hill
#
# Bulk Modulus (GPa) = 59.79789 76.80224 68.30006
# Shear Modulus (GPa) = 43.25856 52.75485 48.00670
#
# Velocity S-wave (km/s) = 4.15998 4.59395 4.38234
# Velocity P-wave (km/s) = 6.85535 7.67226 7.27528
#
# Compressibility (1/GPa) = 0.01672300
#
# Stress axis : x y z
#
# Youngs Moduli (GPa) = 102.37144 97.74984 96.09096
#
# Poissons Ratio (x) = 0.15362 0.45114
# Poissons Ratio (y) = 0.16088 0.05522
# Poissons Ratio (z) = 0.48063 0.05618
#
# Static dielectric constant tensor:
#      x y z
#    x 1.970480 -0.180290 -0.005490 
#    y -0.180290 2.455530 0.079290 
#    z -0.005490 0.079290 2.094570 
# 
# From -- ./inp_files/95088.got.cif
#   From: 2010.05.17/outbox.cif.g08.bks.cpg/sg2_48_cif.got.tgz:95088.got - 2010.06.03 11:33:40.
