data_PCOD9050772
_publ_section_title
;
Structure prediction by ZEFSAII (Michael W. Deem and Ramdas Pophale) SiO2 
 PCOD9050772
Probable space group: P -1
;
_chemical_formula_sum "Si O2"
_cell_formula_units_Z 12
_cell_length_a 9.211902
_cell_length_b 14.177661
_cell_length_c 14.820003
_cell_angle_alpha 159.792679
_cell_angle_beta 53.925368
_cell_angle_gamma 125.256966
_cell_volume 538.262341
_symmetry_space_group_name_H-M "P -1"
_symmetry_group_IT_number 2
_symmetry_cell_setting 'triclinic'
loop_
_space_group_symop_operation_xyz
x,y,z
-x,-y,-z
loop_
_atom_site_type_symbol
_atom_site_label
_atom_site_fract_x
_atom_site_fract_y
_atom_site_fract_z
Si Si1 0.623020 0.278445 0.074728
Si Si2 0.874994 0.237185 0.777308
Si Si3 0.678107 0.683503 0.567986
Si Si4 0.923072 0.368526 0.318638
Si Si5 0.710863 0.873131 0.048016
Si Si6 0.465769 0.799884 0.248462
O O1 0.739420 0.203018 0.879474
O O2 0.423334 0.305302 0.131679
O O3 0.644397 0.001350 0.875519
O O4 0.697574 0.556587 0.346704
O O5 0.740981 0.236100 0.740799
O O6 0.000000 0.000000 0.500000
O O7 0.000000 0.500000 0.000000
O O8 0.500000 0.500000 0.500000
O O9 0.841384 0.589475 0.483279
O O10 0.000000 0.500000 0.500000
O O11 0.769812 0.138719 0.203229
O O12 0.098364 0.240552 0.098515
O O13 0.595977 0.899380 0.205415
O O14 0.500000 0.000000 0.500000
O O15 0.500000 0.500000 0.000000
#
# Coordination Sequence:
#
# PCOD9050772 Si02
#       6
#     2   2   2   2   2   2
#     4  11  25  44  68  97 131 177 217 273 330 393
#     4  11  24  46  69  99 136 173 226 283 336 391
#     4  12  24  41  68  97 132 170 223 263 325 400
#     4  11  25  42  66  98 139 174 217 274 334 402
#     4  10  25  44  66  96 137 177 219 274 338 392
#     4  11  26  46  72  99 135 182 229 280 336 404
#
# _framework density 22.293963000000002
#
# number of rings (size 3 to 8) (size 9 to 14) (size 15 to 20)
#    0.000    1.000    1.667    3.500    7.000    6.667 
#    0.000    0.000    0.000    0.000    0.000    0.000 
#    0.000    0.000    0.000    0.000    0.000    0.000 
#
# Total GULP energy -67034.068521 kJ/mol
# GULP energy per Si atom -5586.172377 kJ/mol
# Density = 2.224322 g / cm^3
# Si number density = 22.293963 Si / 1000 Ang^3
#
#
#
# Elastic Constant Matrix: (Units=GPa)
#
#
# Indices 1 2 3 4 5 6 
#
# 1 176.0591 41.0568 60.3736 -3.6333 1.8266 3.2778
# 2 41.0568 65.5602 28.1771 -3.8281 -3.8393 10.1324
# 3 60.3736 28.1771 135.2895 -4.1743 10.4163 3.7325
# 4 -3.6333 -3.8281 -4.1743 32.2464 -2.3027 3.2814
# 5 1.8266 -3.8393 10.4163 -2.3027 47.5719 -3.5669
# 6 3.2778 10.1324 3.7325 3.2814 -3.5669 26.0514
#
#
#
# Elastic Compliance Matrix: (Units=1/GPa)
#
#
# Indices 1 2 3 4 5 6 
#
# 1 0.007397 -0.003662 -0.002566 -0.000019 0.000047 0.000870
# 2 -0.003662 0.019908 -0.002386 0.002487 0.001865 -0.006998
# 3 -0.002566 -0.002386 0.009225 0.000514 -0.002121 -0.000426
# 4 -0.000019 0.002487 0.000514 0.031959 0.001269 -0.004890
# 5 0.000047 0.001865 -0.002121 0.001269 0.021876 0.002408
# 6 0.000870 -0.006998 -0.000426 -0.004890 0.002408 0.042005
#
#
# Mechanical properties :
#
#
# Convention : Reuss Voigt Hill
#
# Bulk Modulus (GPa) = 51.81117 70.68041 61.24579
# Shear Modulus (GPa) = 32.04480 37.66070 34.85275
#
# Velocity S-wave (km/s) = 3.79539 4.11454 3.95818
# Velocity P-wave (km/s) = 6.51898 7.37192 6.95853
#
# Compressibility (1/GPa) = 0.01930086
#
# Stress axis : x y z
#
# Youngs Moduli (GPa) = 135.19191 50.23099 108.40565
#
# Poissons Ratio (x) = 0.18395 0.27821
# Poissons Ratio (y) = 0.49509 0.25864
# Poissons Ratio (z) = 0.34695 0.11984
#
# Static dielectric constant tensor:
#      x y z
#    x 1.817460 -0.014610 -0.010230 
#    y -0.014610 1.667460 0.008630 
#    z -0.010230 0.008630 1.865000 
# 
# From -- ./inp_files/34140.got.cif
#   From: 2010.05.17/outbox.cif.g08.bks.cpg/sg2_18_cif.got.tgz:34140.got - 2010.06.03 11:33:40.
