data_PCOD9050336
_publ_section_title
;
Structure prediction by ZEFSAII (Michael W. Deem and Ramdas Pophale) SiO2 
 PCOD9050336
Probable space group: P -1
;
_chemical_formula_sum "Si O2"
_cell_formula_units_Z 15
_cell_length_a 8.961629
_cell_length_b 17.257969
_cell_length_c 5.274767
_cell_angle_alpha 87.023176
_cell_angle_beta 72.517768
_cell_angle_gamma 52.265939
_cell_volume 605.893959
_symmetry_space_group_name_H-M "P -1"
_symmetry_group_IT_number 2
_symmetry_cell_setting 'triclinic'
loop_
_space_group_symop_operation_xyz
x,y,z
-x,-y,-z
loop_
_atom_site_type_symbol
_atom_site_label
_atom_site_fract_x
_atom_site_fract_y
_atom_site_fract_z
Si Si1 0.545079 0.693307 0.111660
Si Si2 0.793569 0.851667 0.401615
Si Si3 0.930104 0.937717 0.636541
Si Si4 0.927367 0.655706 0.089980
Si Si5 0.313802 0.817242 0.716857
Si Si6 0.681650 0.500831 0.348609
Si Si7 0.000000 0.500000 0.500000
Si Si8 0.408212 0.953884 0.848008
O O1 0.755267 0.675525 0.986017
O O2 0.425217 0.763729 0.405066
O O3 0.600121 0.588949 0.173423
O O4 0.421408 0.743267 0.910481
O O5 0.950933 0.862661 0.437541
O O6 0.865102 0.752575 0.247334
O O7 0.645306 0.874904 0.705447
O O8 0.666920 0.943406 0.256275
O O9 0.080219 0.869414 0.798902
O O10 0.000000 0.000000 0.500000
O O11 0.701156 0.016319 0.832310
O O12 0.955874 0.577859 0.289360
O O13 0.132376 0.604059 0.845596
O O14 0.326551 0.904992 0.747608
O O15 0.500000 0.500000 0.500000
O O16 0.791448 0.515716 0.512285
#
# Coordination Sequence:
#
# PCOD9050336 Si02
#       8
#     2   2   2   2   2   2   1   2
#     4  11  27  49  84 117 159 219 273 329 420 493
#     4  11  26  47  76 116 149 212 269 327 408 479
#     4  12  26  48  76 112 163 212 269 333 404 477
#     4  11  26  50  84 112 160 213 273 340 409 494
#     4  12  26  47  83 117 159 214 266 333 408 488
#     4  11  28  52  82 120 163 210 274 348 415 498
#     4  10  24  50  84 112 154 216 262 332 420 478
#     4  11  25  46  73 107 159 204 265 329 397 477
#
# _framework density 24.756803999999999
#
# number of rings (size 3 to 8) (size 9 to 14) (size 15 to 20)
#    0.000    0.800    2.667    3.200    9.333    4.800 
#    0.000    0.000    0.000    0.000    0.000    0.000 
#    0.000    0.000    0.000    0.000    0.000    0.000 
#
# Total GULP energy -83844.278437 kJ/mol
# GULP energy per Si atom -5589.618562 kJ/mol
# Density = 2.470046 g / cm^3
# Si number density = 24.756804 Si / 1000 Ang^3
#
#
#
# Elastic Constant Matrix: (Units=GPa)
#
#
# Indices 1 2 3 4 5 6 
#
# 1 196.8630 64.3822 56.4306 -5.0123 -11.4542 -5.7391
# 2 64.3822 109.0459 47.9660 -1.1542 -3.6893 -7.1320
# 3 56.4306 47.9660 100.9968 -0.3922 -16.5304 -11.6464
# 4 -5.0123 -1.1542 -0.3922 45.6286 -18.4784 8.3341
# 5 -11.4542 -3.6893 -16.5304 -18.4784 35.1390 -11.3135
# 6 -5.7391 -7.1320 -11.6464 8.3341 -11.3135 35.7280
#
#
#
# Elastic Compliance Matrix: (Units=1/GPa)
#
#
# Indices 1 2 3 4 5 6 
#
# 1 0.006794 -0.003022 -0.002093 0.001297 0.001598 0.000009
# 2 -0.003022 0.013016 -0.004908 -0.001047 -0.002488 -0.000031
# 3 -0.002093 -0.004908 0.015682 0.002488 0.009491 0.006221
# 4 0.001297 -0.001047 0.002488 0.028832 0.016414 -0.000717
# 5 0.001598 -0.002488 0.009491 0.016414 0.046212 0.013658
# 6 0.000009 -0.000031 0.006221 -0.000717 0.013658 0.034505
#
#
# Mechanical properties :
#
#
# Convention : Reuss Voigt Hill
#
# Bulk Modulus (GPa) = 64.74147 82.71814 73.72980
# Shear Modulus (GPa) = 29.37070 39.17426 34.27248
#
# Velocity S-wave (km/s) = 3.44811 3.98221 3.72474
# Velocity P-wave (km/s) = 6.48539 7.39113 6.95303
#
# Compressibility (1/GPa) = 0.01544605
#
# Stress axis : x y z
#
# Youngs Moduli (GPa) = 147.17980 76.82561 63.76628
#
# Poissons Ratio (x) = 0.23219 0.13348
# Poissons Ratio (y) = 0.44483 0.31296
# Poissons Ratio (z) = 0.30809 0.37705
#
# Static dielectric constant tensor:
#      x y z
#    x 1.970080 -0.063180 0.003280 
#    y -0.063180 2.050570 0.110140 
#    z 0.003280 0.110140 2.068160 
# 
# From -- ./inp_files/44118.got.cif
#   From: 2010.05.17/outbox.cif.g08.bks.cpg/sg2_23_cif.got.tgz:44118.got - 2010.06.03 11:33:40.
