data_PCOD9050770
_publ_section_title
;
Structure prediction by ZEFSAII (Michael W. Deem and Ramdas Pophale) SiO2 
 PCOD9050770
Probable space group: P -1
;
_chemical_formula_sum "Si O2"
_cell_formula_units_Z 14
_cell_length_a 8.902561
_cell_length_b 24.846848
_cell_length_c 8.569456
_cell_angle_alpha 29.075641
_cell_angle_beta 131.504808
_cell_angle_gamma 138.906340
_cell_volume 605.434724
_symmetry_space_group_name_H-M "P -1"
_symmetry_group_IT_number 2
_symmetry_cell_setting 'triclinic'
loop_
_space_group_symop_operation_xyz
x,y,z
-x,-y,-z
loop_
_atom_site_type_symbol
_atom_site_label
_atom_site_fract_x
_atom_site_fract_y
_atom_site_fract_z
Si Si1 0.452548 0.859853 0.850281
Si Si2 0.949883 0.336251 0.139219
Si Si3 0.281752 0.915089 0.875761
Si Si4 0.593831 0.193893 0.486463
Si Si5 0.683712 0.713065 0.293715
Si Si6 0.302902 0.488368 0.774934
Si Si7 0.220801 0.259109 0.080244
O O1 0.220440 0.770269 0.826099
O O2 0.397683 0.847991 0.025464
O O3 0.500000 0.000000 0.500000
O O4 0.661616 0.836715 0.005298
O O5 0.771610 0.317522 0.201001
O O6 0.130412 0.302410 0.435128
O O7 0.094433 0.461353 0.818077
O O8 0.025506 0.864050 0.770829
O O9 0.431356 0.066190 0.600609
O O10 0.271025 0.857369 0.185057
O O11 0.416646 0.229802 0.352156
O O12 0.433073 0.607553 0.449704
O O13 0.721585 0.704407 0.156889
O O14 0.500000 0.500000 0.000000
O O15 0.222201 0.368374 0.910016
#
# Coordination Sequence:
#
# PCOD9050770 Si02
#       7
#     2   2   2   2   2   2   2
#     4  12  24  43  68 100 131 171 219 267 332 397
#     4  11  22  45  63  98 135 166 224 266 320 392
#     4  11  24  41  65 100 135 172 218 264 337 393
#     4  11  24  42  65 101 134 170 221 269 324 403
#     4  11  25  44  66  95 135 173 217 275 324 383
#     4  10  25  44  66  96 131 175 227 271 321 386
#     4  12  22  44  68  93 134 175 215 276 328 382
#
# _framework density 23.123881000000001
#
# number of rings (size 3 to 8) (size 9 to 14) (size 15 to 20)
#    0.000    0.857    5.714    0.857    4.000    1.143 
#    0.000    2.857    0.000    0.000    0.000    0.000 
#    0.000    0.000    0.000    0.000    0.000    0.000 
#
# Total GULP energy -78123.225088 kJ/mol
# GULP energy per Si atom -5580.230363 kJ/mol
# Density = 2.307125 g / cm^3
# Si number density = 23.123881 Si / 1000 Ang^3
#
#
#
# Elastic Constant Matrix: (Units=GPa)
#
#
# Indices 1 2 3 4 5 6 
#
# 1 93.6486 14.4801 13.7244 7.3486 -9.2723 10.2195
# 2 14.4801 49.8500 12.7360 -2.4141 -2.5852 24.1393
# 3 13.7244 12.7360 52.1457 14.6895 -5.9993 7.0710
# 4 7.3486 -2.4141 14.6895 16.1713 2.3721 3.4702
# 5 -9.2723 -2.5852 -5.9993 2.3721 38.2508 0.1067
# 6 10.2195 24.1393 7.0710 3.4702 0.1067 32.5933
#
#
#
# Elastic Compliance Matrix: (Units=1/GPa)
#
#
# Indices 1 2 3 4 5 6 
#
# 1 0.012067 -0.003243 -0.000234 -0.006053 0.003046 -0.000696
# 2 -0.003243 0.038328 -0.011695 0.023903 -0.001436 -0.027373
# 3 -0.000234 -0.011695 0.031027 -0.031854 0.005980 0.005375
# 4 -0.006053 0.023903 -0.031854 0.102986 -0.011179 -0.019823
# 5 0.003046 -0.001436 0.005980 -0.011179 0.028416 -0.000092
# 6 -0.000696 -0.027373 0.005375 -0.019823 -0.000092 0.052117
#
#
# Mechanical properties :
#
#
# Convention : Reuss Voigt Hill
#
# Bulk Modulus (GPa) = 19.57761 30.83616 25.20688
# Shear Modulus (GPa) = 16.00970 27.71666 21.86318
#
# Velocity S-wave (km/s) = 2.63410 3.46586 3.07820
# Velocity P-wave (km/s) = 4.21142 5.42037 4.85368
#
# Compressibility (1/GPa) = 0.05107877
#
# Stress axis : x y z
#
# Youngs Moduli (GPa) = 82.87400 26.09048 32.22964
#
# Poissons Ratio (x) = 0.08462 0.00753
# Poissons Ratio (y) = 0.26878 0.37691
# Poissons Ratio (z) = 0.01937 0.30512
#
# Static dielectric constant tensor:
#      x y z
#    x 1.976380 -0.033070 -0.086190 
#    y -0.033070 1.845990 0.028840 
#    z -0.086190 0.028840 1.911790 
# 
# From -- ./inp_files/178399.got.cif
#   From: 2010.05.17/outbox.cif.g08.bks.cpg/sg2_90_cif.got.tgz:178399.got - 2010.06.03 11:33:40.
