data_PCOD9050198
_publ_section_title
;
Structure prediction by ZEFSAII (Michael W. Deem and Ramdas Pophale) SiO2 
 PCOD9050198
Probable space group: P -1
;
_chemical_formula_sum "Si O2"
_cell_formula_units_Z 14
_cell_length_a 14.755846
_cell_length_b 11.439539
_cell_length_c 13.723468
_cell_angle_alpha 33.966709
_cell_angle_beta 144.417339
_cell_angle_gamma 151.674451
_cell_volume 583.062872
_symmetry_space_group_name_H-M "P -1"
_symmetry_group_IT_number 2
_symmetry_cell_setting 'triclinic'
loop_
_space_group_symop_operation_xyz
x,y,z
-x,-y,-z
loop_
_atom_site_type_symbol
_atom_site_label
_atom_site_fract_x
_atom_site_fract_y
_atom_site_fract_z
Si Si1 0.148979 0.239861 0.739251
Si Si2 0.128958 0.559724 0.211393
Si Si3 0.165840 0.349776 0.202282
Si Si4 0.468342 0.958319 0.683614
Si Si5 0.983609 0.490387 0.343752
Si Si6 0.254929 0.118854 0.119343
Si Si7 0.455736 0.418230 0.271417
O O1 0.094598 0.437859 0.555728
O O2 0.330663 0.349216 0.748882
O O3 0.204349 0.196501 0.922845
O O4 0.954172 0.958706 0.720400
O O5 0.165735 0.398483 0.282768
O O6 0.051103 0.446102 0.329885
O O7 0.342748 0.860714 0.202121
O O8 0.961260 0.570396 0.012478
O O9 0.381911 0.503314 0.234982
O O10 0.254742 0.721082 0.706221
O O11 0.544703 0.848112 0.750729
O O12 0.455591 0.176608 0.473056
O O13 0.084074 0.803746 0.211683
O O14 0.299968 0.296822 0.129127
#
# Coordination Sequence:
#
# PCOD9050198 Si02
#       7
#     2   2   2   2   2   2   2
#     4  12  24  46  69 107 138 181 235 278 341 419
#     4  10  24  49  70  99 142 176 233 294 337 411
#     4  11  25  46  72 102 135 185 233 281 352 406
#     4  11  23  45  70 103 137 184 227 280 349 404
#     4  11  24  46  72 101 142 183 228 284 346 405
#     4  11  26  47  69 102 148 180 228 286 337 415
#     4  12  26  45  70 106 141 181 233 283 343 412
#
# _framework density 24.011130999999999
#
# number of rings (size 3 to 8) (size 9 to 14) (size 15 to 20)
#    0.000    0.857    7.143    0.857    2.000    4.571 
#    0.000    2.857    0.000    0.000    0.000    0.000 
#    0.000    0.000    0.000    0.000    0.000    0.000 
#
# Total GULP energy -78503.390282 kJ/mol
# GULP energy per Si atom -5607.385020 kJ/mol
# Density = 2.395648 g / cm^3
# Si number density = 24.011131 Si / 1000 Ang^3
#
#
#
# Elastic Constant Matrix: (Units=GPa)
#
#
# Indices 1 2 3 4 5 6 
#
# 1 166.0955 40.2741 23.9865 7.7724 17.4622 26.3136
# 2 40.2741 52.3205 7.3268 0.6318 2.1935 36.7372
# 3 23.9865 7.3268 109.5330 -8.0060 4.6280 19.9583
# 4 7.7724 0.6318 -8.0060 24.3504 9.7401 -2.0568
# 5 17.4622 2.1935 4.6280 9.7401 25.4651 5.7062
# 6 26.3136 36.7372 19.9583 -2.0568 5.7062 54.4313
#
#
#
# Elastic Compliance Matrix: (Units=1/GPa)
#
#
# Indices 1 2 3 4 5 6 
#
# 1 0.008255 -0.007328 -0.001536 -0.000828 -0.004881 0.001999
# 2 -0.007328 0.043793 0.003210 -0.003445 0.008304 -0.028192
# 3 -0.001536 0.003210 0.010520 0.004081 -0.001584 -0.004961
# 4 -0.000828 -0.003445 0.004081 0.051529 -0.020786 0.005356
# 5 -0.004881 0.008304 -0.001584 -0.020786 0.052137 -0.008915
# 6 0.001999 -0.028192 -0.004961 0.005356 -0.008915 0.039389
#
#
# Mechanical properties :
#
#
# Convention : Reuss Voigt Hill
#
# Bulk Modulus (GPa) = 19.50847 52.34708 35.92777
# Shear Modulus (GPa) = 21.36580 37.94013 29.65296
#
# Velocity S-wave (km/s) = 2.98624 3.97937 3.51802
# Velocity P-wave (km/s) = 4.47577 6.55456 5.61226
#
# Compressibility (1/GPa) = 0.05125978
#
# Stress axis : x y z
#
# Youngs Moduli (GPa) = 121.14583 22.83471 95.05255
#
# Poissons Ratio (x) = 0.16733 0.14600
# Poissons Ratio (y) = 0.88773 -0.30509
# Poissons Ratio (z) = 0.18608 -0.07329
#
# Static dielectric constant tensor:
#      x y z
#    x 1.927420 0.001340 0.018210 
#    y 0.001340 1.910490 0.009500 
#    z 0.018210 0.009500 1.956660 
# 
# From -- ./inp_files/531654.got.cif
#   From: 2010.05.17/outbox.cif.g08.bks.cpg/sg2_266_cif.got.tgz:531654.got - 2010.06.03 11:33:40.
