data_PCOD9050002
_publ_section_title
;
Structure prediction by ZEFSAII (Michael W. Deem and Ramdas Pophale) SiO2 
 PCOD9050002
Probable space group: P -1
;
_chemical_formula_sum "Si O2"
_cell_formula_units_Z 13
_cell_length_a 15.087211
_cell_length_b 15.249425
_cell_length_c 6.213302
_cell_angle_alpha 66.178120
_cell_angle_beta 107.293500
_cell_angle_gamma 153.092179
_cell_volume 584.945017
_symmetry_space_group_name_H-M "P -1"
_symmetry_group_IT_number 2
_symmetry_cell_setting 'triclinic'
loop_
_space_group_symop_operation_xyz
x,y,z
-x,-y,-z
loop_
_atom_site_type_symbol
_atom_site_label
_atom_site_fract_x
_atom_site_fract_y
_atom_site_fract_z
Si Si1 0.852821 0.395716 0.807283
Si Si2 0.725108 0.442864 0.932285
Si Si3 0.055576 0.697805 0.273816
Si Si4 0.000000 0.000000 0.000000
Si Si5 0.585548 0.639394 0.719872
Si Si6 0.203392 0.302658 0.486672
Si Si7 0.705236 0.891190 0.883050
O O1 0.697974 0.324815 0.879923
O O2 0.803789 0.251880 0.794564
O O3 0.971088 0.568105 0.550696
O O4 0.000000 0.500000 0.000000
O O5 0.838523 0.630660 0.700296
O O6 0.512526 0.290317 0.995114
O O7 0.865711 0.546750 0.133760
O O8 0.172339 0.900239 0.213013
O O9 0.176585 0.089408 0.942303
O O10 0.942769 0.865909 0.267903
O O11 0.415095 0.499666 0.564230
O O12 0.763750 0.739131 0.650262
O O13 0.655755 0.804853 0.695966
O O14 0.500000 0.500000 0.000000
#
# Coordination Sequence:
#
# PCOD9050002 Si02
#       7
#     2   2   2   1   2   2   2
#     4   9  21  48  75 100 143 177 223 294 362 417
#     4  11  24  45  74 101 140 187 226 299 350 413
#     4  10  24  48  72 105 138 178 233 293 353 428
#     4  12  26  44  62 104 142 188 242 280 336 424
#     4  11  22  46  64  93 143 188 231 292 346 404
#     4  11  24  44  67  97 141 189 236 287 350 406
#     4  12  26  42  71 105 137 187 241 281 350 414
#
# _framework density 22.224309000000002
#
# number of rings (size 3 to 8) (size 9 to 14) (size 15 to 20)
#    0.000    1.231    3.077    1.846    6.462    1.231 
#   13.846    6.923    0.000    0.000    0.000    0.000 
#    0.000    0.000    0.000    0.000    0.000    0.000 
#
# Total GULP energy -72419.910865 kJ/mol
# GULP energy per Si atom -5570.762374 kJ/mol
# Density = 2.217373 g / cm^3
# Si number density = 22.224309 Si / 1000 Ang^3
#
#
#
# Elastic Constant Matrix: (Units=GPa)
#
#
# Indices 1 2 3 4 5 6 
#
# 1 184.6220 56.4256 34.1710 -4.7806 -6.2578 -19.0531
# 2 56.4256 92.6382 27.8893 -8.6961 0.2581 -23.7364
# 3 34.1710 27.8893 128.5778 -2.1458 24.0197 4.1144
# 4 -4.7806 -8.6961 -2.1458 21.1073 -0.4713 -0.9506
# 5 -6.2578 0.2581 24.0197 -0.4713 33.3649 -1.9519
# 6 -19.0531 -23.7364 4.1144 -0.9506 -1.9519 45.3091
#
#
#
# Elastic Compliance Matrix: (Units=1/GPa)
#
#
# Indices 1 2 3 4 5 6 
#
# 1 0.007000 -0.003391 -0.001657 0.000143 0.002618 0.001433
# 2 -0.003391 0.016329 -0.003167 0.006027 0.002049 0.007631
# 3 -0.001657 -0.003167 0.010517 -0.000957 -0.008087 -0.003679
# 4 0.000143 0.006027 -0.000957 0.050031 0.001635 0.004424
# 5 0.002618 0.002049 -0.008087 0.001635 0.036556 0.004518
# 6 0.001433 0.007631 -0.003679 0.004424 0.004518 0.027292
#
#
# Mechanical properties :
#
#
# Convention : Reuss Voigt Hill
#
# Bulk Modulus (GPa) = 57.42197 71.42329 64.42263
# Shear Modulus (GPa) = 29.41842 39.11306 34.26574
#
# Velocity S-wave (km/s) = 3.64222 4.19969 3.93085
# Velocity P-wave (km/s) = 6.60161 7.46484 7.04646
#
# Compressibility (1/GPa) = 0.01741494
#
# Stress axis : x y z
#
# Youngs Moduli (GPa) = 142.85548 61.24077 95.08254
#
# Poissons Ratio (x) = 0.20770 0.15758
# Poissons Ratio (y) = 0.48449 0.30112
# Poissons Ratio (z) = 0.23675 0.19394
#
# Static dielectric constant tensor:
#      x y z
#    x 2.417120 0.036200 -0.660720 
#    y 0.036200 1.865170 -0.017210 
#    z -0.660720 -0.017210 2.499810 
# 
# From -- ./inp_files/96847.got.cif
#   From: 2010.05.17/outbox.cif.g08.bks.cpg/sg2_49_cif.got.tgz:96847.got - 2010.06.03 11:33:40.
