data_PCOD9050687
_publ_section_title
;
Structure prediction by ZEFSAII (Michael W. Deem and Ramdas Pophale) SiO2 
 PCOD9050687
Probable space group: P -1
;
_chemical_formula_sum "Si O2"
_cell_formula_units_Z 16
_cell_length_a 20.768811
_cell_length_b 5.096859
_cell_length_c 9.170211
_cell_angle_alpha 67.279433
_cell_angle_beta 132.846766
_cell_angle_gamma 99.218121
_cell_volume 648.899634
_symmetry_space_group_name_H-M "P -1"
_symmetry_group_IT_number 2
_symmetry_cell_setting 'triclinic'
loop_
_space_group_symop_operation_xyz
x,y,z
-x,-y,-z
loop_
_atom_site_type_symbol
_atom_site_label
_atom_site_fract_x
_atom_site_fract_y
_atom_site_fract_z
Si Si1 0.381770 0.710644 0.151445
Si Si2 0.461205 0.736172 0.570804
Si Si3 0.880400 0.901300 0.487566
Si Si4 0.318731 0.253839 0.775492
Si Si5 0.799395 0.219845 0.039467
Si Si6 0.014747 0.651094 0.331907
Si Si7 0.176296 0.155275 0.106911
Si Si8 0.671081 0.108571 0.401682
O O1 0.403843 0.636066 0.370452
O O2 0.458307 0.518811 0.221721
O O3 0.279685 0.665448 0.993919
O O4 0.373667 0.043833 0.022593
O O5 0.400957 0.838862 0.592549
O O6 0.500000 0.000000 0.500000
O O7 0.783694 0.803244 0.370654
O O8 0.951423 0.616299 0.662441
O O9 0.878014 0.051389 0.292058
O O10 0.909491 0.146849 0.580265
O O11 0.326542 0.584324 0.735466
O O12 0.351750 0.130221 0.694649
O O13 0.819342 0.508680 0.935464
O O14 0.775885 0.991671 0.933939
O O15 0.000000 0.500000 0.500000
O O16 0.926745 0.841043 0.090573
O O17 0.231862 0.990904 0.357481
#
# Coordination Sequence:
#
# PCOD9050687 Si02
#       8
#     2   2   2   2   2   2   2   2
#     4  10  25  43  71 106 134 181 225 280 347 400
#     4  11  25  45  76 106 139 168 230 292 349 394
#     4  11  22  41  64  98 139 176 226 282 342 405
#     4  11  28  48  70  97 143 193 228 267 345 420
#     4  11  20  38  65  97 134 171 217 282 335 400
#     4  12  21  37  65 107 135 171 228 298 344 389
#     4  12  23  37  65  99 134 171 230 280 342 381
#     4  12  27  48  68 100 140 187 230 278 337 422
#
# _framework density 24.657126000000002
#
# number of rings (size 3 to 8) (size 9 to 14) (size 15 to 20)
#    0.000    0.750    3.750    3.375    5.250    3.000 
#    0.000    3.750    0.000    0.000    0.000    0.000 
#    0.000    0.000    0.000    0.000    0.000    0.000 
#
# Total GULP energy -89510.136636 kJ/mol
# GULP energy per Si atom -5594.383540 kJ/mol
# Density = 2.460100 g / cm^3
# Si number density = 24.657126 Si / 1000 Ang^3
#
#
#
# Elastic Constant Matrix: (Units=GPa)
#
#
# Indices 1 2 3 4 5 6 
#
# 1 77.5232 5.2500 18.0477 -9.0745 14.9114 -9.3607
# 2 5.2500 86.7077 14.1382 -15.8343 6.9745 -5.3787
# 3 18.0477 14.1382 118.8193 -21.9105 16.7084 -12.4248
# 4 -9.0745 -15.8343 -21.9105 37.3146 -10.0672 -1.7392
# 5 14.9114 6.9745 16.7084 -10.0672 31.9017 -1.6007
# 6 -9.3607 -5.3787 -12.4248 -1.7392 -1.6007 34.4719
#
#
#
# Elastic Compliance Matrix: (Units=1/GPa)
#
#
# Indices 1 2 3 4 5 6 
#
# 1 0.014833 0.000259 -0.000738 0.001880 -0.005828 0.003626
# 2 0.000259 0.012713 -0.000228 0.005143 -0.001049 0.002183
# 3 -0.000738 -0.000228 0.010322 0.005081 -0.003227 0.003591
# 4 0.001880 0.005143 0.005081 0.034404 0.006452 0.005180
# 5 -0.005828 -0.001049 -0.003227 0.006452 0.037985 -0.000820
# 6 0.003626 0.002183 0.003591 0.005180 -0.000820 0.031852
#
#
# Mechanical properties :
#
#
# Convention : Reuss Voigt Hill
#
# Bulk Modulus (GPa) = 27.43209 39.76911 33.60060
# Shear Modulus (GPa) = 32.11833 37.11192 34.61513
#
# Velocity S-wave (km/s) = 3.61307 3.88380 3.75088
# Velocity P-wave (km/s) = 5.34371 6.02293 5.69346
#
# Compressibility (1/GPa) = 0.03645365
#
# Stress axis : x y z
#
# Youngs Moduli (GPa) = 67.41901 78.65706 96.88334
#
# Poissons Ratio (x) = -0.02041 0.07154
# Poissons Ratio (y) = -0.01749 0.02210
# Poissons Ratio (z) = 0.04978 0.01794
#
# Static dielectric constant tensor:
#      x y z
#    x 2.004780 -0.004190 -0.002690 
#    y -0.004190 1.928910 0.040540 
#    z -0.002690 0.040540 1.968880 
# 
# From -- ./inp_files/340182.got.cif
#   From: 2010.05.17/outbox.cif.g08.bks.cpg/sg2_171_cif.got.tgz:340182.got - 2010.06.03 11:33:40.
