data_PCOD9050106
_publ_section_title
;
Structure prediction by ZEFSAII (Michael W. Deem and Ramdas Pophale) SiO2 
 PCOD9050106
Probable space group: P -1
;
_chemical_formula_sum "Si O2"
_cell_formula_units_Z 16
_cell_length_a 15.547010
_cell_length_b 5.436244
_cell_length_c 17.889663
_cell_angle_alpha 111.909155
_cell_angle_beta 151.857764
_cell_angle_gamma 76.877047
_cell_volume 643.422340
_symmetry_space_group_name_H-M "P -1"
_symmetry_group_IT_number 2
_symmetry_cell_setting 'triclinic'
loop_
_space_group_symop_operation_xyz
x,y,z
-x,-y,-z
loop_
_atom_site_type_symbol
_atom_site_label
_atom_site_fract_x
_atom_site_fract_y
_atom_site_fract_z
Si Si1 0.087729 0.036632 0.335082
Si Si2 0.979311 0.478129 0.570662
Si Si3 0.352514 0.182428 0.427325
Si Si4 0.622623 0.433858 0.151928
Si Si5 0.638134 0.814172 0.951568
Si Si6 0.684421 0.988470 0.351199
Si Si7 0.209953 0.151044 0.159969
Si Si8 0.642772 0.397982 0.790245
O O1 0.166468 0.025574 0.310809
O O2 0.105189 0.335992 0.416876
O O3 0.231681 0.941761 0.492803
O O4 0.862548 0.909127 0.148703
O O5 0.199831 0.585694 0.764421
O O6 0.000000 0.500000 0.500000
O O7 0.851506 0.180899 0.453121
O O8 0.297306 0.299550 0.320586
O O9 0.459413 0.376641 0.595862
O O10 0.500000 0.000000 0.500000
O O11 0.490330 0.204245 0.075296
O O12 0.680060 0.688250 0.282250
O O13 0.500000 0.500000 0.000000
O O14 0.518932 0.954895 0.817492
O O15 0.619497 0.518178 0.866420
O O16 0.216626 0.365960 0.122726
O O17 0.308306 0.895221 0.196581
O O18 0.000000 0.000000 0.000000
#
# Coordination Sequence:
#
# PCOD9050106 Si02
#       8
#     2   2   2   2   2   2   2   2
#     4  12  27  49  73 110 148 196 259 314 391 465
#     4  12  24  45  70 106 144 194 253 305 377 457
#     4  10  24  48  76 109 148 198 257 317 391 466
#     4  12  26  44  72 106 149 198 251 313 389 458
#     4  12  28  46  72 114 150 197 257 320 380 472
#     4  12  25  46  77  97 155 200 245 320 378 460
#     4  11  24  47  77 111 151 198 254 323 394 472
#     4  11  25  47  75 109 156 198 256 317 394 469
#
# _framework density 24.867025000000002
#
# number of rings (size 3 to 8) (size 9 to 14) (size 15 to 20)
#    0.000    0.500    2.500    4.875    7.000    2.000 
#   11.250    0.000    0.000    0.000    0.000    0.000 
#    0.000    0.000    0.000    0.000    0.000    0.000 
#
# Total GULP energy -89236.379032 kJ/mol
# GULP energy per Si atom -5577.273689 kJ/mol
# Density = 2.481043 g / cm^3
# Si number density = 24.867025 Si / 1000 Ang^3
#
#
#
# Elastic Constant Matrix: (Units=GPa)
#
#
# Indices 1 2 3 4 5 6 
#
# 1 147.2625 39.1923 35.5851 4.2697 9.9610 13.7906
# 2 39.1923 56.4093 16.0768 0.6620 6.6783 4.3003
# 3 35.5851 16.0768 127.5609 -7.3293 9.0659 -7.3234
# 4 4.2697 0.6620 -7.3293 42.8098 0.4078 2.1753
# 5 9.9610 6.6783 9.0659 0.4078 47.5025 8.0656
# 6 13.7906 4.3003 -7.3234 2.1753 8.0656 43.7339
#
#
#
# Elastic Compliance Matrix: (Units=1/GPa)
#
#
# Indices 1 2 3 4 5 6 
#
# 1 0.009014 -0.005449 -0.002011 -0.001027 -0.000301 -0.002537
# 2 -0.005449 0.022068 -0.001159 0.000037 -0.001682 -0.000338
# 3 -0.002011 -0.001159 0.008890 0.001631 -0.001540 0.002440
# 4 -0.001027 0.000037 0.001631 0.023770 -0.000212 -0.000550
# 5 -0.000301 -0.001682 -0.001540 -0.000212 0.022344 -0.004108
# 6 -0.002537 -0.000338 0.002440 -0.000550 -0.004108 0.024892
#
#
# Mechanical properties :
#
#
# Convention : Reuss Voigt Hill
#
# Bulk Modulus (GPa) = 43.98680 56.99346 50.49013
# Shear Modulus (GPa) = 36.82012 42.83448 39.82730
#
# Velocity S-wave (km/s) = 3.85214 4.15485 4.00636
# Velocity P-wave (km/s) = 6.12474 6.78131 6.46137
#
# Compressibility (1/GPa) = 0.02273409
#
# Stress axis : x y z
#
# Youngs Moduli (GPa) = 110.93268 45.31443 112.48843
#
# Poissons Ratio (x) = 0.24691 0.22625
# Poissons Ratio (y) = 0.60445 0.13037
# Poissons Ratio (z) = 0.22312 0.05252
#
# Static dielectric constant tensor:
#      x y z
#    x 1.912250 0.052850 -0.018640 
#    y 0.052850 2.057220 0.026140 
#    z -0.018640 0.026140 1.953850 
# 
# From -- ./inp_files/571769.got.cif
#   From: 2010.05.17/outbox.cif.g08.bks.cpg/sg2_286_cif.got.tgz:571769.got - 2010.06.03 11:33:40.
