data_PCOD9050184
_publ_section_title
;
Structure prediction by ZEFSAII (Michael W. Deem and Ramdas Pophale) SiO2 
 PCOD9050184
Probable space group: P -1
;
_chemical_formula_sum "Si O2"
_cell_formula_units_Z 14
_cell_length_a 7.571693
_cell_length_b 15.280945
_cell_length_c 4.903737
_cell_angle_alpha 102.746223
_cell_angle_beta 70.710390
_cell_angle_gamma 87.100678
_cell_volume 517.607552
_symmetry_space_group_name_H-M "P -1"
_symmetry_group_IT_number 2
_symmetry_cell_setting 'triclinic'
loop_
_space_group_symop_operation_xyz
x,y,z
-x,-y,-z
loop_
_atom_site_type_symbol
_atom_site_label
_atom_site_fract_x
_atom_site_fract_y
_atom_site_fract_z
Si Si1 0.337214 0.637688 0.301943
Si Si2 0.311916 0.473787 0.839678
Si Si3 0.370924 0.939088 0.854702
Si Si4 0.520820 0.178182 0.795640
Si Si5 0.916526 0.802203 0.093118
Si Si6 0.989607 0.395937 0.207101
Si Si7 0.947333 0.922467 0.685535
O O1 0.369926 0.565923 0.993232
O O2 0.386686 0.735538 0.281737
O O3 0.123000 0.632856 0.494604
O O4 0.504210 0.592647 0.390447
O O5 0.199616 0.421348 0.086651
O O6 0.146874 0.512481 0.743471
O O7 0.426301 0.903531 0.503209
O O8 0.387079 0.852984 0.985020
O O9 0.500000 0.000000 0.000000
O O10 0.186850 0.011471 0.998928
O O11 0.294159 0.197865 0.926012
O O12 0.890959 0.854670 0.430346
O O13 0.030026 0.850637 0.832531
O O14 0.003160 0.698400 0.027933
O O15 0.000000 0.000000 0.500000
#
# Coordination Sequence:
#
# PCOD9050184 Si02
#       7
#     2   2   2   2   2   2   2
#     4  11  25  44  72 104 142 186 249 289 370 430
#     4  10  24  49  69 103 140 191 244 296 365 437
#     4  12  24  46  72  95 142 186 242 285 367 417
#     4  12  25  44  72 108 137 190 240 307 349 442
#     4  12  25  47  69 107 146 185 241 300 365 421
#     4  11  25  44  72 102 146 189 238 304 364 430
#     4  12  28  45  70 103 143 192 238 299 356 439
#
# _framework density 27.047519999999999
#
# number of rings (size 3 to 8) (size 9 to 14) (size 15 to 20)
#    0.000    0.571    4.286    2.571    8.000    0.000 
#    0.000    0.000    0.000    0.000    0.000    0.000 
#    0.000    0.000    0.000    0.000    0.000    0.000 
#
# Total GULP energy -78188.827608 kJ/mol
# GULP energy per Si atom -5584.916258 kJ/mol
# Density = 2.698596 g / cm^3
# Si number density = 27.047520 Si / 1000 Ang^3
#
#
#
# Elastic Constant Matrix: (Units=GPa)
#
#
# Indices 1 2 3 4 5 6 
#
# 1 83.3338 35.5593 29.0608 -15.9882 2.2336 -1.1770
# 2 35.5593 160.5906 49.1873 -2.7179 -0.5573 18.1234
# 3 29.0608 49.1873 108.2413 -22.1339 0.8287 -0.2016
# 4 -15.9882 -2.7179 -22.1339 39.3100 -5.1899 3.8348
# 5 2.2336 -0.5573 0.8287 -5.1899 33.4699 0.6198
# 6 -1.1770 18.1234 -0.2016 3.8348 0.6198 48.5112
#
#
#
# Elastic Compliance Matrix: (Units=1/GPa)
#
#
# Indices 1 2 3 4 5 6 
#
# 1 0.014701 -0.002761 -0.001732 0.004678 -0.000278 0.001015
# 2 -0.002761 0.008188 -0.003433 -0.002184 0.000122 -0.002969
# 3 -0.001732 -0.003433 0.012510 0.006114 0.000682 0.000800
# 4 0.004678 -0.002184 0.006114 0.031367 0.004393 -0.001581
# 5 -0.000278 0.000122 0.000682 0.004393 0.030577 -0.000787
# 6 0.001015 -0.002969 0.000800 -0.001581 -0.000787 0.021886
#
#
# Mechanical properties :
#
#
# Convention : Reuss Voigt Hill
#
# Bulk Modulus (GPa) = 51.15512 64.42004 57.78758
# Shear Modulus (GPa) = 35.31138 40.14879 37.73009
#
# Velocity S-wave (km/s) = 3.61713 3.85694 3.73896
# Velocity P-wave (km/s) = 6.03316 6.61088 6.32862
#
# Compressibility (1/GPa) = 0.01954839
#
# Stress axis : x y z
#
# Youngs Moduli (GPa) = 68.02128 122.12424 79.93604
#
# Poissons Ratio (x) = 0.33721 0.13843
# Poissons Ratio (y) = 0.18782 0.27440
# Poissons Ratio (z) = 0.11780 0.41922
#
# Static dielectric constant tensor:
#      x y z
#    x 7.311350 -0.497100 0.986920 
#    y -0.497100 2.167150 -0.174090 
#    z 0.986920 -0.174090 2.277380 
# 
# From -- ./inp_files/39596.got.cif
#   From: 2010.05.17/outbox.cif.g08.bks.cpg/sg2_20_cif.got.tgz:39596.got - 2010.06.03 11:33:40.
