data_PCOD9050623
_publ_section_title
;
Structure prediction by ZEFSAII (Michael W. Deem and Ramdas Pophale) SiO2 
 PCOD9050623
Probable space group: P -1
;
_chemical_formula_sum "Si O2"
_cell_formula_units_Z 16
_cell_length_a 7.313328
_cell_length_b 12.082286
_cell_length_c 11.081100
_cell_angle_alpha 88.940014
_cell_angle_beta 56.802128
_cell_angle_gamma 125.709246
_cell_volume 577.088790
_symmetry_space_group_name_H-M "P -1"
_symmetry_group_IT_number 2
_symmetry_cell_setting 'triclinic'
loop_
_space_group_symop_operation_xyz
x,y,z
-x,-y,-z
loop_
_atom_site_type_symbol
_atom_site_label
_atom_site_fract_x
_atom_site_fract_y
_atom_site_fract_z
Si Si1 0.193505 0.924505 0.039193
Si Si2 0.327000 0.863260 0.741284
Si Si3 0.361748 0.282332 0.585472
Si Si4 0.453522 0.747151 0.113676
Si Si5 0.611163 0.317964 0.136730
Si Si6 0.899570 0.620822 0.481321
Si Si7 0.120651 0.953838 0.611902
Si Si8 0.536620 0.496770 0.842816
O O1 0.234780 0.887592 0.896339
O O2 0.234307 0.070486 0.016580
O O3 0.893807 0.779801 0.220794
O O4 0.500000 0.000000 0.000000
O O5 0.261349 0.711186 0.799629
O O6 0.161260 0.869455 0.694419
O O7 0.690148 0.009728 0.577072
O O8 0.693217 0.442626 0.510305
O O9 0.265696 0.327692 0.509743
O O10 0.300053 0.130719 0.584547
O O11 0.546379 0.661245 0.129877
O O12 0.228359 0.722780 0.294383
O O13 0.305347 0.682699 0.033294
O O14 0.649359 0.462892 0.139026
O O15 0.241144 0.160327 0.274900
O O16 0.849158 0.608694 0.644117
O O17 0.500000 0.500000 0.000000
#
# Coordination Sequence:
#
# PCOD9050623 Si02
#       8
#     2   2   2   2   2   2   2   2
#     4  12  22  43  74 103 141 188 248 291 360 429
#     4  11  25  40  68 107 143 185 232 307 354 419
#     4  11  24  44  68 101 146 183 233 307 350 427
#     4  11  23  42  70 105 134 189 244 285 352 430
#     4  11  22  46  72 101 143 191 237 296 359 425
#     4  11  24  43  69 103 140 188 238 289 369 418
#     4  11  25  43  68 110 142 187 245 288 364 427
#     4  10  25  43  68 100 140 188 236 287 353 436
#
# _framework density 27.725368
#
# number of rings (size 3 to 8) (size 9 to 14) (size 15 to 20)
#    0.000    1.000    3.750    1.500    3.500    4.500 
#    0.000    1.250    0.000    9.750    0.000    0.000 
#    0.000    0.000    0.000    0.000    0.000    0.000 
#
# Total GULP energy -89684.323620 kJ/mol
# GULP energy per Si atom -5605.270226 kJ/mol
# Density = 2.766226 g / cm^3
# Si number density = 27.725368 Si / 1000 Ang^3
#
#
#
# Elastic Constant Matrix: (Units=GPa)
#
#
# Indices 1 2 3 4 5 6 
#
# 1 124.5742 57.6314 42.3100 -8.0814 33.7089 -27.1850
# 2 57.6314 109.6257 12.0758 -14.5493 14.9074 -37.5700
# 3 42.3100 12.0758 216.4180 6.5723 17.1290 6.1487
# 4 -8.0814 -14.5493 6.5723 46.7796 -4.1591 0.2229
# 5 33.7089 14.9074 17.1290 -4.1591 46.9824 -21.6275
# 6 -27.1850 -37.5700 6.1487 0.2229 -21.6275 57.5563
#
#
#
# Elastic Compliance Matrix: (Units=1/GPa)
#
#
# Indices 1 2 3 4 5 6 
#
# 1 0.013176 -0.005771 -0.001704 0.000099 -0.006986 0.000012
# 2 -0.005771 0.015184 -0.000389 0.004077 0.003803 0.008640
# 3 -0.001704 -0.000389 0.005214 -0.001289 -0.001705 -0.002252
# 4 0.000099 0.004077 -0.001289 0.023085 0.002923 0.003855
# 5 -0.006986 0.003803 -0.001705 0.002923 0.031043 0.011018
# 6 0.000012 0.008640 -0.002252 0.003855 0.011018 0.027386
#
#
# Mechanical properties :
#
#
# Convention : Reuss Voigt Hill
#
# Bulk Modulus (GPa) = 56.04276 74.96136 65.50206
# Shear Modulus (GPa) = 36.55907 52.83702 44.69805
#
# Velocity S-wave (km/s) = 3.63521 4.37020 4.01954
# Velocity P-wave (km/s) = 6.15444 7.24987 6.72450
#
# Compressibility (1/GPa) = 0.01784352
#
# Stress axis : x y z
#
# Youngs Moduli (GPa) = 75.89680 65.85871 191.80342
#
# Poissons Ratio (x) = 0.38010 0.32688
# Poissons Ratio (y) = 0.43804 0.07466
# Poissons Ratio (z) = 0.12935 0.02564
#
# Static dielectric constant tensor:
#      x y z
#    x 2.183450 -0.013910 -0.010070 
#    y -0.013910 2.227070 0.025210 
#    z -0.010070 0.025210 2.125680 
# 
# From -- ./inp_files/392562.got.cif
#   From: 2010.05.17/outbox.cif.g08.bks.cpg/sg2_197_cif.got.tgz:392562.got - 2010.06.03 11:33:40.
