data_PCOD9050292
_publ_section_title
;
Structure prediction by ZEFSAII (Michael W. Deem and Ramdas Pophale) SiO2 
 PCOD9050292
Probable space group: P -1
;
_chemical_formula_sum "Si O2"
_cell_formula_units_Z 15
_cell_length_a 16.054617
_cell_length_b 10.594079
_cell_length_c 9.371521
_cell_angle_alpha 138.960267
_cell_angle_beta 51.300024
_cell_angle_gamma 146.698677
_cell_volume 574.544333
_symmetry_space_group_name_H-M "P -1"
_symmetry_group_IT_number 2
_symmetry_cell_setting 'triclinic'
loop_
_space_group_symop_operation_xyz
x,y,z
-x,-y,-z
loop_
_atom_site_type_symbol
_atom_site_label
_atom_site_fract_x
_atom_site_fract_y
_atom_site_fract_z
Si Si1 0.299302 0.697540 0.850828
Si Si2 0.279578 0.063185 0.017925
Si Si3 0.020676 0.084977 0.716811
Si Si4 0.509386 0.406296 0.560372
Si Si5 0.266501 0.823585 0.273621
Si Si6 0.654578 0.295046 0.637895
Si Si7 0.017169 0.371585 0.506789
Si Si8 0.500000 0.500000 0.000000
O O1 0.384583 0.645013 0.621079
O O2 0.359088 0.889320 0.089675
O O3 0.166389 0.407592 0.824699
O O4 0.261010 0.831794 0.909371
O O5 0.128364 0.988194 0.141355
O O6 0.426927 0.365572 0.193699
O O7 0.349714 0.156556 0.866863
O O8 0.037349 0.921180 0.662720
O O9 0.000000 0.000000 0.500000
O O10 0.500000 0.500000 0.500000
O O11 0.343557 0.108966 0.506672
O O12 0.296362 0.698816 0.249479
O O13 0.092563 0.658511 0.289928
O O14 0.803763 0.432539 0.505246
O O15 0.500000 0.000000 0.500000
O O16 0.618602 0.471895 0.834129
O O17 0.000000 0.500000 0.500000
#
# Coordination Sequence:
#
# PCOD9050292 Si02
#       8
#     2   2   2   2   2   2   2   1
#     4  12  26  46  74 114 152 198 263 330 389 467
#     4  12  26  46  74 113 153 202 262 324 389 459
#     4  12  24  47  77 109 153 202 257 324 397 458
#     4  12  24  44  71 106 153 195 250 320 391 455
#     4  11  24  45  76 111 149 203 255 313 393 465
#     4  11  25  48  75 104 153 201 251 321 381 462
#     4  10  24  50  72 109 155 202 256 311 400 469
#     4  12  26  44  70 110 146 192 262 306 374 454
#
# _framework density 26.107647
#
# number of rings (size 3 to 8) (size 9 to 14) (size 15 to 20)
#    0.000    0.533    4.000    4.000    1.867    2.133 
#    4.800    2.667    0.000    0.000    0.000    0.000 
#    0.000    0.000    0.000    0.000    0.000    0.000 
#
# Total GULP energy -83603.632362 kJ/mol
# GULP energy per Si atom -5573.575491 kJ/mol
# Density = 2.604822 g / cm^3
# Si number density = 26.107647 Si / 1000 Ang^3
#
#
#
# Elastic Constant Matrix: (Units=GPa)
#
#
# Indices 1 2 3 4 5 6 
#
# 1 127.5177 37.5133 63.6918 -1.4235 -48.6234 -9.9216
# 2 37.5133 154.0913 39.3594 -4.9491 -39.9649 12.1076
# 3 63.6918 39.3594 134.8918 -1.4288 -33.6100 12.0146
# 4 -1.4235 -4.9491 -1.4288 60.8994 -0.0567 -24.3960
# 5 -48.6234 -39.9649 -33.6100 -0.0567 59.0731 -0.2363
# 6 -9.9216 12.1076 12.0146 -24.3960 -0.2363 54.0996
#
#
#
# Elastic Compliance Matrix: (Units=1/GPa)
#
#
# Indices 1 2 3 4 5 6 
#
# 1 0.013975 -0.000240 -0.004765 0.002064 0.008650 0.004643
# 2 -0.000240 0.008155 -0.000927 -0.000022 0.004786 -0.001652
# 3 -0.004765 -0.000927 0.010610 -0.001397 0.001472 -0.003646
# 4 0.002064 -0.000022 -0.001397 0.020400 0.000948 0.009897
# 5 0.008650 0.004786 0.001472 0.000948 0.028127 0.000739
# 6 0.004643 -0.001652 -0.003646 0.009897 0.000739 0.024982
#
#
# Mechanical properties :
#
#
# Convention : Reuss Voigt Hill
#
# Bulk Modulus (GPa) = 47.90014 77.51442 62.70728
# Shear Modulus (GPa) = 39.97669 53.21017 46.59343
#
# Velocity S-wave (km/s) = 3.91733 4.51944 4.22911
# Velocity P-wave (km/s) = 6.23279 7.54907 6.92229
#
# Compressibility (1/GPa) = 0.02087677
#
# Stress axis : x y z
#
# Youngs Moduli (GPa) = 71.55404 122.62130 94.24721
#
# Poissons Ratio (x) = 0.02946 0.44910
# Poissons Ratio (y) = 0.01719 0.08735
# Poissons Ratio (z) = 0.34096 0.11365
#
# Static dielectric constant tensor:
#      x y z
#    x 2.017260 0.070660 0.045790 
#    y 0.070660 1.957150 0.159370 
#    z 0.045790 0.159370 2.155940 
# 
# From -- ./inp_files/465177.got.cif
#   From: 2010.05.17/outbox.cif.g08.bks.cpg/sg2_233_cif.got.tgz:465177.got - 2010.06.03 11:33:40.
