data_PCOD9050971
_publ_section_title
;
Structure prediction by ZEFSAII (Michael W. Deem and Ramdas Pophale) SiO2 
 PCOD9050971
Probable space group: P -1
;
_chemical_formula_sum "Si O2"
_cell_formula_units_Z 14
_cell_length_a 10.063004
_cell_length_b 8.339433
_cell_length_c 8.560521
_cell_angle_alpha 74.088387
_cell_angle_beta 62.057917
_cell_angle_gamma 65.100396
_cell_volume 573.000039
_symmetry_space_group_name_H-M "P -1"
_symmetry_group_IT_number 2
_symmetry_cell_setting 'triclinic'
loop_
_space_group_symop_operation_xyz
x,y,z
-x,-y,-z
loop_
_atom_site_type_symbol
_atom_site_label
_atom_site_fract_x
_atom_site_fract_y
_atom_site_fract_z
Si Si1 0.805069 0.852889 0.117467
Si Si2 0.504890 0.512119 0.808381
Si Si3 0.738165 0.188357 0.577439
Si Si4 0.816174 0.542175 0.019306
Si Si5 0.572899 0.141349 0.367960
Si Si6 0.009191 0.639291 0.325594
Si Si7 0.047316 0.024909 0.264231
O O1 0.855641 0.722376 0.273927
O O2 0.702184 0.042010 0.192550
O O3 0.735163 0.748179 0.059345
O O4 0.943603 0.890657 0.930249
O O5 0.639092 0.351322 0.694384
O O6 0.543482 0.684587 0.692981
O O7 0.500000 0.500000 0.000000
O O8 0.324663 0.535143 0.837392
O O9 0.635660 0.187580 0.483623
O O10 0.791142 0.019807 0.710584
O O11 0.907669 0.162731 0.405283
O O12 0.855362 0.477554 0.837640
O O13 0.000000 0.500000 0.000000
O O14 0.500000 0.000000 0.500000
O O15 0.000000 0.500000 0.500000
O O16 0.031285 0.828135 0.309583
#
# Coordination Sequence:
#
# PCOD9050971 Si02
#       7
#     2   2   2   2   2   2   2
#     4  11  24  45  72 107 153 195 255 306 382 454
#     4  12  27  52  77 109 155 202 254 314 387 461
#     4  11  26  45  77 108 150 194 259 310 384 442
#     4  10  25  44  76 109 148 196 252 308 382 451
#     4  12  27  47  75 109 152 199 253 314 382 452
#     4  11  24  42  69 109 148 191 250 311 374 449
#     4  11  25  47  76 110 149 202 253 316 377 457
#
# _framework density 24.432811000000001
#
# number of rings (size 3 to 8) (size 9 to 14) (size 15 to 20)
#    0.000    0.857    1.429    4.286    8.000    4.571 
#    0.000    2.857    0.000    0.000    0.000    0.000 
#    0.000    0.000    0.000    0.000    0.000    0.000 
#
# Total GULP energy -78061.725735 kJ/mol
# GULP energy per Si atom -5575.837553 kJ/mol
# Density = 2.437720 g / cm^3
# Si number density = 24.432811 Si / 1000 Ang^3
#
#
#
# Elastic Constant Matrix: (Units=GPa)
#
#
# Indices 1 2 3 4 5 6 
#
# 1 44.7458 46.2495 43.8091 0.4527 10.2004 -2.2752
# 2 46.2495 137.7943 93.3581 14.1751 11.3873 -0.5527
# 3 43.8091 93.3581 164.1257 13.3497 7.3645 3.7772
# 4 0.4527 14.1751 13.3497 67.8179 6.2654 3.8768
# 5 10.2004 11.3873 7.3645 6.2654 28.8678 8.1589
# 6 -2.2752 -0.5527 3.7772 3.8768 8.1589 38.7014
#
#
#
# Elastic Compliance Matrix: (Units=1/GPa)
#
#
# Indices 1 2 3 4 5 6 
#
# 1 0.039758 -0.009182 -0.005278 0.003454 -0.011166 0.004729
# 2 -0.009182 0.014343 -0.005539 -0.001807 -0.000763 0.000547
# 3 -0.005278 -0.005539 0.010683 -0.000998 0.002039 -0.001762
# 4 0.003454 -0.001807 -0.000998 0.015651 -0.003493 -0.000557
# 5 -0.011166 -0.000763 0.002039 -0.003493 0.041759 -0.009320
# 6 0.004729 0.000547 -0.001762 -0.000557 -0.009320 0.028317
#
#
# Mechanical properties :
#
#
# Convention : Reuss Voigt Hill
#
# Bulk Modulus (GPa) = 40.34696 79.27771 59.81233
# Shear Modulus (GPa) = 25.15466 37.96069 31.55767
#
# Velocity S-wave (km/s) = 3.21213 3.94595 3.59780
# Velocity P-wave (km/s) = 5.50512 7.29920 6.46470
#
# Compressibility (1/GPa) = 0.02478501
#
# Stress axis : x y z
#
# Youngs Moduli (GPa) = 25.15247 69.72050 93.60906
#
# Poissons Ratio (x) = 0.64016 0.49409
# Poissons Ratio (y) = 0.23094 0.51851
# Poissons Ratio (z) = 0.13276 0.38619
#
# Static dielectric constant tensor:
#      x y z
#    x 2.107150 -0.007790 -0.025460 
#    y -0.007790 1.982870 0.070780 
#    z -0.025460 0.070780 2.026570 
# 
# From -- ./inp_files/233709.got.cif
#   From: 2010.05.17/outbox.cif.g08.bks.cpg/sg2_117_cif.got.tgz:233709.got - 2010.06.03 11:33:40.
