data_PCOD9050878
_publ_section_title
;
Structure prediction by ZEFSAII (Michael W. Deem and Ramdas Pophale) SiO2 
 PCOD9050878
Probable space group: P -1
;
_chemical_formula_sum "Si O2"
_cell_formula_units_Z 10
_cell_length_a 9.740181
_cell_length_b 9.744321
_cell_length_c 16.144022
_cell_angle_alpha 33.582722
_cell_angle_beta 35.728428
_cell_angle_gamma 61.435048
_cell_volume 390.862732
_symmetry_space_group_name_H-M "P -1"
_symmetry_group_IT_number 2
_symmetry_cell_setting 'triclinic'
loop_
_space_group_symop_operation_xyz
x,y,z
-x,-y,-z
loop_
_atom_site_type_symbol
_atom_site_label
_atom_site_fract_x
_atom_site_fract_y
_atom_site_fract_z
Si Si1 0.512891 0.087074 0.670082
Si Si2 0.390364 0.396656 0.437085
Si Si3 0.483031 0.548436 0.886511
Si Si4 0.945433 0.452316 0.712145
Si Si5 0.965551 0.772647 0.868002
O O1 0.447286 0.292630 0.548277
O O2 0.827750 0.295148 0.457185
O O3 0.509432 0.861983 0.718105
O O4 0.268192 0.872503 0.968505
O O5 0.704057 0.687840 0.101661
O O6 0.150325 0.451703 0.545058
O O7 0.255211 0.108619 0.584321
O O8 0.740096 0.534693 0.733845
O O9 0.177999 0.280391 0.125217
O O10 0.500000 0.500000 0.000000
O O11 0.000000 0.500000 0.000000
#
# Coordination Sequence:
#
# PCOD9050878 Si02
#       5
#     2   2   2   2   2
#     4  11  22  42  69  98 137 175 220 265 326 400
#     4  12  25  42  71  97 136 173 220 276 329 388
#     4  10  25  44  70  96 135 176 221 270 327 396
#     4  11  24  42  66 104 133 173 219 272 332 387
#     4  12  26  45  69  98 133 176 223 272 329 393
#
# _framework density 25.584430999999999
#
# number of rings (size 3 to 8) (size 9 to 14) (size 15 to 20)
#    0.000    0.800    2.000    4.800    2.800    4.800 
#    0.000    0.000    0.000    0.000    0.000    0.000 
#    0.000    0.000    0.000    0.000    0.000    0.000 
#
# Total GULP energy -56099.501920 kJ/mol
# GULP energy per Si atom -5609.950192 kJ/mol
# Density = 2.552620 g / cm^3
# Si number density = 25.584431 Si / 1000 Ang^3
#
#
#
# Elastic Constant Matrix: (Units=GPa)
#
#
# Indices 1 2 3 4 5 6 
#
# 1 117.2787 4.4780 1.7055 -4.6050 -9.3061 10.3357
# 2 4.4780 107.6567 -23.0421 26.7703 0.1045 -3.6816
# 3 1.7055 -23.0421 82.6560 11.2393 -3.4559 11.7404
# 4 -4.6050 26.7703 11.2393 49.7723 10.3150 -16.8237
# 5 -9.3061 0.1045 -3.4559 10.3150 41.9062 -2.3549
# 6 10.3357 -3.6816 11.7404 -16.8237 -2.3549 39.3787
#
#
#
# Elastic Compliance Matrix: (Units=1/GPa)
#
#
# Indices 1 2 3 4 5 6 
#
# 1 0.008892 -0.000361 0.000168 -0.000229 0.001911 -0.002401
# 2 -0.000361 0.013007 0.005854 -0.010521 0.002692 -0.004768
# 3 0.000168 0.005854 0.016545 -0.010542 0.003492 -0.008725
# 4 -0.000229 -0.010521 -0.010542 0.035636 -0.008715 0.016923
# 5 0.001911 0.002692 0.003492 -0.008715 0.026521 -0.003428
# 6 -0.002401 -0.004768 -0.008725 0.016923 -0.003428 0.035205
#
#
# Mechanical properties :
#
#
# Convention : Reuss Voigt Hill
#
# Bulk Modulus (GPa) = 20.09384 30.43049 25.26217
# Shear Modulus (GPa) = 35.44243 47.84143 41.64193
#
# Velocity S-wave (km/s) = 3.72602 4.32898 4.03876
# Velocity P-wave (km/s) = 5.13633 6.07509 5.62533
#
# Compressibility (1/GPa) = 0.04976650
#
# Stress axis : x y z
#
# Youngs Moduli (GPa) = 112.45682 76.88040 60.43951
#
# Poissons Ratio (x) = 0.02776 -0.01015
# Poissons Ratio (y) = 0.04060 -0.35381
# Poissons Ratio (z) = -0.01888 -0.45005
#
# Static dielectric constant tensor:
#      x y z
#    x 1.954110 0.006270 0.058450 
#    y 0.006270 2.064750 0.034130 
#    z 0.058450 0.034130 2.026500 
# 
# From -- ./inp_files/519.got.cif
#   From: 2010.05.17/outbox.cif.g08.bks.cpg/sg2_1_cif.got.tgz:519.got - 2010.06.03 11:33:40.
