data_PCOD9050759
_publ_section_title
;
Structure prediction by ZEFSAII (Michael W. Deem and Ramdas Pophale) SiO2 
 PCOD9050759
Probable space group: P -1
;
_chemical_formula_sum "Si O2"
_cell_formula_units_Z 14
_cell_length_a 13.646352
_cell_length_b 10.807505
_cell_length_c 11.284902
_cell_angle_alpha 61.840712
_cell_angle_beta 142.324020
_cell_angle_gamma 143.498193
_cell_volume 539.788600
_symmetry_space_group_name_H-M "P -1"
_symmetry_group_IT_number 2
_symmetry_cell_setting 'triclinic'
loop_
_space_group_symop_operation_xyz
x,y,z
-x,-y,-z
loop_
_atom_site_type_symbol
_atom_site_label
_atom_site_fract_x
_atom_site_fract_y
_atom_site_fract_z
Si Si1 0.909927 0.208594 0.983146
Si Si2 0.467713 0.316824 0.188419
Si Si3 0.580567 0.960586 0.407734
Si Si4 0.725957 0.210185 0.207532
Si Si5 0.846045 0.641235 0.588247
Si Si6 0.175450 0.404120 0.832074
Si Si7 0.501263 0.381844 0.656553
O O1 0.006655 0.292282 0.176698
O O2 0.196190 0.406432 0.104384
O O3 0.709692 0.191721 0.756482
O O4 0.753485 0.953836 0.931648
O O5 0.584987 0.375514 0.407955
O O6 0.693802 0.479250 0.228231
O O7 0.334701 0.376815 0.034129
O O8 0.550742 0.801732 0.371350
O O9 0.642761 0.129204 0.298643
O O10 0.860373 0.148581 0.657870
O O11 0.785004 0.414269 0.156253
O O12 0.953353 0.261464 0.365180
O O13 0.500000 0.000000 0.000000
O O14 0.742900 0.729944 0.449500
O O15 0.500000 0.500000 0.500000
#
# Coordination Sequence:
#
# PCOD9050759 Si02
#       7
#     2   2   2   2   2   2   2
#     4  11  23  46  66  95 133 175 223 268 319 387
#     4  11  23  41  67  96 137 173 213 268 331 390
#     4  12  22  41  72  92 131 175 209 276 333 378
#     4  12  23  39  65 102 137 162 216 270 335 396
#     4  11  23  41  67  95 131 172 218 265 328 385
#     4  11  23  40  61 103 136 167 210 272 334 393
#     4  10  25  44  65  94 131 177 226 263 317 389
#
# _framework density 25.936081000000001
#
# number of rings (size 3 to 8) (size 9 to 14) (size 15 to 20)
#    0.000    0.857    4.286    3.429    2.000    2.286 
#    0.000    0.000    0.000    9.429    0.000    0.000 
#    0.000    0.000    0.000    0.000    0.000    0.000 
#
# Total GULP energy -78235.909703 kJ/mol
# GULP energy per Si atom -5588.279264 kJ/mol
# Density = 2.587705 g / cm^3
# Si number density = 25.936081 Si / 1000 Ang^3
#
#
#
# Elastic Constant Matrix: (Units=GPa)
#
#
# Indices 1 2 3 4 5 6 
#
# 1 112.4685 37.4987 43.4630 -3.4962 34.5850 -26.1285
# 2 37.4987 143.7107 48.5148 11.8176 22.4066 -30.3008
# 3 43.4630 48.5148 155.0203 17.2561 29.1909 -16.4064
# 4 -3.4962 11.8176 17.2561 47.5198 -9.4401 -3.5023
# 5 34.5850 22.4066 29.1909 -9.4401 62.2333 -17.5870
# 6 -26.1285 -30.3008 -16.4064 -3.5023 -17.5870 38.3050
#
#
#
# Elastic Compliance Matrix: (Units=1/GPa)
#
#
# Indices 1 2 3 4 5 6 
#
# 1 0.012474 -0.000975 -0.002076 0.001520 -0.003910 0.005193
# 2 -0.000975 0.009159 -0.001741 -0.001443 -0.000628 0.005414
# 3 -0.002076 -0.001741 0.008420 -0.003421 -0.002926 -0.000843
# 4 0.001520 -0.001443 -0.003421 0.024174 0.005892 0.003346
# 5 -0.003910 -0.000628 -0.002926 0.005892 0.022566 0.006482
# 6 0.005193 0.005414 -0.000843 0.003346 0.006482 0.036852
#
#
# Mechanical properties :
#
#
# Convention : Reuss Voigt Hill
#
# Bulk Modulus (GPa) = 48.85203 74.46138 61.65670
# Shear Modulus (GPa) = 38.44637 48.39316 43.41976
#
# Velocity S-wave (km/s) = 3.85431 4.32425 4.09602
# Velocity P-wave (km/s) = 6.21965 7.32831 6.79662
#
# Compressibility (1/GPa) = 0.02046998
#
# Stress axis : x y z
#
# Youngs Moduli (GPa) = 80.16361 109.18679 118.76127
#
# Poissons Ratio (x) = 0.10643 0.24653
# Poissons Ratio (y) = 0.07814 0.20678
# Poissons Ratio (z) = 0.16640 0.19011
#
# Static dielectric constant tensor:
#      x y z
#    x 2.173370 0.002280 -0.009090 
#    y 0.002280 1.927990 -0.024800 
#    z -0.009090 -0.024800 2.035380 
# 
# From -- ./inp_files/224328.got.cif
#   From: 2010.05.17/outbox.cif.g08.bks.cpg/sg2_113_cif.got.tgz:224328.got - 2010.06.03 11:33:40.
