data_PCOD9050127
_publ_section_title
;
Structure prediction by ZEFSAII (Michael W. Deem and Ramdas Pophale) SiO2 
 PCOD9050127
Probable space group: P -1
;
_chemical_formula_sum "Si O2"
_cell_formula_units_Z 13
_cell_length_a 10.962498
_cell_length_b 6.934907
_cell_length_c 8.591437
_cell_angle_alpha 121.456523
_cell_angle_beta 58.474688
_cell_angle_gamma 94.369264
_cell_volume 457.228878
_symmetry_space_group_name_H-M "P -1"
_symmetry_group_IT_number 2
_symmetry_cell_setting 'triclinic'
loop_
_space_group_symop_operation_xyz
x,y,z
-x,-y,-z
loop_
_atom_site_type_symbol
_atom_site_label
_atom_site_fract_x
_atom_site_fract_y
_atom_site_fract_z
Si Si1 0.831179 0.105522 0.322442
Si Si2 0.147055 0.094617 0.125459
Si Si3 0.914510 0.643351 0.266981
Si Si4 0.420960 0.302007 0.427425
Si Si5 0.627224 0.298295 0.019861
Si Si6 0.467427 0.793767 0.299557
Si Si7 0.000000 0.500000 0.500000
O O1 0.871415 0.905293 0.340582
O O2 0.666054 0.244394 0.522462
O O3 0.839536 0.989392 0.096750
O O4 0.964511 0.227359 0.314825
O O5 0.179552 0.322198 0.269792
O O6 0.220150 0.868028 0.083006
O O7 0.754866 0.595141 0.388132
O O8 0.997374 0.613468 0.362671
O O9 0.000000 0.500000 0.000000
O O10 0.499317 0.233121 0.180716
O O11 0.389244 0.420894 0.849280
O O12 0.472251 0.063833 0.397692
O O13 0.500000 0.500000 0.500000
O O14 0.593269 0.242138 0.845453
#
# Coordination Sequence:
#
# PCOD9050127 Si02
#       7
#     2   2   2   2   2   2   1
#     4  10  24  48  77 110 164 206 277 347 409 505
#     4  11  25  46  77 118 156 218 272 347 426 493
#     4  11  25  51  79 121 160 217 277 340 415 506
#     4  11  27  49  81 118 169 216 270 349 426 498
#     4  11  26  48  78 114 163 215 276 344 419 502
#     4  10  25  51  75 113 161 219 272 341 418 506
#     4  12  26  46  86 118 162 218 278 356 418 498
#
# _framework density 28.432147000000001
#
# number of rings (size 3 to 8) (size 9 to 14) (size 15 to 20)
#    0.000    1.231    1.538    2.308    6.462    3.077 
#   11.077    0.000    0.000    0.000    0.000    0.000 
#    0.000    0.000    0.000    0.000    0.000    0.000 
#
# Total GULP energy -72670.965039 kJ/mol
# GULP energy per Si atom -5590.074234 kJ/mol
# Density = 2.836743 g / cm^3
# Si number density = 28.432147 Si / 1000 Ang^3
#
#
#
# Elastic Constant Matrix: (Units=GPa)
#
#
# Indices 1 2 3 4 5 6 
#
# 1 114.7832 57.0009 63.3992 -0.8078 -1.6311 -7.8397
# 2 57.0009 202.8303 68.3663 23.0742 12.1990 -34.0519
# 3 63.3992 68.3663 182.2477 -5.9913 14.5209 -18.1283
# 4 -0.8078 23.0742 -5.9913 68.5407 -9.3716 5.4184
# 5 -1.6311 12.1990 14.5209 -9.3716 47.1339 -6.1693
# 6 -7.8397 -34.0519 -18.1283 5.4184 -6.1693 66.6751
#
#
#
# Elastic Compliance Matrix: (Units=1/GPa)
#
#
# Indices 1 2 3 4 5 6 
#
# 1 0.011838 -0.002568 -0.003369 0.001071 0.002231 -0.000716
# 2 -0.002568 0.007083 -0.001429 -0.003009 -0.001685 0.003016
# 3 -0.003369 -0.001429 0.007430 0.000793 -0.001791 0.000664
# 4 0.001071 -0.003009 0.000793 0.016341 0.003533 -0.002196
# 5 0.002231 -0.001685 -0.001791 0.003533 0.023084 0.000763
# 6 -0.000716 0.003016 0.000664 -0.002196 0.000763 0.016884
#
#
# Mechanical properties :
#
#
# Convention : Reuss Voigt Hill
#
# Bulk Modulus (GPa) = 86.04953 97.48820 91.76887
# Shear Modulus (GPa) = 49.37604 57.20960 53.29282
#
# Velocity S-wave (km/s) = 4.17181 4.49056 4.33411
# Velocity P-wave (km/s) = 7.31682 7.82619 7.57579
#
# Compressibility (1/GPa) = 0.01162121
#
# Stress axis : x y z
#
# Youngs Moduli (GPa) = 84.47229 141.17854 134.59492
#
# Poissons Ratio (x) = 0.36249 0.45342
# Poissons Ratio (y) = 0.21689 0.19228
# Poissons Ratio (z) = 0.28457 0.20168
#
# Static dielectric constant tensor:
#      x y z
#    x 2.298960 0.048730 0.045410 
#    y 0.048730 2.210160 0.034010 
#    z 0.045410 0.034010 2.498490 
# 
# From -- ./inp_files/290758.got.cif
#   From: 2010.05.17/outbox.cif.g08.bks.cpg/sg2_146_cif.got.tgz:290758.got - 2010.06.03 11:33:40.
