data_PCOD9050753
_publ_section_title
;
Structure prediction by ZEFSAII (Michael W. Deem and Ramdas Pophale) SiO2 
 PCOD9050753
Probable space group: P -1
;
_chemical_formula_sum "Si O2"
_cell_formula_units_Z 16
_cell_length_a 19.885627
_cell_length_b 21.269887
_cell_length_c 6.717373
_cell_angle_alpha 59.584315
_cell_angle_beta 129.364900
_cell_angle_gamma 160.509226
_cell_volume 685.099539
_symmetry_space_group_name_H-M "P -1"
_symmetry_group_IT_number 2
_symmetry_cell_setting 'triclinic'
loop_
_space_group_symop_operation_xyz
x,y,z
-x,-y,-z
loop_
_atom_site_type_symbol
_atom_site_label
_atom_site_fract_x
_atom_site_fract_y
_atom_site_fract_z
Si Si1 0.412793 0.632976 0.647500
Si Si2 0.068469 0.107976 0.585677
Si Si3 0.823194 0.419576 0.898829
Si Si4 0.976536 0.042647 0.007311
Si Si5 0.847524 0.668750 0.689360
Si Si6 0.585619 0.109679 0.179674
Si Si7 0.153629 0.780607 0.204546
Si Si8 0.375903 0.479106 0.106194
O O1 0.318994 0.641572 0.427492
O O2 0.276061 0.475279 0.482296
O O3 0.345173 0.537834 0.874828
O O4 0.698637 0.852319 0.797434
O O5 0.991468 0.027471 0.809174
O O6 0.013318 0.152139 0.414879
O O7 0.361502 0.335659 0.777457
O O8 0.000541 0.041930 0.315776
O O9 0.660682 0.246258 0.019399
O O10 0.000000 0.500000 0.000000
O O11 0.976408 0.592684 0.044692
O O12 0.175943 0.263233 0.018872
O O13 0.634033 0.525009 0.668037
O O14 0.031715 0.764048 0.011069
O O15 0.786998 0.215605 0.488366
O O16 0.390532 0.969652 0.209529
O O17 0.500000 0.000000 0.000000
#
# Coordination Sequence:
#
# PCOD9050753 Si02
#       8
#     2   2   2   2   2   2   2   2
#     4  10  26  43  61 103 128 167 234 267 335 401
#     4  11  23  41  62  97 128 173 226 259 331 401
#     4  11  23  44  69  95 135 180 217 278 339 401
#     4  11  23  41  68  93 130 176 217 279 332 393
#     4  11  23  43  68  92 135 171 218 282 325 395
#     4  11  23  45  70  96 137 172 218 278 337 404
#     4  10  25  44  65 105 127 174 228 271 340 403
#     4  11  24  44  65  93 136 174 219 274 332 394
#
# _framework density 23.354268000000001
#
# number of rings (size 3 to 8) (size 9 to 14) (size 15 to 20)
#    0.000    1.250    2.500    2.250    3.500    6.000 
#    2.250    0.000    0.000    0.000    0.000    0.000 
#    0.000    0.000    0.000    0.000    0.000    0.000 
#
# Total GULP energy -89396.830249 kJ/mol
# GULP energy per Si atom -5587.301891 kJ/mol
# Density = 2.330111 g / cm^3
# Si number density = 23.354268 Si / 1000 Ang^3
#
#
#
# Elastic Constant Matrix: (Units=GPa)
#
#
# Indices 1 2 3 4 5 6 
#
# 1 74.6368 32.2787 40.6423 -12.7453 17.3002 -4.9804
# 2 32.2787 150.8048 61.5574 -25.1603 24.0351 -18.6044
# 3 40.6423 61.5574 161.9788 -26.3691 31.4686 -7.6147
# 4 -12.7453 -25.1603 -26.3691 43.2412 -4.0473 1.4285
# 5 17.3002 24.0351 31.4686 -4.0473 47.5312 -9.4332
# 6 -4.9804 -18.6044 -7.6147 1.4285 -9.4332 34.5866
#
#
#
# Elastic Compliance Matrix: (Units=1/GPa)
#
#
# Indices 1 2 3 4 5 6 
#
# 1 0.016632 -0.001639 -0.002562 0.002073 -0.003363 -0.000053
# 2 -0.001639 0.009058 -0.002003 0.003292 -0.001662 0.003606
# 3 -0.002562 -0.002003 0.008777 0.003104 -0.003732 -0.000660
# 4 0.002073 0.003292 0.003104 0.027329 -0.001929 0.001098
# 5 -0.003363 -0.001662 -0.003732 -0.001929 0.026419 0.005085
# 6 -0.000053 0.003606 -0.000660 0.001098 0.005085 0.032041
#
#
# Mechanical properties :
#
#
# Convention : Reuss Voigt Hill
#
# Bulk Modulus (GPa) = 45.33152 72.93081 59.13116
# Shear Modulus (GPa) = 35.70969 41.93461 38.82215
#
# Velocity S-wave (km/s) = 3.91454 4.24203 4.08157
# Velocity P-wave (km/s) = 6.31538 7.43565 6.89830
#
# Compressibility (1/GPa) = 0.02205971
#
# Stress axis : x y z
#
# Youngs Moduli (GPa) = 60.12481 110.39406 113.93254
#
# Poissons Ratio (x) = 0.18093 0.29190
# Poissons Ratio (y) = 0.09854 0.22821
# Poissons Ratio (z) = 0.15404 0.22113
#
# Static dielectric constant tensor:
#      x y z
#    x 1.917910 0.019760 -0.007980 
#    y 0.019760 1.869990 -0.061440 
#    z -0.007980 -0.061440 1.984140 
# 
# From -- ./inp_files/120642.got.cif
#   From: 2010.05.17/outbox.cif.g08.bks.cpg/sg2_61_cif.got.tgz:120642.got - 2010.06.03 11:33:40.
