data_PCOD9050246
_publ_section_title
;
Structure prediction by ZEFSAII (Michael W. Deem and Ramdas Pophale) SiO2 
 PCOD9050246
Probable space group: P -1
;
_chemical_formula_sum "Si O2"
_cell_formula_units_Z 10
_cell_length_a 14.634236
_cell_length_b 7.649008
_cell_length_c 9.967128
_cell_angle_alpha 130.206900
_cell_angle_beta 25.333935
_cell_angle_gamma 129.628664
_cell_volume 359.521145
_symmetry_space_group_name_H-M "P -1"
_symmetry_group_IT_number 2
_symmetry_cell_setting 'triclinic'
loop_
_space_group_symop_operation_xyz
x,y,z
-x,-y,-z
loop_
_atom_site_type_symbol
_atom_site_label
_atom_site_fract_x
_atom_site_fract_y
_atom_site_fract_z
Si Si1 0.718497 0.320573 0.765733
Si Si2 0.693476 0.626783 0.214861
Si Si3 0.488014 0.077339 0.722695
Si Si4 0.843782 0.464358 0.386814
Si Si5 0.009558 0.050926 0.671009
O O1 0.509129 0.172334 0.896323
O O2 0.815065 0.494172 0.602532
O O3 0.864860 0.124827 0.505114
O O4 0.695394 0.465433 0.000486
O O5 0.500000 0.500000 0.500000
O O6 0.636562 0.882659 0.409583
O O7 0.934633 0.640375 0.962151
O O8 0.619543 0.293946 0.574192
O O9 0.241023 0.985797 0.972409
O O10 0.876805 0.681854 0.352930
O O11 0.000000 0.000000 0.500000
#
# Coordination Sequence:
#
# PCOD9050246 Si02
#       5
#     2   2   2   2   2
#     4  10  26  49  79 107 150 205 247 303 392 443
#     4  12  21  45  79 107 154 195 245 324 365 441
#     4  10  26  48  77 108 152 201 246 312 382 440
#     4  10  24  49  76 107 152 199 250 307 378 452
#     4  12  23  47  76 113 151 190 260 314 356 467
#
# _framework density 27.814775000000001
#
# number of rings (size 3 to 8) (size 9 to 14) (size 15 to 20)
#    1.200    0.000    4.000    1.200    0.000    4.000 
#    3.600    4.000    8.800    0.000    0.000    0.000 
#    0.000    0.000    0.000    0.000    0.000    0.000 
#
# Total GULP energy -56083.779965 kJ/mol
# GULP energy per Si atom -5608.377996 kJ/mol
# Density = 2.775147 g / cm^3
# Si number density = 27.814775 Si / 1000 Ang^3
#
#
#
# Elastic Constant Matrix: (Units=GPa)
#
#
# Indices 1 2 3 4 5 6 
#
# 1 127.1173 39.0125 62.5941 7.0022 19.6794 -12.3029
# 2 39.0125 163.6514 55.9567 -4.1855 -1.3929 -16.0607
# 3 62.5941 55.9567 181.9716 -5.9077 -2.7235 -3.1570
# 4 7.0022 -4.1855 -5.9077 61.2954 -3.0507 -9.0333
# 5 19.6794 -1.3929 -2.7235 -3.0507 65.3958 14.0742
# 6 -12.3029 -16.0607 -3.1570 -9.0333 14.0742 25.8464
#
#
#
# Elastic Compliance Matrix: (Units=1/GPa)
#
#
# Indices 1 2 3 4 5 6 
#
# 1 0.011460 -0.000866 -0.003663 -0.000955 -0.005159 0.006945
# 2 -0.000866 0.007445 -0.001884 0.001088 -0.000620 0.004702
# 3 -0.003663 -0.001884 0.007337 0.000673 0.002020 -0.002883
# 4 -0.000955 0.001088 0.000673 0.017517 -0.000258 0.006566
# 5 -0.005159 -0.000620 0.002020 -0.000258 0.019801 -0.013467
# 6 0.006945 0.004702 -0.002883 0.006566 -0.013467 0.054194
#
#
# Mechanical properties :
#
#
# Convention : Reuss Voigt Hill
#
# Bulk Modulus (GPa) = 74.54220 87.54078 81.04149
# Shear Modulus (GPa) = 37.02275 51.51931 44.27103
#
# Velocity S-wave (km/s) = 3.65231 4.30842 3.99386
# Velocity P-wave (km/s) = 6.68158 7.50274 7.10403
#
# Compressibility (1/GPa) = 0.01341522
#
# Stress axis : x y z
#
# Youngs Moduli (GPa) = 87.26194 134.31535 136.29912
#
# Poissons Ratio (x) = 0.11632 0.49930
# Poissons Ratio (y) = 0.07557 0.25677
# Poissons Ratio (z) = 0.31967 0.25304
#
# Static dielectric constant tensor:
#      x y z
#    x 2.243260 0.043390 0.044550 
#    y 0.043390 2.220820 0.064980 
#    z 0.044550 0.064980 2.133430 
# 
# From -- ./inp_files/460798.got.cif
#   From: 2010.05.17/outbox.cif.g08.bks.cpg/sg2_231_cif.got.tgz:460798.got - 2010.06.03 11:33:40.
