data_PCOD9050026
_publ_section_title
;
Structure prediction by ZEFSAII (Michael W. Deem and Ramdas Pophale) SiO2 
 PCOD9050026
Probable space group: P -1
;
_chemical_formula_sum "Si O2"
_cell_formula_units_Z 15
_cell_length_a 8.231794
_cell_length_b 5.063691
_cell_length_c 20.605544
_cell_angle_alpha 119.180395
_cell_angle_beta 50.730802
_cell_angle_gamma 119.416578
_cell_volume 558.986343
_symmetry_space_group_name_H-M "P -1"
_symmetry_group_IT_number 2
_symmetry_cell_setting 'triclinic'
loop_
_space_group_symop_operation_xyz
x,y,z
-x,-y,-z
loop_
_atom_site_type_symbol
_atom_site_label
_atom_site_fract_x
_atom_site_fract_y
_atom_site_fract_z
Si Si1 0.582746 0.458357 0.750677
Si Si2 0.979971 0.999854 0.271166
Si Si3 0.913121 0.125755 0.641484
Si Si4 0.497383 0.080137 0.602112
Si Si5 0.500000 0.500000 0.000000
Si Si6 0.780270 0.614685 0.518860
Si Si7 0.862100 0.068669 0.918278
Si Si8 0.273456 0.356807 0.931103
O O1 0.671957 0.163877 0.714855
O O2 0.510812 0.363915 0.684828
O O3 0.395001 0.481120 0.849341
O O4 0.793584 0.745843 0.740075
O O5 0.756324 0.090204 0.348228
O O6 0.968191 0.769767 0.308130
O O7 0.011564 0.903585 0.178335
O O8 0.035959 0.335047 0.576140
O O9 0.897809 0.780566 0.574970
O O10 0.621251 0.275702 0.533015
O O11 0.631200 0.837750 0.559898
O O12 0.423026 0.229218 0.927252
O O13 0.695700 0.731531 0.930787
O O14 0.038222 0.155246 0.942720
O O15 0.739417 0.349999 0.982614
#
# Coordination Sequence:
#
# PCOD9050026 Si02
#       8
#     2   2   2   2   1   2   2   2
#     4  11  24  45  68 104 142 182 242 298 358 432
#     4  12  25  43  70 105 139 188 242 296 362 438
#     4  10  25  42  74 102 139 191 238 299 361 436
#     4  11  25  47  72 106 146 193 239 306 361 433
#     4  12  24  44  70 102 134 184 238 292 362 424
#     4  10  24  48  73 103 150 192 241 300 371 427
#     4  11  26  46  69 103 143 187 236 300 361 438
#     4  11  25  47  70 100 140 190 238 295 361 438
#
# _framework density 26.834288999999998
#
# number of rings (size 3 to 8) (size 9 to 14) (size 15 to 20)
#    0.000    1.067    4.000    0.800    5.600    2.667 
#    0.000    0.000    0.000    0.000    0.000    0.000 
#    0.000    0.000    0.000    0.000    0.000    0.000 
#
# Total GULP energy -83739.740767 kJ/mol
# GULP energy per Si atom -5582.649384 kJ/mol
# Density = 2.677321 g / cm^3
# Si number density = 26.834289 Si / 1000 Ang^3
#
#
#
# Elastic Constant Matrix: (Units=GPa)
#
#
# Indices 1 2 3 4 5 6 
#
# 1 69.9355 44.4308 28.1335 -19.0177 7.0137 22.3120
# 2 44.4308 126.4603 42.9824 -15.7923 -0.8534 14.3012
# 3 28.1335 42.9824 160.1726 -29.1781 10.7992 -1.1525
# 4 -19.0177 -15.7923 -29.1781 39.3855 4.6679 3.0459
# 5 7.0137 -0.8534 10.7992 4.6679 48.1115 -6.0034
# 6 22.3120 14.3012 -1.1525 3.0459 -6.0034 53.4433
#
#
#
# Elastic Compliance Matrix: (Units=1/GPa)
#
#
# Indices 1 2 3 4 5 6 
#
# 1 0.025253 -0.006255 -0.000448 0.010853 -0.006014 -0.010173
# 2 -0.006255 0.010751 -0.001953 -0.000332 0.001559 -0.000114
# 3 -0.000448 -0.001953 0.007927 0.005108 -0.002202 0.000342
# 4 0.010853 -0.000332 0.005108 0.035676 -0.007090 -0.007162
# 5 -0.006014 0.001559 -0.002202 -0.007090 0.023507 0.005091
# 6 -0.010173 -0.000114 0.000342 -0.007162 0.005091 0.023976
#
#
# Mechanical properties :
#
#
# Convention : Reuss Voigt Hill
#
# Bulk Modulus (GPa) = 37.56524 65.29575 51.43050
# Shear Modulus (GPa) = 32.62123 44.25619 38.43871
#
# Velocity S-wave (km/s) = 3.49041 4.06549 3.78887
# Velocity P-wave (km/s) = 5.50212 6.81347 6.19260
#
# Compressibility (1/GPa) = 0.02662036
#
# Stress axis : x y z
#
# Youngs Moduli (GPa) = 39.59939 93.01559 126.14543
#
# Poissons Ratio (x) = 0.58182 0.05646
# Poissons Ratio (y) = 0.24770 0.24633
# Poissons Ratio (z) = 0.01772 0.18164
#
# Static dielectric constant tensor:
#      x y z
#    x 1.328920 0.341700 0.163850 
#    y 0.341700 1.950580 0.001990 
#    z 0.163850 0.001990 2.042500 
# 
# From -- ./inp_files/585847.got.cif
#   From: 2010.05.17/outbox.cif.g08.bks.cpg/sg2_293_cif.got.tgz:585847.got - 2010.06.03 11:33:40.
