data_PCOD9050860
_publ_section_title
;
Structure prediction by ZEFSAII (Michael W. Deem and Ramdas Pophale) SiO2 
 PCOD9050860
Probable space group: P -1
;
_chemical_formula_sum "Si O2"
_cell_formula_units_Z 16
_cell_length_a 12.480086
_cell_length_b 9.275685
_cell_length_c 15.186251
_cell_angle_alpha 134.920287
_cell_angle_beta 39.404282
_cell_angle_gamma 134.211118
_cell_volume 743.831255
_symmetry_space_group_name_H-M "P -1"
_symmetry_group_IT_number 2
_symmetry_cell_setting 'triclinic'
loop_
_space_group_symop_operation_xyz
x,y,z
-x,-y,-z
loop_
_atom_site_type_symbol
_atom_site_label
_atom_site_fract_x
_atom_site_fract_y
_atom_site_fract_z
Si Si1 0.684893 0.692346 0.440102
Si Si2 0.620056 0.160410 0.068066
Si Si3 0.548769 0.039068 0.587728
Si Si4 0.031466 0.318063 0.167647
Si Si5 0.746097 0.984237 0.087119
Si Si6 0.843731 0.422197 0.497010
Si Si7 0.067495 0.705361 0.194956
Si Si8 0.741312 0.810200 0.648582
O O1 0.500000 0.500000 0.500000
O O2 0.765832 0.821165 0.533568
O O3 0.856162 0.630776 0.272864
O O4 0.634543 0.858289 0.481668
O O5 0.474465 0.264353 0.236165
O O6 0.672866 0.038953 0.064523
O O7 0.801769 0.313153 0.974276
O O8 0.500000 0.000000 0.000000
O O9 0.400096 0.033419 0.751810
O O10 0.685968 0.278361 0.596708
O O11 0.500000 0.000000 0.500000
O O12 0.092107 0.563242 0.200317
O O13 0.902840 0.299264 0.325675
O O14 0.188809 0.223173 0.049000
O O15 0.918979 0.178006 0.097083
O O16 0.802283 0.621778 0.567142
O O17 0.000000 0.500000 0.500000
O O18 0.149758 0.960536 0.277627
#
# Coordination Sequence:
#
# PCOD9050860 Si02
#       8
#     2   2   2   2   2   2   2   2
#     4  12  24  43  73 101 136 183 241 301 348 422
#     4  10  25  44  70 101 142 189 237 291 357 432
#     4  12  25  45  72 102 138 188 236 290 365 420
#     4  11  26  45  70 105 145 190 237 297 365 427
#     4  11  25  49  69 103 152 181 238 306 353 437
#     4  12  27  43  71 108 144 187 241 296 356 431
#     4  11  25  45  71 101 138 188 237 289 363 424
#     4  11  24  47  68 100 146 184 241 298 352 426
#
# _framework density 21.510255000000001
#
# number of rings (size 3 to 8) (size 9 to 14) (size 15 to 20)
#    0.000    0.750    3.750    2.625    8.750    0.500 
#    0.000    3.125    0.000    0.000    0.000    0.000 
#    0.000    0.000    0.000    0.000    0.000    0.000 
#
# Total GULP energy -89374.172354 kJ/mol
# GULP energy per Si atom -5585.885772 kJ/mol
# Density = 2.146130 g / cm^3
# Si number density = 21.510255 Si / 1000 Ang^3
#
#
#
# Elastic Constant Matrix: (Units=GPa)
#
#
# Indices 1 2 3 4 5 6 
#
# 1 158.8073 34.8600 40.0407 -0.7983 -17.6973 -32.0906
# 2 34.8600 54.7432 17.9236 -10.6300 -6.0031 -8.2844
# 3 40.0407 17.9236 113.3643 -20.3691 -26.6070 -16.0852
# 4 -0.7983 -10.6300 -20.3691 44.5959 -3.2281 -4.8618
# 5 -17.6973 -6.0031 -26.6070 -3.2281 37.7000 1.3048
# 6 -32.0906 -8.2844 -16.0852 -4.8618 1.3048 42.9521
#
#
#
# Elastic Compliance Matrix: (Units=1/GPa)
#
#
# Indices 1 2 3 4 5 6 
#
# 1 0.008872 -0.004333 -0.001310 -0.000744 0.002308 0.005148
# 2 -0.004333 0.022637 -0.000484 0.005380 0.001638 0.001507
# 3 -0.001310 -0.000484 0.013462 0.007172 0.009268 0.004500
# 4 -0.000744 0.005380 0.007172 0.028198 0.007771 0.006123
# 5 0.002308 0.001638 0.009268 0.007771 0.034891 0.005331
# 6 0.005148 0.001507 0.004500 0.006123 0.005331 0.029635
#
#
# Mechanical properties :
#
#
# Convention : Reuss Voigt Hill
#
# Bulk Modulus (GPa) = 30.56423 56.95148 43.75785
# Shear Modulus (GPa) = 31.08370 40.65561 35.86966
#
# Velocity S-wave (km/s) = 3.80552 4.35220 4.08801
# Velocity P-wave (km/s) = 5.79218 7.19648 6.53218
#
# Compressibility (1/GPa) = 0.03271799
#
# Stress axis : x y z
#
# Youngs Moduli (GPa) = 112.71188 44.17521 74.28042
#
# Poissons Ratio (x) = 0.19142 0.09731
# Poissons Ratio (y) = 0.48839 0.03593
# Poissons Ratio (z) = 0.14766 0.02137
#
# Static dielectric constant tensor:
#      x y z
#    x 1.731790 0.026280 0.013460 
#    y 0.026280 1.757580 -0.013030 
#    z 0.013460 -0.013030 1.783470 
# 
# From -- ./inp_files/244575.got.cif
#   From: 2010.05.17/outbox.cif.g08.bks.cpg/sg2_123_cif.got.tgz:244575.got - 2010.06.03 11:33:40.
