data_PCOD9050493
_publ_section_title
;
Structure prediction by ZEFSAII (Michael W. Deem and Ramdas Pophale) SiO2 
 PCOD9050493
Probable space group: P -1
;
_chemical_formula_sum "Si O2"
_cell_formula_units_Z 12
_cell_length_a 20.286928
_cell_length_b 16.558909
_cell_length_c 5.391275
_cell_angle_alpha 80.229994
_cell_angle_beta 88.458067
_cell_angle_gamma 18.992441
_cell_volume 528.107362
_symmetry_space_group_name_H-M "P -1"
_symmetry_group_IT_number 2
_symmetry_cell_setting 'triclinic'
loop_
_space_group_symop_operation_xyz
x,y,z
-x,-y,-z
loop_
_atom_site_type_symbol
_atom_site_label
_atom_site_fract_x
_atom_site_fract_y
_atom_site_fract_z
Si Si1 0.063813 0.875551 0.807871
Si Si2 0.216347 0.239447 0.938548
Si Si3 0.117523 0.186724 0.777299
Si Si4 0.284609 0.846793 0.233843
Si Si5 0.365589 0.212867 0.604444
Si Si6 0.551815 0.319767 0.195534
O O1 0.326746 0.550685 0.985424
O O2 0.000000 0.000000 0.500000
O O3 0.927472 0.953596 0.771257
O O4 0.000000 0.000000 0.000000
O O5 0.169842 0.220332 0.767393
O O6 0.263303 0.270174 0.784406
O O7 0.000000 0.500000 0.000000
O O8 0.448091 0.950053 0.211379
O O9 0.853799 0.484978 0.639780
O O10 0.253564 0.979875 0.656363
O O11 0.217492 0.019952 0.089824
O O12 0.462774 0.630422 0.549655
O O13 0.360163 0.727153 0.013628
O O14 0.500000 0.000000 0.500000
#
# Coordination Sequence:
#
# PCOD9050493 Si02
#       6
#     2   2   2   2   2   2
#     4  12  26  45  75 103 137 176 227 280 340 421
#     4  11  24  41  66  98 135 180 237 285 347 392
#     4  10  25  42  65  95 139 180 224 289 329 417
#     4  10  25  45  68 102 137 179 228 272 355 397
#     4  11  24  40  65  96 131 180 232 284 338 400
#     4  10  25  45  68 101 137 181 222 280 349 399
#
# _framework density 22.722653000000001
#
# number of rings (size 3 to 8) (size 9 to 14) (size 15 to 20)
#    1.000    0.333    1.667    2.500    2.333    8.000 
#    0.000    0.000    0.000    0.000    0.000    0.000 
#    0.000    0.000    0.000    0.000    0.000    0.000 
#
# Total GULP energy -66993.732504 kJ/mol
# GULP energy per Si atom -5582.811042 kJ/mol
# Density = 2.267094 g / cm^3
# Si number density = 22.722653 Si / 1000 Ang^3
#
#
#
# Elastic Constant Matrix: (Units=GPa)
#
#
# Indices 1 2 3 4 5 6 
#
# 1 55.8171 9.2860 6.7918 -1.3976 0.7787 -22.0236
# 2 9.2860 116.6787 33.8184 -9.7972 -0.4245 -9.6815
# 3 6.7918 33.8184 137.5941 -1.0856 8.6266 -6.9803
# 4 -1.3976 -9.7972 -1.0856 47.5966 -12.0621 3.7485
# 5 0.7787 -0.4245 8.6266 -12.0621 33.0989 -3.3956
# 6 -22.0236 -9.6815 -6.9803 3.7485 -3.3956 43.9190
#
#
#
# Elastic Compliance Matrix: (Units=1/GPa)
#
#
# Indices 1 2 3 4 5 6 
#
# 1 0.022455 -0.000768 -0.000398 -0.000224 0.000622 0.011095
# 2 -0.000768 0.009614 -0.002348 0.002231 0.001700 0.001302
# 3 -0.000398 -0.002348 0.008031 -0.000960 -0.002417 0.000455
# 4 -0.000224 0.002231 -0.000960 0.023767 0.008831 -0.001119
# 5 0.000622 0.001700 -0.002417 0.008831 0.034293 0.002200
# 6 0.011095 0.001302 0.000455 -0.001119 0.002200 0.028958
#
#
# Mechanical properties :
#
#
# Convention : Reuss Voigt Hill
#
# Bulk Modulus (GPa) = 30.23536 45.54248 37.88892
# Shear Modulus (GPa) = 34.44247 42.26916 38.35582
#
# Velocity S-wave (km/s) = 3.89752 4.31771 4.11298
# Velocity P-wave (km/s) = 5.79563 6.70396 6.26628
#
# Compressibility (1/GPa) = 0.03307386
#
# Stress axis : x y z
#
# Youngs Moduli (GPa) = 44.53299 104.01785 124.50978
#
# Poissons Ratio (x) = 0.07986 0.04951
# Poissons Ratio (y) = 0.03419 0.29234
# Poissons Ratio (z) = 0.01771 0.24423
#
# Static dielectric constant tensor:
#      x y z
#    x 2.167390 0.275640 -0.042690 
#    y 0.275640 2.110390 0.001270 
#    z -0.042690 0.001270 1.937070 
# 
# From -- ./inp_files/119692.got.cif
#   From: 2010.05.17/outbox.cif.g08.bks.cpg/sg2_60_cif.got.tgz:119692.got - 2010.06.03 11:33:40.
