data_PCOD9050677
_publ_section_title
;
Structure prediction by ZEFSAII (Michael W. Deem and Ramdas Pophale) SiO2 
 PCOD9050677
Probable space group: P -1
;
_chemical_formula_sum "Si O2"
_cell_formula_units_Z 16
_cell_length_a 11.394014
_cell_length_b 9.218857
_cell_length_c 14.511334
_cell_angle_alpha 73.414391
_cell_angle_beta 39.268388
_cell_angle_gamma 54.327106
_cell_volume 741.775842
_symmetry_space_group_name_H-M "P -1"
_symmetry_group_IT_number 2
_symmetry_cell_setting 'triclinic'
loop_
_space_group_symop_operation_xyz
x,y,z
-x,-y,-z
loop_
_atom_site_type_symbol
_atom_site_label
_atom_site_fract_x
_atom_site_fract_y
_atom_site_fract_z
Si Si1 0.526715 0.009404 0.089854
Si Si2 0.093458 0.118177 0.458474
Si Si3 0.295066 0.139163 0.522808
Si Si4 0.145373 0.778497 0.929431
Si Si5 0.004726 0.591269 0.186178
Si Si6 0.990387 0.368382 0.101908
Si Si7 0.594920 0.618541 0.897860
Si Si8 0.684715 0.556677 0.655228
O O1 0.298503 0.073734 0.273765
O O2 0.584679 0.158102 0.045737
O O3 0.500000 0.000000 0.000000
O O4 0.744026 0.806894 0.022765
O O5 0.208083 0.072898 0.502061
O O6 0.873719 0.341559 0.546996
O O7 0.000000 0.000000 0.500000
O O8 0.335077 0.279862 0.420848
O O9 0.092554 0.274538 0.691886
O O10 0.500000 0.000000 0.500000
O O11 0.416573 0.639355 0.812782
O O12 0.133828 0.720977 0.842731
O O13 0.023268 0.709930 0.076820
O O14 0.000000 0.000000 0.000000
O O15 0.888365 0.497893 0.231951
O O16 0.253180 0.413842 0.100558
O O17 0.000000 0.500000 0.000000
O O18 0.746746 0.554239 0.724698
O O19 0.500000 0.500000 0.000000
#
# Coordination Sequence:
#
# PCOD9050677 Si02
#       8
#     2   2   2   2   2   2   2   2
#     4  12  26  46  74 106 145 193 254 309 371 453
#     4  12  30  48  76 112 153 201 254 313 383 450
#     4  12  27  49  75 107 153 201 247 310 387 455
#     4  11  24  44  72 110 146 193 249 308 369 443
#     4  11  23  42  70 102 137 192 245 294 371 437
#     4  10  25  43  71 100 146 188 246 302 372 434
#     4  12  23  42  74 105 136 185 249 303 357 435
#     4  12  25  49  74 105 152 195 246 309 375 449
#
# _framework density 21.569859999999998
#
# number of rings (size 3 to 8) (size 9 to 14) (size 15 to 20)
#    0.000    0.500    5.000    2.625    8.750    0.000 
#    2.250    1.250    0.000    0.000    0.000    0.000 
#    0.000    0.000    0.000    0.000    0.000    0.000 
#
# Total GULP energy -89101.132980 kJ/mol
# GULP energy per Si atom -5568.820811 kJ/mol
# Density = 2.152077 g / cm^3
# Si number density = 21.569860 Si / 1000 Ang^3
#
#
#
# Elastic Constant Matrix: (Units=GPa)
#
#
# Indices 1 2 3 4 5 6 
#
# 1 146.4639 70.2071 28.9179 9.8060 13.1418 11.5645
# 2 70.2071 169.4435 40.4743 10.2481 3.4704 -8.5095
# 3 28.9179 40.4743 58.1791 1.8458 17.5021 8.3493
# 4 9.8060 10.2481 1.8458 36.2035 -6.1888 -5.0735
# 5 13.1418 3.4704 17.5021 -6.1888 29.4745 6.3009
# 6 11.5645 -8.5095 8.3493 -5.0735 6.3009 41.9141
#
#
#
# Elastic Compliance Matrix: (Units=1/GPa)
#
#
# Indices 1 2 3 4 5 6 
#
# 1 0.009415 -0.003690 -0.000617 -0.002457 -0.003265 -0.003031
# 2 -0.003690 0.008955 -0.005883 -0.000182 0.003300 0.003490
# 3 -0.000617 -0.005883 0.026664 -0.002626 -0.014459 -0.004480
# 4 -0.002457 -0.000182 -0.002626 0.030394 0.008289 0.003597
# 5 -0.003265 0.003300 -0.014459 0.008289 0.045621 -0.001404
# 6 -0.003031 0.003490 -0.004480 0.003597 -0.001404 0.026942
#
#
# Mechanical properties :
#
#
# Convention : Reuss Voigt Hill
#
# Bulk Modulus (GPa) = 40.56499 72.58722 56.57610
# Shear Modulus (GPa) = 28.31416 37.15092 32.73254
#
# Velocity S-wave (km/s) = 3.62701 4.15463 3.89975
# Velocity P-wave (km/s) = 6.03220 7.53258 6.82375
#
# Compressibility (1/GPa) = 0.02465180
#
# Stress axis : x y z
#
# Youngs Moduli (GPa) = 106.21113 111.67288 37.50361
#
# Poissons Ratio (x) = 0.41211 0.02316
# Poissons Ratio (y) = 0.39195 0.22064
# Poissons Ratio (z) = 0.06559 0.65700
#
# Static dielectric constant tensor:
#      x y z
#    x 1.967550 0.013540 0.042350 
#    y 0.013540 1.838310 0.021640 
#    z 0.042350 0.021640 1.823860 
# 
# From -- ./inp_files/515307.got.cif
#   From: 2010.05.17/outbox.cif.g08.bks.cpg/sg2_258_cif.got.tgz:515307.got - 2010.06.03 11:33:40.
