data_PCOD9050908
_publ_section_title
;
Structure prediction by ZEFSAII (Michael W. Deem and Ramdas Pophale) SiO2 
 PCOD9050908
Probable space group: P -1
;
_chemical_formula_sum "Si O2"
_cell_formula_units_Z 16
_cell_length_a 8.968661
_cell_length_b 20.462213
_cell_length_c 11.898581
_cell_angle_alpha 37.084910
_cell_angle_beta 37.681211
_cell_angle_gamma 39.699881
_cell_volume 746.282784
_symmetry_space_group_name_H-M "P -1"
_symmetry_group_IT_number 2
_symmetry_cell_setting 'triclinic'
loop_
_space_group_symop_operation_xyz
x,y,z
-x,-y,-z
loop_
_atom_site_type_symbol
_atom_site_label
_atom_site_fract_x
_atom_site_fract_y
_atom_site_fract_z
Si Si1 0.756399 0.814182 0.804831
Si Si2 0.277645 0.623081 0.826745
Si Si3 0.741920 0.056861 0.480591
Si Si4 0.243975 0.182727 0.466159
Si Si5 0.012293 0.840390 0.987749
Si Si6 0.513246 0.200523 0.644008
Si Si7 0.513435 0.642290 0.902956
Si Si8 0.219354 0.905167 0.134395
O O1 0.752559 0.803512 0.688299
O O2 0.969325 0.697826 0.890219
O O3 0.856385 0.920021 0.620911
O O4 0.467203 0.857692 0.969653
O O5 0.430693 0.682460 0.573563
O O6 0.365745 0.635227 0.885075
O O7 0.358050 0.485822 0.946788
O O8 0.504746 0.082282 0.496994
O O9 0.614815 0.123285 0.577639
O O10 0.937489 0.105275 0.234435
O O11 0.273196 0.300498 0.332758
O O12 0.994817 0.151081 0.686890
O O13 0.291131 0.735381 0.986072
O O14 0.917826 0.953307 0.971178
O O15 0.787350 0.788229 0.182206
O O16 0.662121 0.137549 0.753526
#
# Coordination Sequence:
#
# PCOD9050908 Si02
#       8
#     2   2   2   2   2   2   2   2
#     4  12  25  43  68  97 140 173 214 270 330 396
#     4  11  23  47  69  94 127 178 227 273 315 383
#     4  11  24  41  67 100 137 171 213 272 337 387
#     4  11  24  45  64  98 139 173 211 270 336 396
#     4  11  22  40  66 101 132 164 216 266 329 388
#     4  12  23  41  70 101 129 171 220 279 322 388
#     4  10  25  44  71  93 129 177 224 270 326 380
#     4  12  26  38  69 106 132 169 216 269 339 398
#
# _framework density 21.439595000000001
#
# number of rings (size 3 to 8) (size 9 to 14) (size 15 to 20)
#    0.000    0.750    6.250    1.500    3.500    4.500 
#    0.000    0.625    0.000    0.000    0.000    0.000 
#    0.000    0.000    0.000    0.000    0.000    0.000 
#
# Total GULP energy -89517.530036 kJ/mol
# GULP energy per Si atom -5594.845627 kJ/mol
# Density = 2.139080 g / cm^3
# Si number density = 21.439595 Si / 1000 Ang^3
#
#
#
# Elastic Constant Matrix: (Units=GPa)
#
#
# Indices 1 2 3 4 5 6 
#
# 1 67.0795 37.0528 37.2968 -1.2871 3.8624 -3.7092
# 2 37.0528 142.8279 67.3048 -24.4225 -9.9272 -22.4723
# 3 37.2968 67.3048 94.2532 14.5090 -17.2779 -13.1328
# 4 -1.2871 -24.4225 14.5090 45.8927 -0.1041 3.7492
# 5 3.8624 -9.9272 -17.2779 -0.1041 47.1681 0.0533
# 6 -3.7092 -22.4723 -13.1328 3.7492 0.0533 15.9729
#
#
#
# Elastic Compliance Matrix: (Units=1/GPa)
#
#
# Indices 1 2 3 4 5 6 
#
# 1 0.021216 -0.001940 -0.009354 0.003013 -0.005558 -0.006182
# 2 -0.001940 0.016441 -0.011335 0.011404 -0.000520 0.010686
# 3 -0.009354 -0.011335 0.027482 -0.015627 0.008404 0.008117
# 4 0.003013 0.011404 -0.015627 0.033193 -0.003493 -0.003884
# 5 -0.005558 -0.000520 0.008404 -0.003493 0.024611 0.005625
# 6 -0.006182 0.010686 0.008117 -0.003884 0.005625 0.083771
#
#
# Mechanical properties :
#
#
# Convention : Reuss Voigt Hill
#
# Bulk Modulus (GPa) = 50.29652 65.27439 57.78545
# Shear Modulus (GPa) = 19.33493 32.64050 25.98772
#
# Velocity S-wave (km/s) = 3.00631 3.90608 3.48535
# Velocity P-wave (km/s) = 5.96331 7.13128 6.57329
#
# Compressibility (1/GPa) = 0.01988209
#
# Stress axis : x y z
#
# Youngs Moduli (GPa) = 47.13354 60.82309 36.38730
#
# Poissons Ratio (x) = 0.11799 0.34038
# Poissons Ratio (y) = 0.09143 0.41243
# Poissons Ratio (z) = 0.44090 0.68940
#
# Static dielectric constant tensor:
#      x y z
#    x 1.836520 0.002990 -0.015610 
#    y 0.002990 1.784810 -0.002300 
#    z -0.015610 -0.002300 1.782310 
# 
# From -- ./inp_files/404671.got.cif
#   From: 2010.05.17/outbox.cif.g08.bks.cpg/sg2_203_cif.got.tgz:404671.got - 2010.06.03 11:33:40.
