data_PCOD9050032
_publ_section_title
;
Structure prediction by ZEFSAII (Michael W. Deem and Ramdas Pophale) SiO2 
 PCOD9050032
Probable space group: P -1
;
_chemical_formula_sum "Si O2"
_cell_formula_units_Z 12
_cell_length_a 7.173812
_cell_length_b 12.281089
_cell_length_c 5.720452
_cell_angle_alpha 113.896663
_cell_angle_beta 108.881030
_cell_angle_gamma 87.618530
_cell_volume 433.646782
_symmetry_space_group_name_H-M "P -1"
_symmetry_group_IT_number 2
_symmetry_cell_setting 'triclinic'
loop_
_space_group_symop_operation_xyz
x,y,z
-x,-y,-z
loop_
_atom_site_type_symbol
_atom_site_label
_atom_site_fract_x
_atom_site_fract_y
_atom_site_fract_z
Si Si1 0.208824 0.233483 0.557287
Si Si2 0.671704 0.101328 0.221003
Si Si3 0.403756 0.683881 0.911901
Si Si4 0.799417 0.546488 0.561431
Si Si5 0.014919 0.708137 0.096204
Si Si6 0.147105 0.948396 0.241771
O O1 0.239119 0.323268 0.434019
O O2 0.005279 0.274836 0.621408
O O3 0.178447 0.091592 0.395157
O O4 0.397138 0.270924 0.831569
O O5 0.606692 0.229612 0.239520
O O6 0.728005 0.083782 0.500093
O O7 0.811628 0.077880 0.035466
O O8 0.500000 0.000000 0.000000
O O9 0.372923 0.550613 0.679611
O O10 0.218857 0.695130 0.028566
O O11 0.000000 0.500000 0.500000
O O12 0.867290 0.588272 0.883929
O O13 0.965039 0.844064 0.121327
#
# Coordination Sequence:
#
# PCOD9050032 Si02
#       6
#     2   2   2   2   2   2
#     4  12  25  45  75 107 144 197 251 305 372 450
#     4  11  23  46  75 114 150 195 244 313 375 441
#     4  10  24  48  73 105 147 194 251 305 370 447
#     4  10  25  48  69 106 147 193 253 306 372 441
#     4  10  26  46  69 108 145 195 237 317 366 443
#     4  11  26  44  77 112 152 193 251 306 378 444
#
# _framework density 27.672294000000001
#
# number of rings (size 3 to 8) (size 9 to 14) (size 15 to 20)
#    0.000    1.333    1.667    1.500   11.667    4.000 
#    3.000    0.000    0.000    0.000    0.000    0.000 
#    0.000    0.000    0.000    0.000    0.000    0.000 
#
# Total GULP energy -66943.836303 kJ/mol
# GULP energy per Si atom -5578.653025 kJ/mol
# Density = 2.760931 g / cm^3
# Si number density = 27.672294 Si / 1000 Ang^3
#
#
#
# Elastic Constant Matrix: (Units=GPa)
#
#
# Indices 1 2 3 4 5 6 
#
# 1 85.0810 8.1836 28.5604 3.7862 -1.5011 5.7802
# 2 8.1836 142.7106 85.3590 14.5552 8.9971 7.5746
# 3 28.5604 85.3590 185.6638 22.9339 15.4390 -9.7340
# 4 3.7862 14.5552 22.9339 71.1602 -5.5459 9.3533
# 5 -1.5011 8.9971 15.4390 -5.5459 63.5190 11.6672
# 6 5.7802 7.5746 -9.7340 9.3533 11.6672 30.8580
#
#
#
# Elastic Compliance Matrix: (Units=1/GPa)
#
#
# Indices 1 2 3 4 5 6 
#
# 1 0.012952 0.001085 -0.002974 0.000783 0.001777 -0.004540
# 2 0.001085 0.010242 -0.005206 0.000198 0.000719 -0.004692
# 3 -0.002974 -0.005206 0.009201 -0.002870 -0.003062 0.006765
# 4 0.000783 0.000198 -0.002870 0.016121 0.003434 -0.007285
# 5 0.001777 0.000719 -0.003062 0.003434 0.018473 -0.009501
# 6 -0.004540 -0.004692 0.006765 -0.007285 -0.009501 0.042343
#
#
# Mechanical properties :
#
#
# Convention : Reuss Voigt Hill
#
# Bulk Modulus (GPa) = 54.92690 73.07350 64.00020
# Shear Modulus (GPa) = 38.58310 52.53092 45.55701
#
# Velocity S-wave (km/s) = 3.73807 4.36170 4.06187
# Velocity P-wave (km/s) = 6.20669 7.19930 6.72135
#
# Compressibility (1/GPa) = 0.01820602
#
# Stress axis : x y z
#
# Youngs Moduli (GPa) = 77.20608 97.63400 108.68507
#
# Poissons Ratio (x) = -0.10594 0.32320
# Poissons Ratio (y) = -0.08377 0.56582
# Poissons Ratio (z) = 0.22959 0.50829
#
# Static dielectric constant tensor:
#      x y z
#    x 2.385550 -0.088310 -0.014680 
#    y -0.088310 2.264970 -0.073960 
#    z -0.014680 -0.073960 2.360760 
# 
# From -- ./inp_files/25913.got.cif
#   From: 2010.05.17/outbox.cif.g08.bks.cpg/sg2_13_cif.got.tgz:25913.got - 2010.06.03 11:33:40.
