data_PCOD9050697
_publ_section_title
;
Structure prediction by ZEFSAII (Michael W. Deem and Ramdas Pophale) SiO2 
 PCOD9050697
Probable space group: P -1
;
_chemical_formula_sum "Si O2"
_cell_formula_units_Z 14
_cell_length_a 15.155531
_cell_length_b 26.663808
_cell_length_c 14.609430
_cell_angle_alpha 162.062981
_cell_angle_beta 160.283362
_cell_angle_gamma 19.953590
_cell_volume 554.703406
_symmetry_space_group_name_H-M "P -1"
_symmetry_group_IT_number 2
_symmetry_cell_setting 'triclinic'
loop_
_space_group_symop_operation_xyz
x,y,z
-x,-y,-z
loop_
_atom_site_type_symbol
_atom_site_label
_atom_site_fract_x
_atom_site_fract_y
_atom_site_fract_z
Si Si1 0.554448 0.574052 0.898926
Si Si2 0.593356 0.386180 0.800335
Si Si3 0.114182 0.933560 0.133376
Si Si4 0.838699 0.735208 0.335634
Si Si5 0.609795 0.634451 0.761828
Si Si6 0.751657 0.832048 0.904948
Si Si7 0.540904 0.999165 0.795269
O O1 0.620352 0.489123 0.915458
O O2 0.605365 0.421452 0.606048
O O3 0.230440 0.732713 0.859591
O O4 0.721463 0.692999 0.241398
O O5 0.333409 0.328669 0.430725
O O6 0.500000 0.500000 0.000000
O O7 0.912590 0.222212 0.840796
O O8 0.327859 0.931571 0.420486
O O9 0.136315 0.080353 0.339891
O O10 0.803111 0.991882 0.975256
O O11 0.139780 0.563053 0.317337
O O12 0.614178 0.721506 0.016541
O O13 0.643093 0.785422 0.992009
O O14 0.686741 0.880537 0.819290
O O15 0.500000 0.000000 0.000000
#
# Coordination Sequence:
#
# PCOD9050697 Si02
#       7
#     2   2   2   2   2   2   2
#     4  12  26  43  75 103 143 187 244 290 356 424
#     4  12  28  48  75 108 149 192 244 303 367 427
#     4  11  27  45  71 105 141 190 230 292 355 438
#     4  10  25  45  71 103 146 186 236 290 360 425
#     4  10  25  43  72 102 140 183 237 287 355 422
#     4  12  26  48  73 107 143 190 249 308 357 430
#     4  11  25  47  72  99 147 186 237 290 369 414
#
# _framework density 25.238710999999999
#
# number of rings (size 3 to 8) (size 9 to 14) (size 15 to 20)
#    0.000    0.857    0.000    5.143   16.000    0.571 
#    0.000    0.000    0.000    0.000    0.000    0.000 
#    0.000    0.000    0.000    0.000    0.000    0.000 
#
# Total GULP energy -78249.656128 kJ/mol
# GULP energy per Si atom -5589.261152 kJ/mol
# Density = 2.518127 g / cm^3
# Si number density = 25.238711 Si / 1000 Ang^3
#
#
#
# Elastic Constant Matrix: (Units=GPa)
#
#
# Indices 1 2 3 4 5 6 
#
# 1 121.4848 6.1634 61.0682 16.5610 19.2917 33.8434
# 2 6.1634 9.4010 89.5314 49.1249 19.4208 42.3463
# 3 61.0682 89.5314 66.9537 -50.0222 -22.4238 -24.3863
# 4 16.5610 49.1249 -50.0222 6.9781 -19.0586 -10.9499
# 5 19.2917 19.4208 -22.4238 -19.0586 19.8088 3.1445
# 6 33.8434 42.3463 -24.3863 -10.9499 3.1445 40.3615
#
#
#
# Elastic Compliance Matrix: (Units=1/GPa)
#
#
# Indices 1 2 3 4 5 6 
#
# 1 0.009091 -0.005004 -0.000547 0.002936 -0.001457 -0.001793
# 2 -0.005004 0.008015 0.003749 0.008950 0.009917 -0.000292
# 3 -0.000547 0.003749 0.004401 -0.005601 -0.003218 -0.002084
# 4 0.002936 0.008950 -0.005601 0.017171 0.000227 -0.010596
# 5 -0.001457 0.009917 -0.003218 0.000227 0.041019 -0.014261
# 6 -0.001793 -0.000292 -0.002084 -0.010596 -0.014261 0.023564
#
#
# Mechanical properties :
#
#
# Convention : Reuss Voigt Hill
#
# Bulk Modulus (GPa) = 55.86437 56.81841 56.34139
# Shear Modulus (GPa) = 44.31291 16.16812 30.24051
#
# Velocity S-wave (km/s) = 4.19471 2.53377 3.46523
# Velocity P-wave (km/s) = 6.75598 5.57864 6.19534
#
# Compressibility (1/GPa) = 0.01790050
#
# Stress axis : x y z
#
# Youngs Moduli (GPa) = 109.99687 124.76795 227.22327
#
# Poissons Ratio (x) = 0.62439 0.12438
# Poissons Ratio (y) = 0.55047 -0.85175
# Poissons Ratio (z) = 0.06021 -0.46769
#
# Static dielectric constant tensor:
#      x y z
#    x 2.059720 -0.129650 -0.045750 
#    y -0.129650 2.125430 0.009620 
#    z -0.045750 0.009620 2.043640 
# 
# From -- ./inp_files/535740.got.cif
#   From: 2010.05.17/outbox.cif.g08.bks.cpg/sg2_268_cif.got.tgz:535740.got - 2010.06.03 11:33:40.
