data_PCOD9050527
_publ_section_title
;
Structure prediction by ZEFSAII (Michael W. Deem and Ramdas Pophale) SiO2 
 PCOD9050527
Probable space group: P -1
;
_chemical_formula_sum "Si O2"
_cell_formula_units_Z 16
_cell_length_a 8.298204
_cell_length_b 17.842056
_cell_length_c 11.114633
_cell_angle_alpha 127.882215
_cell_angle_beta 139.366026
_cell_angle_gamma 79.641412
_cell_volume 702.601511
_symmetry_space_group_name_H-M "P -1"
_symmetry_group_IT_number 2
_symmetry_cell_setting 'triclinic'
loop_
_space_group_symop_operation_xyz
x,y,z
-x,-y,-z
loop_
_atom_site_type_symbol
_atom_site_label
_atom_site_fract_x
_atom_site_fract_y
_atom_site_fract_z
Si Si1 0.606990 0.587287 0.968763
Si Si2 0.804193 0.081814 0.183244
Si Si3 0.388579 0.955479 0.225525
Si Si4 0.821961 0.600481 0.830029
Si Si5 0.984145 0.141907 0.857511
Si Si6 0.328559 0.174461 0.745096
Si Si7 0.557771 0.224997 0.174661
Si Si8 0.063694 0.472037 0.706978
O O1 0.636914 0.705886 0.126547
O O2 0.782279 0.562284 0.140688
O O3 0.754505 0.591022 0.927275
O O4 0.257250 0.500277 0.722201
O O5 0.804494 0.197029 0.291659
O O6 0.063542 0.096001 0.426283
O O7 0.760980 0.046451 0.985457
O O8 0.500000 0.000000 0.000000
O O9 0.186025 0.938856 0.205081
O O10 0.410300 0.845240 0.148839
O O11 0.727628 0.065368 0.535726
O O12 0.500000 0.500000 0.500000
O O13 0.035963 0.567984 0.853451
O O14 0.944120 0.730260 0.990072
O O15 0.323739 0.176211 0.100615
O O16 0.315829 0.156127 0.863487
O O17 0.732487 0.359816 0.387211
#
# Coordination Sequence:
#
# PCOD9050527 Si02
#       8
#     2   2   2   2   2   2   2   2
#     4  11  24  43  69  99 139 176 232 284 340 406
#     4  11  23  40  67  99 128 172 222 271 338 401
#     4  10  25  42  69  98 137 176 218 282 336 405
#     4  12  24  42  69  97 135 186 227 280 346 398
#     4  11  22  45  64  97 137 174 227 275 338 406
#     4  11  21  43  67  96 128 172 223 270 337 400
#     4  11  22  42  69  94 135 174 220 280 331 400
#     4  11  24  44  65 103 137 178 232 285 335 407
#
# _framework density 22.772508999999999
#
# number of rings (size 3 to 8) (size 9 to 14) (size 15 to 20)
#    0.000    1.000    3.750    2.625    0.000    6.000 
#    0.000    8.125    0.000    0.000    0.000    0.000 
#    0.000    0.000    0.000    0.000    0.000    0.000 
#
# Total GULP energy -89084.749343 kJ/mol
# GULP energy per Si atom -5567.796834 kJ/mol
# Density = 2.272068 g / cm^3
# Si number density = 22.772509 Si / 1000 Ang^3
#
#
#
# Elastic Constant Matrix: (Units=GPa)
#
#
# Indices 1 2 3 4 5 6 
#
# 1 85.8901 7.2693 31.2549 5.8556 9.5149 8.2443
# 2 7.2693 81.4308 17.8339 -9.4147 -10.5029 -10.5157
# 3 31.2549 17.8339 91.7018 -12.0438 -1.2367 10.2060
# 4 5.8556 -9.4147 -12.0438 41.9548 -3.4992 -4.8746
# 5 9.5149 -10.5029 -1.2367 -3.4992 27.8945 4.6958
# 6 8.2443 -10.5157 10.2060 -4.8746 4.6958 36.8210
#
#
#
# Elastic Compliance Matrix: (Units=1/GPa)
#
#
# Indices 1 2 3 4 5 6 
#
# 1 0.014918 -0.001844 -0.005184 -0.004767 -0.006229 -0.002266
# 2 -0.001844 0.014784 -0.002204 0.004008 0.005751 0.005043
# 3 -0.005184 -0.002204 0.014025 0.004107 0.002605 -0.003145
# 4 -0.004767 0.004008 0.004107 0.027546 0.006109 0.003941
# 5 -0.006229 0.005751 0.002605 0.006109 0.041384 -0.002154
# 6 -0.002266 0.005043 -0.003145 0.003941 -0.002154 0.030774
#
#
# Mechanical properties :
#
#
# Convention : Reuss Voigt Hill
#
# Bulk Modulus (GPa) = 39.58244 41.30432 40.44338
# Shear Modulus (GPa) = 29.35735 34.84503 32.10119
#
# Velocity S-wave (km/s) = 3.59438 3.91594 3.75860
# Velocity P-wave (km/s) = 5.88604 6.21476 6.05263
#
# Compressibility (1/GPa) = 0.02526373
#
# Stress axis : x y z
#
# Youngs Moduli (GPa) = 67.03447 67.64029 71.30212
#
# Poissons Ratio (x) = 0.12470 0.36961
# Poissons Ratio (y) = 0.12359 0.15716
# Poissons Ratio (z) = 0.34749 0.14909
#
# Static dielectric constant tensor:
#      x y z
#    x 2.225460 -0.128480 -0.035440 
#    y -0.128480 1.926140 0.015760 
#    z -0.035440 0.015760 1.874880 
# 
# From -- ./inp_files/404874.got.cif
#   From: 2010.05.17/outbox.cif.g08.bks.cpg/sg2_203_cif.got.tgz:404874.got - 2010.06.03 11:33:40.
