data_PCOD9050257
_publ_section_title
;
Structure prediction by ZEFSAII (Michael W. Deem and Ramdas Pophale) SiO2 
 PCOD9050257
Probable space group: P -1
;
_chemical_formula_sum "Si O2"
_cell_formula_units_Z 14
_cell_length_a 9.183907
_cell_length_b 5.574413
_cell_length_c 29.310278
_cell_angle_alpha 47.296039
_cell_angle_beta 149.426297
_cell_angle_gamma 122.670233
_cell_volume 556.961345
_symmetry_space_group_name_H-M "P -1"
_symmetry_group_IT_number 2
_symmetry_cell_setting 'triclinic'
loop_
_space_group_symop_operation_xyz
x,y,z
-x,-y,-z
loop_
_atom_site_type_symbol
_atom_site_label
_atom_site_fract_x
_atom_site_fract_y
_atom_site_fract_z
Si Si1 0.306570 0.543331 0.097826
Si Si2 0.113457 0.239524 0.942893
Si Si3 0.217154 0.866234 0.459986
Si Si4 0.403524 0.476497 0.913970
Si Si5 0.966766 0.898866 0.296739
Si Si6 0.391123 0.132322 0.567194
Si Si7 0.493821 0.586763 0.742999
O O1 0.535299 0.549766 0.119188
O O2 0.392459 0.290939 0.193758
O O3 0.000000 0.500000 0.000000
O O4 0.236463 0.920311 0.045734
O O5 0.237871 0.210601 0.928914
O O6 0.774987 0.341851 0.835139
O O7 0.293342 0.507590 0.980420
O O8 0.255700 0.472323 0.510923
O O9 0.989515 0.008069 0.341949
O O10 0.500000 0.000000 0.500000
O O11 0.211871 0.988870 0.495234
O O12 0.189982 0.818230 0.814156
O O13 0.769106 0.606033 0.286745
O O14 0.291807 0.811652 0.375441
O O15 0.426906 0.854397 0.651603
#
# Coordination Sequence:
#
# PCOD9050257 Si02
#       7
#     2   2   2   2   2   2   2
#     4  12  24  40  65  98 143 192 237 297 355 423
#     4  11  23  46  62  99 145 183 237 298 354 427
#     4  10  24  49  78 106 150 190 240 312 373 436
#     4  11  23  42  70  96 137 189 240 293 357 433
#     4  11  23  45  73 104 140 191 243 300 373 436
#     4  11  26  50  74 111 149 190 245 308 371 441
#     4  12  25  44  72 105 146 189 245 300 363 444
#
# _framework density 25.136392000000001
#
# number of rings (size 3 to 8) (size 9 to 14) (size 15 to 20)
#    0.000    0.857    4.286    3.429    0.000    6.857 
#    2.571    0.000    0.000    0.000    0.000    0.000 
#    0.000    0.000    0.000    0.000    0.000    0.000 
#
# Total GULP energy -78189.815464 kJ/mol
# GULP energy per Si atom -5584.986819 kJ/mol
# Density = 2.507918 g / cm^3
# Si number density = 25.136392 Si / 1000 Ang^3
#
#
#
# Elastic Constant Matrix: (Units=GPa)
#
#
# Indices 1 2 3 4 5 6 
#
# 1 146.7800 27.9278 42.5856 -2.9440 -17.5284 3.1355
# 2 27.9278 90.0669 40.6560 4.6005 -10.6433 -1.4084
# 3 42.5856 40.6560 129.1238 -1.5107 -27.1298 1.7768
# 4 -2.9440 4.6005 -1.5107 36.5704 2.4676 -3.4487
# 5 -17.5284 -10.6433 -27.1298 2.4676 63.9161 -1.3754
# 6 3.1355 -1.4084 1.7768 -3.4487 -1.3754 39.5512
#
#
#
# Elastic Compliance Matrix: (Units=1/GPa)
#
#
# Indices 1 2 3 4 5 6 
#
# 1 0.007786 -0.001487 -0.001862 0.000619 0.001063 -0.000496
# 2 -0.001487 0.013373 -0.003678 -0.001920 0.000345 0.000604
# 3 -0.001862 -0.003678 0.010194 0.000492 0.003179 -0.000288
# 4 0.000619 -0.001920 0.000492 0.027935 -0.000971 0.002263
# 5 0.001063 0.000345 0.003179 -0.000971 0.017388 0.000305
# 6 -0.000496 0.000604 -0.000288 0.002263 0.000305 0.025565
#
#
# Mechanical properties :
#
#
# Convention : Reuss Voigt Hill
#
# Bulk Modulus (GPa) = 57.81273 65.36772 61.59022
# Shear Modulus (GPa) = 40.96242 44.99431 42.97836
#
# Velocity S-wave (km/s) = 4.04122 4.23544 4.13947
# Velocity P-wave (km/s) = 6.69513 7.06967 6.88495
#
# Compressibility (1/GPa) = 0.01729723
#
# Stress axis : x y z
#
# Youngs Moduli (GPa) = 128.43363 74.77895 98.09277
#
# Poissons Ratio (x) = 0.11123 0.18267
# Poissons Ratio (y) = 0.19104 0.36082
# Poissons Ratio (z) = 0.23917 0.27506
#
# Static dielectric constant tensor:
#      x y z
#    x 2.057960 -0.041020 0.031150 
#    y -0.041020 2.270790 0.061200 
#    z 0.031150 0.061200 2.035600 
# 
# From -- ./inp_files/323304.got.cif
#   From: 2010.05.17/outbox.cif.g08.bks.cpg/sg2_162_cif.got.tgz:323304.got - 2010.06.03 11:33:40.
