data_PCOD9050619
_publ_section_title
;
Structure prediction by ZEFSAII (Michael W. Deem and Ramdas Pophale) SiO2 
 PCOD9050619
Probable space group: P -1
;
_chemical_formula_sum "Si O2"
_cell_formula_units_Z 16
_cell_length_a 5.038610
_cell_length_b 9.687340
_cell_length_c 26.208972
_cell_angle_alpha 134.674690
_cell_angle_beta 59.523737
_cell_angle_gamma 97.868677
_cell_volume 731.920427
_symmetry_space_group_name_H-M "P -1"
_symmetry_group_IT_number 2
_symmetry_cell_setting 'triclinic'
loop_
_space_group_symop_operation_xyz
x,y,z
-x,-y,-z
loop_
_atom_site_type_symbol
_atom_site_label
_atom_site_fract_x
_atom_site_fract_y
_atom_site_fract_z
Si Si1 0.018365 0.727860 0.165637
Si Si2 0.794804 0.638689 0.871488
Si Si3 0.812513 0.712795 0.547102
Si Si4 0.851629 0.677884 0.326564
Si Si5 0.069633 0.956376 0.041835
Si Si6 0.883376 0.044242 0.354762
Si Si7 0.727906 0.729948 0.088585
Si Si8 0.120274 0.750375 0.421766
O O1 0.032511 0.514208 0.137508
O O2 0.378306 0.710392 0.105626
O O3 0.763745 0.788944 0.159530
O O4 0.959637 0.899080 0.260014
O O5 0.856069 0.480208 0.776929
O O6 0.918168 0.819866 0.885784
O O7 0.424851 0.769292 0.960197
O O8 0.440643 0.762334 0.578213
O O9 0.000000 0.500000 0.500000
O O10 0.836070 0.888641 0.629645
O O11 0.030224 0.701606 0.473386
O O12 0.506312 0.649366 0.344921
O O13 0.933827 0.674112 0.376585
O O14 0.793794 0.907995 0.371404
O O15 0.821214 0.881139 0.079444
O O16 0.000000 0.000000 0.000000
O O17 0.000000 0.500000 0.000000
O O18 0.000000 0.000000 0.500000
#
# Coordination Sequence:
#
# PCOD9050619 Si02
#       8
#     2   2   2   2   2   2   2   2
#     4  11  25  44  70  98 129 175 228 274 322 391
#     4  10  25  43  67  99 133 178 220 278 338 387
#     4  12  25  43  65  96 131 174 209 263 336 391
#     4  11  23  41  70  99 126 170 225 274 317 386
#     4  11  25  44  68  95 141 176 222 274 341 393
#     4  11  22  44  68  94 130 169 219 267 323 388
#     4  12  24  43  68  98 132 175 226 266 326 395
#     4  12  22  42  69  96 130 166 223 268 321 386
#
# _framework density 21.860299999999999
#
# number of rings (size 3 to 8) (size 9 to 14) (size 15 to 20)
#    0.000    0.750    3.750    3.375    5.250    2.000 
#    6.750    0.000    0.000    0.000    0.000    0.000 
#    0.000    0.000    0.000    0.000    0.000    0.000 
#
# Total GULP energy -89408.696822 kJ/mol
# GULP energy per Si atom -5588.043551 kJ/mol
# Density = 2.181054 g / cm^3
# Si number density = 21.860300 Si / 1000 Ang^3
#
#
#
# Elastic Constant Matrix: (Units=GPa)
#
#
# Indices 1 2 3 4 5 6 
#
# 1 68.5864 8.5568 6.7160 -0.9502 3.6579 -9.1250
# 2 8.5568 144.0976 32.5221 -6.0765 -0.9910 -13.1000
# 3 6.7160 32.5221 67.3693 -2.0626 7.0588 -5.1886
# 4 -0.9502 -6.0765 -2.0626 16.8792 -9.5222 -2.0825
# 5 3.6579 -0.9910 7.0588 -9.5222 32.2233 -14.7193
# 6 -9.1250 -13.1000 -5.1886 -2.0825 -14.7193 23.6246
#
#
#
# Elastic Compliance Matrix: (Units=1/GPa)
#
#
# Indices 1 2 3 4 5 6 
#
# 1 0.015664 0.000329 -0.001319 0.003893 0.003554 0.008500
# 2 0.000329 0.009299 -0.004343 0.009032 0.008681 0.010534
# 3 -0.001319 -0.004343 0.017371 -0.003534 -0.006382 -0.003391
# 4 0.003893 0.009032 -0.003534 0.095726 0.049444 0.044980
# 5 0.003554 0.008681 -0.006382 0.049444 0.071404 0.053631
# 6 0.008500 0.010534 -0.003391 0.044980 0.053631 0.088088
#
#
# Mechanical properties :
#
#
# Convention : Reuss Voigt Hill
#
# Bulk Modulus (GPa) = 31.57888 41.73815 36.65852
# Shear Modulus (GPa) = 15.68508 30.02932 22.85720
#
# Velocity S-wave (km/s) = 2.68155 3.71036 3.23709
# Velocity P-wave (km/s) = 4.90558 6.12293 5.54775
#
# Compressibility (1/GPa) = 0.03166673
#
# Stress axis : x y z
#
# Youngs Moduli (GPa) = 63.84255 107.54113 57.56659
#
# Poissons Ratio (x) = -0.03537 0.07592
# Poissons Ratio (y) = -0.02100 0.25004
# Poissons Ratio (z) = 0.08420 0.46710
#
# Static dielectric constant tensor:
#      x y z
#    x 1.137540 0.115480 -0.235940 
#    y 0.115480 1.757040 0.047140 
#    z -0.235940 0.047140 1.724000 
# 
# From -- ./inp_files/488689.got.cif
#   From: 2010.05.17/outbox.cif.g08.bks.cpg/sg2_245_cif.got.tgz:488689.got - 2010.06.03 11:33:40.
