data_PCOD9050097
_publ_section_title
;
Structure prediction by ZEFSAII (Michael W. Deem and Ramdas Pophale) SiO2 
 PCOD9050097
Probable space group: P -1
;
_chemical_formula_sum "Si O2"
_cell_formula_units_Z 14
_cell_length_a 13.177843
_cell_length_b 8.871494
_cell_length_c 5.299362
_cell_angle_alpha 97.652928
_cell_angle_beta 102.800390
_cell_angle_gamma 98.922835
_cell_volume 587.730669
_symmetry_space_group_name_H-M "P -1"
_symmetry_group_IT_number 2
_symmetry_cell_setting 'triclinic'
loop_
_space_group_symop_operation_xyz
x,y,z
-x,-y,-z
loop_
_atom_site_type_symbol
_atom_site_label
_atom_site_fract_x
_atom_site_fract_y
_atom_site_fract_z
Si Si1 0.390548 0.126210 0.162154
Si Si2 0.934223 0.358051 0.094982
Si Si3 0.392929 0.889941 0.742586
Si Si4 0.372147 0.453654 0.394591
Si Si5 0.041635 0.098525 0.297403
Si Si6 0.708669 0.415864 0.123457
Si Si7 0.788991 0.071195 0.697196
O O1 0.503898 0.134676 0.360865
O O2 0.352908 0.282236 0.230254
O O3 0.295278 0.987657 0.146431
O O4 0.418039 0.068478 0.889615
O O5 0.834049 0.408506 0.191292
O O6 0.007166 0.265047 0.287727
O O7 0.876372 0.218618 0.851645
O O8 0.000000 0.500000 0.000000
O O9 0.368164 0.745613 0.886202
O O10 0.281862 0.876309 0.542479
O O11 0.500000 0.500000 0.500000
O O12 0.319832 0.473374 0.642630
O O13 0.322624 0.545736 0.169502
O O14 0.163306 0.080909 0.372897
O O15 0.000000 0.000000 0.500000
O O16 0.000000 0.000000 0.000000
#
# Coordination Sequence:
#
# PCOD9050097 Si02
#       7
#     2   2   2   2   2   2   2
#     4  11  26  43  76 113 154 200 255 308 386 476
#     4  11  26  51  80 114 153 207 275 333 396 460
#     4  11  24  46  78 113 151 203 258 310 388 478
#     4  12  28  48  75 114 160 201 252 314 394 475
#     4  10  24  48  76 106 147 196 258 326 382 452
#     4  12  26  50  77 106 161 202 249 323 393 456
#     4  11  24  47  77 105 156 197 257 323 392 458
#
# _framework density 23.820432
#
# number of rings (size 3 to 8) (size 9 to 14) (size 15 to 20)
#    0.000    0.857    2.857    2.571    6.000    2.286 
#    5.143    5.714    0.000    0.000    0.000    0.000 
#    0.000    0.000    0.000    0.000    0.000    0.000 
#
# Total GULP energy -78090.758551 kJ/mol
# GULP energy per Si atom -5577.911325 kJ/mol
# Density = 2.376622 g / cm^3
# Si number density = 23.820432 Si / 1000 Ang^3
#
#
#
# Elastic Constant Matrix: (Units=GPa)
#
#
# Indices 1 2 3 4 5 6 
#
# 1 161.7715 57.1986 19.4495 -16.3149 -9.7008 -11.8370
# 2 57.1986 142.6325 30.5014 -1.2588 4.6149 4.2568
# 3 19.4495 30.5014 79.0712 -13.0907 -4.0642 -7.9547
# 4 -16.3149 -1.2588 -13.0907 39.5411 -6.3873 -2.2511
# 5 -9.7008 4.6149 -4.0642 -6.3873 36.3373 1.2521
# 6 -11.8370 4.2568 -7.9547 -2.2511 1.2521 49.3232
#
#
#
# Elastic Compliance Matrix: (Units=1/GPa)
#
#
# Indices 1 2 3 4 5 6 
#
# 1 0.008156 -0.003507 0.000435 0.004069 0.003303 0.002432
# 2 -0.003507 0.009327 -0.003607 -0.002953 -0.002964 -0.002288
# 3 0.000435 -0.003607 0.015375 0.005850 0.003216 0.003081
# 4 0.004069 -0.002953 0.005850 0.030184 0.007305 0.003367
# 5 0.003303 -0.002964 0.003216 0.007305 0.030383 0.001129
# 6 0.002432 -0.002288 0.003081 0.003367 0.001129 0.021677
#
#
# Mechanical properties :
#
#
# Convention : Reuss Voigt Hill
#
# Bulk Modulus (GPa) = 51.28302 66.41937 58.85119
# Shear Modulus (GPa) = 37.04834 43.46204 40.25519
#
# Velocity S-wave (km/s) = 3.94803 4.27613 4.11535
# Velocity P-wave (km/s) = 6.50833 7.23355 6.88050
#
# Compressibility (1/GPa) = 0.01949963
#
# Stress axis : x y z
#
# Youngs Moduli (GPa) = 122.61306 107.21727 65.04187
#
# Poissons Ratio (x) = 0.37603 -0.02829
# Poissons Ratio (y) = 0.43002 0.23458
# Poissons Ratio (z) = -0.05333 0.38669
#
# Static dielectric constant tensor:
#      x y z
#    x 2.031990 -0.004820 0.020920 
#    y -0.004820 1.934680 0.034980 
#    z 0.020920 0.034980 2.010910 
# 
# From -- ./inp_files/60776.got.cif
#   From: 2010.05.17/outbox.cif.g08.bks.cpg/sg2_31_cif.got.tgz:60776.got - 2010.06.03 11:33:40.
