data_PCOD9050486
_publ_section_title
;
Structure prediction by ZEFSAII (Michael W. Deem and Ramdas Pophale) SiO2 
 PCOD9050486
Probable space group: P -1
;
_chemical_formula_sum "Si O2"
_cell_formula_units_Z 12
_cell_length_a 21.219473
_cell_length_b 4.716796
_cell_length_c 4.992852
_cell_angle_alpha 99.738621
_cell_angle_beta 66.702333
_cell_angle_gamma 101.527783
_cell_volume 447.459076
_symmetry_space_group_name_H-M "P -1"
_symmetry_group_IT_number 2
_symmetry_cell_setting 'triclinic'
loop_
_space_group_symop_operation_xyz
x,y,z
-x,-y,-z
loop_
_atom_site_type_symbol
_atom_site_label
_atom_site_fract_x
_atom_site_fract_y
_atom_site_fract_z
Si Si1 0.986582 0.689706 0.796149
Si Si2 0.562779 0.206631 0.694320
Si Si3 0.876835 0.894805 0.278718
Si Si4 0.779929 0.369898 0.488452
Si Si5 0.582674 0.643392 0.257989
Si Si6 0.690350 0.442879 0.133165
O O1 0.000000 0.500000 0.500000
O O2 0.907555 0.746694 0.948110
O O3 0.048610 0.958268 0.714265
O O4 0.000000 0.500000 0.000000
O O5 0.485648 0.253753 0.746709
O O6 0.610025 0.370000 0.391186
O O7 0.572926 0.871961 0.583025
O O8 0.582483 0.367300 0.966113
O O9 0.833958 0.657898 0.499075
O O10 0.826677 0.121288 0.324079
O O11 0.738141 0.439405 0.307152
O O12 0.726910 0.303328 0.809528
O O13 0.667376 0.742782 0.105490
#
# Coordination Sequence:
#
# PCOD9050486 Si02
#       6
#     2   2   2   2   2   2
#     4  11  26  50  79 103 135 178 230 278 333 395
#     4   8  16  34  60  88 123 169 228 281 326 383
#     4  11  28  50  70 110 137 180 226 282 331 410
#     4  12  28  41  71  96 148 174 222 272 346 406
#     4   8  16  34  60  88 123 169 228 281 326 383
#     4  10  25  42  64  97 132 186 220 274 340 407
#
# _framework density 26.818099
#
# number of rings (size 3 to 8) (size 9 to 14) (size 15 to 20)
#    1.000    1.000    1.667    0.000    7.000    5.333 
#    0.000    3.333    0.000    4.000    0.000    0.000 
#    0.000    0.000    0.000    0.000    0.000    0.000 
#
# Total GULP energy -66810.649094 kJ/mol
# GULP energy per Si atom -5567.554091 kJ/mol
# Density = 2.675706 g / cm^3
# Si number density = 26.818099 Si / 1000 Ang^3
#
#
#
# Elastic Constant Matrix: (Units=GPa)
#
#
# Indices 1 2 3 4 5 6 
#
# 1 184.0108 57.8144 117.6389 7.9715 -37.6453 -27.2341
# 2 57.8144 123.0892 46.2944 -6.4224 -10.8688 -10.5315
# 3 117.6389 46.2944 154.7524 16.2696 -14.7283 -13.9591
# 4 7.9715 -6.4224 16.2696 31.8774 8.6738 -8.5543
# 5 -37.6453 -10.8688 -14.7283 8.6738 58.9180 8.7500
# 6 -27.2341 -10.5315 -13.9591 -8.5543 8.7500 21.2705
#
#
#
# Elastic Compliance Matrix: (Units=1/GPa)
#
#
# Indices 1 2 3 4 5 6 
#
# 1 0.014216 -0.001839 -0.009124 0.002247 0.004600 0.010314
# 2 -0.001839 0.010189 -0.001910 0.004788 -0.001041 0.003790
# 3 -0.009124 -0.001910 0.014067 -0.006578 -0.000852 -0.005692
# 4 0.002247 0.004788 -0.006578 0.043529 -0.009023 0.022149
# 5 0.004600 -0.001041 -0.000852 -0.009023 0.022003 -0.007865
# 6 0.010314 0.003790 -0.005692 0.022149 -0.007865 0.070503
#
#
# Mechanical properties :
#
#
# Convention : Reuss Voigt Hill
#
# Bulk Modulus (GPa) = 78.59781 100.59419 89.59600
# Shear Modulus (GPa) = 24.45037 38.42017 31.43527
#
# Velocity S-wave (km/s) = 3.02273 3.78910 3.42741
# Velocity P-wave (km/s) = 6.44623 7.53222 7.01029
#
# Compressibility (1/GPa) = 0.01272300
#
# Stress axis : x y z
#
# Youngs Moduli (GPa) = 70.34297 98.14707 71.09031
#
# Poissons Ratio (x) = 0.18054 0.64866
# Poissons Ratio (y) = 0.12939 0.13580
# Poissons Ratio (z) = 0.64184 0.18749
#
# Static dielectric constant tensor:
#      x y z
#    x 2.090710 0.111590 0.090940 
#    y 0.111590 2.282440 0.110180 
#    z 0.090940 0.110180 2.286670 
# 
# From -- ./inp_files/121871.got.cif
#   From: 2010.05.17/outbox.cif.g08.bks.cpg/sg2_61_cif.got.tgz:121871.got - 2010.06.03 11:33:40.
