data_PCOD9050902
_publ_section_title
;
Structure prediction by ZEFSAII (Michael W. Deem and Ramdas Pophale) SiO2 
 PCOD9050902
Probable space group: P -1
;
_chemical_formula_sum "Si O2"
_cell_formula_units_Z 16
_cell_length_a 5.131290
_cell_length_b 9.553054
_cell_length_c 20.253040
_cell_angle_alpha 132.090244
_cell_angle_beta 80.264528
_cell_angle_gamma 96.606352
_cell_volume 726.130454
_symmetry_space_group_name_H-M "P -1"
_symmetry_group_IT_number 2
_symmetry_cell_setting 'triclinic'
loop_
_space_group_symop_operation_xyz
x,y,z
-x,-y,-z
loop_
_atom_site_type_symbol
_atom_site_label
_atom_site_fract_x
_atom_site_fract_y
_atom_site_fract_z
Si Si1 0.766800 0.115278 0.515362
Si Si2 0.273367 0.916502 0.936606
Si Si3 0.413294 0.542850 0.284137
Si Si4 0.005952 0.317966 0.894954
Si Si5 0.773352 0.348421 0.464583
Si Si6 0.065454 0.494341 0.806956
Si Si7 0.497963 0.065798 0.835493
Si Si8 0.478593 0.675728 0.659613
O O1 0.743184 0.304262 0.618604
O O2 0.815785 0.174987 0.456802
O O3 0.500000 0.000000 0.500000
O O4 0.000000 0.000000 0.500000
O O5 0.220154 0.692633 0.873791
O O6 0.350844 0.983317 0.880796
O O7 0.500000 0.000000 0.000000
O O8 0.000000 0.000000 0.000000
O O9 0.687673 0.626259 0.270382
O O10 0.517549 0.396231 0.288572
O O11 0.191587 0.475800 0.219502
O O12 0.756247 0.185780 0.880641
O O13 0.975250 0.398133 0.847715
O O14 0.278681 0.201050 0.854062
O O15 0.000000 0.500000 0.000000
O O16 0.561905 0.482600 0.555280
O O17 0.751736 0.277249 0.367773
O O18 0.000000 0.500000 0.500000
O O19 0.595136 0.886751 0.730731
#
# Coordination Sequence:
#
# PCOD9050902 Si02
#       8
#     2   2   2   2   2   2   2   2
#     4  11  26  45  70 103 144 188 236 284 354 419
#     4  12  25  44  72 106 136 180 238 288 345 423
#     4  11  25  44  73 102 145 179 237 299 347 415
#     4  12  28  49  69 103 148 188 230 299 370 424
#     4  10  25  45  75 100 150 192 231 300 355 421
#     4  12  25  46  71 101 139 187 230 287 367 415
#     4  12  26  45  76 103 141 188 241 294 345 436
#     4  10  25  44  71 108 141 184 248 290 359 408
#
# _framework density 22.034607999999999
#
# number of rings (size 3 to 8) (size 9 to 14) (size 15 to 20)
#    0.000    0.750    1.250    4.875   12.250    3.000 
#    0.000    0.000    0.000    0.000    0.000    0.000 
#    0.000    0.000    0.000    0.000    0.000    0.000 
#
# Total GULP energy -89157.974202 kJ/mol
# GULP energy per Si atom -5572.373388 kJ/mol
# Density = 2.198446 g / cm^3
# Si number density = 22.034608 Si / 1000 Ang^3
#
#
#
# Elastic Constant Matrix: (Units=GPa)
#
#
# Indices 1 2 3 4 5 6 
#
# 1 117.0195 36.4039 24.1399 -15.8708 15.9595 -2.8489
# 2 36.4039 121.9743 31.4593 -11.2982 14.9990 -8.0921
# 3 24.1399 31.4593 73.8923 -5.4899 22.3430 -17.7221
# 4 -15.8708 -11.2982 -5.4899 33.9271 -0.6994 5.6579
# 5 15.9595 14.9990 22.3430 -0.6994 37.4138 6.6370
# 6 -2.8489 -8.0921 -17.7221 5.6579 6.6370 29.2286
#
#
#
# Elastic Compliance Matrix: (Units=1/GPa)
#
#
# Indices 1 2 3 4 5 6 
#
# 1 0.010379 -0.002053 -0.001702 0.003984 -0.002367 -0.000822
# 2 -0.002053 0.009932 -0.002716 0.001718 -0.001618 0.000938
# 3 -0.001702 -0.002716 0.024102 -0.001036 -0.015695 0.017460
# 4 0.003984 0.001718 -0.001036 0.032757 -0.000078 -0.006087
# 5 -0.002367 -0.001618 -0.015695 -0.000078 0.041225 -0.019541
# 6 -0.000822 0.000938 0.017460 -0.006087 -0.019541 0.050595
#
#
# Mechanical properties :
#
#
# Convention : Reuss Voigt Hill
#
# Bulk Modulus (GPa) = 31.77541 55.21026 43.49284
# Shear Modulus (GPa) = 25.98473 34.83945 30.41209
#
# Velocity S-wave (km/s) = 3.43777 3.98065 3.71913
# Velocity P-wave (km/s) = 5.49634 6.79985 6.18254
#
# Compressibility (1/GPa) = 0.03147088
#
# Stress axis : x y z
#
# Youngs Moduli (GPa) = 96.35250 100.68475 41.49038
#
# Poissons Ratio (x) = 0.20670 0.07061
# Poissons Ratio (y) = 0.19781 0.11269
# Poissons Ratio (z) = 0.16398 0.27345
#
# Static dielectric constant tensor:
#      x y z
#    x 1.848110 -0.045540 -0.078130 
#    y -0.045540 1.814310 -0.013490 
#    z -0.078130 -0.013490 1.845360 
# 
# From -- ./inp_files/548423.got.cif
#   From: 2010.05.17/outbox.cif.g08.bks.cpg/sg2_275_cif.got.tgz:548423.got - 2010.06.03 11:33:40.
