data_PCOD9050500
_publ_section_title
;
Structure prediction by ZEFSAII (Michael W. Deem and Ramdas Pophale) SiO2 
 PCOD9050500
Probable space group: P -1
;
_chemical_formula_sum "Si O2"
_cell_formula_units_Z 16
_cell_length_a 9.616807
_cell_length_b 9.217329
_cell_length_c 11.922910
_cell_angle_alpha 111.677472
_cell_angle_beta 56.347019
_cell_angle_gamma 129.000469
_cell_volume 683.335233
_symmetry_space_group_name_H-M "P -1"
_symmetry_group_IT_number 2
_symmetry_cell_setting 'triclinic'
loop_
_space_group_symop_operation_xyz
x,y,z
-x,-y,-z
loop_
_atom_site_type_symbol
_atom_site_label
_atom_site_fract_x
_atom_site_fract_y
_atom_site_fract_z
Si Si1 0.910854 0.209737 0.612645
Si Si2 0.526777 0.689837 0.264212
Si Si3 0.354121 0.381207 0.429057
Si Si4 0.332612 0.701828 0.808648
Si Si5 0.455930 0.877269 0.144229
Si Si6 0.715281 0.024770 0.422670
Si Si7 0.031462 0.603296 0.718787
Si Si8 0.303966 0.525225 0.985339
O O1 0.762947 0.152910 0.768690
O O2 0.784380 0.061844 0.530093
O O3 0.128321 0.244895 0.532101
O O4 0.960661 0.418363 0.626814
O O5 0.365735 0.524030 0.369789
O O6 0.471569 0.802477 0.237874
O O7 0.686822 0.844668 0.323503
O O8 0.606636 0.594728 0.120848
O O9 0.500000 0.500000 0.500000
O O10 0.461211 0.286699 0.298969
O O11 0.207439 0.635473 0.731735
O O12 0.380506 0.904911 0.876046
O O13 0.220273 0.552446 0.914681
O O14 0.461115 0.739099 0.014686
O O15 0.880348 0.211764 0.339053
O O16 0.500000 0.000000 0.500000
O O17 0.853161 0.564892 0.869529
#
# Coordination Sequence:
#
# PCOD9050500 Si02
#       8
#     2   2   2   2   2   2   2   2
#     4  11  24  39  67 104 132 173 221 270 338 404
#     4  11  24  44  67  96 136 180 218 281 336 386
#     4  11  25  42  66  97 143 174 216 276 341 397
#     4  11  22  45  65  96 134 184 217 279 338 390
#     4  11  23  43  70  96 131 177 228 276 329 401
#     4  12  23  41  68 103 136 170 220 278 330 400
#     4  11  22  41  70  95 136 177 225 270 332 401
#     4  10  25  42  66  98 135 176 229 275 334 393
#
# _framework density 23.414570000000001
#
# number of rings (size 3 to 8) (size 9 to 14) (size 15 to 20)
#    0.000    1.000    3.750    2.250    5.250    1.000 
#    0.000    0.000    0.000    0.000    0.000    0.000 
#    0.000    0.000    0.000    0.000    0.000    0.000 
#
# Total GULP energy -89482.675149 kJ/mol
# GULP energy per Si atom -5592.667197 kJ/mol
# Density = 2.336128 g / cm^3
# Si number density = 23.414570 Si / 1000 Ang^3
#
#
#
# Elastic Constant Matrix: (Units=GPa)
#
#
# Indices 1 2 3 4 5 6 
#
# 1 63.2840 7.4490 18.7369 4.9399 -6.9681 8.3945
# 2 7.4490 92.0079 27.1194 13.3403 -3.4522 -0.6698
# 3 18.7369 27.1194 113.3095 20.8892 -11.5919 2.7397
# 4 4.9399 13.3403 20.8892 48.5571 1.6146 14.8778
# 5 -6.9681 -3.4522 -11.5919 1.6146 25.6968 -7.5340
# 6 8.3945 -0.6698 2.7397 14.8778 -7.5340 37.3978
#
#
#
# Elastic Compliance Matrix: (Units=1/GPa)
#
#
# Indices 1 2 3 4 5 6 
#
# 1 0.017293 -0.000675 -0.002443 0.000433 0.002476 -0.003388
# 2 -0.000675 0.012045 -0.002149 -0.002953 0.001222 0.001945
# 3 -0.002443 -0.002149 0.011118 -0.004944 0.005168 0.002703
# 4 0.000433 -0.002953 -0.004944 0.027524 -0.007851 -0.012319
# 5 0.002476 0.001222 0.005168 -0.007851 0.045937 0.011465
# 6 -0.003388 0.001945 0.002703 -0.012319 0.011465 0.034547
#
#
# Mechanical properties :
#
#
# Convention : Reuss Voigt Hill
#
# Bulk Modulus (GPa) = 33.41832 41.69023 37.55428
# Shear Modulus (GPa) = 29.59084 36.68341 33.13713
#
# Velocity S-wave (km/s) = 3.55882 3.96244 3.76604
# Velocity P-wave (km/s) = 5.58484 6.22724 5.91476
#
# Compressibility (1/GPa) = 0.02992370
#
# Stress axis : x y z
#
# Youngs Moduli (GPa) = 57.82801 83.02364 89.94040
#
# Poissons Ratio (x) = 0.05600 0.21969
# Poissons Ratio (y) = 0.03901 0.19328
# Poissons Ratio (z) = 0.14125 0.17841
#
# Static dielectric constant tensor:
#      x y z
#    x 1.932640 -0.013600 0.013370 
#    y -0.013600 1.869400 -0.003530 
#    z 0.013370 -0.003530 1.892840 
# 
# From -- ./inp_files/382858.got.cif
#   From: 2010.05.17/outbox.cif.g08.bks.cpg/sg2_192_cif.got.tgz:382858.got - 2010.06.03 11:33:40.
