data_PCOD9050998
_publ_section_title
;
Structure prediction by ZEFSAII (Michael W. Deem and Ramdas Pophale) SiO2 
 PCOD9050998
Probable space group: P -1
;
_chemical_formula_sum "Si O2"
_cell_formula_units_Z 16
_cell_length_a 6.295532
_cell_length_b 13.658907
_cell_length_c 21.973201
_cell_angle_alpha 157.101824
_cell_angle_beta 70.303050
_cell_angle_gamma 112.285137
_cell_volume 679.876802
_symmetry_space_group_name_H-M "P -1"
_symmetry_group_IT_number 2
_symmetry_cell_setting 'triclinic'
loop_
_space_group_symop_operation_xyz
x,y,z
-x,-y,-z
loop_
_atom_site_type_symbol
_atom_site_label
_atom_site_fract_x
_atom_site_fract_y
_atom_site_fract_z
Si Si1 0.598704 0.635340 0.461263
Si Si2 0.404795 0.126486 0.229184
Si Si3 0.227452 0.093791 0.994414
Si Si4 0.926623 0.216465 0.460856
Si Si5 0.636490 0.983559 0.249954
Si Si6 0.100178 0.165541 0.645316
Si Si7 0.049051 0.293833 0.001410
Si Si8 0.480264 0.586295 0.317680
O O1 0.391137 0.422988 0.387493
O O2 0.648631 0.582285 0.356098
O O3 0.820912 0.618558 0.469402
O O4 0.550201 0.928563 0.635812
O O5 0.524090 0.075129 0.252019
O O6 0.180253 0.906848 0.113194
O O7 0.601962 0.096963 0.144718
O O8 0.388256 0.321109 0.143673
O O9 0.137827 0.186793 0.993180
O O10 0.000000 0.000000 0.000000
O O11 0.739360 0.343854 0.586936
O O12 0.855444 0.136677 0.353653
O O13 0.937632 0.983608 0.372737
O O14 0.736116 0.726744 0.076956
O O15 0.372711 0.236821 0.645248
O O16 0.008812 0.430359 0.818197
O O17 0.000000 0.000000 0.500000
#
# Coordination Sequence:
#
# PCOD9050998 Si02
#       8
#     2   2   2   2   2   2   2   2
#     4  11  23  41  69  98 133 176 219 272 331 396
#     4  11  23  41  66  96 137 176 215 276 330 394
#     4  11  23  38  65 102 139 171 214 270 335 403
#     4  11  24  43  68  95 131 177 225 278 321 389
#     4  10  25  45  65  99 131 175 231 267 329 391
#     4  12  24  45  72  95 134 176 220 275 335 395
#     4  11  25  44  66  97 136 176 218 276 330 392
#     4  11  23  41  66 102 132 169 223 268 338 397
#
# _framework density 23.533674000000001
#
# number of rings (size 3 to 8) (size 9 to 14) (size 15 to 20)
#    0.000    1.000    2.500    3.750    1.750    5.500 
#    0.000    1.250    0.000    0.000    0.000    0.000 
#    0.000    0.000    0.000    0.000    0.000    0.000 
#
# Total GULP energy -89128.175664 kJ/mol
# GULP energy per Si atom -5570.510979 kJ/mol
# Density = 2.348011 g / cm^3
# Si number density = 23.533674 Si / 1000 Ang^3
#
#
#
# Elastic Constant Matrix: (Units=GPa)
#
#
# Indices 1 2 3 4 5 6 
#
# 1 -15.7528 25.1236 54.0262 -65.5743 -41.1755 -12.9809
# 2 25.1236 52.2623 31.4777 -0.4316 14.1183 -1.8540
# 3 54.0262 31.4777 133.7225 -12.6502 -5.0384 -3.8677
# 4 -65.5743 -0.4316 -12.6502 3.0231 -32.5982 -0.5326
# 5 -41.1755 14.1183 -5.0384 -32.5982 13.7393 -3.4684
# 6 -12.9809 -1.8540 -3.8677 -0.5326 -3.4684 34.4455
#
#
#
# Elastic Compliance Matrix: (Units=1/GPa)
#
#
# Indices 1 2 3 4 5 6 
#
# 1 0.006801 0.003199 -0.005092 -0.011912 -0.012863 0.000684
# 2 0.003199 0.022489 -0.006231 0.004876 -0.003885 0.001400
# 3 -0.005092 -0.006231 0.011663 0.004583 0.006229 -0.000247
# 4 -0.011912 0.004876 0.004583 0.013864 -0.007202 -0.004223
# 5 -0.012863 -0.003885 0.006229 -0.007202 0.022877 -0.002165
# 6 0.000684 0.001400 -0.000247 -0.004223 -0.002165 0.029053
#
#
# Mechanical properties :
#
#
# Convention : Reuss Voigt Hill
#
# Bulk Modulus (GPa) = 40.47901 43.49856 41.98879
# Shear Modulus (GPa) = 38.10077 14.21522 26.15799
#
# Velocity S-wave (km/s) = 4.02803 2.46038 3.33755
# Velocity P-wave (km/s) = 6.23468 5.15703 5.72128
#
# Compressibility (1/GPa) = 0.02470416
#
# Stress axis : x y z
#
# Youngs Moduli (GPa) = 147.03628 44.46678 85.73854
#
# Poissons Ratio (x) = -0.14223 0.43662
# Poissons Ratio (y) = -0.47030 0.53420
# Poissons Ratio (z) = 0.74877 0.27705
#
# Static dielectric constant tensor:
#      x y z
#    x 1.914880 -0.004250 -0.033810 
#    y -0.004250 1.892210 -0.037690 
#    z -0.033810 -0.037690 1.964080 
# 
# From -- ./inp_files/70131.got.cif
#   From: 2010.05.17/outbox.cif.g08.bks.cpg/sg2_36_cif.got.tgz:70131.got - 2010.06.03 11:33:40.
