data_PCOD9050160
_publ_section_title
;
Structure prediction by ZEFSAII (Michael W. Deem and Ramdas Pophale) SiO2 
 PCOD9050160
Probable space group: P -1
;
_chemical_formula_sum "Si O2"
_cell_formula_units_Z 14
_cell_length_a 11.104995
_cell_length_b 7.466369
_cell_length_c 11.056717
_cell_angle_alpha 80.064835
_cell_angle_beta 124.012007
_cell_angle_gamma 59.552589
_cell_volume 504.413024
_symmetry_space_group_name_H-M "P -1"
_symmetry_group_IT_number 2
_symmetry_cell_setting 'triclinic'
loop_
_space_group_symop_operation_xyz
x,y,z
-x,-y,-z
loop_
_atom_site_type_symbol
_atom_site_label
_atom_site_fract_x
_atom_site_fract_y
_atom_site_fract_z
Si Si1 0.397021 0.439294 0.535244
Si Si2 0.722746 0.626833 0.271690
Si Si3 0.000000 0.500000 0.000000
Si Si4 0.657016 0.495801 0.808067
Si Si5 0.414932 0.836893 0.867088
Si Si6 0.958021 0.997468 0.207737
Si Si7 0.500000 0.000000 0.500000
Si Si8 0.925993 0.724157 0.669681
O O1 0.320266 0.444101 0.624800
O O2 0.466000 0.505484 0.363551
O O3 0.544454 0.147443 0.592339
O O4 0.158639 0.691082 0.315706
O O5 0.959721 0.434231 0.371725
O O6 0.610895 0.924235 0.188599
O O7 0.605876 0.630670 0.094696
O O8 0.228175 0.415979 0.173015
O O9 0.973555 0.463079 0.130732
O O10 0.491404 0.681699 0.803191
O O11 0.835734 0.194724 0.000350
O O12 0.203720 0.956873 0.800248
O O13 0.050264 0.084010 0.320980
O O14 0.317960 0.107696 0.481579
#
# Coordination Sequence:
#
# PCOD9050160 Si02
#       8
#     2   2   1   2   2   2   1   2
#     4  12  29  52  85 116 163 223 272 347 425 474
#     4  11  24  46  82 119 158 222 272 337 413 485
#     4  10  24  48  80 116 164 218 264 332 414 488
#     4  11  24  51  81 122 164 221 271 340 411 496
#     4  11  22  44  80 119 165 198 283 343 390 502
#     4  11  24  48  78 124 162 203 286 343 398 506
#     4  12  32  54  70 120 166 208 286 336 408 512
#     4  11  26  50  77 115 166 214 272 339 405 491
#
# _framework density 27.755033000000001
#
# number of rings (size 3 to 8) (size 9 to 14) (size 15 to 20)
#    0.000    0.857    4.286    2.143    4.000    5.143 
#    5.143    1.429    0.000    0.000    0.000    0.000 
#    0.000    0.000    0.000    0.000    0.000    0.000 
#
# Total GULP energy -78186.223978 kJ/mol
# GULP energy per Si atom -5584.730284 kJ/mol
# Density = 2.769186 g / cm^3
# Si number density = 27.755033 Si / 1000 Ang^3
#
#
#
# Elastic Constant Matrix: (Units=GPa)
#
#
# Indices 1 2 3 4 5 6 
#
# 1 179.2158 35.0908 9.2509 -7.0065 23.4763 -9.6654
# 2 35.0908 169.8328 44.4059 25.2773 11.2629 -12.8238
# 3 9.2509 44.4059 85.4980 6.3992 9.5454 3.0884
# 4 -7.0065 25.2773 6.3992 40.9453 9.0609 7.3250
# 5 23.4763 11.2629 9.5454 9.0609 52.0421 -3.2072
# 6 -9.6654 -12.8238 3.0884 7.3250 -3.2072 56.2838
#
#
#
# Elastic Compliance Matrix: (Units=1/GPa)
#
#
# Indices 1 2 3 4 5 6 
#
# 1 0.006386 -0.001564 0.000254 0.002653 -0.003038 0.000208
# 2 -0.001564 0.008148 -0.003838 -0.005312 0.000727 0.002531
# 3 0.000254 -0.003838 0.013888 0.001044 -0.002127 -0.001850
# 4 0.002653 -0.005312 0.001044 0.030185 -0.005807 -0.005071
# 5 -0.003038 0.000727 -0.002127 -0.005807 0.021938 0.001766
# 6 0.000208 0.002531 -0.001850 -0.005071 0.001766 0.019242
#
#
# Mechanical properties :
#
#
# Convention : Reuss Voigt Hill
#
# Bulk Modulus (GPa) = 55.16415 68.00463 61.58439
# Shear Modulus (GPa) = 43.05726 52.90749 47.98238
#
# Velocity S-wave (km/s) = 3.94297 4.37078 4.16237
# Velocity P-wave (km/s) = 6.37557 7.07294 6.73329
#
# Compressibility (1/GPa) = 0.01812772
#
# Stress axis : x y z
#
# Youngs Moduli (GPa) = 156.59672 122.72635 72.00383
#
# Poissons Ratio (x) = 0.19190 -0.01831
# Poissons Ratio (y) = 0.24487 0.27634
# Poissons Ratio (z) = -0.03982 0.47100
#
# Static dielectric constant tensor:
#      x y z
#    x 2.371670 0.181260 0.003420 
#    y 0.181260 2.075850 0.080630 
#    z 0.003420 0.080630 2.108450 
# 
# From -- ./inp_files/412416.got.cif
#   From: 2010.05.17/outbox.cif.g08.bks.cpg/sg2_207_cif.got.tgz:412416.got - 2010.06.03 11:33:40.
