data_PCOD9050284
_publ_section_title
;
Structure prediction by ZEFSAII (Michael W. Deem and Ramdas Pophale) SiO2 
 PCOD9050284
Probable space group: P -1
;
_chemical_formula_sum "Si O2"
_cell_formula_units_Z 15
_cell_length_a 9.151213
_cell_length_b 6.405871
_cell_length_c 18.813809
_cell_angle_alpha 68.297684
_cell_angle_beta 146.493821
_cell_angle_gamma 105.656688
_cell_volume 564.078949
_symmetry_space_group_name_H-M "P -1"
_symmetry_group_IT_number 2
_symmetry_cell_setting 'triclinic'
loop_
_space_group_symop_operation_xyz
x,y,z
-x,-y,-z
loop_
_atom_site_type_symbol
_atom_site_label
_atom_site_fract_x
_atom_site_fract_y
_atom_site_fract_z
Si Si1 0.500913 0.437951 0.923453
Si Si2 0.307657 0.572167 0.476712
Si Si3 0.902794 0.907196 0.186094
Si Si4 0.726492 0.921843 0.458225
Si Si5 0.770528 0.125102 0.961839
Si Si6 0.274420 0.224401 0.276977
Si Si7 0.000000 0.500000 0.000000
Si Si8 0.725939 0.087790 0.281078
O O1 0.724044 0.376248 0.957822
O O2 0.341195 0.657350 0.800995
O O3 0.376637 0.197540 0.900511
O O4 0.500000 0.500000 0.000000
O O5 0.500000 0.500000 0.500000
O O6 0.080049 0.728098 0.326762
O O7 0.212254 0.341499 0.498778
O O8 0.505925 0.671710 0.599884
O O9 0.001671 0.155696 0.213417
O O10 0.888930 0.944103 0.089895
O O11 0.963521 0.987359 0.597869
O O12 0.428084 0.978722 0.356750
O O13 0.722824 0.062406 0.367306
O O14 0.983706 0.237636 0.986061
O O15 0.500525 0.057018 0.826055
O O16 0.211072 0.374894 0.164210
#
# Coordination Sequence:
#
# PCOD9050284 Si02
#       8
#     2   2   2   2   2   2   1   2
#     4  12  25  43  68 104 138 178 228 280 344 409
#     4  12  25  43  68 104 138 178 228 280 344 409
#     4  11  24  42  69 103 134 179 221 283 339 400
#     4  11  25  44  69 100 137 182 230 281 340 408
#     4  11  25  46  69 100 139 179 228 283 344 405
#     4  11  25  46  69 100 139 179 228 283 344 405
#     4  10  24  50  70  96 130 182 228 280 342 404
#     4  11  25  44  69 100 137 182 230 281 340 408
#
# _framework density 26.592020999999999
#
# number of rings (size 3 to 8) (size 9 to 14) (size 15 to 20)
#    0.000    0.800    4.000    2.400    1.867    2.133 
#    4.800    6.000    0.000    0.000    0.000    0.000 
#    0.000    0.000    0.000    0.000    0.000    0.000 
#
# Total GULP energy -83502.528676 kJ/mol
# GULP energy per Si atom -5566.835245 kJ/mol
# Density = 2.653150 g / cm^3
# Si number density = 26.592021 Si / 1000 Ang^3
#
#
#
# Elastic Constant Matrix: (Units=GPa)
#
#
# Indices 1 2 3 4 5 6 
#
# 1 75.9616 22.0493 46.3535 -4.7550 -13.4610 7.6401
# 2 22.0493 153.3699 96.9313 -10.6127 -8.7065 52.0159
# 3 46.3535 96.9313 244.4050 -2.4183 -15.5986 8.2513
# 4 -4.7550 -10.6127 -2.4183 59.7298 24.1091 -0.9412
# 5 -13.4610 -8.7065 -15.5986 24.1091 34.1752 -4.0610
# 6 7.6401 52.0159 8.2513 -0.9412 -4.0610 48.7954
#
#
#
# Elastic Compliance Matrix: (Units=1/GPa)
#
#
# Indices 1 2 3 4 5 6 
#
# 1 0.015854 0.000354 -0.002733 -0.001085 0.005621 -0.001950
# 2 0.000354 0.015688 -0.005902 0.003507 -0.002928 -0.015957
# 3 -0.002733 -0.005902 0.006906 -0.001960 0.002636 0.005734
# 4 -0.001085 0.003507 -0.001960 0.024481 -0.018208 -0.004280
# 5 0.005621 -0.002928 0.002636 -0.018208 0.045398 0.005223
# 6 -0.001950 -0.015957 0.005734 -0.004280 0.005223 0.037191
#
#
# Mechanical properties :
#
#
# Convention : Reuss Voigt Hill
#
# Bulk Modulus (GPa) = 45.69536 89.37830 67.53683
# Shear Modulus (GPa) = 29.51988 49.10025 39.31006
#
# Velocity S-wave (km/s) = 3.33544 4.30167 3.84899
# Velocity P-wave (km/s) = 5.66168 7.63914 6.72351
#
# Compressibility (1/GPa) = 0.02188406
#
# Stress axis : x y z
#
# Youngs Moduli (GPa) = 63.07506 63.74326 144.79885
#
# Poissons Ratio (x) = -0.02254 0.39577
# Poissons Ratio (y) = -0.02230 0.85466
# Poissons Ratio (z) = 0.17240 0.37624
#
# Static dielectric constant tensor:
#      x y z
#    x 2.339730 0.013320 0.084480 
#    y 0.013320 2.117030 0.013590 
#    z 0.084480 0.013590 1.991020 
# 
# From -- ./inp_files/592711.got.cif
#   From: 2010.05.17/outbox.cif.g08.bks.cpg/sg2_297_cif.got.tgz:592711.got - 2010.06.03 11:33:40.
