data_PCOD9050364
_publ_section_title
;
Structure prediction by ZEFSAII (Michael W. Deem and Ramdas Pophale) SiO2 
 PCOD9050364
Probable space group: P -1
;
_chemical_formula_sum "Si O2"
_cell_formula_units_Z 11
_cell_length_a 8.947744
_cell_length_b 5.101632
_cell_length_c 11.382045
_cell_angle_alpha 125.303001
_cell_angle_beta 103.394133
_cell_angle_gamma 94.851165
_cell_volume 396.569618
_symmetry_space_group_name_H-M "P -1"
_symmetry_group_IT_number 2
_symmetry_cell_setting 'triclinic'
loop_
_space_group_symop_operation_xyz
x,y,z
-x,-y,-z
loop_
_atom_site_type_symbol
_atom_site_label
_atom_site_fract_x
_atom_site_fract_y
_atom_site_fract_z
Si Si1 0.217826 0.226333 0.476955
Si Si2 0.988003 0.372065 0.099285
Si Si3 0.500000 0.500000 0.500000
Si Si4 0.680048 0.353634 0.718175
Si Si5 0.387414 0.200723 0.973440
Si Si6 0.154776 0.110067 0.706956
O O1 0.330095 0.579237 0.549057
O O2 0.216782 0.143664 0.592993
O O3 0.335506 0.042895 0.368528
O O4 0.030796 0.123044 0.381675
O O5 0.848005 0.508536 0.160514
O O6 0.134687 0.547900 0.257443
O O7 0.000000 0.500000 0.000000
O O8 0.000000 0.000000 0.000000
O O9 0.559765 0.424834 0.623987
O O10 0.680790 0.595676 0.888595
O O11 0.251197 0.019610 0.810146
O O12 0.500000 0.500000 0.000000
O O13 0.500000 0.000000 0.000000
#
# Coordination Sequence:
#
# PCOD9050364 Si02
#       6
#     2   2   1   2   2   2
#     4  10  25  51  77 113 156 207 260 328 394 471
#     4  11  25  47  80 114 152 201 261 329 394 468
#     4  12  26  44  78 108 156 202 264 310 402 460
#     4  11  27  45  75 106 157 205 258 322 397 468
#     4  12  29  47  78 116 159 207 263 326 394 470
#     4  10  24  52  79 117 159 201 268 323 398 469
#
# _framework density 27.737877999999998
#
# number of rings (size 3 to 8) (size 9 to 14) (size 15 to 20)
#    0.000    1.091    1.818    1.636   12.727    0.000 
#    6.545    2.727    0.000    0.000    0.000    0.000 
#    0.000    0.000    0.000    0.000    0.000    0.000 
#
# Total GULP energy -61330.308303 kJ/mol
# GULP energy per Si atom -5575.482573 kJ/mol
# Density = 2.767475 g / cm^3
# Si number density = 27.737878 Si / 1000 Ang^3
#
#
#
# Elastic Constant Matrix: (Units=GPa)
#
#
# Indices 1 2 3 4 5 6 
#
# 1 177.6407 54.1635 73.5262 -36.2745 14.3483 15.8624
# 2 54.1635 178.4182 59.4432 -14.5575 -2.9516 -22.7354
# 3 73.5262 59.4432 160.9804 -18.6505 -7.8485 -32.0935
# 4 -36.2745 -14.5575 -18.6505 41.6724 -23.3306 -3.1741
# 5 14.3483 -2.9516 -7.8485 -23.3306 66.9809 -7.7147
# 6 15.8624 -22.7354 -32.0935 -3.1741 -7.7147 47.5037
#
#
#
# Elastic Compliance Matrix: (Units=1/GPa)
#
#
# Indices 1 2 3 4 5 6 
#
# 1 0.010047 -0.002103 -0.005077 0.003767 -0.002442 -0.007936
# 2 -0.002103 0.007127 -0.000561 0.001715 0.001773 0.004136
# 3 -0.005077 -0.000561 0.011519 0.004149 0.005045 0.010306
# 4 0.003767 0.001715 0.004149 0.038014 0.013819 0.007150
# 5 -0.002442 0.001773 0.005045 0.013819 0.022038 0.009574
# 6 -0.007936 0.004136 0.010306 0.007150 0.009574 0.034676
#
#
# Mechanical properties :
#
#
# Convention : Reuss Voigt Hill
#
# Bulk Modulus (GPa) = 75.69808 99.03389 87.36598
# Shear Modulus (GPa) = 34.89008 53.22517 44.05763
#
# Velocity S-wave (km/s) = 3.55047 4.38523 3.98974
# Velocity P-wave (km/s) = 6.64511 7.83718 7.26563
#
# Compressibility (1/GPa) = 0.01321037
#
# Stress axis : x y z
#
# Youngs Moduli (GPa) = 99.53025 140.32055 86.80943
#
# Poissons Ratio (x) = 0.29507 0.44075
# Poissons Ratio (y) = 0.20930 0.04873
# Poissons Ratio (z) = 0.50534 0.07877
#
# Static dielectric constant tensor:
#      x y z
#    x 2.067870 -0.516130 -0.548390 
#    y -0.516130 1.072580 -0.824080 
#    z -0.548390 -0.824080 1.326740 
# 
# From -- ./inp_files/129288.got.cif
#   From: 2010.05.17/outbox.cif.g08.bks.cpg/sg2_65_cif.got.tgz:129288.got - 2010.06.03 11:33:40.
