data_PCOD9050613
_publ_section_title
;
Structure prediction by ZEFSAII (Michael W. Deem and Ramdas Pophale) SiO2 
 PCOD9050613
Probable space group: P -1
;
_chemical_formula_sum "Si O2"
_cell_formula_units_Z 16
_cell_length_a 8.924818
_cell_length_b 13.858473
_cell_length_c 9.015821
_cell_angle_alpha 80.096162
_cell_angle_beta 71.229254
_cell_angle_gamma 39.602883
_cell_volume 667.690171
_symmetry_space_group_name_H-M "P -1"
_symmetry_group_IT_number 2
_symmetry_cell_setting 'triclinic'
loop_
_space_group_symop_operation_xyz
x,y,z
-x,-y,-z
loop_
_atom_site_type_symbol
_atom_site_label
_atom_site_fract_x
_atom_site_fract_y
_atom_site_fract_z
Si Si1 0.065280 0.921541 0.840937
Si Si2 0.398132 0.622124 0.375230
Si Si3 0.853940 0.921165 0.406613
Si Si4 0.568034 0.563911 0.782873
Si Si5 0.827584 0.588721 0.886497
Si Si6 0.238298 0.422524 0.575703
Si Si7 0.474729 0.897917 0.068726
Si Si8 0.656986 0.835926 0.338724
O O1 0.291516 0.738420 0.829125
O O2 0.144596 0.972047 0.692966
O O3 0.810300 0.994840 0.846983
O O4 0.000000 0.000000 0.000000
O O5 0.500000 0.500000 0.500000
O O6 0.435134 0.549899 0.225117
O O7 0.548888 0.648291 0.355012
O O8 0.111546 0.780105 0.441402
O O9 0.817288 0.855806 0.309331
O O10 0.623240 0.012820 0.562186
O O11 0.722555 0.533967 0.878393
O O12 0.704285 0.545820 0.599694
O O13 0.989605 0.557743 0.710174
O O14 0.595650 0.769213 0.943344
O O15 0.000000 0.500000 0.000000
O O16 0.251356 0.301789 0.565178
O O17 0.643682 0.807659 0.183255
O O18 0.500000 0.000000 0.000000
#
# Coordination Sequence:
#
# PCOD9050613 Si02
#       8
#     2   2   2   2   2   2   2   2
#     4  12  25  48  73 102 143 185 241 297 362 429
#     4  10  25  43  67 109 137 184 238 295 360 418
#     4  11  25  45  75 105 143 188 246 297 359 431
#     4  11  25  47  72 106 141 190 241 301 359 425
#     4  12  26  46  68 101 145 188 235 288 364 434
#     4  11  23  45  73 103 141 190 239 299 358 423
#     4  12  28  44  71 104 145 191 235 296 365 427
#     4  11  24  44  75 107 139 188 244 300 356 428
#
# _framework density 23.963211000000001
#
# number of rings (size 3 to 8) (size 9 to 14) (size 15 to 20)
#    0.000    0.750    3.750    2.625    5.250    3.000 
#    0.000    1.250    0.000    0.000    0.000    0.000 
#    0.000    0.000    0.000    0.000    0.000    0.000 
#
# Total GULP energy -89574.950236 kJ/mol
# GULP energy per Si atom -5598.434390 kJ/mol
# Density = 2.390867 g / cm^3
# Si number density = 23.963211 Si / 1000 Ang^3
#
#
#
# Elastic Constant Matrix: (Units=GPa)
#
#
# Indices 1 2 3 4 5 6 
#
# 1 156.9104 29.4304 18.5381 4.4162 14.3121 -16.5909
# 2 29.4304 82.7782 16.0906 18.8649 -0.6043 -21.6449
# 3 18.5381 16.0906 66.2259 12.1384 5.3558 -11.8423
# 4 4.4162 18.8649 12.1384 39.9739 0.7363 -5.8447
# 5 14.3121 -0.6043 5.3558 0.7363 42.7547 1.3816
# 6 -16.5909 -21.6449 -11.8423 -5.8447 1.3816 47.2848
#
#
#
# Elastic Compliance Matrix: (Units=1/GPa)
#
#
# Indices 1 2 3 4 5 6 
#
# 1 0.007269 -0.002188 -0.001213 0.000849 -0.002373 0.001419
# 2 -0.002188 0.015921 -0.001249 -0.006119 0.001044 0.005420
# 3 -0.001213 -0.001249 0.017135 -0.004030 -0.001781 0.002848
# 4 0.000849 -0.006119 -0.004030 0.029054 -0.000369 0.000090
# 5 -0.002373 0.001044 -0.001781 -0.000369 0.024478 -0.001561
# 6 0.001419 0.005420 0.002848 0.000090 -0.001561 0.024897
#
#
# Mechanical properties :
#
#
# Convention : Reuss Voigt Hill
#
# Bulk Modulus (GPa) = 32.23371 48.22586 40.22979
# Shear Modulus (GPa) = 36.12772 42.12636 39.12704
#
# Velocity S-wave (km/s) = 3.88704 4.19735 4.04517
# Velocity P-wave (km/s) = 5.79879 6.60750 6.21631
#
# Compressibility (1/GPa) = 0.03102342
#
# Stress axis : x y z
#
# Youngs Moduli (GPa) = 137.56165 62.81078 58.36047
#
# Poissons Ratio (x) = 0.13746 0.07080
# Poissons Ratio (y) = 0.30105 0.07291
# Poissons Ratio (z) = 0.16688 0.07847
#
# Static dielectric constant tensor:
#      x y z
#    x 2.007620 0.163220 0.003180 
#    y 0.163220 2.212050 -0.074240 
#    z 0.003180 -0.074240 1.943560 
# 
# From -- ./inp_files/207314.got.cif
#   From: 2010.05.17/outbox.cif.g08.bks.cpg/sg2_104_cif.got.tgz:207314.got - 2010.06.03 11:33:40.
