data_PCOD9050795
_publ_section_title
;
Structure prediction by ZEFSAII (Michael W. Deem and Ramdas Pophale) SiO2 
 PCOD9050795
Probable space group: P -1
;
_chemical_formula_sum "Si O2"
_cell_formula_units_Z 16
_cell_length_a 5.121200
_cell_length_b 15.243034
_cell_length_c 11.331745
_cell_angle_alpha 56.498705
_cell_angle_beta 95.445976
_cell_angle_gamma 119.348077
_cell_volume 623.914865
_symmetry_space_group_name_H-M "P -1"
_symmetry_group_IT_number 2
_symmetry_cell_setting 'triclinic'
loop_
_space_group_symop_operation_xyz
x,y,z
-x,-y,-z
loop_
_atom_site_type_symbol
_atom_site_label
_atom_site_fract_x
_atom_site_fract_y
_atom_site_fract_z
Si Si1 0.197376 0.765034 0.951727
Si Si2 0.105128 0.738206 0.541423
Si Si3 0.413931 0.657037 0.225593
Si Si4 0.746246 0.369614 0.146859
Si Si5 0.033184 0.104005 0.837149
Si Si6 0.427297 0.044942 0.731245
Si Si7 0.606191 0.391608 0.476896
Si Si8 0.396980 0.470973 0.831194
O O1 0.373469 0.733279 0.883560
O O2 0.242318 0.896408 0.830058
O O3 0.304609 0.744121 0.099295
O O4 0.844638 0.651932 0.018859
O O5 0.130875 0.684818 0.707304
O O6 0.371580 0.883493 0.430061
O O7 0.230597 0.681593 0.494254
O O8 0.754299 0.688700 0.522603
O O9 0.766852 0.763534 0.191297
O O10 0.337587 0.584918 0.399879
O O11 0.365956 0.560677 0.192597
O O12 0.536154 0.412042 0.174109
O O13 0.000000 0.500000 0.000000
O O14 0.209619 0.090309 0.741391
O O15 0.703762 0.079934 0.807984
O O16 0.000000 0.000000 0.000000
O O17 0.748134 0.509845 0.309205
#
# Coordination Sequence:
#
# PCOD9050795 Si02
#       8
#     2   2   2   2   2   2   2   2
#     4  11  26  43  69 104 136 188 239 285 349 414
#     4  11  23  47  72 102 138 190 229 286 355 409
#     4  12  24  39  69 107 137 182 226 284 358 420
#     4   9  23  50  69  98 137 187 240 293 341 410
#     4  12  24  41  67 102 149 185 220 281 349 424
#     4  12  24  44  70 103 143 180 232 286 348 418
#     4  11  25  43  72 102 144 182 229 286 357 421
#     4  10  25  44  67  98 139 186 231 292 341 414
#
# _framework density 25.644523
#
# number of rings (size 3 to 8) (size 9 to 14) (size 15 to 20)
#    0.000    1.000    3.750    1.500    8.750    1.500 
#    6.750    0.000    0.000    5.250    0.000    0.000 
#    0.000    0.000    0.000    0.000    0.000    0.000 
#
# Total GULP energy -89435.654491 kJ/mol
# GULP energy per Si atom -5589.728406 kJ/mol
# Density = 2.558615 g / cm^3
# Si number density = 25.644523 Si / 1000 Ang^3
#
#
#
# Elastic Constant Matrix: (Units=GPa)
#
#
# Indices 1 2 3 4 5 6 
#
# 1 103.8523 37.3892 30.7191 6.8165 -2.2987 -20.9780
# 2 37.3892 102.9832 57.9927 -7.5433 -6.5513 -14.0242
# 3 30.7191 57.9927 188.4601 -11.6359 5.0478 3.1444
# 4 6.8165 -7.5433 -11.6359 50.4215 3.8037 -1.5403
# 5 -2.2987 -6.5513 5.0478 3.8037 44.4198 2.2748
# 6 -20.9780 -14.0242 3.1444 -1.5403 2.2748 36.2623
#
#
#
# Elastic Compliance Matrix: (Units=1/GPa)
#
#
# Indices 1 2 3 4 5 6 
#
# 1 0.012525 -0.003132 -0.001326 -0.002300 0.000225 0.006037
# 2 -0.003132 0.013693 -0.003720 0.001581 0.001953 0.003751
# 3 -0.001326 -0.003720 0.006823 0.001219 -0.001361 -0.002661
# 4 -0.002300 0.001581 0.001219 0.020804 -0.001815 0.000172
# 5 0.000225 0.001953 -0.001361 -0.001815 0.023149 -0.000526
# 6 0.006037 0.003751 -0.002661 0.000172 -0.000526 0.032791
#
#
# Mechanical properties :
#
#
# Convention : Reuss Voigt Hill
#
# Bulk Modulus (GPa) = 59.94112 71.94418 65.94265
# Shear Modulus (GPa) = 37.96368 44.16704 41.06536
#
# Velocity S-wave (km/s) = 3.85175 4.15454 4.00600
# Velocity P-wave (km/s) = 6.57312 7.15045 6.86785
#
# Compressibility (1/GPa) = 0.01668304
#
# Stress axis : x y z
#
# Youngs Moduli (GPa) = 79.84272 73.02757 146.55628
#
# Poissons Ratio (x) = 0.22874 0.19440
# Poissons Ratio (y) = 0.25009 0.54526
# Poissons Ratio (z) = 0.10591 0.27170
#
# Static dielectric constant tensor:
#      x y z
#    x 2.129440 0.001660 -0.053160 
#    y 0.001660 2.002960 -0.020310 
#    z -0.053160 -0.020310 2.105450 
# 
# From -- ./inp_files/367604.got.cif
#   From: 2010.05.17/outbox.cif.g08.bks.cpg/sg2_184_cif.got.tgz:367604.got - 2010.06.03 11:33:40.
