data_PCOD9050780
_publ_section_title
;
Structure prediction by ZEFSAII (Michael W. Deem and Ramdas Pophale) SiO2 
 PCOD9050780
Probable space group: P -1
;
_chemical_formula_sum "Si O2"
_cell_formula_units_Z 16
_cell_length_a 9.677849
_cell_length_b 19.837038
_cell_length_c 12.242863
_cell_angle_alpha 21.650092
_cell_angle_beta 130.335228
_cell_angle_gamma 123.871072
_cell_volume 652.756756
_symmetry_space_group_name_H-M "P -1"
_symmetry_group_IT_number 2
_symmetry_cell_setting 'triclinic'
loop_
_space_group_symop_operation_xyz
x,y,z
-x,-y,-z
loop_
_atom_site_type_symbol
_atom_site_label
_atom_site_fract_x
_atom_site_fract_y
_atom_site_fract_z
Si Si1 0.499584 0.093746 0.477394
Si Si2 0.878026 0.194339 0.542363
Si Si3 0.271203 0.562470 0.103577
Si Si4 0.979605 0.414555 0.470708
Si Si5 0.907640 0.216360 0.115241
Si Si6 0.318776 0.440759 0.740816
Si Si7 0.375304 0.971436 0.822697
Si Si8 0.233140 0.151459 0.686300
O O1 0.707781 0.087499 0.632794
O O2 0.392958 0.014759 0.639422
O O3 0.500000 0.000000 0.500000
O O4 0.400272 0.299174 0.091256
O O5 0.938631 0.288487 0.539838
O O6 0.055111 0.077224 0.751779
O O7 0.797267 0.349985 0.178524
O O8 0.492904 0.529605 0.266295
O O9 0.206192 0.366552 0.378301
O O10 0.180098 0.700251 0.942307
O O11 0.182583 0.359612 0.709246
O O12 0.823833 0.410537 0.489241
O O13 0.981353 0.628098 0.109529
O O14 0.736872 0.199340 0.972770
O O15 0.000000 0.000000 0.500000
O O16 0.262946 0.126654 0.609277
O O17 0.578447 0.936234 0.028509
#
# Coordination Sequence:
#
# PCOD9050780 Si02
#       8
#     2   2   2   2   2   2   2   2
#     4  11  26  47  71 101 142 191 236 289 356 428
#     4  11  25  42  72 101 136 186 241 291 351 423
#     4  11  24  43  73 100 141 186 238 285 356 437
#     4  11  25  44  68 106 138 182 238 299 346 428
#     4  12  25  43  73 103 140 186 236 298 358 423
#     4  10  25  44  67 100 141 186 236 284 357 423
#     4  11  26  44  69 105 146 188 231 300 356 419
#     4  11  25  44  69 107 143 182 239 295 360 419
#
# _framework density 24.511426
#
# number of rings (size 3 to 8) (size 9 to 14) (size 15 to 20)
#    0.000    1.000    1.250    4.125    8.750    3.500 
#    2.250    0.000    0.000    0.000    0.000    0.000 
#    0.000    0.000    0.000    0.000    0.000    0.000 
#
# Total GULP energy -89541.604810 kJ/mol
# GULP energy per Si atom -5596.350301 kJ/mol
# Density = 2.445564 g / cm^3
# Si number density = 24.511426 Si / 1000 Ang^3
#
#
#
# Elastic Constant Matrix: (Units=GPa)
#
#
# Indices 1 2 3 4 5 6 
#
# 1 182.5274 81.4088 40.9910 -1.0664 20.1996 -4.1859
# 2 81.4088 138.2071 23.6067 8.2418 23.6446 -16.1463
# 3 40.9910 23.6067 81.4012 2.5969 12.0597 -5.2454
# 4 -1.0664 8.2418 2.5969 34.0029 7.3016 5.6714
# 5 20.1996 23.6446 12.0597 7.3016 36.4125 9.8617
# 6 -4.1859 -16.1463 -5.2454 5.6714 9.8617 41.1451
#
#
#
# Elastic Compliance Matrix: (Units=1/GPa)
#
#
# Indices 1 2 3 4 5 6 
#
# 1 0.008181 -0.004492 -0.002868 0.001944 -0.000682 -0.001401
# 2 -0.004492 0.011799 0.000263 -0.002670 -0.006375 0.006103
# 3 -0.002868 0.000263 0.014436 -0.000866 -0.003921 0.002711
# 4 0.001944 -0.002670 -0.000866 0.031821 -0.004268 -0.004324
# 5 -0.000682 -0.006375 -0.003921 -0.004268 0.037224 -0.011405
# 6 -0.001401 0.006103 0.002711 -0.004324 -0.011405 0.030232
#
#
# Mechanical properties :
#
#
# Convention : Reuss Voigt Hill
#
# Bulk Modulus (GPa) = 49.45073 77.12761 63.28917
# Shear Modulus (GPa) = 32.33568 39.38739 35.86153
#
# Velocity S-wave (km/s) = 3.63603 4.01296 3.82914
# Velocity P-wave (km/s) = 6.15191 7.28053 6.73989
#
# Compressibility (1/GPa) = 0.02022215
#
# Stress axis : x y z
#
# Youngs Moduli (GPa) = 122.23654 84.75169 69.27034
#
# Poissons Ratio (x) = 0.38069 0.19868
# Poissons Ratio (y) = 0.54906 -0.01821
# Poissons Ratio (z) = 0.35060 -0.02228
#
# Static dielectric constant tensor:
#      x y z
#    x 1.964570 0.030400 0.007820 
#    y 0.030400 1.924500 0.013880 
#    z 0.007820 0.013880 1.995020 
# 
# From -- ./inp_files/402721.got.cif
#   From: 2010.05.17/outbox.cif.g08.bks.cpg/sg2_202_cif.got.tgz:402721.got - 2010.06.03 11:33:40.
