data_PCOD9050680
_publ_section_title
;
Structure prediction by ZEFSAII (Michael W. Deem and Ramdas Pophale) SiO2 
 PCOD9050680
Probable space group: P -1
;
_chemical_formula_sum "Si O2"
_cell_formula_units_Z 16
_cell_length_a 12.169216
_cell_length_b 11.878684
_cell_length_c 5.625042
_cell_angle_alpha 90.129853
_cell_angle_beta 52.531911
_cell_angle_gamma 86.362826
_cell_volume 643.212817
_symmetry_space_group_name_H-M "P -1"
_symmetry_group_IT_number 2
_symmetry_cell_setting 'triclinic'
loop_
_space_group_symop_operation_xyz
x,y,z
-x,-y,-z
loop_
_atom_site_type_symbol
_atom_site_label
_atom_site_fract_x
_atom_site_fract_y
_atom_site_fract_z
Si Si1 0.223111 0.770885 0.152700
Si Si2 0.991152 0.186625 0.931128
Si Si3 0.229122 0.342692 0.640181
Si Si4 0.140244 0.978426 0.559583
Si Si5 0.394683 0.446046 0.807979
Si Si6 0.512503 0.733073 0.986093
Si Si7 0.140085 0.548419 0.422495
Si Si8 0.558544 0.044105 0.669761
O O1 0.195303 0.902375 0.266189
O O2 0.388172 0.748057 0.961607
O O3 0.144578 0.684578 0.428862
O O4 0.152552 0.761256 0.990942
O O5 0.090944 0.281857 0.861069
O O6 0.069313 0.103898 0.627975
O O7 0.964352 0.100509 0.174520
O O8 0.316207 0.354731 0.762775
O O9 0.185847 0.466652 0.583609
O O10 0.334537 0.268587 0.327329
O O11 0.276456 0.985255 0.543103
O O12 0.500000 0.500000 0.500000
O O13 0.483210 0.389032 0.903710
O O14 0.266168 0.525405 0.071432
O O15 0.477008 0.823007 0.240833
O O16 0.000000 0.500000 0.500000
O O17 0.500000 0.000000 0.500000
O O18 0.500000 0.000000 0.000000
#
# Coordination Sequence:
#
# PCOD9050680 Si02
#       8
#     2   2   2   2   2   2   2   2
#     4  11  23  44  69  93 143 177 240 296 373 436
#     4  11  24  44  67 101 138 185 239 293 373 443
#     4  11  24  44  73 100 141 186 238 298 370 439
#     4  10  26  43  68 101 138 192 235 299 365 443
#     4  11  25  44  70 103 142 189 241 303 375 449
#     4  10  25  43  71 102 135 189 237 303 367 443
#     4  11  24  43  64 106 136 183 236 301 369 445
#     4  11  26  46  74 110 149 192 252 312 370 445
#
# _framework density 24.875128
#
# number of rings (size 3 to 8) (size 9 to 14) (size 15 to 20)
#    0.000    1.250    1.250    2.625    8.750    6.500 
#    2.250    0.000    0.000    0.000    0.000    0.000 
#    0.000    0.000    0.000    0.000    0.000    0.000 
#
# Total GULP energy -89504.906284 kJ/mol
# GULP energy per Si atom -5594.056643 kJ/mol
# Density = 2.481851 g / cm^3
# Si number density = 24.875128 Si / 1000 Ang^3
#
#
#
# Elastic Constant Matrix: (Units=GPa)
#
#
# Indices 1 2 3 4 5 6 
#
# 1 133.7726 17.5199 9.9805 3.6291 4.1526 8.1450
# 2 17.5199 82.5102 3.1290 5.1175 1.6448 6.3843
# 3 9.9805 3.1290 73.3007 -5.0043 -9.4076 8.1090
# 4 3.6291 5.1175 -5.0043 33.5757 5.1478 -10.4731
# 5 4.1526 1.6448 -9.4076 5.1478 23.6785 -1.7418
# 6 8.1450 6.3843 8.1090 -10.4731 -1.7418 38.0075
#
#
#
# Elastic Compliance Matrix: (Units=1/GPa)
#
#
# Indices 1 2 3 4 5 6 
#
# 1 0.007920 -0.001419 -0.001123 -0.001052 -0.001624 -0.001584
# 2 -0.001419 0.012793 -0.000300 -0.002563 -0.000386 -0.002505
# 3 -0.001123 -0.000300 0.014868 0.000744 0.005786 -0.002411
# 4 -0.001052 -0.002563 0.000744 0.034354 -0.006098 0.009684
# 5 -0.001624 -0.000386 0.005786 -0.006098 0.046140 -0.000387
# 6 -0.001584 -0.002505 -0.002411 0.009684 -0.000387 0.030236
#
#
# Mechanical properties :
#
#
# Convention : Reuss Voigt Hill
#
# Bulk Modulus (GPa) = 33.44830 38.98249 36.21539
# Shear Modulus (GPa) = 30.87139 36.31595 33.59367
#
# Velocity S-wave (km/s) = 3.52668 3.82505 3.67889
# Velocity P-wave (km/s) = 5.48261 5.93408 5.71280
#
# Compressibility (1/GPa) = 0.02989688
#
# Stress axis : x y z
#
# Youngs Moduli (GPa) = 126.25625 78.16835 67.25745
#
# Poissons Ratio (x) = 0.11092 0.07553
# Poissons Ratio (y) = 0.17916 0.02020
# Poissons Ratio (z) = 0.14178 0.02348
#
# Static dielectric constant tensor:
#      x y z
#    x 1.924950 -0.018310 -0.004530 
#    y -0.018310 2.144350 0.101540 
#    z -0.004530 0.101540 2.056210 
# 
# From -- ./inp_files/69574.got.cif
#   From: 2010.05.17/outbox.cif.g08.bks.cpg/sg2_35_cif.got.tgz:69574.got - 2010.06.03 11:33:40.
