data_PCOD9050966
_publ_section_title
;
Structure prediction by ZEFSAII (Michael W. Deem and Ramdas Pophale) SiO2 
 PCOD9050966
Probable space group: P -1
;
_chemical_formula_sum "Si O2"
_cell_formula_units_Z 16
_cell_length_a 10.875014
_cell_length_b 8.906034
_cell_length_c 16.318243
_cell_angle_alpha 128.082881
_cell_angle_beta 146.631955
_cell_angle_gamma 49.765561
_cell_volume 652.258506
_symmetry_space_group_name_H-M "P -1"
_symmetry_group_IT_number 2
_symmetry_cell_setting 'triclinic'
loop_
_space_group_symop_operation_xyz
x,y,z
-x,-y,-z
loop_
_atom_site_type_symbol
_atom_site_label
_atom_site_fract_x
_atom_site_fract_y
_atom_site_fract_z
Si Si1 0.293298 0.640263 0.251608
Si Si2 0.129490 0.065848 0.279919
Si Si3 0.045775 0.104254 0.477382
Si Si4 0.418550 0.994959 0.251394
Si Si5 0.864036 0.588415 0.780342
Si Si6 0.679888 0.129979 0.133754
Si Si7 0.197917 0.477078 0.460022
Si Si8 0.351112 0.580583 0.076928
O O1 0.132181 0.572701 0.202473
O O2 0.559655 0.507553 0.364707
O O3 0.239866 0.630596 0.123276
O O4 0.284801 0.866186 0.342908
O O5 0.150142 0.274189 0.394627
O O6 0.864281 0.061152 0.138600
O O7 0.236541 0.043675 0.241976
O O8 0.320564 0.011659 0.580832
O O9 0.858675 0.097181 0.300277
O O10 0.001549 0.334859 0.554787
O O11 0.000000 0.000000 0.500000
O O12 0.431333 0.770006 0.156602
O O13 0.296745 0.197736 0.201689
O O14 0.766122 0.533648 0.621658
O O15 0.127486 0.578052 0.899063
O O16 0.539719 0.363077 0.116751
O O17 0.500000 0.000000 0.000000
#
# Coordination Sequence:
#
# PCOD9050966 Si02
#       8
#     2   2   2   2   2   2   2   2
#     4  11  22  42  71 104 147 183 247 292 353 423
#     4  10  25  44  75 107 141 185 242 298 351 421
#     4  12  28  48  74 107 149 188 239 301 360 432
#     4  10  25  48  74 109 145 190 242 294 362 422
#     4  11  24  43  71 106 152 190 235 295 362 427
#     4  12  28  48  75 107 144 190 243 297 363 426
#     4  11  24  44  67 107 140 190 238 292 359 427
#     4  11  24  46  69 108 143 192 241 298 353 427
#
# _framework density 24.530152000000001
#
# number of rings (size 3 to 8) (size 9 to 14) (size 15 to 20)
#    0.000    1.000    1.250    3.750   10.500    2.000 
#    4.500    3.125    0.000    0.000    0.000    0.000 
#    0.000    0.000    0.000    0.000    0.000    0.000 
#
# Total GULP energy -89489.666819 kJ/mol
# GULP energy per Si atom -5593.104176 kJ/mol
# Density = 2.447432 g / cm^3
# Si number density = 24.530152 Si / 1000 Ang^3
#
#
#
# Elastic Constant Matrix: (Units=GPa)
#
#
# Indices 1 2 3 4 5 6 
#
# 1 71.7894 20.2578 11.5380 3.9697 21.2408 -4.9370
# 2 20.2578 101.4043 16.6671 -12.2598 -5.1334 -3.5017
# 3 11.5380 16.6671 68.7096 -9.6999 19.5070 3.4013
# 4 3.9697 -12.2598 -9.6999 33.3432 -3.9091 11.2090
# 5 21.2408 -5.1334 19.5070 -3.9091 34.3574 -4.3279
# 6 -4.9370 -3.5017 3.4013 11.2090 -4.3279 38.4256
#
#
#
# Elastic Compliance Matrix: (Units=1/GPa)
#
#
# Indices 1 2 3 4 5 6 
#
# 1 0.020116 -0.005629 0.001000 -0.006626 -0.014309 0.002304
# 2 -0.005629 0.012627 -0.003692 0.005128 0.008068 0.000167
# 3 0.001000 -0.003692 0.019645 0.004332 -0.012412 -0.004609
# 4 -0.006626 0.005128 0.004332 0.038370 0.005337 -0.011359
# 5 -0.014309 0.008068 -0.012412 0.005337 0.047286 0.003764
# 6 0.002304 0.000167 -0.004609 -0.011359 0.003764 0.030481
#
#
# Mechanical properties :
#
#
# Convention : Reuss Voigt Hill
#
# Bulk Modulus (GPa) = 27.97497 37.64767 32.81132
# Shear Modulus (GPa) = 25.37014 34.12128 29.74571
#
# Velocity S-wave (km/s) = 3.21945 3.73365 3.48604
# Velocity P-wave (km/s) = 5.02483 5.82818 5.44135
#
# Compressibility (1/GPa) = 0.03574624
#
# Stress axis : x y z
#
# Youngs Moduli (GPa) = 49.71255 79.19472 50.90303
#
# Poissons Ratio (x) = 0.44577 -0.05092
# Poissons Ratio (y) = 0.27982 0.18796
# Poissons Ratio (z) = -0.04973 0.29242
#
# Static dielectric constant tensor:
#      x y z
#    x 1.964160 0.019470 -0.024980 
#    y 0.019470 1.991040 0.013190 
#    z -0.024980 0.013190 1.928250 
# 
# From -- ./inp_files/566997.got.cif
#   From: 2010.05.17/outbox.cif.g08.bks.cpg/sg2_284_cif.got.tgz:566997.got - 2010.06.03 11:33:40.
