data_PCOD9050629
_publ_section_title
;
Structure prediction by ZEFSAII (Michael W. Deem and Ramdas Pophale) SiO2 
 PCOD9050629
Probable space group: P -1
;
_chemical_formula_sum "Si O2"
_cell_formula_units_Z 14
_cell_length_a 5.027498
_cell_length_b 9.037462
_cell_length_c 19.952511
_cell_angle_alpha 137.316438
_cell_angle_beta 90.754601
_cell_angle_gamma 90.225302
_cell_volume 614.423170
_symmetry_space_group_name_H-M "P -1"
_symmetry_group_IT_number 2
_symmetry_cell_setting 'triclinic'
loop_
_space_group_symop_operation_xyz
x,y,z
-x,-y,-z
loop_
_atom_site_type_symbol
_atom_site_label
_atom_site_fract_x
_atom_site_fract_y
_atom_site_fract_z
Si Si1 0.752770 0.650226 0.035442
Si Si2 0.123005 0.612891 0.795849
Si Si3 0.531899 0.238806 0.491165
Si Si4 0.800393 0.840948 0.406662
Si Si5 0.298478 0.873434 0.750257
Si Si6 0.204897 0.305756 0.381184
Si Si7 0.618038 0.759609 0.920837
O O1 0.749082 0.872666 0.152197
O O2 0.500000 0.500000 0.000000
O O3 0.733354 0.714204 0.978964
O O4 0.000000 0.500000 0.000000
O O5 0.058843 0.363995 0.693051
O O6 0.234295 0.744810 0.775978
O O7 0.364399 0.610726 0.849200
O O8 0.861487 0.727771 0.860336
O O9 0.407740 0.249284 0.568592
O O10 0.306871 0.265684 0.443234
O O11 0.739773 0.439209 0.549771
O O12 0.655757 0.999805 0.407307
O O13 0.000000 0.000000 0.500000
O O14 0.594585 0.824943 0.710088
O O15 0.092068 0.772673 0.661900
O O16 0.500000 0.000000 0.000000
#
# Coordination Sequence:
#
# PCOD9050629 Si02
#       7
#     2   2   2   2   2   2   2
#     4  12  28  49  71 106 148 182 228 312 375 421
#     4  12  26  45  79 106 140 193 249 290 361 428
#     4  10  25  43  68 103 147 188 237 299 354 419
#     4  11  25  45  69 103 151 188 236 302 355 422
#     4  12  25  45  74 101 142 184 244 293 358 438
#     4  11  25  44  72 104 138 194 240 287 356 431
#     4  12  27  49  78 107 141 188 248 302 355 442
#
# _framework density 22.785596000000002
#
# number of rings (size 3 to 8) (size 9 to 14) (size 15 to 20)
#    0.000    0.571    2.857    3.857    8.000    4.571 
#    0.000    0.000    0.000    0.000    0.000    0.000 
#    0.000    0.000    0.000    0.000    0.000    0.000 
#
# Total GULP energy -78503.327331 kJ/mol
# GULP energy per Si atom -5607.380524 kJ/mol
# Density = 2.273374 g / cm^3
# Si number density = 22.785596 Si / 1000 Ang^3
#
#
#
# Elastic Constant Matrix: (Units=GPa)
#
#
# Indices 1 2 3 4 5 6 
#
# 1 98.8192 20.3368 25.8644 1.8264 -11.7430 -11.8666
# 2 20.3368 127.5469 40.7672 13.2998 -8.5169 -21.2445
# 3 25.8644 40.7672 117.2882 20.6834 -8.7497 -8.4558
# 4 1.8264 13.2998 20.6834 30.4706 -4.4779 1.2779
# 5 -11.7430 -8.5169 -8.7497 -4.4779 57.0267 3.8761
# 6 -11.8666 -21.2445 -8.4558 1.2779 3.8761 26.9091
#
#
#
# Elastic Compliance Matrix: (Units=1/GPa)
#
#
# Indices 1 2 3 4 5 6 
#
# 1 0.011415 -0.000529 -0.002133 0.001104 0.001784 0.003637
# 2 -0.000529 0.010217 -0.002347 -0.003089 0.000325 0.007195
# 3 -0.002133 -0.002347 0.011017 -0.006315 0.000342 0.000919
# 4 0.001104 -0.003089 -0.006315 0.038977 0.002273 -0.006114
# 5 0.001784 0.000325 0.000342 0.002273 0.018291 -0.001592
# 6 0.003637 0.007195 0.000919 -0.006114 -0.001592 0.045255
#
#
# Mechanical properties :
#
#
# Convention : Reuss Voigt Hill
#
# Bulk Modulus (GPa) = 44.18434 57.51013 50.84723
# Shear Modulus (GPa) = 32.73677 39.99369 36.36523
#
# Velocity S-wave (km/s) = 3.79454 4.19408 3.99930
# Velocity P-wave (km/s) = 6.21542 6.98199 6.60983
#
# Compressibility (1/GPa) = 0.02263245
#
# Stress axis : x y z
#
# Youngs Moduli (GPa) = 87.60541 97.87646 90.76489
#
# Poissons Ratio (x) = 0.05173 0.19359
# Poissons Ratio (y) = 0.04630 0.21302
# Poissons Ratio (z) = 0.18685 0.22971
#
# Static dielectric constant tensor:
#      x y z
#    x 1.825030 0.002060 0.001800 
#    y 0.002060 1.834680 -0.021370 
#    z 0.001800 -0.021370 1.852110 
# 
# From -- ./inp_files/143040.got.cif
#   From: 2010.05.17/outbox.cif.g08.bks.cpg/sg2_72_cif.got.tgz:143040.got - 2010.06.03 11:33:40.
