data_PCOD9050810
_publ_section_title
;
Structure prediction by ZEFSAII (Michael W. Deem and Ramdas Pophale) SiO2 
 PCOD9050810
Probable space group: P -1
;
_chemical_formula_sum "Si O2"
_cell_formula_units_Z 16
_cell_length_a 20.346496
_cell_length_b 17.867417
_cell_length_c 11.339354
_cell_angle_alpha 140.632989
_cell_angle_beta 30.922059
_cell_angle_gamma 160.132994
_cell_volume 706.349556
_symmetry_space_group_name_H-M "P -1"
_symmetry_group_IT_number 2
_symmetry_cell_setting 'triclinic'
loop_
_space_group_symop_operation_xyz
x,y,z
-x,-y,-z
loop_
_atom_site_type_symbol
_atom_site_label
_atom_site_fract_x
_atom_site_fract_y
_atom_site_fract_z
Si Si1 0.537634 0.550600 0.642543
Si Si2 0.378024 0.805896 0.372438
Si Si3 0.431067 0.156136 0.091730
Si Si4 0.233312 0.899798 0.576268
Si Si5 0.744048 0.228929 0.837524
Si Si6 0.745689 0.412623 0.472083
Si Si7 0.090945 0.219167 0.447872
Si Si8 0.972936 0.929243 0.085740
O O1 0.500000 0.500000 0.500000
O O2 0.515741 0.673300 0.831157
O O3 0.772967 0.700606 0.539853
O O4 0.313347 0.305482 0.742710
O O5 0.186164 0.738601 0.518272
O O6 0.295962 0.639316 0.385353
O O7 0.500000 0.000000 0.500000
O O8 0.574840 0.924257 0.116035
O O9 0.656495 0.277558 0.964090
O O10 0.186261 0.965372 0.313657
O O11 0.192479 0.831577 0.420605
O O12 0.513131 0.165153 0.472809
O O13 0.086899 0.888130 0.851817
O O14 0.995251 0.445339 0.782516
O O15 0.500000 0.000000 0.000000
O O16 0.774411 0.567914 0.567933
O O17 0.081304 0.098269 0.227535
O O18 0.000000 0.000000 0.000000
#
# Coordination Sequence:
#
# PCOD9050810 Si02
#       8
#     2   2   2   2   2   2   2   2
#     4  12  29  49  74 108 147 204 249 305 375 431
#     4   9  23  44  70 106 139 186 243 300 362 433
#     4  11  25  47  72 106 150 190 250 309 365 445
#     4  10  25  44  68 106 143 186 244 298 360 441
#     4  11  24  45  71 104 146 184 238 305 367 436
#     4  11  24  45  75 104 142 189 239 296 379 430
#     4  12  27  48  75 110 149 199 248 304 372 444
#     4  12  28  47  73 111 154 191 252 310 363 446
#
# _framework density 22.651674
#
# number of rings (size 3 to 8) (size 9 to 14) (size 15 to 20)
#    0.000    1.000    2.500    1.875    8.750    3.500 
#    6.750    0.000    0.000    0.000    0.000    0.000 
#    0.000    0.000    0.000    0.000    0.000    0.000 
#
# Total GULP energy -89280.096334 kJ/mol
# GULP energy per Si atom -5580.006021 kJ/mol
# Density = 2.260012 g / cm^3
# Si number density = 22.651674 Si / 1000 Ang^3
#
#
#
# Elastic Constant Matrix: (Units=GPa)
#
#
# Indices 1 2 3 4 5 6 
#
# 1 85.3542 13.8626 32.3638 13.5322 -2.9740 -1.2590
# 2 13.8626 86.0597 26.1371 2.0075 -4.7367 4.2940
# 3 32.3638 26.1371 102.4721 16.1679 9.1818 13.1249
# 4 13.5322 2.0075 16.1679 39.5069 -0.5503 -4.4192
# 5 -2.9740 -4.7367 9.1818 -0.5503 40.1017 -6.8396
# 6 -1.2590 4.2940 13.1249 -4.4192 -6.8396 45.0520
#
#
#
# Elastic Compliance Matrix: (Units=1/GPa)
#
#
# Indices 1 2 3 4 5 6 
#
# 1 0.013985 -0.000893 -0.004159 -0.002819 0.002141 0.001736
# 2 -0.000893 0.012889 -0.003409 0.001099 0.002285 0.000194
# 3 -0.004159 -0.003409 0.013739 -0.004648 -0.004769 -0.004974
# 4 -0.002819 0.001099 -0.004648 0.028634 0.002111 0.004300
# 5 0.002141 0.002285 -0.004769 0.002111 0.027442 0.005605
# 6 0.001736 0.000194 -0.004974 0.004300 0.005605 0.024948
#
#
# Mechanical properties :
#
#
# Convention : Reuss Voigt Hill
#
# Bulk Modulus (GPa) = 42.20584 46.51255 44.35919
# Shear Modulus (GPa) = 34.13995 38.36693 36.25344
#
# Velocity S-wave (km/s) = 3.88644 4.12002 4.00493
# Velocity P-wave (km/s) = 6.22995 6.57352 6.40404
#
# Compressibility (1/GPa) = 0.02369340
#
# Stress axis : x y z
#
# Youngs Moduli (GPa) = 71.50616 77.58349 72.78368
#
# Poissons Ratio (x) = 0.06926 0.30268
# Poissons Ratio (y) = 0.06383 0.24810
# Poissons Ratio (z) = 0.29736 0.26447
#
# Static dielectric constant tensor:
#      x y z
#    x 1.920120 -0.134920 -0.330500 
#    y -0.134920 1.549580 -0.616180 
#    z -0.330500 -0.616180 0.454340 
# 
# From -- ./inp_files/472421.got.cif
#   From: 2010.05.17/outbox.cif.g08.bks.cpg/sg2_237_cif.got.tgz:472421.got - 2010.06.03 11:33:40.
