data_PCOD9050407
_publ_section_title
;
Structure prediction by ZEFSAII (Michael W. Deem and Ramdas Pophale) SiO2 
 PCOD9050407
Probable space group: P -1
;
_chemical_formula_sum "Si O2"
_cell_formula_units_Z 12
_cell_length_a 7.105942
_cell_length_b 20.151386
_cell_length_c 4.760130
_cell_angle_alpha 111.103577
_cell_angle_beta 67.220289
_cell_angle_gamma 67.060071
_cell_volume 462.226825
_symmetry_space_group_name_H-M "P -1"
_symmetry_group_IT_number 2
_symmetry_cell_setting 'triclinic'
loop_
_space_group_symop_operation_xyz
x,y,z
-x,-y,-z
loop_
_atom_site_type_symbol
_atom_site_label
_atom_site_fract_x
_atom_site_fract_y
_atom_site_fract_z
Si Si1 0.123090 0.154870 0.943865
Si Si2 0.440713 0.587857 0.816694
Si Si3 0.131470 0.284902 0.781788
Si Si4 0.269157 0.413336 0.835612
Si Si5 0.019246 0.903455 0.550962
Si Si6 0.593026 0.099988 0.283430
O O1 0.068956 0.247820 0.029187
O O2 0.950571 0.137367 0.831949
O O3 0.410709 0.085509 0.543349
O O4 0.082545 0.139037 0.257636
O O5 0.500000 0.500000 0.500000
O O6 0.532550 0.627914 0.602068
O O7 0.134566 0.656781 0.146670
O O8 0.609262 0.563382 0.958912
O O9 0.212782 0.347840 0.891913
O O10 0.388733 0.191806 0.371132
O O11 0.000000 0.500000 0.000000
O O12 0.262683 0.883742 0.541319
O O13 0.800373 0.011557 0.852444
#
# Coordination Sequence:
#
# PCOD9050407 Si02
#       6
#     2   2   2   2   2   2
#     4  10  25  40  67  96 136 175 229 277 335 398
#     4  12  27  48  74 102 138 183 227 281 351 412
#     4  10  27  42  69 107 133 181 229 283 335 411
#     4  12  27  49  74 102 139 180 228 285 346 411
#     4  11  22  46  65  96 136 186 220 283 335 392
#     4   9  24  42  67 100 134 179 232 275 336 400
#
# _framework density 25.961279999999999
#
# number of rings (size 3 to 8) (size 9 to 14) (size 15 to 20)
#    1.000    0.333    1.667    2.000    4.667    5.333 
#    0.000    0.000    0.000    0.000    0.000    0.000 
#    0.000    0.000    0.000    0.000    0.000    0.000 
#
# Total GULP energy -67223.828360 kJ/mol
# GULP energy per Si atom -5601.985697 kJ/mol
# Density = 2.590219 g / cm^3
# Si number density = 25.961280 Si / 1000 Ang^3
#
#
#
# Elastic Constant Matrix: (Units=GPa)
#
#
# Indices 1 2 3 4 5 6 
#
# 1 195.8183 67.9008 46.2479 13.5093 1.3639 -16.2657
# 2 67.9008 137.3423 35.5693 25.8718 8.9939 5.2222
# 3 46.2479 35.5693 74.4354 -1.3317 0.8399 -25.4335
# 4 13.5093 25.8718 -1.3317 42.7875 -10.0126 -4.9308
# 5 1.3639 8.9939 0.8399 -10.0126 37.7992 3.9800
# 6 -16.2657 5.2222 -25.4335 -4.9308 3.9800 46.6542
#
#
#
# Elastic Compliance Matrix: (Units=1/GPa)
#
#
# Indices 1 2 3 4 5 6 
#
# 1 0.006755 -0.002674 -0.002510 -0.000403 0.000213 0.001225
# 2 -0.002674 0.012485 -0.006628 -0.008675 -0.004341 -0.006490
# 3 -0.002510 -0.006628 0.022666 0.007401 0.001771 0.012854
# 4 -0.000403 -0.008675 0.007401 0.032085 0.009630 0.007435
# 5 0.000213 -0.004341 0.001771 0.009630 0.029994 -0.000015
# 6 0.001225 -0.006490 0.012854 0.007435 -0.000015 0.030382
#
#
# Mechanical properties :
#
#
# Convention : Reuss Voigt Hill
#
# Bulk Modulus (GPa) = 54.70135 78.55913 66.63024
# Shear Modulus (GPa) = 30.47204 42.64005 36.55604
#
# Velocity S-wave (km/s) = 3.42972 4.05711 3.75653
# Velocity P-wave (km/s) = 6.06631 7.22998 6.67356
#
# Compressibility (1/GPa) = 0.01828108
#
# Stress axis : x y z
#
# Youngs Moduli (GPa) = 148.03929 80.09684 44.11943
#
# Poissons Ratio (x) = 0.21419 0.11074
# Poissons Ratio (y) = 0.39588 0.29243
# Poissons Ratio (z) = 0.37159 0.53089
#
# Static dielectric constant tensor:
#      x y z
#    x 2.008140 0.018930 -0.024500 
#    y 0.018930 2.052610 0.005390 
#    z -0.024500 0.005390 2.052570 
# 
# From -- ./inp_files/10001.got.cif
#   From: 2010.05.17/outbox.cif.g08.bks.cpg/sg2_6_cif.got.tgz:10001.got - 2010.06.03 11:33:40.
