data_PCOD9050357
_publ_section_title
;
Structure prediction by ZEFSAII (Michael W. Deem and Ramdas Pophale) SiO2 
 PCOD9050357
Probable space group: P -1
;
_chemical_formula_sum "Si O2"
_cell_formula_units_Z 13
_cell_length_a 4.888898
_cell_length_b 21.511947
_cell_length_c 16.593268
_cell_angle_alpha 19.556101
_cell_angle_beta 101.148071
_cell_angle_gamma 91.277195
_cell_volume 500.596017
_symmetry_space_group_name_H-M "P -1"
_symmetry_group_IT_number 2
_symmetry_cell_setting 'triclinic'
loop_
_space_group_symop_operation_xyz
x,y,z
-x,-y,-z
loop_
_atom_site_type_symbol
_atom_site_label
_atom_site_fract_x
_atom_site_fract_y
_atom_site_fract_z
Si Si1 0.802455 0.976588 0.858783
Si Si2 0.000000 0.500000 0.500000
Si Si3 0.335408 0.443593 0.739952
Si Si4 0.821293 0.374176 0.975720
Si Si5 0.749595 0.856615 0.257441
Si Si6 0.369843 0.380879 0.079566
Si Si7 0.342603 0.035532 0.306172
O O1 0.802459 0.023822 0.706543
O O2 0.449845 0.096544 0.729491
O O3 0.010475 0.052827 0.826594
O O4 0.940530 0.727805 0.185084
O O5 0.313922 0.468166 0.613410
O O6 0.972385 0.616101 0.533300
O O7 0.568808 0.496483 0.740531
O O8 0.429736 0.206275 0.064108
O O9 0.615709 0.324836 0.088333
O O10 0.015231 0.480435 0.899243
O O11 0.091092 0.164707 0.203483
O O12 0.500000 0.000000 0.000000
O O13 0.397334 0.179095 0.376312
O O14 0.500000 0.500000 0.000000
#
# Coordination Sequence:
#
# PCOD9050357 Si02
#       7
#     2   1   2   2   2   2   2
#     4  11  28  47  77 109 152 200 259 315 378 458
#     4  10  24  52  70 118 150 204 250 316 380 454
#     4  11  27  47  81 111 157 203 257 314 382 454
#     4  12  27  51  78 113 152 202 257 315 387 459
#     4  12  27  49  74 108 155 206 256 316 380 448
#     4  12  29  51  79 114 157 199 256 321 386 461
#     4  11  28  48  80 111 153 202 252 317 383 458
#
# _framework density 25.969045000000001
#
# number of rings (size 3 to 8) (size 9 to 14) (size 15 to 20)
#    0.000    0.615    3.077    1.846   10.769    0.615 
#    0.000    0.000    0.000    0.000    0.000    0.000 
#    0.000    0.000    0.000    0.000    0.000    0.000 
#
# Total GULP energy -72548.962073 kJ/mol
# GULP energy per Si atom -5580.689390 kJ/mol
# Density = 2.590994 g / cm^3
# Si number density = 25.969045 Si / 1000 Ang^3
#
#
#
# Elastic Constant Matrix: (Units=GPa)
#
#
# Indices 1 2 3 4 5 6 
#
# 1 102.8140 18.1263 40.8944 14.9075 6.1124 12.7253
# 2 18.1263 122.4628 51.7247 31.8357 10.3369 24.0554
# 3 40.8944 51.7247 97.4185 22.8619 2.0724 22.9408
# 4 14.9075 31.8357 22.8619 35.4784 1.5021 16.8417
# 5 6.1124 10.3369 2.0724 1.5021 23.9362 11.3241
# 6 12.7253 24.0554 22.9408 16.8417 11.3241 44.8803
#
#
#
# Elastic Compliance Matrix: (Units=1/GPa)
#
#
# Indices 1 2 3 4 5 6 
#
# 1 0.012106 0.001357 -0.005112 -0.003075 -0.003243 0.000425
# 2 0.001357 0.012807 -0.005252 -0.008374 -0.004797 -0.000212
# 3 -0.005112 -0.005252 0.016635 -0.001826 0.004462 -0.004679
# 4 -0.003075 -0.008374 -0.001826 0.043511 0.007467 -0.011918
# 5 -0.003243 -0.004797 0.004462 0.007467 0.050618 -0.014364
# 6 0.000425 -0.000212 -0.004679 -0.011918 -0.014364 0.032763
#
#
# Mechanical properties :
#
#
# Convention : Reuss Voigt Hill
#
# Bulk Modulus (GPa) = 42.49311 60.46511 51.47911
# Shear Modulus (GPa) = 25.73357 34.98896 30.36126
#
# Velocity S-wave (km/s) = 3.15132 3.67459 3.42297
# Velocity P-wave (km/s) = 5.44423 6.42943 5.95723
#
# Compressibility (1/GPa) = 0.02353323
#
# Stress axis : x y z
#
# Youngs Moduli (GPa) = 82.60087 78.08447 60.11373
#
# Poissons Ratio (x) = -0.10594 0.30730
# Poissons Ratio (y) = -0.11207 0.31573
# Poissons Ratio (z) = 0.42225 0.41012
#
# Static dielectric constant tensor:
#      x y z
#    x 2.172710 0.063390 0.071240 
#    y 0.063390 2.181690 -0.052960 
#    z 0.071240 -0.052960 2.058290 
# 
# From -- ./inp_files/550735.got.cif
#   From: 2010.05.17/outbox.cif.g08.bks.cpg/sg2_276_cif.got.tgz:550735.got - 2010.06.03 11:33:40.
