data_PCOD9050873
_publ_section_title
;
Structure prediction by ZEFSAII (Michael W. Deem and Ramdas Pophale) SiO2 
 PCOD9050873
Probable space group: P -1
;
_chemical_formula_sum "Si O2"
_cell_formula_units_Z 14
_cell_length_a 5.978940
_cell_length_b 6.299048
_cell_length_c 18.756705
_cell_angle_alpha 120.775288
_cell_angle_beta 107.107027
_cell_angle_gamma 79.369641
_cell_volume 579.583372
_symmetry_space_group_name_H-M "P -1"
_symmetry_group_IT_number 2
_symmetry_cell_setting 'triclinic'
loop_
_space_group_symop_operation_xyz
x,y,z
-x,-y,-z
loop_
_atom_site_type_symbol
_atom_site_label
_atom_site_fract_x
_atom_site_fract_y
_atom_site_fract_z
Si Si1 0.698142 0.363411 0.880103
Si Si2 0.376996 0.965154 0.829366
Si Si3 0.013853 0.340449 0.318301
Si Si4 0.702475 0.777090 0.421646
Si Si5 0.128101 0.123394 0.966818
Si Si6 0.698448 0.497352 0.744973
Si Si7 0.564600 0.780058 0.566029
O O1 0.713607 0.348525 0.793853
O O2 0.920795 0.224099 0.912958
O O3 0.468223 0.232880 0.864156
O O4 0.725928 0.645954 0.954047
O O5 0.584663 0.763941 0.800431
O O6 0.171502 0.869642 0.743703
O O7 0.292461 0.958340 0.901907
O O8 0.063406 0.453820 0.264710
O O9 0.252595 0.225024 0.353601
O O10 0.912371 0.578024 0.393328
O O11 0.473922 0.633564 0.348862
O O12 0.693984 0.847160 0.515913
O O13 0.662859 0.033708 0.418493
O O14 0.000000 0.000000 0.000000
O O15 0.500000 0.500000 0.500000
#
# Coordination Sequence:
#
# PCOD9050873 Si02
#       7
#     2   2   2   2   2   2   2
#     4  11  25  43  70 102 141 185 238 289 357 427
#     4  11  25  44  69 102 142 187 233 295 354 428
#     4  11  24  47  73 104 147 195 238 299 364 419
#     4  10  25  44  70 106 142 190 241 300 358 429
#     4  11  25  46  72 102 140 188 236 293 355 427
#     4  11  25  46  66 106 142 181 243 295 350 432
#     4  11  23  47  72 103 147 188 245 298 355 431
#
# _framework density 24.155283000000001
#
# number of rings (size 3 to 8) (size 9 to 14) (size 15 to 20)
#    0.000    1.143    1.429    3.429    4.000    7.429 
#    2.571    0.000    0.000    0.000    0.000    0.000 
#    0.000    0.000    0.000    0.000    0.000    0.000 
#
# Total GULP energy -78377.703917 kJ/mol
# GULP energy per Si atom -5598.407423 kJ/mol
# Density = 2.410030 g / cm^3
# Si number density = 24.155283 Si / 1000 Ang^3
#
#
#
# Elastic Constant Matrix: (Units=GPa)
#
#
# Indices 1 2 3 4 5 6 
#
# 1 46.5594 24.4053 25.6165 1.0559 -7.4664 19.2474
# 2 24.4053 108.1092 37.4295 -1.6188 5.7545 8.7826
# 3 25.6165 37.4295 88.1250 1.8044 -4.4556 11.6380
# 4 1.0559 -1.6188 1.8044 58.5743 2.6024 -1.8356
# 5 -7.4664 5.7545 -4.4556 2.6024 49.5089 4.4322
# 6 19.2474 8.7826 11.6380 -1.8356 4.4322 35.9831
#
#
#
# Elastic Compliance Matrix: (Units=1/GPa)
#
#
# Indices 1 2 3 4 5 6 
#
# 1 0.035254 -0.005089 -0.005488 -0.001443 0.006992 -0.016775
# 2 -0.005089 0.011768 -0.003860 0.000699 -0.002650 0.001461
# 3 -0.005488 -0.003860 0.014788 -0.000545 0.001076 -0.001066
# 4 -0.001443 0.000699 -0.000545 0.017255 -0.001419 0.001833
# 5 0.006992 -0.002650 0.001076 -0.001419 0.022293 -0.006259
# 6 -0.016775 0.001461 -0.001066 0.001833 -0.006259 0.037616
#
#
# Mechanical properties :
#
#
# Convention : Reuss Voigt Hill
#
# Bulk Modulus (GPa) = 30.36199 46.41069 38.38634
# Shear Modulus (GPa) = 27.95994 39.16940 33.56467
#
# Velocity S-wave (km/s) = 3.40591 4.03124 3.73169
# Velocity P-wave (km/s) = 5.29752 6.39711 5.87311
#
# Compressibility (1/GPa) = 0.03293592
#
# Stress axis : x y z
#
# Youngs Moduli (GPa) = 28.36593 84.97496 67.62013
#
# Poissons Ratio (x) = 0.43248 0.37107
# Poissons Ratio (y) = 0.14437 0.26102
# Poissons Ratio (z) = 0.15566 0.32801
#
# Static dielectric constant tensor:
#      x y z
#    x 1.926270 0.010570 -0.007690 
#    y 0.010570 1.975010 0.012350 
#    z -0.007690 0.012350 1.915430 
# 
# From -- ./inp_files/7740.got.cif
#   From: 2010.05.17/outbox.cif.g08.bks.cpg/sg2_4_cif.got.tgz:7740.got - 2010.06.03 11:33:40.
