data_PCOD9050820
_publ_section_title
;
Structure prediction by ZEFSAII (Michael W. Deem and Ramdas Pophale) SiO2 
 PCOD9050820
Probable space group: P -1
;
_chemical_formula_sum "Si O2"
_cell_formula_units_Z 12
_cell_length_a 15.430430
_cell_length_b 8.305779
_cell_length_c 5.852034
_cell_angle_alpha 96.912996
_cell_angle_beta 64.894049
_cell_angle_gamma 60.019978
_cell_volume 532.849116
_symmetry_space_group_name_H-M "P -1"
_symmetry_group_IT_number 2
_symmetry_cell_setting 'triclinic'
loop_
_space_group_symop_operation_xyz
x,y,z
-x,-y,-z
loop_
_atom_site_type_symbol
_atom_site_label
_atom_site_fract_x
_atom_site_fract_y
_atom_site_fract_z
Si Si1 0.471230 0.338715 0.983986
Si Si2 0.556791 0.261422 0.376737
Si Si3 0.794639 0.906195 0.859223
Si Si4 0.973191 0.360504 0.134795
Si Si5 0.781233 0.556728 0.735852
Si Si6 0.986887 0.845180 0.361496
O O1 0.532884 0.214648 0.652674
O O2 0.500000 0.500000 0.000000
O O3 0.505737 0.239586 0.186758
O O4 0.330006 0.448401 0.125149
O O5 0.500000 0.500000 0.500000
O O6 0.699582 0.113437 0.135511
O O7 0.742636 0.779571 0.875172
O O8 0.922790 0.755448 0.814104
O O9 0.849281 0.922812 0.567895
O O10 0.839889 0.502024 0.410241
O O11 0.992527 0.182231 0.933171
O O12 0.000000 0.500000 0.000000
O O13 0.896678 0.382934 0.727332
O O14 0.000000 0.000000 0.500000
#
# Coordination Sequence:
#
# PCOD9050820 Si02
#       6
#     2   2   2   2   2   2
#     4  10  25  44  68  97 140 187 239 290 346 410
#     4  10  25  44  68  97 140 187 239 290 346 410
#     4  11  24  42  69 102 136 181 235 289 354 427
#     4  11  21  43  73 102 141 179 227 290 362 431
#     4  11  24  42  69 102 136 181 235 289 354 427
#     4  11  25  39  69 105 137 175 227 290 361 422
#
# _framework density 22.520447999999998
#
# number of rings (size 3 to 8) (size 9 to 14) (size 15 to 20)
#    0.000    1.333    3.333    1.000    9.333    6.667 
#    0.000    0.000    0.000    0.000    0.000    0.000 
#    0.000    0.000    0.000    0.000    0.000    0.000 
#
# Total GULP energy -66842.923535 kJ/mol
# GULP energy per Si atom -5570.243628 kJ/mol
# Density = 2.246919 g / cm^3
# Si number density = 22.520448 Si / 1000 Ang^3
#
#
#
# Elastic Constant Matrix: (Units=GPa)
#
#
# Indices 1 2 3 4 5 6 
#
# 1 98.3250 13.0600 43.4804 0.5846 -10.2030 9.4059
# 2 13.0600 45.1665 29.1419 15.2484 -3.4614 11.8981
# 3 43.4804 29.1419 126.9672 7.3336 -6.5422 -8.7970
# 4 0.5846 15.2484 7.3336 34.6358 -8.8917 7.0818
# 5 -10.2030 -3.4614 -6.5422 -8.8917 52.9121 -0.3245
# 6 9.4059 11.8981 -8.7970 7.0818 -0.3245 33.1272
#
#
#
# Elastic Compliance Matrix: (Units=1/GPa)
#
#
# Indices 1 2 3 4 5 6 
#
# 1 0.013090 0.000233 -0.004949 0.002466 0.002307 -0.005619
# 2 0.000233 0.034228 -0.008177 -0.011018 -0.000653 -0.012182
# 3 -0.004949 -0.008177 0.011998 -0.000422 -0.000030 0.007618
# 4 0.002466 -0.011018 -0.000422 0.036174 0.005754 -0.004532
# 5 0.002307 -0.000653 -0.000030 0.005754 0.020256 -0.001460
# 6 -0.005619 -0.012182 0.007618 -0.004532 -0.001460 0.039135
#
#
# Mechanical properties :
#
#
# Convention : Reuss Voigt Hill
#
# Bulk Modulus (GPa) = 29.82434 49.09147 39.45791
# Shear Modulus (GPa) = 26.06278 36.45346 31.25812
#
# Velocity S-wave (km/s) = 3.40559 4.02765 3.72961
# Velocity P-wave (km/s) = 5.36060 6.59358 6.00880
#
# Compressibility (1/GPa) = 0.03352966
#
# Stress axis : x y z
#
# Youngs Moduli (GPa) = 76.39249 29.21606 83.34454
#
# Poissons Ratio (x) = -0.00680 0.41248
# Poissons Ratio (y) = -0.01778 0.68151
# Poissons Ratio (z) = 0.37807 0.23890
#
# Static dielectric constant tensor:
#      x y z
#    x 1.827810 -0.036000 0.069290 
#    y -0.036000 1.279200 1.177710 
#    z 0.069290 1.177710 -0.745050 
# 
# From -- ./inp_files/23027.got.cif
#   From: 2010.05.17/outbox.cif.g08.bks.cpg/sg2_12_cif.got.tgz:23027.got - 2010.06.03 11:33:40.
