data_PCOD9050749
_publ_section_title
;
Structure prediction by ZEFSAII (Michael W. Deem and Ramdas Pophale) SiO2 
 PCOD9050749
Probable space group: P -1
;
_chemical_formula_sum "Si O2"
_cell_formula_units_Z 14
_cell_length_a 15.235074
_cell_length_b 22.838704
_cell_length_c 13.502179
_cell_angle_alpha 159.654964
_cell_angle_beta 31.363661
_cell_angle_gamma 160.560234
_cell_volume 524.671071
_symmetry_space_group_name_H-M "P -1"
_symmetry_group_IT_number 2
_symmetry_cell_setting 'triclinic'
loop_
_space_group_symop_operation_xyz
x,y,z
-x,-y,-z
loop_
_atom_site_type_symbol
_atom_site_label
_atom_site_fract_x
_atom_site_fract_y
_atom_site_fract_z
Si Si1 0.901755 0.679737 0.166208
Si Si2 0.593343 0.641541 0.993333
Si Si3 0.790627 0.272581 0.755920
Si Si4 0.533864 0.805291 0.487993
Si Si5 0.133713 0.369718 0.434783
Si Si6 0.211335 0.804102 0.676864
Si Si7 0.364510 0.269904 0.349060
O O1 0.721875 0.563850 0.058121
O O2 0.807992 0.758355 0.452320
O O3 0.794233 0.428599 0.923417
O O4 0.229785 0.936563 0.259512
O O5 0.575987 0.451642 0.766725
O O6 0.770024 0.729765 0.866175
O O7 0.676902 0.854616 0.325467
O O8 0.491264 0.021587 0.688820
O O9 0.897968 0.197179 0.470925
O O10 0.000000 0.500000 0.000000
O O11 0.292509 0.741325 0.587097
O O12 0.395734 0.629164 0.657569
O O13 0.031351 0.409171 0.506629
O O14 0.193571 0.983808 0.014280
O O15 0.500000 0.500000 0.500000
#
# Coordination Sequence:
#
# PCOD9050749 Si02
#       7
#     2   2   2   2   2   2   2
#     4  11  21  41  67  92 128 167 208 261 315 373
#     4  10  25  44  64  94 123 167 219 264 301 372
#     4  12  21  42  64  95 134 163 207 257 317 383
#     4  11  23  44  68  89 127 169 212 259 318 365
#     4  11  24  41  62  96 127 165 213 256 312 368
#     4  12  24  40  66  97 127 172 202 257 323 376
#     4  11  22  41  61  94 133 162 205 257 307 379
#
# _framework density 26.683382999999999
#
# number of rings (size 3 to 8) (size 9 to 14) (size 15 to 20)
#    0.000    0.857    4.286    2.571    0.000    1.143 
#    0.000    7.857    0.000    0.000    0.000    0.000 
#    0.000    0.000    0.000    0.000    0.000    0.000 
#
# Total GULP energy -78395.744690 kJ/mol
# GULP energy per Si atom -5599.696049 kJ/mol
# Density = 2.662265 g / cm^3
# Si number density = 26.683383 Si / 1000 Ang^3
#
#
#
# Elastic Constant Matrix: (Units=GPa)
#
#
# Indices 1 2 3 4 5 6 
#
# 1 155.7403 28.9741 38.6448 26.1509 -2.7369 47.2045
# 2 28.9741 90.7428 -0.7319 -4.4212 9.2079 29.1397
# 3 38.6448 -0.7319 83.7724 -8.6682 -5.8772 9.0042
# 4 26.1509 -4.4212 -8.6682 36.1446 -1.9148 18.5510
# 5 -2.7369 9.2079 -5.8772 -1.9148 51.4448 4.0486
# 6 47.2045 29.1397 9.0042 18.5510 4.0486 56.9963
#
#
#
# Elastic Compliance Matrix: (Units=1/GPa)
#
#
# Indices 1 2 3 4 5 6 
#
# 1 0.010700 -0.002346 -0.005126 -0.006837 0.000516 -0.004664
# 2 -0.002346 0.015321 0.003022 0.008923 -0.001468 -0.009168
# 3 -0.005126 0.003022 0.015738 0.009464 0.001571 -0.002977
# 4 -0.006837 0.008923 0.009464 0.043637 0.001904 -0.014733
# 5 0.000516 -0.001468 0.001571 0.001904 0.020134 -0.001975
# 6 -0.004664 -0.009168 -0.002977 -0.014733 -0.001975 0.031501
#
#
# Mechanical properties :
#
#
# Convention : Reuss Voigt Hill
#
# Bulk Modulus (GPa) = 30.43348 51.55883 40.99616
# Shear Modulus (GPa) = 31.87046 46.47503 39.17275
#
# Velocity S-wave (km/s) = 3.45975 4.17792 3.83568
# Velocity P-wave (km/s) = 5.23354 6.52976 5.91725
#
# Compressibility (1/GPa) = 0.03285855
#
# Stress axis : x y z
#
# Youngs Moduli (GPa) = 93.45654 65.26890 63.54089
#
# Poissons Ratio (x) = 0.15309 0.32574
# Poissons Ratio (y) = 0.21921 -0.19199
# Poissons Ratio (z) = 0.47910 -0.19722
#
# Static dielectric constant tensor:
#      x y z
#    x 2.105360 0.004960 0.007060 
#    y 0.004960 2.138030 -0.041470 
#    z 0.007060 -0.041470 2.072470 
# 
# From -- ./inp_files/263725.got.cif
#   From: 2010.05.17/outbox.cif.g08.bks.cpg/sg2_132_cif.got.tgz:263725.got - 2010.06.03 11:33:40.
