data_PCOD9050433
_publ_section_title
;
Structure prediction by ZEFSAII (Michael W. Deem and Ramdas Pophale) SiO2 
 PCOD9050433
Probable space group: P -1
;
_chemical_formula_sum "Si O2"
_cell_formula_units_Z 13
_cell_length_a 9.334055
_cell_length_b 16.842586
_cell_length_c 7.723292
_cell_angle_alpha 140.643674
_cell_angle_beta 48.288789
_cell_angle_gamma 135.900890
_cell_volume 518.871692
_symmetry_space_group_name_H-M "P -1"
_symmetry_group_IT_number 2
_symmetry_cell_setting 'triclinic'
loop_
_space_group_symop_operation_xyz
x,y,z
-x,-y,-z
loop_
_atom_site_type_symbol
_atom_site_label
_atom_site_fract_x
_atom_site_fract_y
_atom_site_fract_z
Si Si1 0.002247 0.606939 0.320429
Si Si2 0.233728 0.188255 0.530800
Si Si3 0.000611 0.112497 0.923046
Si Si4 0.628302 0.149344 0.737975
Si Si5 0.000000 0.500000 0.500000
Si Si6 0.703864 0.723259 0.745424
Si Si7 0.684055 0.199157 0.169304
O O1 0.096547 0.581470 0.378363
O O2 0.770376 0.601803 0.545868
O O3 0.151260 0.757709 0.376473
O O4 0.000000 0.500000 0.000000
O O5 0.147505 0.215765 0.827498
O O6 0.279158 0.284640 0.489516
O O7 0.452749 0.179262 0.377928
O O8 0.060360 0.042692 0.349142
O O9 0.121303 0.151022 0.070488
O O10 0.786934 0.132267 0.109551
O O11 0.500000 0.000000 0.500000
O O12 0.499808 0.246718 0.004246
O O13 0.664825 0.130793 0.879906
O O14 0.837966 0.360596 0.289615
#
# Coordination Sequence:
#
# PCOD9050433 Si02
#       7
#     2   2   2   2   1   2   2
#     4  12  27  50  75 102 154 200 247 309 370 441
#     4  10  25  41  66 105 145 181 240 304 372 440
#     4  11  23  41  70 103 143 189 238 302 377 435
#     4  11  28  47  80 115 150 194 249 309 387 443
#     4  12  26  48  72 106 144 204 258 296 368 448
#     4  11  26  44  72 109 142 195 246 304 368 450
#     4  11  24  47  68 104 146 195 245 308 362 446
#
# _framework density 25.054365000000001
#
# number of rings (size 3 to 8) (size 9 to 14) (size 15 to 20)
#    0.000    0.923    3.077    1.846   12.923    0.615 
#    0.000    1.538    0.000    0.000    0.000    0.000 
#    0.000    0.000    0.000    0.000    0.000    0.000 
#
# Total GULP energy -72450.842564 kJ/mol
# GULP energy per Si atom -5573.141736 kJ/mol
# Density = 2.499734 g / cm^3
# Si number density = 25.054365 Si / 1000 Ang^3
#
#
#
# Elastic Constant Matrix: (Units=GPa)
#
#
# Indices 1 2 3 4 5 6 
#
# 1 85.2921 9.8092 17.7567 -19.9887 6.9401 14.1793
# 2 9.8092 61.8260 22.2318 -6.2810 1.2737 1.8765
# 3 17.7567 22.2318 104.4315 -0.5441 7.9660 11.2955
# 4 -19.9887 -6.2810 -0.5441 39.5986 4.4139 1.0615
# 5 6.9401 1.2737 7.9660 4.4139 39.0954 -9.4073
# 6 14.1793 1.8765 11.2955 1.0615 -9.4073 23.1853
#
#
#
# Elastic Compliance Matrix: (Units=1/GPa)
#
#
# Indices 1 2 3 4 5 6 
#
# 1 0.017017 -0.000938 -0.000654 0.009588 -0.007153 -0.013354
# 2 -0.000938 0.017868 -0.003766 0.002244 0.000338 0.000997
# 3 -0.000654 -0.003766 0.011445 -0.000201 -0.003591 -0.006319
# 4 0.009588 0.002244 -0.000201 0.031605 -0.007848 -0.010578
# 5 -0.007153 0.000338 -0.003591 -0.007848 0.033255 0.019949
# 6 -0.013354 0.000997 -0.006319 -0.010578 0.019949 0.062874
#
#
# Mechanical properties :
#
#
# Convention : Reuss Voigt Hill
#
# Bulk Modulus (GPa) = 28.07880 39.01611 33.54745
# Shear Modulus (GPa) = 25.42560 33.82598 29.62579
#
# Velocity S-wave (km/s) = 3.18908 3.67836 3.44242
# Velocity P-wave (km/s) = 4.97913 5.80059 5.40549
#
# Compressibility (1/GPa) = 0.03561406
#
# Stress axis : x y z
#
# Youngs Moduli (GPa) = 58.76353 55.96476 87.37464
#
# Poissons Ratio (x) = 0.05250 0.05713
# Poissons Ratio (y) = 0.05513 0.32908
# Poissons Ratio (z) = 0.03842 0.21078
#
# Static dielectric constant tensor:
#      x y z
#    x 2.034950 -0.002970 -0.003210 
#    y -0.002970 2.009450 0.024290 
#    z -0.003210 0.024290 2.041360 
# 
# From -- ./inp_files/216114.got.cif
#   From: 2010.05.17/outbox.cif.g08.bks.cpg/sg2_109_cif.got.tgz:216114.got - 2010.06.03 11:33:40.
