data_PCOD9050765
_publ_section_title
;
Structure prediction by ZEFSAII (Michael W. Deem and Ramdas Pophale) SiO2 
 PCOD9050765
Probable space group: P -1
;
_chemical_formula_sum "Si O2"
_cell_formula_units_Z 16
_cell_length_a 9.573388
_cell_length_b 12.328747
_cell_length_c 10.690444
_cell_angle_alpha 115.488774
_cell_angle_beta 125.190685
_cell_angle_gamma 44.524689
_cell_volume 722.654578
_symmetry_space_group_name_H-M "P -1"
_symmetry_group_IT_number 2
_symmetry_cell_setting 'triclinic'
loop_
_space_group_symop_operation_xyz
x,y,z
-x,-y,-z
loop_
_atom_site_type_symbol
_atom_site_label
_atom_site_fract_x
_atom_site_fract_y
_atom_site_fract_z
Si Si1 0.618931 0.576291 0.580743
Si Si2 0.079033 0.058169 0.462344
Si Si3 0.476189 0.911797 0.050224
Si Si4 0.550215 0.921749 0.349664
Si Si5 0.372428 0.738974 0.763528
Si Si6 0.072962 0.440216 0.865345
Si Si7 0.399097 0.760422 0.311164
Si Si8 0.330679 0.550945 0.047706
O O1 0.500000 0.500000 0.500000
O O2 0.493687 0.718655 0.686392
O O3 0.562861 0.642044 0.445282
O O4 0.872451 0.470836 0.700281
O O5 0.238953 0.096656 0.597401
O O6 0.860372 0.212339 0.367741
O O7 0.213132 0.920748 0.363147
O O8 0.000000 0.000000 0.500000
O O9 0.395951 0.998663 0.185103
O O10 0.712741 0.740311 0.108448
O O11 0.330064 0.871282 0.895466
O O12 0.500000 0.000000 0.000000
O O13 0.540139 0.783894 0.304655
O O14 0.500000 0.000000 0.500000
O O15 0.535933 0.578220 0.839266
O O16 0.143799 0.541059 0.903254
O O17 0.000000 0.500000 0.000000
O O18 0.278346 0.703710 0.152948
O O19 0.500000 0.500000 0.000000
#
# Coordination Sequence:
#
# PCOD9050765 Si02
#       8
#     2   2   2   2   2   2   2   2
#     4  12  23  41  69 104 134 176 227 284 340 408
#     4  11  23  41  69 101 133 178 228 278 340 408
#     4  11  24  42  69  98 136 178 227 277 339 405
#     4  10  25  44  66 100 143 177 225 285 344 406
#     4  11  23  42  63 100 135 167 230 281 331 405
#     4  11  23  42  68 101 134 173 230 283 337 408
#     4  11  23  44  69  96 139 179 220 286 348 403
#     4  11  24  45  66  93 136 179 221 283 345 408
#
# _framework density 22.140592000000002
#
# number of rings (size 3 to 8) (size 9 to 14) (size 15 to 20)
#    0.000    1.000    5.000    2.250    3.500    4.000 
#    0.000    8.750    0.000    0.000    0.000    0.000 
#    0.000    0.000    0.000    0.000    0.000    0.000 
#
# Total GULP energy -89305.133007 kJ/mol
# GULP energy per Si atom -5581.570813 kJ/mol
# Density = 2.209020 g / cm^3
# Si number density = 22.140592 Si / 1000 Ang^3
#
#
#
# Elastic Constant Matrix: (Units=GPa)
#
#
# Indices 1 2 3 4 5 6 
#
# 1 128.6688 16.0569 44.0254 4.0764 10.9637 25.4688
# 2 16.0569 52.3441 16.5846 7.3107 12.8273 5.0622
# 3 44.0254 16.5846 117.8411 14.7858 12.3634 9.7540
# 4 4.0764 7.3107 14.7858 37.4575 -1.7717 0.1222
# 5 10.9637 12.8273 12.3634 -1.7717 54.1159 3.0781
# 6 25.4688 5.0622 9.7540 0.1222 3.0781 34.8357
#
#
#
# Elastic Compliance Matrix: (Units=1/GPa)
#
#
# Indices 1 2 3 4 5 6 
#
# 1 0.010329 -0.001456 -0.003100 0.000373 -0.000662 -0.006415
# 2 -0.001456 0.021782 -0.001468 -0.003726 -0.004582 -0.001272
# 3 -0.003100 -0.001468 0.010486 -0.003586 -0.001519 -0.000309
# 4 0.000373 -0.003726 -0.003586 0.028915 0.002519 0.000948
# 5 -0.000662 -0.004582 -0.001519 0.002519 0.020141 -0.000213
# 6 -0.006415 -0.001272 -0.000309 0.000948 -0.000213 0.033683
#
#
# Mechanical properties :
#
#
# Convention : Reuss Voigt Hill
#
# Bulk Modulus (GPa) = 32.73478 50.24309 41.48893
# Shear Modulus (GPa) = 33.88290 40.09430 36.98860
#
# Velocity S-wave (km/s) = 3.91622 4.26008 4.09176
# Velocity P-wave (km/s) = 5.93852 6.85126 6.41115
#
# Compressibility (1/GPa) = 0.03054855
#
# Stress axis : x y z
#
# Youngs Moduli (GPa) = 96.81796 45.90859 95.36651
#
# Poissons Ratio (x) = 0.06683 0.29567
# Poissons Ratio (y) = 0.14093 0.14002
# Poissons Ratio (z) = 0.30017 0.06740
#
# Static dielectric constant tensor:
#      x y z
#    x 1.841590 0.004140 -0.042550 
#    y 0.004140 1.861990 0.044320 
#    z -0.042550 0.044320 1.860430 
# 
# From -- ./inp_files/392887.got.cif
#   From: 2010.05.17/outbox.cif.g08.bks.cpg/sg2_197_cif.got.tgz:392887.got - 2010.06.03 11:33:40.
