data_PCOD9050826
_publ_section_title
;
Structure prediction by ZEFSAII (Michael W. Deem and Ramdas Pophale) SiO2 
 PCOD9050826
Probable space group: P -1
;
_chemical_formula_sum "Si O2"
_cell_formula_units_Z 16
_cell_length_a 19.439689
_cell_length_b 17.157907
_cell_length_c 13.672291
_cell_angle_alpha 24.768523
_cell_angle_beta 40.393325
_cell_angle_gamma 22.870304
_cell_volume 659.040267
_symmetry_space_group_name_H-M "P -1"
_symmetry_group_IT_number 2
_symmetry_cell_setting 'triclinic'
loop_
_space_group_symop_operation_xyz
x,y,z
-x,-y,-z
loop_
_atom_site_type_symbol
_atom_site_label
_atom_site_fract_x
_atom_site_fract_y
_atom_site_fract_z
Si Si1 0.783771 0.966402 0.547528
Si Si2 0.017605 0.861175 0.540974
Si Si3 0.342753 0.072310 0.104008
Si Si4 0.895427 0.998214 0.887146
Si Si5 0.786262 0.823134 0.075362
Si Si6 0.689521 0.601840 0.550539
Si Si7 0.351712 0.863923 0.699511
Si Si8 0.742135 0.673094 0.616768
O O1 0.820573 0.082013 0.449136
O O2 0.984558 0.550641 0.780504
O O3 0.741851 0.100379 0.331908
O O4 0.634104 0.064786 0.661806
O O5 0.138408 0.493781 0.849206
O O6 0.113003 0.851369 0.367619
O O7 0.000000 0.000000 0.500000
O O8 0.328770 0.966908 0.141344
O O9 0.500000 0.000000 0.000000
O O10 0.786851 0.271318 0.779002
O O11 0.793327 0.963593 0.994087
O O12 0.118546 0.627646 0.108771
O O13 0.703428 0.751483 0.289416
O O14 0.467768 0.862992 0.521673
O O15 0.800883 0.509550 0.632857
O O16 0.230213 0.148637 0.591314
O O17 0.500000 0.500000 0.000000
O O18 0.500000 0.000000 0.500000
#
# Coordination Sequence:
#
# PCOD9050826 Si02
#       8
#     2   2   2   2   2   2   2   2
#     4  11  22  43  73  98 144 187 231 291 356 415
#     4  11  24  43  69 104 139 185 241 284 354 431
#     4  11  23  45  72 101 146 181 232 296 351 420
#     4  12  23  44  73 102 143 187 237 288 355 422
#     4  11  23  44  71 105 140 184 233 287 355 421
#     4  11  25  45  69 105 144 181 240 290 353 415
#     4  11  26  46  71 106 142 187 242 291 358 425
#     4  10  25  44  68  98 145 182 237 291 354 408
#
# _framework density 24.277726999999999
#
# number of rings (size 3 to 8) (size 9 to 14) (size 15 to 20)
#    0.000    1.000    3.750    4.125    5.250    1.500 
#    2.250    1.250    0.000    0.000    0.000    0.000 
#    0.000    0.000    0.000    0.000    0.000    0.000 
#
# Total GULP energy -89343.317600 kJ/mol
# GULP energy per Si atom -5583.957350 kJ/mol
# Density = 2.422247 g / cm^3
# Si number density = 24.277727 Si / 1000 Ang^3
#
#
#
# Elastic Constant Matrix: (Units=GPa)
#
#
# Indices 1 2 3 4 5 6 
#
# 1 190.8239 26.0093 28.2986 -9.6220 0.5303 57.2926
# 2 26.0093 52.3816 -1.4287 4.1751 -11.3257 17.7100
# 3 28.2986 -1.4287 55.5781 -3.2865 -0.5271 20.3528
# 4 -9.6220 4.1751 -3.2865 24.9006 0.5247 -8.4665
# 5 0.5303 -11.3257 -0.5271 0.5247 44.4022 5.3513
# 6 57.2926 17.7100 20.3528 -8.4665 5.3513 48.3463
#
#
#
# Elastic Compliance Matrix: (Units=1/GPa)
#
#
# Indices 1 2 3 4 5 6 
#
# 1 0.008235 -0.000853 -0.000848 0.000082 0.000777 -0.009161
# 2 -0.000853 0.026939 0.005736 -0.008968 0.008720 -0.013807
# 3 -0.000848 0.005736 0.022630 -0.002232 0.003137 -0.011361
# 4 0.000082 -0.008968 -0.002232 0.045787 -0.004378 0.012630
# 5 0.000777 0.008720 0.003137 -0.004378 0.025919 -0.009071
# 6 -0.009161 -0.013807 -0.011361 0.012630 -0.009071 0.044597
#
#
# Mechanical properties :
#
#
# Convention : Reuss Voigt Hill
#
# Bulk Modulus (GPa) = 15.18076 44.94911 30.06494
# Shear Modulus (GPa) = 26.59637 39.92343 33.25990
#
# Velocity S-wave (km/s) = 3.31343 4.05958 3.70533
# Velocity P-wave (km/s) = 4.57220 6.36618 5.54226
#
# Compressibility (1/GPa) = 0.06587285
#
# Stress axis : x y z
#
# Youngs Moduli (GPa) = 121.43443 37.12073 44.18881
#
# Poissons Ratio (x) = 0.03168 0.03747
# Poissons Ratio (y) = 0.10363 -0.25345
# Poissons Ratio (z) = 0.10297 -0.21291
#
# Static dielectric constant tensor:
#      x y z
#    x 1.876360 0.004210 0.002800 
#    y 0.004210 2.015570 -0.034610 
#    z 0.002800 -0.034610 1.921490 
# 
# From -- ./inp_files/466021.got.cif
#   From: 2010.05.17/outbox.cif.g08.bks.cpg/sg2_234_cif.got.tgz:466021.got - 2010.06.03 11:33:40.
