data_PCOD9050982
_publ_section_title
;
Structure prediction by ZEFSAII (Michael W. Deem and Ramdas Pophale) SiO2 
 PCOD9050982
Probable space group: P -1
;
_chemical_formula_sum "Si O2"
_cell_formula_units_Z 16
_cell_length_a 8.392875
_cell_length_b 13.599190
_cell_length_c 8.394169
_cell_angle_alpha 103.023576
_cell_angle_beta 119.641860
_cell_angle_gamma 55.040693
_cell_volume 680.177227
_symmetry_space_group_name_H-M "P -1"
_symmetry_group_IT_number 2
_symmetry_cell_setting 'triclinic'
loop_
_space_group_symop_operation_xyz
x,y,z
-x,-y,-z
loop_
_atom_site_type_symbol
_atom_site_label
_atom_site_fract_x
_atom_site_fract_y
_atom_site_fract_z
Si Si1 0.980501 0.995590 0.800995
Si Si2 0.634621 0.672475 0.730459
Si Si3 0.559392 0.082415 0.155939
Si Si4 0.235889 0.096749 0.545152
Si Si5 0.759624 0.469789 0.252665
Si Si6 0.723513 0.449744 0.870898
Si Si7 0.178396 0.768165 0.380258
Si Si8 0.781218 0.679969 0.451079
O O1 0.837839 0.129073 0.704014
O O2 0.870068 0.923731 0.668240
O O3 0.219389 0.936758 0.816044
O O4 0.000000 0.000000 0.000000
O O5 0.620993 0.776506 0.869790
O O6 0.753314 0.546376 0.832199
O O7 0.384985 0.715948 0.579899
O O8 0.728912 0.665189 0.600351
O O9 0.601215 0.030164 0.336843
O O10 0.500000 0.000000 0.000000
O O11 0.325367 0.181643 0.593513
O O12 0.041406 0.165741 0.602252
O O13 0.536639 0.486025 0.204526
O O14 0.722061 0.602134 0.285504
O O15 0.955625 0.387176 0.440487
O O16 0.818688 0.418760 0.084668
O O17 0.801117 0.335981 0.756789
#
# Coordination Sequence:
#
# PCOD9050982 Si02
#       8
#     2   2   2   2   2   2   2   2
#     4  11  25  44  71  98 129 175 221 267 324 391
#     4  12  24  43  67  97 131 172 220 263 327 386
#     4  11  26  45  67 100 133 170 221 270 326 386
#     4  11  24  46  69  91 136 178 211 272 326 390
#     4  10  25  45  60 101 131 169 217 266 323 391
#     4  11  25  42  72  92 130 175 219 266 319 391
#     4  11  22  45  68  95 127 177 222 257 325 397
#     4  11  26  41  66  95 136 168 214 269 333 375
#
# _framework density 23.523281000000001
#
# number of rings (size 3 to 8) (size 9 to 14) (size 15 to 20)
#    0.000    1.000    3.750    1.875    8.750    4.000 
#    0.000    0.000    0.000    0.000    0.000    0.000 
#    0.000    0.000    0.000    0.000    0.000    0.000 
#
# Total GULP energy -89642.427768 kJ/mol
# GULP energy per Si atom -5602.651736 kJ/mol
# Density = 2.346974 g / cm^3
# Si number density = 23.523281 Si / 1000 Ang^3
#
#
#
# Elastic Constant Matrix: (Units=GPa)
#
#
# Indices 1 2 3 4 5 6 
#
# 1 43.1520 5.8815 5.2579 -1.6716 -3.5703 5.3435
# 2 5.8815 115.7483 19.6640 28.7456 -17.2430 12.3300
# 3 5.2579 19.6640 82.4411 28.4873 -12.0911 5.2762
# 4 -1.6716 28.7456 28.4873 47.5322 -1.4118 -4.7135
# 5 -3.5703 -17.2430 -12.0911 -1.4118 31.7528 0.0019
# 6 5.3435 12.3300 5.2762 -4.7135 0.0019 33.1376
#
#
#
# Elastic Compliance Matrix: (Units=1/GPa)
#
#
# Indices 1 2 3 4 5 6 
#
# 1 0.024086 -0.000903 -0.001610 0.002112 0.001699 -0.002991
# 2 -0.000903 0.012220 0.001517 -0.008715 0.006725 -0.005883
# 3 -0.001610 0.001517 0.017118 -0.011499 0.006650 -0.004666
# 4 0.002112 -0.008715 -0.011499 0.034005 -0.007362 0.009570
# 5 0.001699 0.006725 0.006650 -0.007362 0.037542 -0.004884
# 6 -0.002991 -0.005883 -0.004666 0.009570 -0.004884 0.034953
#
#
# Mechanical properties :
#
#
# Convention : Reuss Voigt Hill
#
# Bulk Modulus (GPa) = 19.44300 33.66093 26.55196
# Shear Modulus (GPa) = 27.92361 36.52040 32.22200
#
# Velocity S-wave (km/s) = 3.44912 3.94448 3.70509
# Velocity P-wave (km/s) = 4.91378 5.92334 5.44202
#
# Compressibility (1/GPa) = 0.05143240
#
# Stress axis : x y z
#
# Youngs Moduli (GPa) = 41.51804 81.82988 58.41812
#
# Poissons Ratio (x) = 0.07390 0.09405
# Poissons Ratio (y) = 0.03750 -0.08862
# Poissons Ratio (z) = 0.06684 -0.12414
#
# Static dielectric constant tensor:
#      x y z
#    x 1.899220 -0.005110 0.033650 
#    y -0.005110 1.873900 -0.014590 
#    z 0.033650 -0.014590 1.859740 
# 
# From -- ./inp_files/178239.got.cif
#   From: 2010.05.17/outbox.cif.g08.bks.cpg/sg2_90_cif.got.tgz:178239.got - 2010.06.03 11:33:40.
