data_PCOD9050597
_publ_section_title
;
Structure prediction by ZEFSAII (Michael W. Deem and Ramdas Pophale) SiO2 
 PCOD9050597
Probable space group: P -1
;
_chemical_formula_sum "Si O2"
_cell_formula_units_Z 16
_cell_length_a 14.701307
_cell_length_b 9.040130
_cell_length_c 8.601108
_cell_angle_alpha 61.585951
_cell_angle_beta 138.181742
_cell_angle_gamma 110.147671
_cell_volume 670.265964
_symmetry_space_group_name_H-M "P -1"
_symmetry_group_IT_number 2
_symmetry_cell_setting 'triclinic'
loop_
_space_group_symop_operation_xyz
x,y,z
-x,-y,-z
loop_
_atom_site_type_symbol
_atom_site_label
_atom_site_fract_x
_atom_site_fract_y
_atom_site_fract_z
Si Si1 0.891130 0.674659 0.342822
Si Si2 0.256354 0.797718 0.098617
Si Si3 0.519988 0.994082 0.343383
Si Si4 0.241835 0.230986 0.374697
Si Si5 0.610794 0.487703 0.386418
Si Si6 0.597609 0.665952 0.969532
Si Si7 0.108891 0.529190 0.856638
Si Si8 0.000858 0.002037 0.189311
O O1 0.871185 0.527344 0.266251
O O2 0.951218 0.596454 0.617774
O O3 0.741510 0.757898 0.105432
O O4 0.993715 0.812890 0.339157
O O5 0.388853 0.896192 0.163094
O O6 0.304661 0.665271 0.358312
O O7 0.198381 0.682485 0.946789
O O8 0.134207 0.905744 0.963155
O O9 0.657124 0.891810 0.531520
O O10 0.500000 0.000000 0.500000
O O11 0.509695 0.189567 0.184548
O O12 0.341542 0.344775 0.549727
O O13 0.130579 0.104747 0.365236
O O14 0.150674 0.367373 0.093162
O O15 0.454765 0.419194 0.214334
O O16 0.627375 0.525668 0.207136
O O17 0.000000 0.000000 0.000000
#
# Coordination Sequence:
#
# PCOD9050597 Si02
#       8
#     2   2   2   2   2   2   2   2
#     4  11  24  46  69  99 140 178 225 278 341 404
#     4  11  25  43  73  99 134 182 229 276 335 405
#     4  12  23  45  70 100 136 181 230 275 340 408
#     4  11  26  45  71 101 138 177 230 281 336 399
#     4  10  26  43  67 105 134 178 223 289 334 400
#     4  11  24  45  71  98 139 178 227 276 346 398
#     4  10  25  43  66 104 131 179 222 281 334 403
#     4  12  25  44  68 103 137 179 225 276 344 401
#
# _framework density 23.871119
#
# number of rings (size 3 to 8) (size 9 to 14) (size 15 to 20)
#    0.000    1.000    3.750    1.500    5.250    4.000 
#    4.500    0.000    0.000    0.000    0.000    0.000 
#    0.000    0.000    0.000    0.000    0.000    0.000 
#
# Total GULP energy -89366.044127 kJ/mol
# GULP energy per Si atom -5585.377758 kJ/mol
# Density = 2.381679 g / cm^3
# Si number density = 23.871119 Si / 1000 Ang^3
#
#
#
# Elastic Constant Matrix: (Units=GPa)
#
#
# Indices 1 2 3 4 5 6 
#
# 1 45.3744 32.7068 27.3427 -7.4979 16.9720 9.2822
# 2 32.7068 161.9631 75.5176 4.0464 6.7476 15.9499
# 3 27.3427 75.5176 149.6774 13.5580 9.8261 3.4372
# 4 -7.4979 4.0464 13.5580 40.2689 3.4186 6.2545
# 5 16.9720 6.7476 9.8261 3.4186 32.0362 2.3993
# 6 9.2822 15.9499 3.4372 6.2545 2.3993 32.0063
#
#
#
# Elastic Compliance Matrix: (Units=1/GPa)
#
#
# Indices 1 2 3 4 5 6 
#
# 1 0.039028 -0.004295 -0.004616 0.012364 -0.018950 -0.009678
# 2 -0.004295 0.009041 -0.003815 -0.000115 0.001775 -0.002961
# 3 -0.004616 -0.003815 0.009734 -0.004260 0.000494 0.002990
# 4 0.012364 -0.000115 -0.004260 0.030560 -0.007848 -0.008455
# 5 -0.018950 0.001775 0.000494 -0.007848 0.041342 0.002992
# 6 -0.009678 -0.002961 0.002990 -0.008455 0.002992 0.036633
#
#
# Mechanical properties :
#
#
# Convention : Reuss Voigt Hill
#
# Bulk Modulus (GPa) = 30.91213 69.79436 50.35324
# Shear Modulus (GPa) = 24.68242 35.62547 30.15395
#
# Velocity S-wave (km/s) = 3.21906 3.86736 3.55801
# Velocity P-wave (km/s) = 5.17630 7.01737 6.16594
#
# Compressibility (1/GPa) = 0.03234977
#
# Stress axis : x y z
#
# Youngs Moduli (GPa) = 25.62281 110.60858 102.73444
#
# Poissons Ratio (x) = 0.47510 0.47423
# Poissons Ratio (y) = 0.11006 0.39193
# Poissons Ratio (z) = 0.11828 0.42197
#
# Static dielectric constant tensor:
#      x y z
#    x 2.061750 0.066890 0.115340 
#    y 0.066890 1.964690 0.031300 
#    z 0.115340 0.031300 2.014500 
# 
# From -- ./inp_files/298024.got.cif
#   From: 2010.05.17/outbox.cif.g08.bks.cpg/sg2_150_cif.got.tgz:298024.got - 2010.06.03 11:33:40.
