data_PCOD9050297
_publ_section_title
;
Structure prediction by ZEFSAII (Michael W. Deem and Ramdas Pophale) SiO2 
 PCOD9050297
Probable space group: P -1
;
_chemical_formula_sum "Si O2"
_cell_formula_units_Z 16
_cell_length_a 14.165740
_cell_length_b 8.738910
_cell_length_c 9.581001
_cell_angle_alpha 54.673863
_cell_angle_beta 122.681197
_cell_angle_gamma 83.490376
_cell_volume 639.201176
_symmetry_space_group_name_H-M "P -1"
_symmetry_group_IT_number 2
_symmetry_cell_setting 'triclinic'
loop_
_space_group_symop_operation_xyz
x,y,z
-x,-y,-z
loop_
_atom_site_type_symbol
_atom_site_label
_atom_site_fract_x
_atom_site_fract_y
_atom_site_fract_z
Si Si1 0.115284 0.505139 0.694299
Si Si2 0.944241 0.161440 0.007273
Si Si3 0.135797 0.878319 0.573746
Si Si4 0.841344 0.618694 0.522566
Si Si5 0.518337 0.201615 0.381277
Si Si6 0.559503 0.374314 0.764326
Si Si7 0.601699 0.119342 0.170897
Si Si8 0.739313 0.039140 0.881605
O O1 0.193013 0.606324 0.757538
O O2 0.140301 0.501053 0.550068
O O3 0.955627 0.666746 0.549342
O O4 0.167912 0.243008 0.910245
O O5 0.899496 0.417205 0.794574
O O6 0.810918 0.159915 0.926038
O O7 0.000000 0.000000 0.000000
O O8 0.062919 0.022910 0.294434
O O9 0.262239 0.881732 0.716035
O O10 0.000000 0.000000 0.500000
O O11 0.684693 0.845876 0.330296
O O12 0.403968 0.461909 0.222707
O O13 0.540544 0.186246 0.242074
O O14 0.655296 0.133716 0.618215
O O15 0.500000 0.000000 0.500000
O O16 0.500000 0.500000 0.500000
O O17 0.647989 0.104868 0.914267
O O18 0.491602 0.332981 0.863218
#
# Coordination Sequence:
#
# PCOD9050297 Si02
#       8
#     2   2   2   2   2   2   2   2
#     4  11  21  41  65 104 146 184 225 275 341 442
#     4  12  22  39  66 101 145 187 226 265 337 440
#     4  12  25  40  67 108 149 185 217 279 353 428
#     4  11  23  39  69 102 147 186 231 269 338 450
#     4  11  28  48  69 103 135 183 251 317 346 391
#     4  10  24  50  73  93 130 186 244 299 347 416
#     4  12  25  46  71 106 143 188 229 297 369 400
#     4  11  23  45  73  95 139 194 231 287 354 413
#
# _framework density 25.031243
#
# number of rings (size 3 to 8) (size 9 to 14) (size 15 to 20)
#    0.000    0.750    5.000    2.625    3.500    1.500 
#    0.000    2.500    0.000    0.000    0.000    0.000 
#    0.000    0.000    0.000    0.000    0.000    0.000 
#
# Total GULP energy -89079.691783 kJ/mol
# GULP energy per Si atom -5567.480736 kJ/mol
# Density = 2.497427 g / cm^3
# Si number density = 25.031243 Si / 1000 Ang^3
#
#
#
# Elastic Constant Matrix: (Units=GPa)
#
#
# Indices 1 2 3 4 5 6 
#
# 1 55.0050 33.9989 21.8759 2.1371 -15.5919 -9.4374
# 2 33.9989 124.0489 50.4406 -15.8963 -16.0428 -13.4258
# 3 21.8759 50.4406 139.8419 10.6410 -21.7349 -10.0664
# 4 2.1371 -15.8963 10.6410 31.8177 -3.2346 -4.0173
# 5 -15.5919 -16.0428 -21.7349 -3.2346 33.6178 11.6851
# 6 -9.4374 -13.4258 -10.0664 -4.0173 11.6851 45.7581
#
#
#
# Elastic Compliance Matrix: (Units=1/GPa)
#
#
# Indices 1 2 3 4 5 6 
#
# 1 0.024442 -0.006037 -0.000097 -0.003722 0.007703 0.000955
# 2 -0.006037 0.012777 -0.004038 0.008490 0.000750 0.002169
# 3 -0.000097 -0.004038 0.009566 -0.004878 0.003928 -0.000532
# 4 -0.003722 0.008490 -0.004878 0.038168 0.001595 0.003594
# 5 0.007703 0.000750 0.003928 0.001595 0.038839 -0.007105
# 6 0.000955 0.002169 -0.000532 0.003594 -0.007105 0.024701
#
#
# Mechanical properties :
#
#
# Convention : Reuss Voigt Hill
#
# Bulk Modulus (GPa) = 37.81841 59.05851 48.43846
# Shear Modulus (GPa) = 28.14517 36.41074 32.27796
#
# Velocity S-wave (km/s) = 3.35685 3.81808 3.59487
# Velocity P-wave (km/s) = 5.49234 6.56369 6.05177
#
# Compressibility (1/GPa) = 0.02644215
#
# Stress axis : x y z
#
# Youngs Moduli (GPa) = 40.91309 78.26298 104.53783
#
# Poissons Ratio (x) = 0.47248 0.01013
# Poissons Ratio (y) = 0.24699 0.42209
# Poissons Ratio (z) = 0.00396 0.31600
#
# Static dielectric constant tensor:
#      x y z
#    x -2.315450 -0.033920 -0.609200 
#    y -0.033920 1.969050 -0.054480 
#    z -0.609200 -0.054480 2.031010 
# 
# From -- ./inp_files/297535.got.cif
#   From: 2010.05.17/outbox.cif.g08.bks.cpg/sg2_149_cif.got.tgz:297535.got - 2010.06.03 11:33:40.
