data_PCOD9050259
_publ_section_title
;
Structure prediction by ZEFSAII (Michael W. Deem and Ramdas Pophale) SiO2 
 PCOD9050259
Probable space group: P -1
;
_chemical_formula_sum "Si O2"
_cell_formula_units_Z 14
_cell_length_a 10.622460
_cell_length_b 11.979529
_cell_length_c 5.259586
_cell_angle_alpha 109.689126
_cell_angle_beta 121.047038
_cell_angle_gamma 84.596745
_cell_volume 537.253335
_symmetry_space_group_name_H-M "P -1"
_symmetry_group_IT_number 2
_symmetry_cell_setting 'triclinic'
loop_
_space_group_symop_operation_xyz
x,y,z
-x,-y,-z
loop_
_atom_site_type_symbol
_atom_site_label
_atom_site_fract_x
_atom_site_fract_y
_atom_site_fract_z
Si Si1 0.903940 0.154391 0.791517
Si Si2 0.895843 0.386206 0.699507
Si Si3 0.694868 0.287340 0.014119
Si Si4 0.812356 0.912894 0.693493
Si Si5 0.361456 0.329591 0.681062
Si Si6 0.597145 0.037704 0.884394
Si Si7 0.670057 0.536950 0.746027
O O1 0.952192 0.258245 0.719468
O O2 0.849772 0.014432 0.597637
O O3 0.764429 0.208527 0.813563
O O4 0.039747 0.144378 0.117555
O O5 0.830497 0.374496 0.337275
O O6 0.748954 0.417723 0.716311
O O7 0.000000 0.500000 0.000000
O O8 0.540368 0.343351 0.859840
O O9 0.645880 0.178344 0.075264
O O10 0.691659 0.806445 0.417117
O O11 0.744389 0.974977 0.916641
O O12 0.292151 0.373254 0.381263
O O13 0.305887 0.402265 0.913014
O O14 0.500000 0.000000 0.500000
O O15 0.500000 0.000000 0.000000
O O16 0.500000 0.500000 0.500000
#
# Coordination Sequence:
#
# PCOD9050259 Si02
#       7
#     2   2   2   2   2   2   2
#     4  10  25  51  72 108 153 199 252 308 388 454
#     4  12  28  47  73 106 150 207 255 313 375 456
#     4  11  26  43  74 108 149 198 249 314 377 445
#     4  10  24  49  78 111 150 198 248 316 380 463
#     4  12  26  46  78 114 147 196 253 313 381 435
#     4  11  25  44  76 116 149 191 242 310 383 449
#     4  12  27  47  75 108 151 198 252 313 365 444
#
# _framework density 26.058468999999999
#
# number of rings (size 3 to 8) (size 9 to 14) (size 15 to 20)
#    0.000    0.857    2.857    2.143   10.000    0.571 
#    5.143    2.143    0.000    0.000    0.000    0.000 
#    0.000    0.000    0.000    0.000    0.000    0.000 
#
# Total GULP energy -78261.993297 kJ/mol
# GULP energy per Si atom -5590.142378 kJ/mol
# Density = 2.599916 g / cm^3
# Si number density = 26.058469 Si / 1000 Ang^3
#
#
#
# Elastic Constant Matrix: (Units=GPa)
#
#
# Indices 1 2 3 4 5 6 
#
# 1 49.4288 12.3857 16.2319 -14.3000 -9.0846 -1.0425
# 2 12.3857 172.5820 48.6307 -7.3195 6.8462 -0.9145
# 3 16.2319 48.6307 121.7488 4.2603 3.8869 12.5343
# 4 -14.3000 -7.3195 4.2603 35.6649 4.1867 12.1726
# 5 -9.0846 6.8462 3.8869 4.1867 36.4256 7.4781
# 6 -1.0425 -0.9145 12.5343 12.1726 7.4781 45.1371
#
#
#
# Elastic Compliance Matrix: (Units=1/GPa)
#
#
# Indices 1 2 3 4 5 6 
#
# 1 0.025715 -0.000667 -0.003490 0.010668 0.006167 -0.002349
# 2 -0.000667 0.006713 -0.002669 0.001347 -0.001450 0.000739
# 3 -0.003490 -0.002669 0.010075 -0.002319 -0.000728 -0.002186
# 4 0.010668 0.001347 -0.002319 0.035834 0.000343 -0.008803
# 5 0.006167 -0.001450 -0.000728 0.000343 0.030286 -0.004795
# 6 -0.002349 0.000739 -0.002186 -0.008803 -0.004795 0.025891
#
#
# Mechanical properties :
#
#
# Convention : Reuss Voigt Hill
#
# Bulk Modulus (GPa) = 34.66265 55.36179 45.01222
# Shear Modulus (GPa) = 31.68909 41.21295 36.45102
#
# Velocity S-wave (km/s) = 3.49101 3.98119 3.74413
# Velocity P-wave (km/s) = 5.43878 6.51341 6.00020
#
# Compressibility (1/GPa) = 0.02884950
#
# Stress axis : x y z
#
# Youngs Moduli (GPa) = 38.88831 148.96585 99.25802
#
# Poissons Ratio (x) = 0.09929 0.34646
# Poissons Ratio (y) = 0.02592 0.26496
# Poissons Ratio (z) = 0.13574 0.39766
#
# Static dielectric constant tensor:
#      x y z
#    x 2.129730 0.058160 -0.016500 
#    y 0.058160 1.957870 0.019490 
#    z -0.016500 0.019490 2.084630 
# 
# From -- ./inp_files/72094.got.cif
#   From: 2010.05.17/outbox.cif.g08.bks.cpg/sg2_37_cif.got.tgz:72094.got - 2010.06.03 11:33:40.
