data_PCOD9050190
_publ_section_title
;
Structure prediction by ZEFSAII (Michael W. Deem and Ramdas Pophale) SiO2 
 PCOD9050190
Probable space group: P -1
;
_chemical_formula_sum "Si O2"
_cell_formula_units_Z 14
_cell_length_a 5.731687
_cell_length_b 14.428964
_cell_length_c 17.237278
_cell_angle_alpha 32.299210
_cell_angle_beta 125.731164
_cell_angle_gamma 116.711489
_cell_volume 615.143778
_symmetry_space_group_name_H-M "P -1"
_symmetry_group_IT_number 2
_symmetry_cell_setting 'triclinic'
loop_
_space_group_symop_operation_xyz
x,y,z
-x,-y,-z
loop_
_atom_site_type_symbol
_atom_site_label
_atom_site_fract_x
_atom_site_fract_y
_atom_site_fract_z
Si Si1 0.662423 0.310635 0.152102
Si Si2 0.806979 0.727846 0.604270
Si Si3 0.751896 0.033194 0.252768
Si Si4 0.824716 0.362758 0.781453
Si Si5 0.621850 0.012656 0.602176
Si Si6 0.108556 0.005676 0.106460
Si Si7 0.861073 0.662490 0.309889
O O1 0.706997 0.235903 0.126925
O O2 0.497307 0.157681 0.264282
O O3 0.966943 0.295137 0.266101
O O4 0.500000 0.500000 0.000000
O O5 0.835807 0.552493 0.685648
O O6 0.841788 0.897567 0.437655
O O7 0.496862 0.791660 0.534199
O O8 0.054649 0.010629 0.286296
O O9 0.455434 0.982024 0.196247
O O10 0.485120 0.329630 0.748068
O O11 0.991296 0.363322 0.729715
O O12 0.995130 0.199513 0.974639
O O13 0.500000 0.000000 0.500000
O O14 0.967889 0.844411 0.230059
O O15 0.000000 0.000000 0.000000
O O16 0.000000 0.500000 0.500000
#
# Coordination Sequence:
#
# PCOD9050190 Si02
#       7
#     2   2   2   2   2   2   2
#     4  11  23  41  64 103 144 176 228 295 355 428
#     4  11  23  42  68 103 145 178 239 293 352 441
#     4  11  22  44  70  97 136 190 236 284 362 423
#     4  11  25  45  70 107 141 187 235 305 365 420
#     4  11  21  43  71  97 138 191 235 286 348 434
#     4  10  24  49  70 102 144 184 241 307 359 425
#     4  11  24  47  74 103 142 187 247 299 360 432
#
# _framework density 22.758907000000001
#
# number of rings (size 3 to 8) (size 9 to 14) (size 15 to 20)
#    0.000    1.143    2.857    3.429    2.000    1.714 
#   25.714    0.000    0.000    0.000    0.000    0.000 
#    0.000    0.000    0.000    0.000    0.000    0.000 
#
# Total GULP energy -78034.523611 kJ/mol
# GULP energy per Si atom -5573.894544 kJ/mol
# Density = 2.270711 g / cm^3
# Si number density = 22.758907 Si / 1000 Ang^3
#
#
#
# Elastic Constant Matrix: (Units=GPa)
#
#
# Indices 1 2 3 4 5 6 
#
# 1 73.3379 10.9126 9.0418 15.0492 7.2371 23.6675
# 2 10.9126 70.9638 7.6858 -7.4220 -3.5072 3.5090
# 3 9.0418 7.6858 110.6273 -14.9664 3.1543 11.2710
# 4 15.0492 -7.4220 -14.9664 50.9612 8.3884 12.5956
# 5 7.2371 -3.5072 3.1543 8.3884 29.3708 9.1637
# 6 23.6675 3.5090 11.2710 12.5956 9.1637 41.0368
#
#
#
# Elastic Compliance Matrix: (Units=1/GPa)
#
#
# Indices 1 2 3 4 5 6 
#
# 1 0.017687 -0.002634 -0.000870 -0.003631 -0.000916 -0.008417
# 2 -0.002634 0.014973 -0.000416 0.002739 0.001990 -0.000932
# 3 -0.000870 -0.000416 0.010061 0.004133 -0.001081 -0.003253
# 4 -0.003631 0.002739 0.004133 0.024466 -0.004399 -0.005802
# 5 -0.000916 0.001990 -0.001081 -0.004399 0.037898 -0.006457
# 6 -0.008417 -0.000932 -0.003253 -0.005802 -0.006457 0.033419
#
#
# Mechanical properties :
#
#
# Convention : Reuss Voigt Hill
#
# Bulk Modulus (GPa) = 28.67055 34.46771 31.56913
# Shear Modulus (GPa) = 31.65138 39.42634 35.53886
#
# Velocity S-wave (km/s) = 3.73329 4.16666 3.95591
# Velocity P-wave (km/s) = 5.58642 6.19078 5.89635
#
# Compressibility (1/GPa) = 0.03487899
#
# Stress axis : x y z
#
# Youngs Moduli (GPa) = 56.53967 66.78786 99.39592
#
# Poissons Ratio (x) = 0.17594 0.08648
# Poissons Ratio (y) = 0.14895 0.04137
# Poissons Ratio (z) = 0.04919 0.02780
#
# Static dielectric constant tensor:
#      x y z
#    x 2.200100 -0.003790 0.008750 
#    y -0.003790 1.676160 -0.033270 
#    z 0.008750 -0.033270 1.773930 
# 
# From -- ./inp_files/49293.got.cif
#   From: 2010.05.17/outbox.cif.g08.bks.cpg/sg2_25_cif.got.tgz:49293.got - 2010.06.03 11:33:40.
