data_PCOD9050126
_publ_section_title
;
Structure prediction by ZEFSAII (Michael W. Deem and Ramdas Pophale) SiO2 
 PCOD9050126
Probable space group: P -1
;
_chemical_formula_sum "Si O2"
_cell_formula_units_Z 15
_cell_length_a 18.675504
_cell_length_b 8.166154
_cell_length_c 12.275110
_cell_angle_alpha 106.799098
_cell_angle_beta 20.160699
_cell_angle_gamma 105.848681
_cell_volume 617.663118
_symmetry_space_group_name_H-M "P -1"
_symmetry_group_IT_number 2
_symmetry_cell_setting 'triclinic'
loop_
_space_group_symop_operation_xyz
x,y,z
-x,-y,-z
loop_
_atom_site_type_symbol
_atom_site_label
_atom_site_fract_x
_atom_site_fract_y
_atom_site_fract_z
Si Si1 0.403098 0.365006 0.349134
Si Si2 0.581973 0.021996 0.766338
Si Si3 0.263884 0.461026 0.786039
Si Si4 0.298237 0.023932 0.864679
Si Si5 0.500000 0.500000 0.000000
Si Si6 0.749562 0.757913 0.836477
Si Si7 0.993789 0.884908 0.878893
Si Si8 0.193597 0.716397 0.109561
O O1 0.277554 0.478692 0.638536
O O2 0.340068 0.164880 0.414121
O O3 0.387890 0.413883 0.254372
O O4 0.638638 0.358592 0.060167
O O5 0.768732 0.157140 0.503315
O O6 0.385791 0.095567 0.998911
O O7 0.500000 0.000000 0.000000
O O8 0.500000 0.500000 0.500000
O O9 0.161980 0.274765 0.914959
O O10 0.134677 0.584636 0.072209
O O11 0.500000 0.000000 0.500000
O O12 0.296004 0.206346 0.964706
O O13 0.099830 0.010869 0.068131
O O14 0.289889 0.872315 0.934009
O O15 0.665698 0.590585 0.864794
O O16 0.992454 0.774613 0.472970
O O17 0.000000 0.000000 0.000000
#
# Coordination Sequence:
#
# PCOD9050126 Si02
#       8
#     2   2   2   2   1   2   2   2
#     4  11  24  49  74 108 155 207 255 328 389 465
#     4  12  24  46  75 107 158 196 254 325 385 461
#     4  10  24  48  77 110 155 202 264 325 392 466
#     4  12  26  46  76 113 150 203 263 313 384 475
#     4  12  30  44  74 112 160 198 256 326 400 452
#     4  12  28  47  72 111 155 202 265 313 389 469
#     4  12  26  47  79 117 150 208 266 321 397 465
#     4  11  26  47  78 109 151 211 254 322 392 461
#
# _framework density 24.285081000000002
#
# number of rings (size 3 to 8) (size 9 to 14) (size 15 to 20)
#    0.000    0.533    4.000    3.600    9.333    0.533 
#    0.000    1.333    0.000    0.000    0.000    0.000 
#    0.000    0.000    0.000    0.000    0.000    0.000 
#
# Total GULP energy -83614.517495 kJ/mol
# GULP energy per Si atom -5574.301166 kJ/mol
# Density = 2.422981 g / cm^3
# Si number density = 24.285081 Si / 1000 Ang^3
#
#
#
# Elastic Constant Matrix: (Units=GPa)
#
#
# Indices 1 2 3 4 5 6 
#
# 1 150.3573 24.1322 51.7461 1.2692 11.0987 14.3222
# 2 24.1322 70.6939 30.9165 -27.8760 8.8973 18.2597
# 3 51.7461 30.9165 144.8699 -3.8963 21.0948 15.3917
# 4 1.2692 -27.8760 -3.8963 27.5678 -0.7319 1.0473
# 5 11.0987 8.8973 21.0948 -0.7319 32.0607 1.9685
# 6 14.3222 18.2597 15.3917 1.0473 1.9685 40.3057
#
#
#
# Elastic Compliance Matrix: (Units=1/GPa)
#
#
# Indices 1 2 3 4 5 6 
#
# 1 0.008013 -0.003081 -0.002175 -0.003788 -0.000544 -0.000496
# 2 -0.003081 0.034707 -0.003160 0.035198 -0.004817 -0.014101
# 3 -0.002175 -0.003160 0.009033 -0.001895 -0.004297 -0.000986
# 4 -0.003788 0.035198 -0.001895 0.072240 -0.004607 -0.015528
# 5 -0.000544 -0.004817 -0.004297 -0.004607 0.035289 0.002412
# 6 -0.000496 -0.014101 -0.000986 -0.015528 0.002412 0.032037
#
#
# Mechanical properties :
#
#
# Convention : Reuss Voigt Hill
#
# Bulk Modulus (GPa) = 28.63556 64.39008 46.51282
# Shear Modulus (GPa) = 22.74877 37.26192 30.00535
#
# Velocity S-wave (km/s) = 3.06394 3.92133 3.51885
# Velocity P-wave (km/s) = 4.93295 6.86107 5.97529
#
# Compressibility (1/GPa) = 0.03492162
#
# Stress axis : x y z
#
# Youngs Moduli (GPa) = 124.79492 28.81272 110.70164
#
# Poissons Ratio (x) = 0.08878 0.24073
# Poissons Ratio (y) = 0.38453 0.34981
# Poissons Ratio (z) = 0.27138 0.09105
#
# Static dielectric constant tensor:
#      x y z
#    x 2.000540 0.057100 0.037090 
#    y 0.057100 2.040000 0.029450 
#    z 0.037090 0.029450 2.016480 
# 
# From -- ./inp_files/462269.got.cif
#   From: 2010.05.17/outbox.cif.g08.bks.cpg/sg2_232_cif.got.tgz:462269.got - 2010.06.03 11:33:40.
