data_PCOD9050790
_publ_section_title
;
Structure prediction by ZEFSAII (Michael W. Deem and Ramdas Pophale) SiO2 
 PCOD9050790
Probable space group: P -1
;
_chemical_formula_sum "Si O2"
_cell_formula_units_Z 16
_cell_length_a 4.845807
_cell_length_b 14.639811
_cell_length_c 16.738150
_cell_angle_alpha 44.370210
_cell_angle_beta 53.423487
_cell_angle_gamma 53.857279
_cell_volume 637.824343
_symmetry_space_group_name_H-M "P -1"
_symmetry_group_IT_number 2
_symmetry_cell_setting 'triclinic'
loop_
_space_group_symop_operation_xyz
x,y,z
-x,-y,-z
loop_
_atom_site_type_symbol
_atom_site_label
_atom_site_fract_x
_atom_site_fract_y
_atom_site_fract_z
Si Si1 0.620364 0.837983 0.824040
Si Si2 0.562723 0.440079 0.939464
Si Si3 0.423287 0.063042 0.383976
Si Si4 0.145555 0.272924 0.849328
Si Si5 0.369772 0.883082 0.006785
Si Si6 0.488715 0.227062 0.522345
Si Si7 0.340865 0.663552 0.411563
Si Si8 0.396265 0.708247 0.711174
O O1 0.363279 0.911283 0.750127
O O2 0.006629 0.815895 0.729627
O O3 0.570474 0.692957 0.945773
O O4 0.554115 0.909580 0.876043
O O5 0.374866 0.565369 0.837300
O O6 0.973212 0.392417 0.867652
O O7 0.500000 0.500000 0.000000
O O8 0.332613 0.223884 0.330583
O O9 0.500000 0.000000 0.500000
O O10 0.335485 0.929025 0.441315
O O11 0.362204 0.148122 0.946007
O O12 0.397040 0.299952 0.720860
O O13 0.791451 0.246550 0.888842
O O14 0.000000 0.000000 0.000000
O O15 0.672094 0.261034 0.548358
O O16 0.512503 0.308293 0.386810
O O17 0.066630 0.277025 0.585895
O O18 0.500000 0.500000 0.500000
#
# Coordination Sequence:
#
# PCOD9050790 Si02
#       8
#     2   2   2   2   2   2   2   2
#     4  11  25  40  73 103 145 190 244 300 364 436
#     4  11  22  44  70 106 140 189 242 298 369 427
#     4  10  25  44  67 105 145 188 246 291 365 432
#     4  11  26  46  71 104 143 183 241 298 355 427
#     4  11  26  46  70 104 140 190 236 295 360 430
#     4  11  28  45  76 107 145 196 242 299 368 429
#     4  12  27  49  75 106 144 191 246 298 362 433
#     4  11  24  44  72 105 151 191 243 305 364 439
#
# _framework density 25.085277000000001
#
# number of rings (size 3 to 8) (size 9 to 14) (size 15 to 20)
#    0.000    1.000    1.250    3.375   10.500    5.000 
#    0.000    0.000    0.000    0.000    0.000    0.000 
#    0.000    0.000    0.000    0.000    0.000    0.000 
#
# Total GULP energy -89170.488199 kJ/mol
# GULP energy per Si atom -5573.155512 kJ/mol
# Density = 2.502818 g / cm^3
# Si number density = 25.085277 Si / 1000 Ang^3
#
#
#
# Elastic Constant Matrix: (Units=GPa)
#
#
# Indices 1 2 3 4 5 6 
#
# 1 75.7245 3.6359 0.4171 14.8494 1.9327 3.1491
# 2 3.6359 94.4821 26.5262 12.9158 6.9075 1.7222
# 3 0.4171 26.5262 178.0250 26.4966 13.7109 6.8031
# 4 14.8494 12.9158 26.4966 49.6696 -5.3467 -5.0668
# 5 1.9327 6.9075 13.7109 -5.3467 24.5387 9.7527
# 6 3.1491 1.7222 6.8031 -5.0668 9.7527 37.0750
#
#
#
# Elastic Compliance Matrix: (Units=1/GPa)
#
#
# Indices 1 2 3 4 5 6 
#
# 1 0.014339 0.000082 0.000960 -0.005214 -0.002218 -0.001527
# 2 0.000082 0.011498 -0.001046 -0.002800 -0.003325 0.000143
# 3 0.000960 -0.001046 0.006733 -0.004129 -0.004148 -0.000742
# 4 -0.005214 -0.002800 -0.004129 0.025766 0.008031 0.002739
# 5 -0.002218 -0.003325 -0.004148 0.008031 0.050316 -0.011034
# 6 -0.001527 0.000143 -0.000742 0.002739 -0.011034 0.030508
#
#
# Mechanical properties :
#
#
# Convention : Reuss Voigt Hill
#
# Bulk Modulus (GPa) = 30.71238 45.48779 38.10009
# Shear Modulus (GPa) = 33.32799 43.43348 38.38074
#
# Velocity S-wave (km/s) = 3.64893 4.16556 3.91578
# Velocity P-wave (km/s) = 5.47930 6.42717 5.97207
#
# Compressibility (1/GPa) = 0.03256016
#
# Stress axis : x y z
#
# Youngs Moduli (GPa) = 69.73881 86.97345 148.51891
#
# Poissons Ratio (x) = -0.00710 -0.14250
# Poissons Ratio (y) = -0.00569 0.15536
# Poissons Ratio (z) = -0.06691 0.09098
#
# Static dielectric constant tensor:
#      x y z
#    x 2.901980 -0.178500 0.059170 
#    y -0.178500 2.116250 -0.083620 
#    z 0.059170 -0.083620 1.956670 
# 
# From -- ./inp_files/484323.got.cif
#   From: 2010.05.17/outbox.cif.g08.bks.cpg/sg2_243_cif.got.tgz:484323.got - 2010.06.03 11:33:40.
