data_PCOD9050762
_publ_section_title
;
Structure prediction by ZEFSAII (Michael W. Deem and Ramdas Pophale) SiO2 
 PCOD9050762
Probable space group: P -1
;
_chemical_formula_sum "Si O2"
_cell_formula_units_Z 16
_cell_length_a 7.965379
_cell_length_b 10.468368
_cell_length_c 8.930263
_cell_angle_alpha 107.765991
_cell_angle_beta 72.091947
_cell_angle_gamma 101.868152
_cell_volume 669.618724
_symmetry_space_group_name_H-M "P -1"
_symmetry_group_IT_number 2
_symmetry_cell_setting 'triclinic'
loop_
_space_group_symop_operation_xyz
x,y,z
-x,-y,-z
loop_
_atom_site_type_symbol
_atom_site_label
_atom_site_fract_x
_atom_site_fract_y
_atom_site_fract_z
Si Si1 0.651880 0.828608 0.857235
Si Si2 0.067788 0.894135 0.785991
Si Si3 0.067328 0.614145 0.235051
Si Si4 0.326478 0.770519 0.447016
Si Si5 0.989496 0.890681 0.326420
Si Si6 0.143383 0.660571 0.880493
Si Si7 0.590899 0.084356 0.802610
Si Si8 0.505867 0.645728 0.615322
O O1 0.855149 0.881300 0.851406
O O2 0.663459 0.701173 0.701470
O O3 0.554279 0.931902 0.816845
O O4 0.532533 0.825957 0.037794
O O5 0.162904 0.813173 0.603734
O O6 0.116292 0.812590 0.890932
O O7 0.111852 0.047054 0.761595
O O8 0.232456 0.655322 0.317637
O O9 0.937336 0.734024 0.332027
O O10 0.979106 0.459078 0.218804
O O11 0.117936 0.628187 0.050418
O O12 0.422460 0.887756 0.357822
O O13 0.468663 0.732015 0.511749
O O14 0.196360 0.886547 0.224396
O O15 0.000000 0.000000 0.500000
O O16 0.341165 0.646508 0.772877
O O17 0.500000 0.500000 0.500000
#
# Coordination Sequence:
#
# PCOD9050762 Si02
#       8
#     2   2   2   2   2   2   2   2
#     4  10  22  39  62  89 130 154 197 247 311 353
#     4  10  21  38  66  96 115 160 207 253 298 361
#     4  10  21  40  65  85 122 159 201 259 289 363
#     4  10  21  40  65  87 119 160 205 245 305 354
#     4  10  17  34  64  94 116 153 206 249 300 350
#     4  10  24  42  61  90 123 162 208 244 307 356
#     4   9  19  39  63  87 120 165 191 250 305 357
#     4  11  25  39  57  92 123 162 196 249 300 366
#
# _framework density 23.894193000000001
#
# number of rings (size 3 to 8) (size 9 to 14) (size 15 to 20)
#    0.000    2.000    2.500    1.500    3.500    2.000 
#    4.500    3.750    0.000    0.000    0.000    0.000 
#    0.000    0.000    0.000    0.000    0.000    0.000 
#
# Total GULP energy -89167.882159 kJ/mol
# GULP energy per Si atom -5572.992635 kJ/mol
# Density = 2.383981 g / cm^3
# Si number density = 23.894193 Si / 1000 Ang^3
#
#
#
# Elastic Constant Matrix: (Units=GPa)
#
#
# Indices 1 2 3 4 5 6 
#
# 1 39.6099 1.8068 22.2001 -1.0531 -9.2830 -3.8221
# 2 1.8068 51.8152 29.8123 -0.9914 0.0715 -10.3195
# 3 22.2001 29.8123 135.2480 -5.8756 -1.4361 -1.9180
# 4 -1.0531 -0.9914 -5.8756 43.4850 2.9314 5.2248
# 5 -9.2830 0.0715 -1.4361 2.9314 27.4674 2.9674
# 6 -3.8221 -10.3195 -1.9180 5.2248 2.9674 28.6430
#
#
#
# Elastic Compliance Matrix: (Units=1/GPa)
#
#
# Indices 1 2 3 4 5 6 
#
# 1 0.030911 0.002901 -0.005600 -0.001082 0.009833 0.003974
# 2 0.002901 0.024278 -0.005756 -0.001219 -0.000225 0.008994
# 3 -0.005600 -0.005756 0.009596 0.001392 -0.001276 -0.002300
# 4 -0.001082 -0.001219 0.001392 0.023840 -0.002337 -0.004597
# 5 0.009833 -0.000225 -0.001276 -0.002337 0.040193 -0.002592
# 6 0.003974 0.008994 -0.002300 -0.004597 -0.002592 0.039636
#
#
# Mechanical properties :
#
#
# Convention : Reuss Voigt Hill
#
# Bulk Modulus (GPa) = 20.88679 37.14571 29.01625
# Shear Modulus (GPa) = 24.83574 31.44266 28.13920
#
# Velocity S-wave (km/s) = 3.22748 3.63149 3.43543
# Velocity P-wave (km/s) = 4.75911 5.75875 5.28263
#
# Compressibility (1/GPa) = 0.04787715
#
# Stress axis : x y z
#
# Youngs Moduli (GPa) = 32.35051 41.18957 104.21060
#
# Poissons Ratio (x) = -0.11949 0.58354
# Poissons Ratio (y) = -0.09385 0.59979
# Poissons Ratio (z) = 0.18115 0.23707
#
# Static dielectric constant tensor:
#      x y z
#    x 2.042860 0.160580 0.113680 
#    y 0.160580 2.243030 0.102690 
#    z 0.113680 0.102690 1.974170 
# 
# From -- ./inp_files/189224.got.cif
#   From: 2010.05.17/outbox.cif.g08.bks.cpg/sg2_95_cif.got.tgz:189224.got - 2010.06.03 11:33:40.
