data_PCOD9050314
_publ_section_title
;
Structure prediction by ZEFSAII (Michael W. Deem and Ramdas Pophale) SiO2 
 PCOD9050314
Probable space group: P -1
;
_chemical_formula_sum "Si O2"
_cell_formula_units_Z 16
_cell_length_a 14.572942
_cell_length_b 11.323983
_cell_length_c 9.316060
_cell_angle_alpha 68.073488
_cell_angle_beta 71.857901
_cell_angle_gamma 28.534592
_cell_volume 680.779868
_symmetry_space_group_name_H-M "P -1"
_symmetry_group_IT_number 2
_symmetry_cell_setting 'triclinic'
loop_
_space_group_symop_operation_xyz
x,y,z
-x,-y,-z
loop_
_atom_site_type_symbol
_atom_site_label
_atom_site_fract_x
_atom_site_fract_y
_atom_site_fract_z
Si Si1 0.704460 0.829329 0.833111
Si Si2 0.582628 0.617714 0.261641
Si Si3 0.059363 0.492997 0.624971
Si Si4 0.091523 0.638539 0.956414
Si Si5 0.175458 0.731446 0.112928
Si Si6 0.556002 0.082600 0.237017
Si Si7 0.647843 0.215741 0.937488
Si Si8 0.302733 0.463012 0.447267
O O1 0.568867 0.890610 0.777852
O O2 0.869523 0.710239 0.715206
O O3 0.555517 0.104066 0.836132
O O4 0.822860 0.601623 0.985479
O O5 0.792619 0.408612 0.191941
O O6 0.482400 0.623300 0.214448
O O7 0.602125 0.583565 0.437759
O O8 0.162259 0.510669 0.545686
O O9 0.000000 0.500000 0.500000
O O10 0.224662 0.212868 0.732252
O O11 0.162411 0.612015 0.089178
O O12 0.864145 0.917670 0.929202
O O13 0.322807 0.680335 0.053895
O O14 0.181215 0.691398 0.296306
O O15 0.000000 0.000000 0.000000
O O16 0.468326 0.216129 0.375002
O O17 0.557649 0.209744 0.085569
#
# Coordination Sequence:
#
# PCOD9050314 Si02
#       8
#     2   2   2   2   2   2   2   2
#     4  12  23  42  69 106 143 185 225 280 347 424
#     4  12  27  41  68 108 151 176 223 287 362 417
#     4  12  23  39  69 103 143 185 227 284 356 401
#     4  11  23  47  70 102 141 184 237 284 333 413
#     4  10  24  50  76 100 127 185 254 283 329 412
#     4  12  23  44  69 104 140 182 239 279 336 422
#     4  11  26  45  74 101 132 194 236 282 343 406
#     4  12  25  44  68 105 145 178 227 300 344 408
#
# _framework density 23.502459000000002
#
# number of rings (size 3 to 8) (size 9 to 14) (size 15 to 20)
#    0.000    0.500    6.250    1.500    3.500    3.000 
#    0.000    2.500    0.000    0.000    0.000    0.000 
#    0.000    0.000    0.000    0.000    0.000    0.000 
#
# Total GULP energy -89472.182423 kJ/mol
# GULP energy per Si atom -5592.011401 kJ/mol
# Density = 2.344897 g / cm^3
# Si number density = 23.502459 Si / 1000 Ang^3
#
#
#
# Elastic Constant Matrix: (Units=GPa)
#
#
# Indices 1 2 3 4 5 6 
#
# 1 123.8607 18.5590 54.4198 0.6737 13.2043 -24.8851
# 2 18.5590 91.6775 14.1849 -0.2259 -13.2944 -22.2259
# 3 54.4198 14.1849 93.4574 -1.6504 9.3197 -13.9544
# 4 0.6737 -0.2259 -1.6504 45.4461 -2.8252 -12.2550
# 5 13.2043 -13.2944 9.3197 -2.8252 33.2319 -1.1833
# 6 -24.8851 -22.2259 -13.9544 -12.2550 -1.1833 34.7403
#
#
#
# Elastic Compliance Matrix: (Units=1/GPa)
#
#
# Indices 1 2 3 4 5 6 
#
# 1 0.012327 -0.000473 -0.005803 0.001163 -0.003129 0.006500
# 2 -0.000473 0.014589 -0.001099 0.003141 0.006952 0.009899
# 3 -0.005803 -0.001099 0.014659 0.000816 -0.002131 0.001243
# 4 0.001163 0.003141 0.000816 0.025543 0.003175 0.012289
# 5 -0.003129 0.006952 -0.002131 0.003175 0.035114 0.003666
# 6 0.006500 0.009899 0.001243 0.012289 0.003666 0.044733
#
#
# Mechanical properties :
#
#
# Convention : Reuss Voigt Hill
#
# Bulk Modulus (GPa) = 37.27791 53.70256 45.49023
# Shear Modulus (GPa) = 29.29843 37.47245 33.38544
#
# Velocity S-wave (km/s) = 3.53457 3.99733 3.77305
# Velocity P-wave (km/s) = 5.70555 6.64863 6.19506
#
# Compressibility (1/GPa) = 0.02682554
#
# Stress axis : x y z
#
# Youngs Moduli (GPa) = 81.11963 68.54427 68.21925
#
# Poissons Ratio (x) = 0.03240 0.39590
# Poissons Ratio (y) = 0.03834 0.07497
# Poissons Ratio (z) = 0.47076 0.07532
#
# Static dielectric constant tensor:
#      x y z
#    x 2.011280 0.128820 -0.008520 
#    y 0.128820 2.023150 -0.001120 
#    z -0.008520 -0.001120 1.883360 
# 
# From -- ./inp_files/306970.got.cif
#   From: 2010.05.17/outbox.cif.g08.bks.cpg/sg2_154_cif.got.tgz:306970.got - 2010.06.03 11:33:40.
