data_PCOD9050983
_publ_section_title
;
Structure prediction by ZEFSAII (Michael W. Deem and Ramdas Pophale) SiO2 
 PCOD9050983
Probable space group: P -1
;
_chemical_formula_sum "Si O2"
_cell_formula_units_Z 16
_cell_length_a 13.089916
_cell_length_b 8.657023
_cell_length_c 13.815822
_cell_angle_alpha 120.539161
_cell_angle_beta 33.417210
_cell_angle_gamma 110.453810
_cell_volume 733.361502
_symmetry_space_group_name_H-M "P -1"
_symmetry_group_IT_number 2
_symmetry_cell_setting 'triclinic'
loop_
_space_group_symop_operation_xyz
x,y,z
-x,-y,-z
loop_
_atom_site_type_symbol
_atom_site_label
_atom_site_fract_x
_atom_site_fract_y
_atom_site_fract_z
Si Si1 0.453764 0.925949 0.812895
Si Si2 0.823332 0.719026 0.915766
Si Si3 0.235119 0.762918 0.782622
Si Si4 0.124003 0.976176 0.763169
Si Si5 0.016146 0.496762 0.102810
Si Si6 0.806820 0.048939 0.511385
Si Si7 0.189170 0.832365 0.158133
Si Si8 0.291592 0.606565 0.195219
O O1 0.395630 0.776678 0.737165
O O2 0.671434 0.940955 0.646355
O O3 0.353786 0.886604 0.978968
O O4 0.351562 0.123116 0.916642
O O5 0.836930 0.642435 0.991084
O O6 0.829329 0.549351 0.785449
O O7 0.001285 0.817470 0.789267
O O8 0.260857 0.893133 0.713643
O O9 0.183083 0.568069 0.732562
O O10 0.037034 0.863942 0.019876
O O11 0.215855 0.011206 0.600862
O O12 0.078294 0.685531 0.145739
O O13 0.000000 0.500000 0.000000
O O14 0.751054 0.264323 0.638243
O O15 0.023078 0.999719 0.355209
O O16 0.266879 0.743782 0.167785
O O17 0.500000 0.500000 0.000000
#
# Coordination Sequence:
#
# PCOD9050983 Si02
#       8
#     2   2   2   2   2   2   2   2
#     4  11  21  39  66  94 130 167 212 260 321 386
#     4   9  19  38  61  91 123 165 213 255 315 379
#     4   9  17  35  62  90 128 170 206 251 320 383
#     4   9  18  35  61  94 126 165 210 258 317 375
#     4  10  17  34  67  90 121 174 208 252 321 376
#     4  12  23  40  66  95 129 166 219 263 316 380
#     4  11  24  43  65  94 132 167 211 266 324 372
#     4  11  24  44  66  94 126 172 217 266 320 375
#
# _framework density 21.817343999999999
#
# number of rings (size 3 to 8) (size 9 to 14) (size 15 to 20)
#    0.000    1.750    5.000    1.125    0.000    1.500 
#    0.000    4.375    0.000    0.000    0.000    0.000 
#    0.000    0.000    0.000    0.000    0.000    0.000 
#
# Total GULP energy -89200.092346 kJ/mol
# GULP energy per Si atom -5575.005772 kJ/mol
# Density = 2.176769 g / cm^3
# Si number density = 21.817344 Si / 1000 Ang^3
#
#
#
# Elastic Constant Matrix: (Units=GPa)
#
#
# Indices 1 2 3 4 5 6 
#
# 1 31.1318 -10.3601 5.2650 1.8886 11.4114 2.0180
# 2 -10.3601 72.6337 13.6351 -4.8121 6.3675 6.2759
# 3 5.2650 13.6351 64.3073 -5.3977 4.3739 0.9844
# 4 1.8886 -4.8121 -5.3977 24.6579 2.6880 -2.2133
# 5 11.4114 6.3675 4.3739 2.6880 16.4530 2.5798
# 6 2.0180 6.2759 0.9844 -2.2133 2.5798 42.1096
#
#
#
# Elastic Compliance Matrix: (Units=1/GPa)
#
#
# Indices 1 2 3 4 5 6 
#
# 1 0.050847 0.011616 -0.003830 0.001613 -0.038753 -0.001619
# 2 0.011616 0.017704 -0.003442 0.003172 -0.014185 -0.002079
# 3 -0.003830 -0.003442 0.016960 0.003513 -0.001182 0.000557
# 4 0.001613 0.003172 0.003513 0.043191 -0.010696 0.002293
# 5 -0.038753 -0.014185 -0.001182 -0.010696 0.095588 -0.002419
# 6 -0.001619 -0.002079 0.000557 0.002293 -0.002419 0.024391
#
#
# Mechanical properties :
#
#
# Convention : Reuss Voigt Hill
#
# Bulk Modulus (GPa) = 10.61584 20.57253 15.59418
# Shear Modulus (GPa) = 18.42347 27.27963 22.85155
#
# Velocity S-wave (km/s) = 2.90908 3.53989 3.23987
# Velocity P-wave (km/s) = 4.01995 5.11445 4.59987
#
# Compressibility (1/GPa) = 0.09419884
#
# Stress axis : x y z
#
# Youngs Moduli (GPa) = 19.66694 56.48455 58.96079
#
# Poissons Ratio (x) = -0.65610 0.22581
# Poissons Ratio (y) = -0.22844 0.20294
# Poissons Ratio (z) = 0.07532 0.19442
#
# Static dielectric constant tensor:
#      x y z
#    x 1.850580 0.007430 0.027360 
#    y 0.007430 1.864320 0.033240 
#    z 0.027360 0.033240 1.823690 
# 
# From -- ./inp_files/530055.got.cif
#   From: 2010.05.17/outbox.cif.g08.bks.cpg/sg2_266_cif.got.tgz:530055.got - 2010.06.03 11:33:40.
