data_PCOD9050331
_publ_section_title
;
Structure prediction by ZEFSAII (Michael W. Deem and Ramdas Pophale) SiO2 
 PCOD9050331
Probable space group: P -1
;
_chemical_formula_sum "Si O2"
_cell_formula_units_Z 12
_cell_length_a 7.384680
_cell_length_b 8.428508
_cell_length_c 9.562015
_cell_angle_alpha 101.387281
_cell_angle_beta 64.891646
_cell_angle_gamma 112.224146
_cell_volume 498.398719
_symmetry_space_group_name_H-M "P -1"
_symmetry_group_IT_number 2
_symmetry_cell_setting 'triclinic'
loop_
_space_group_symop_operation_xyz
x,y,z
-x,-y,-z
loop_
_atom_site_type_symbol
_atom_site_label
_atom_site_fract_x
_atom_site_fract_y
_atom_site_fract_z
Si Si1 0.153768 0.192575 0.518527
Si Si2 0.510615 0.844408 0.064807
Si Si3 0.502478 0.173980 0.604345
Si Si4 0.699459 0.650326 0.788530
Si Si5 0.750732 0.429221 0.091848
Si Si6 0.125752 0.558688 0.638096
O O1 0.293487 0.198776 0.611086
O O2 0.288243 0.247184 0.341889
O O3 0.074161 0.355230 0.597022
O O4 0.000000 0.000000 0.500000
O O5 0.505122 0.860372 0.234079
O O6 0.310402 0.697749 0.041731
O O7 0.701494 0.780866 0.936509
O O8 0.500000 0.000000 0.000000
O O9 0.708111 0.330427 0.512961
O O10 0.500000 0.000000 0.500000
O O11 0.906678 0.597800 0.719060
O O12 0.460202 0.509901 0.840793
O O13 0.751555 0.380985 0.245831
O O14 0.000000 0.500000 0.000000
#
# Coordination Sequence:
#
# PCOD9050331 Si02
#       6
#     2   2   2   2   2   2
#     4  12  27  51  80 118 165 213 277 345 407 484
#     4  10  24  50  80 115 169 209 271 334 407 496
#     4  12  25  49  83 121 162 222 270 335 413 488
#     4  10  25  49  79 114 161 208 276 328 415 481
#     4  10  25  48  76 115 159 209 272 329 409 473
#     4  12  26  51  82 118 164 216 276 341 401 493
#
# _framework density 24.077107999999999
#
# number of rings (size 3 to 8) (size 9 to 14) (size 15 to 20)
#    1.000    0.000    1.667    4.000    0.000    7.333 
#    0.000    5.833    0.000    0.000    0.000    0.000 
#    0.000    0.000    0.000    0.000    0.000    0.000 
#
# Total GULP energy -66929.983639 kJ/mol
# GULP energy per Si atom -5577.498637 kJ/mol
# Density = 2.402231 g / cm^3
# Si number density = 24.077108 Si / 1000 Ang^3
#
#
#
# Elastic Constant Matrix: (Units=GPa)
#
#
# Indices 1 2 3 4 5 6 
#
# 1 225.8667 92.5689 79.6044 6.2872 -1.4337 1.3252
# 2 92.5689 140.3957 73.3028 6.1657 -5.4919 -2.9089
# 3 79.6044 73.3028 228.0536 20.0316 36.6763 -5.4229
# 4 6.2872 6.1657 20.0316 38.9609 8.4929 4.9264
# 5 -1.4337 -5.4919 36.6763 8.4929 60.4516 6.1580
# 6 1.3252 -2.9089 -5.4229 4.9264 6.1580 32.2701
#
#
#
# Elastic Compliance Matrix: (Units=1/GPa)
#
#
# Indices 1 2 3 4 5 6 
#
# 1 0.006303 -0.003529 -0.001201 0.000138 0.000632 -0.000920
# 2 -0.003529 0.010962 -0.002663 -0.000386 0.002556 0.000257
# 3 -0.001201 -0.002663 0.006563 -0.002108 -0.004163 0.002028
# 4 0.000138 -0.000386 -0.002108 0.027809 -0.002230 -0.004214
# 5 0.000632 0.002556 -0.004163 -0.002230 0.020033 -0.003977
# 6 -0.000920 0.000257 0.002028 -0.004214 -0.003977 0.032793
#
#
# Mechanical properties :
#
#
# Convention : Reuss Voigt Hill
#
# Bulk Modulus (GPa) = 110.59754 120.58537 115.59145
# Shear Modulus (GPa) = 40.89590 49.59252 45.24421
#
# Velocity S-wave (km/s) = 4.12580 4.54336 4.33961
# Velocity P-wave (km/s) = 8.29040 8.81558 8.55702
#
# Compressibility (1/GPa) = 0.00904179
#
# Stress axis : x y z
#
# Youngs Moduli (GPa) = 158.66501 91.22563 152.36818
#
# Poissons Ratio (x) = 0.32191 0.18306
# Poissons Ratio (y) = 0.55988 0.40572
# Poissons Ratio (z) = 0.19062 0.24291
#
# Static dielectric constant tensor:
#      x y z
#    x 1.967080 -0.073880 -0.043400 
#    y -0.073880 1.986150 0.014150 
#    z -0.043400 0.014150 1.990910 
# 
# From -- ./inp_files/130569.got.cif
#   From: 2010.05.17/outbox.cif.g08.bks.cpg/sg2_66_cif.got.tgz:130569.got - 2010.06.03 11:33:40.
