data_PCOD9050084
_publ_section_title
;
Structure prediction by ZEFSAII (Michael W. Deem and Ramdas Pophale) SiO2 
 PCOD9050084
Probable space group: P -1
;
_chemical_formula_sum "Si O2"
_cell_formula_units_Z 10
_cell_length_a 5.827159
_cell_length_b 14.060816
_cell_length_c 14.423134
_cell_angle_alpha 19.563502
_cell_angle_beta 79.037524
_cell_angle_gamma 79.811013
_cell_volume 388.481516
_symmetry_space_group_name_H-M "P -1"
_symmetry_group_IT_number 2
_symmetry_cell_setting 'triclinic'
loop_
_space_group_symop_operation_xyz
x,y,z
-x,-y,-z
loop_
_atom_site_type_symbol
_atom_site_label
_atom_site_fract_x
_atom_site_fract_y
_atom_site_fract_z
Si Si1 0.829417 0.618008 0.626822
Si Si2 0.446132 0.378134 0.014450
Si Si3 0.562993 0.878702 0.236555
Si Si4 0.859794 0.139056 0.467464
Si Si5 0.250370 0.332084 0.768476
O O1 0.657358 0.462325 0.854564
O O2 0.698093 0.788412 0.400331
O O3 0.987985 0.832764 0.478146
O O4 0.996864 0.386074 0.779032
O O5 0.219151 0.545598 0.842079
O O6 0.500000 0.500000 0.000000
O O7 0.372092 0.051103 0.326564
O O8 0.358988 0.642379 0.456215
O O9 0.730879 0.843488 0.166842
O O10 0.427274 0.174569 0.969763
O O11 0.000000 0.000000 0.500000
#
# Coordination Sequence:
#
# PCOD9050084 Si02
#       5
#     2   2   2   2   2
#     4  12  27  46  80 112 154 198 257 306 382 442
#     4  12  28  50  74 107 149 201 252 309 374 444
#     4  10  24  48  75 110 152 195 249 309 374 450
#     4  12  28  50  74 107 149 201 252 309 374 444
#     4  10  24  48  75 110 152 195 249 309 374 450
#
# _framework density 25.741249
#
# number of rings (size 3 to 8) (size 9 to 14) (size 15 to 20)
#    0.000    0.800    2.000    3.000    0.000   11.200 
#    0.000    6.000    0.000    3.600    0.000    0.000 
#    0.000    0.000    0.000    0.000    0.000    0.000 
#
# Total GULP energy -56194.073890 kJ/mol
# GULP energy per Si atom -5619.407389 kJ/mol
# Density = 2.568266 g / cm^3
# Si number density = 25.741249 Si / 1000 Ang^3
#
#
#
# Elastic Constant Matrix: (Units=GPa)
#
#
# Indices 1 2 3 4 5 6 
#
# 1 88.0158 80.8008 16.7880 27.3155 3.9713 -20.1161
# 2 80.8008 169.3580 37.0119 28.9762 14.6117 -25.7270
# 3 16.7880 37.0119 100.8292 9.2674 3.7256 -10.9244
# 4 27.3155 28.9762 9.2674 44.4456 4.3848 3.5765
# 5 3.9713 14.6117 3.7256 4.3848 46.5204 -4.0621
# 6 -20.1161 -25.7270 -10.9244 3.5765 -4.0621 69.6680
#
#
#
# Elastic Compliance Matrix: (Units=1/GPa)
#
#
# Indices 1 2 3 4 5 6 
#
# 1 0.023434 -0.009376 0.000720 -0.008967 0.002081 0.003999
# 2 -0.009376 0.011439 -0.002336 -0.001056 -0.002413 0.001064
# 3 0.000720 -0.002336 0.010894 -0.001283 0.000019 0.001120
# 4 -0.008967 -0.001056 -0.001283 0.029552 -0.002006 -0.004814
# 5 0.002081 -0.002413 0.000019 -0.002006 0.022361 0.001120
# 6 0.003999 0.001064 0.001120 -0.004814 0.001120 0.016390
#
#
# Mechanical properties :
#
#
# Convention : Reuss Voigt Hill
#
# Bulk Modulus (GPa) = 42.04560 69.71158 55.87859
# Shear Modulus (GPa) = 34.72663 47.03363 40.88013
#
# Velocity S-wave (km/s) = 3.67695 4.27918 3.98944
# Velocity P-wave (km/s) = 5.86481 7.18022 6.55559
#
# Compressibility (1/GPa) = 0.02378370
#
# Stress axis : x y z
#
# Youngs Moduli (GPa) = 42.67224 87.42064 91.79294
#
# Poissons Ratio (x) = 0.81964 -0.06613
# Poissons Ratio (y) = 0.40009 0.21446
# Poissons Ratio (z) = -0.03074 0.20425
#
# Static dielectric constant tensor:
#      x y z
#    x 2.012370 -0.006380 -0.009920 
#    y -0.006380 2.004460 -0.000890 
#    z -0.009920 -0.000890 1.956550 
# 
# From -- ./inp_files/4461.got.cif
#   From: 2010.05.17/outbox.cif.g08.bks.cpg/sg2_3_cif.got.tgz:4461.got - 2010.06.03 11:33:40.
