data_PCOD9050205
_publ_section_title
;
Structure prediction by ZEFSAII (Michael W. Deem and Ramdas Pophale) SiO2 
 PCOD9050205
Probable space group: P -1
;
_chemical_formula_sum "Si O2"
_cell_formula_units_Z 15
_cell_length_a 10.450515
_cell_length_b 12.701891
_cell_length_c 5.257229
_cell_angle_alpha 92.604181
_cell_angle_beta 119.886264
_cell_angle_gamma 68.137241
_cell_volume 552.953721
_symmetry_space_group_name_H-M "P -1"
_symmetry_group_IT_number 2
_symmetry_cell_setting 'triclinic'
loop_
_space_group_symop_operation_xyz
x,y,z
-x,-y,-z
loop_
_atom_site_type_symbol
_atom_site_label
_atom_site_fract_x
_atom_site_fract_y
_atom_site_fract_z
Si Si1 0.209938 0.163431 0.869951
Si Si2 0.086955 0.740113 0.039481
Si Si3 0.500000 0.000000 0.500000
Si Si4 0.554202 0.360665 0.215599
Si Si5 0.087726 0.383837 0.420497
Si Si6 0.667914 0.164855 0.645520
Si Si7 0.349840 0.459375 0.521662
Si Si8 0.102976 0.038140 0.417912
O O1 0.188600 0.276627 0.697316
O O2 0.250584 0.056285 0.700403
O O3 0.031306 0.205490 0.829587
O O4 0.343168 0.103071 0.210263
O O5 0.046358 0.635846 0.887528
O O6 0.998655 0.835118 0.752252
O O7 0.263494 0.742083 0.184764
O O8 0.438477 0.895576 0.346479
O O9 0.600094 0.227702 0.314598
O O10 0.427596 0.432747 0.316765
O O11 0.695829 0.408242 0.413435
O O12 0.471893 0.394013 0.865339
O O13 0.215646 0.409032 0.380235
O O14 0.000000 0.500000 0.500000
O O15 0.831282 0.054101 0.744783
O O16 0.000000 0.000000 0.500000
#
# Coordination Sequence:
#
# PCOD9050205 Si02
#       8
#     2   2   1   2   2   2   2   2
#     4  11  25  47  71 111 148 200 248 315 390 459
#     4  11  25  47  69 105 153 196 253 313 387 461
#     4  12  26  44  76 106 152 190 250 310 386 460
#     4  10  25  46  76 107 154 202 256 325 397 471
#     4  11  28  46  79 109 148 200 265 325 383 467
#     4  12  25  43  74 111 143 203 252 315 387 469
#     4  10  24  49  71 108 154 199 259 329 390 464
#     4  11  22  42  71 101 147 191 248 313 373 467
#
# _framework density 27.127044999999999
#
# number of rings (size 3 to 8) (size 9 to 14) (size 15 to 20)
#    0.000    1.067    2.667    2.000    5.600    6.400 
#    0.000    0.000    0.000    0.000    0.000    0.000 
#    0.000    0.000    0.000    0.000    0.000    0.000 
#
# Total GULP energy -83507.193952 kJ/mol
# GULP energy per Si atom -5567.146263 kJ/mol
# Density = 2.706530 g / cm^3
# Si number density = 27.127045 Si / 1000 Ang^3
#
#
#
# Elastic Constant Matrix: (Units=GPa)
#
#
# Indices 1 2 3 4 5 6 
#
# 1 71.1486 31.8510 29.9490 12.0449 7.0448 28.5921
# 2 31.8510 159.0586 45.7434 2.8489 14.9623 28.9681
# 3 29.9490 45.7434 94.3752 12.9262 3.6406 7.3829
# 4 12.0449 2.8489 12.9262 60.6861 12.3519 2.4903
# 5 7.0448 14.9623 3.6406 12.3519 35.5186 3.9096
# 6 28.5921 28.9681 7.3829 2.4903 3.9096 50.4601
#
#
#
# Elastic Compliance Matrix: (Units=1/GPa)
#
#
# Indices 1 2 3 4 5 6 
#
# 1 0.021433 -0.000636 -0.005271 -0.002367 -0.001433 -0.010781
# 2 -0.000636 0.008412 -0.003639 0.001287 -0.003078 -0.003762
# 3 -0.005271 -0.003639 0.014040 -0.002219 0.001580 0.003009
# 4 -0.002367 0.001287 -0.002219 0.018639 -0.006382 0.000502
# 5 -0.001433 -0.003078 0.001580 -0.006382 0.031771 0.000202
# 6 -0.010781 -0.003762 0.003009 0.000502 0.000202 0.027605
#
#
# Mechanical properties :
#
#
# Convention : Reuss Voigt Hill
#
# Bulk Modulus (GPa) = 40.33031 59.96324 50.14678
# Shear Modulus (GPa) = 33.49941 43.80222 38.65081
#
# Velocity S-wave (km/s) = 3.51794 4.02270 3.77876
# Velocity P-wave (km/s) = 5.60363 6.61277 6.12900
#
# Compressibility (1/GPa) = 0.02479524
#
# Stress axis : x y z
#
# Youngs Moduli (GPa) = 46.65625 118.87149 71.22495
#
# Poissons Ratio (x) = 0.07555 0.37540
# Poissons Ratio (y) = 0.02965 0.25919
# Poissons Ratio (z) = 0.24591 0.43258
#
# Static dielectric constant tensor:
#      x y z
#    x 2.214190 0.051210 -0.022330 
#    y 0.051210 2.116760 0.037180 
#    z -0.022330 0.037180 2.396920 
# 
# From -- ./inp_files/70924.got.cif
#   From: 2010.05.17/outbox.cif.g08.bks.cpg/sg2_36_cif.got.tgz:70924.got - 2010.06.03 11:33:40.
