data_PCOD9050483
_publ_section_title
;
Structure prediction by ZEFSAII (Michael W. Deem and Ramdas Pophale) SiO2 
 PCOD9050483
Probable space group: P -1
;
_chemical_formula_sum "Si O2"
_cell_formula_units_Z 12
_cell_length_a 8.795101
_cell_length_b 9.556350
_cell_length_c 12.107305
_cell_angle_alpha 46.982102
_cell_angle_beta 53.279134
_cell_angle_gamma 61.110336
_cell_volume 591.439307
_symmetry_space_group_name_H-M "P -1"
_symmetry_group_IT_number 2
_symmetry_cell_setting 'triclinic'
loop_
_space_group_symop_operation_xyz
x,y,z
-x,-y,-z
loop_
_atom_site_type_symbol
_atom_site_label
_atom_site_fract_x
_atom_site_fract_y
_atom_site_fract_z
Si Si1 0.316087 0.963218 0.673145
Si Si2 0.070554 0.757468 0.354023
Si Si3 0.117280 0.504168 0.275025
Si Si4 0.304937 0.082798 0.096642
Si Si5 0.438539 0.283518 0.142620
Si Si6 0.037815 0.665959 0.977776
O O1 0.405099 0.891434 0.792171
O O2 0.207838 0.775797 0.795006
O O3 0.500000 0.000000 0.500000
O O4 0.139113 0.135536 0.650799
O O5 0.174075 0.665417 0.247970
O O6 0.050366 0.584208 0.540584
O O7 0.191078 0.908530 0.278066
O O8 0.273875 0.319192 0.287089
O O9 0.076068 0.591696 0.125120
O O10 0.348741 0.224840 0.099144
O O11 0.157146 0.188842 0.016166
O O12 0.500000 0.000000 0.000000
O O13 0.500000 0.500000 0.000000
O O14 0.000000 0.500000 0.000000
#
# Coordination Sequence:
#
# PCOD9050483 Si02
#       6
#     2   2   2   2   2   2
#     4  11  23  39  65  97 125 162 213 260 318 377
#     4  10  25  42  64  93 129 171 207 269 311 378
#     4  11  22  42  65  89 131 164 218 250 325 368
#     4  11  25  41  62  95 127 163 217 262 318 374
#     4  12  22  40  66  92 126 171 208 260 317 382
#     4  11  23  42  66  92 125 173 207 263 318 382
#
# _framework density 20.289487000000001
#
# number of rings (size 3 to 8) (size 9 to 14) (size 15 to 20)
#    0.000    1.000    5.000    1.000    2.333    3.333 
#    0.000    0.833    0.000    0.000    0.000    0.000 
#    0.000    0.000    0.000    0.000    0.000    0.000 
#
# Total GULP energy -66858.429421 kJ/mol
# GULP energy per Si atom -5571.535785 kJ/mol
# Density = 2.024331 g / cm^3
# Si number density = 20.289487 Si / 1000 Ang^3
#
#
#
# Elastic Constant Matrix: (Units=GPa)
#
#
# Indices 1 2 3 4 5 6 
#
# 1 98.5714 31.5536 49.9009 -4.3902 -9.6218 2.4796
# 2 31.5536 84.4369 34.0539 5.6037 -7.6761 13.8309
# 3 49.9009 34.0539 100.6223 -9.5032 3.4458 10.0802
# 4 -4.3902 5.6037 -9.5032 32.2538 -2.3454 -3.3873
# 5 -9.6218 -7.6761 3.4458 -2.3454 25.2197 1.3201
# 6 2.4796 13.8309 10.0802 -3.3873 1.3201 44.1314
#
#
#
# Elastic Compliance Matrix: (Units=1/GPa)
#
#
# Indices 1 2 3 4 5 6 
#
# 1 0.015018 -0.002645 -0.006797 0.001080 0.005878 0.001445
# 2 -0.002645 0.015928 -0.004214 -0.004519 0.004222 -0.004354
# 3 -0.006797 -0.004214 0.015421 0.003803 -0.005558 -0.001362
# 4 0.001080 -0.004519 0.003803 0.033480 0.001473 0.003013
# 5 0.005878 0.004222 -0.005558 0.001473 0.044159 -0.001592
# 6 0.001445 -0.004354 -0.001362 0.003013 -0.001592 0.024533
#
#
# Mechanical properties :
#
#
# Convention : Reuss Voigt Hill
#
# Bulk Modulus (GPa) = 52.47820 57.18304 54.83062
# Shear Modulus (GPa) = 27.44207 31.52913 29.48560
#
# Velocity S-wave (km/s) = 3.68166 3.94631 3.81628
# Velocity P-wave (km/s) = 6.63278 7.00066 6.81920
#
# Compressibility (1/GPa) = 0.01905553
#
# Stress axis : x y z
#
# Youngs Moduli (GPa) = 66.58750 62.78214 64.84728
#
# Poissons Ratio (x) = 0.16606 0.44074
# Poissons Ratio (y) = 0.17612 0.27328
# Poissons Ratio (z) = 0.45256 0.26457
#
# Static dielectric constant tensor:
#      x y z
#    x 1.753790 -0.070630 -0.041800 
#    y -0.070630 1.816760 0.003080 
#    z -0.041800 0.003080 1.800450 
# 
# From -- ./inp_files/145563.got.cif
#   From: 2010.05.17/outbox.cif.g08.bks.cpg/sg2_73_cif.got.tgz:145563.got - 2010.06.03 11:33:40.
