data_PCOD9050630
_publ_section_title
;
Structure prediction by ZEFSAII (Michael W. Deem and Ramdas Pophale) SiO2 
 PCOD9050630
Probable space group: P -1
;
_chemical_formula_sum "Si O2"
_cell_formula_units_Z 14
_cell_length_a 7.021383
_cell_length_b 8.338577
_cell_length_c 12.333809
_cell_angle_alpha 76.392654
_cell_angle_beta 56.319374
_cell_angle_gamma 57.040058
_cell_volume 501.905593
_symmetry_space_group_name_H-M "P -1"
_symmetry_group_IT_number 2
_symmetry_cell_setting 'triclinic'
loop_
_space_group_symop_operation_xyz
x,y,z
-x,-y,-z
loop_
_atom_site_type_symbol
_atom_site_label
_atom_site_fract_x
_atom_site_fract_y
_atom_site_fract_z
Si Si1 0.717413 0.241358 0.828266
Si Si2 0.145844 0.778743 0.454430
Si Si3 0.613487 0.843643 0.582883
Si Si4 0.089382 0.137986 0.060974
Si Si5 0.251728 0.193837 0.774979
Si Si6 0.938760 0.390965 0.284552
Si Si7 0.504979 0.339060 0.189554
O O1 0.510418 0.465985 0.875387
O O2 0.713849 0.225093 0.702155
O O3 0.002791 0.203750 0.787232
O O4 0.707710 0.073541 0.922420
O O5 0.925210 0.730790 0.487749
O O6 0.196195 0.675609 0.571496
O O7 0.000000 0.000000 0.500000
O O8 0.523241 0.693754 0.667136
O O9 0.500000 0.000000 0.500000
O O10 0.505802 0.991866 0.694732
O O11 0.806278 0.170554 0.098177
O O12 0.994611 0.279650 0.171358
O O13 0.203495 0.202128 0.916710
O O14 0.250369 0.380948 0.704199
O O15 0.233452 0.355193 0.228612
#
# Coordination Sequence:
#
# PCOD9050630 Si02
#       7
#     2   2   2   2   2   2   2
#     4  11  23  42  71 100 133 184 231 280 337 413
#     4  11  22  42  65  98 140 171 229 293 338 395
#     4  11  22  41  68  97 132 178 230 275 341 402
#     4  12  23  49  69  99 148 177 226 285 341 406
#     4  11  24  43  71 100 135 186 223 282 343 408
#     4  10  25  43  68 104 142 174 232 287 333 414
#     4  10  25  43  70 104 130 188 227 277 347 402
#
# _framework density 27.893688999999998
#
# number of rings (size 3 to 8) (size 9 to 14) (size 15 to 20)
#    0.000    1.143    4.286    0.857    2.000    5.143 
#    2.571    5.714    0.000    0.000    0.000    0.000 
#    0.000    0.000    0.000    0.000    0.000    0.000 
#
# Total GULP energy -78309.157640 kJ/mol
# GULP energy per Si atom -5593.511260 kJ/mol
# Density = 2.783020 g / cm^3
# Si number density = 27.893689 Si / 1000 Ang^3
#
#
#
# Elastic Constant Matrix: (Units=GPa)
#
#
# Indices 1 2 3 4 5 6 
#
# 1 96.6084 11.1654 22.6717 -1.5121 11.9576 -16.7514
# 2 11.1654 178.7648 43.7039 -43.6809 8.5013 -12.3575
# 3 22.6717 43.7039 187.0989 -24.8539 17.0119 6.8619
# 4 -1.5121 -43.6809 -24.8539 40.3104 9.7433 -8.8322
# 5 11.9576 8.5013 17.0119 9.7433 44.0474 3.1158
# 6 -16.7514 -12.3575 6.8619 -8.8322 3.1158 35.3728
#
#
#
# Elastic Compliance Matrix: (Units=1/GPa)
#
#
# Indices 1 2 3 4 5 6 
#
# 1 0.012495 0.001243 -0.001148 0.003975 -0.004632 0.007975
# 2 0.001243 0.009694 -0.000424 0.013360 -0.005557 0.007883
# 3 -0.001148 -0.000424 0.006405 0.004003 -0.002918 -0.000678
# 4 0.003975 0.013360 0.004003 0.050581 -0.017805 0.019971
# 5 -0.004632 -0.005557 -0.002918 -0.017805 0.030857 -0.010733
# 6 0.007975 0.007883 -0.000678 0.019971 -0.010733 0.040864
#
#
# Mechanical properties :
#
#
# Convention : Reuss Voigt Hill
#
# Bulk Modulus (GPa) = 35.79648 68.61712 52.20680
# Shear Modulus (GPa) = 31.08202 49.60819 40.34511
#
# Velocity S-wave (km/s) = 3.34174 4.22177 3.80727
# Velocity P-wave (km/s) = 5.26789 6.95826 6.17123
#
# Compressibility (1/GPa) = 0.02793571
#
# Stress axis : x y z
#
# Youngs Moduli (GPa) = 80.03180 103.16135 156.13224
#
# Poissons Ratio (x) = -0.12822 0.17920
# Poissons Ratio (y) = -0.09947 0.06621
# Poissons Ratio (z) = 0.09185 0.04374
#
# Static dielectric constant tensor:
#      x y z
#    x 2.397660 0.104340 -0.038880 
#    y 0.104340 2.156110 -0.070630 
#    z -0.038880 -0.070630 2.198450 
# 
# From -- ./inp_files/184679.got.cif
#   From: 2010.05.17/outbox.cif.g08.bks.cpg/sg2_93_cif.got.tgz:184679.got - 2010.06.03 11:33:40.
