data_PCOD9050725
_publ_section_title
;
Structure prediction by ZEFSAII (Michael W. Deem and Ramdas Pophale) SiO2 
 PCOD9050725
Probable space group: P -1
;
_chemical_formula_sum "Si O2"
_cell_formula_units_Z 14
_cell_length_a 8.398681
_cell_length_b 11.109555
_cell_length_c 8.344161
_cell_angle_alpha 105.418000
_cell_angle_beta 67.898088
_cell_angle_gamma 70.781862
_cell_volume 609.838125
_symmetry_space_group_name_H-M "P -1"
_symmetry_group_IT_number 2
_symmetry_cell_setting 'triclinic'
loop_
_space_group_symop_operation_xyz
x,y,z
-x,-y,-z
loop_
_atom_site_type_symbol
_atom_site_label
_atom_site_fract_x
_atom_site_fract_y
_atom_site_fract_z
Si Si1 0.919350 0.096574 0.717441
Si Si2 0.388353 0.613477 0.219644
Si Si3 0.692860 0.927891 0.288504
Si Si4 0.064950 0.372373 0.062497
Si Si5 0.339296 0.468760 0.634185
Si Si6 0.384488 0.917457 0.952001
Si Si7 0.277290 0.394577 0.305780
O O1 0.753953 0.244013 0.762921
O O2 0.105727 0.104219 0.715161
O O3 0.814388 0.040119 0.861612
O O4 0.000000 0.000000 0.500000
O O5 0.542422 0.620624 0.287055
O O6 0.272700 0.544388 0.330535
O O7 0.500000 0.500000 0.000000
O O8 0.500000 0.000000 0.500000
O O9 0.656321 0.039850 0.201518
O O10 0.761478 0.774218 0.124306
O O11 0.136491 0.390792 0.218957
O O12 0.850445 0.387236 0.183918
O O13 0.000000 0.500000 0.000000
O O14 0.500000 0.500000 0.500000
O O15 0.265184 0.392771 0.504777
O O16 0.520609 0.748128 0.855811
O O17 0.500000 0.000000 0.000000
#
# Coordination Sequence:
#
# PCOD9050725 Si02
#       7
#     2   2   2   2   2   2   2
#     4  12  28  47  79 112 154 200 260 323 389 469
#     4  11  22  47  76 107 148 193 251 311 386 448
#     4  12  29  51  75 110 157 207 262 315 394 466
#     4  12  26  46  76 109 148 195 255 318 383 454
#     4  10  25  43  74 110 145 192 249 316 383 454
#     4  12  26  49  76 109 156 205 253 317 394 468
#     4  11  24  45  75 108 154 193 256 313 384 458
#
# _framework density 22.956911000000002
#
# number of rings (size 3 to 8) (size 9 to 14) (size 15 to 20)
#    0.000    0.571    2.857    4.286    6.000    2.286 
#    7.714    0.000    0.000    0.000    0.000    0.000 
#    0.000    0.000    0.000    0.000    0.000    0.000 
#
# Total GULP energy -78165.651369 kJ/mol
# GULP energy per Si atom -5583.260812 kJ/mol
# Density = 2.290466 g / cm^3
# Si number density = 22.956911 Si / 1000 Ang^3
#
#
#
# Elastic Constant Matrix: (Units=GPa)
#
#
# Indices 1 2 3 4 5 6 
#
# 1 137.3040 49.8539 74.3078 -15.0588 7.0339 -34.2601
# 2 49.8539 122.1625 54.0434 -7.6835 -11.3523 -27.1696
# 3 74.3078 54.0434 168.8145 -2.1978 -22.2569 -14.1960
# 4 -15.0588 -7.6835 -2.1978 37.5553 -6.1109 4.1852
# 5 7.0339 -11.3523 -22.2569 -6.1109 49.3224 -9.8468
# 6 -34.2601 -27.1696 -14.1960 4.1852 -9.8468 46.2005
#
#
#
# Elastic Compliance Matrix: (Units=1/GPa)
#
#
# Indices 1 2 3 4 5 6 
#
# 1 0.012442 -0.001718 -0.004751 0.003259 -0.002736 0.005878
# 2 -0.001718 0.011340 -0.001984 0.001442 0.003204 0.005338
# 3 -0.004751 -0.001984 0.009084 -0.001022 0.004003 -0.000953
# 4 0.003259 0.001442 -0.001022 0.028567 0.003152 0.001035
# 5 -0.002736 0.003204 0.004003 0.003152 0.024815 0.006089
# 6 0.005878 0.005338 -0.000953 0.001035 0.006089 0.030054
#
#
# Mechanical properties :
#
#
# Convention : Reuss Voigt Hill
#
# Bulk Modulus (GPa) = 62.65207 87.18793 74.92000
# Shear Modulus (GPa) = 36.09348 43.28738 39.69043
#
# Velocity S-wave (km/s) = 3.96943 4.34705 4.16253
# Velocity P-wave (km/s) = 6.95406 7.95344 7.47048
#
# Compressibility (1/GPa) = 0.01596116
#
# Stress axis : x y z
#
# Youngs Moduli (GPa) = 80.37082 88.18194 110.07773
#
# Poissons Ratio (x) = 0.15149 0.52296
# Poissons Ratio (y) = 0.13807 0.21841
# Poissons Ratio (z) = 0.38183 0.17497
#
# Static dielectric constant tensor:
#      x y z
#    x 1.767340 0.009470 -0.045950 
#    y 0.009470 2.034670 -0.128110 
#    z -0.045950 -0.128110 1.950300 
# 
# From -- ./inp_files/189110.got.cif
#   From: 2010.05.17/outbox.cif.g08.bks.cpg/sg2_95_cif.got.tgz:189110.got - 2010.06.03 11:33:40.
