data_PCOD9050835
_publ_section_title
;
Structure prediction by ZEFSAII (Michael W. Deem and Ramdas Pophale) SiO2 
 PCOD9050835
Probable space group: P -1
;
_chemical_formula_sum "Si O2"
_cell_formula_units_Z 16
_cell_length_a 20.400994
_cell_length_b 9.392227
_cell_length_c 5.014779
_cell_angle_alpha 127.644703
_cell_angle_beta 64.387125
_cell_angle_gamma 125.232146
_cell_volume 616.706217
_symmetry_space_group_name_H-M "P -1"
_symmetry_group_IT_number 2
_symmetry_cell_setting 'triclinic'
loop_
_space_group_symop_operation_xyz
x,y,z
-x,-y,-z
loop_
_atom_site_type_symbol
_atom_site_label
_atom_site_fract_x
_atom_site_fract_y
_atom_site_fract_z
Si Si1 0.351106 0.204597 0.768268
Si Si2 0.783689 0.433781 0.845391
Si Si3 0.429525 0.571098 0.725822
Si Si4 0.576907 0.919039 0.006661
Si Si5 0.828372 0.074114 0.304769
Si Si6 0.325920 0.617285 0.526355
Si Si7 0.916842 0.849925 0.116017
Si Si8 0.988156 0.355457 0.097001
O O1 0.373569 0.430138 0.894497
O O2 0.373221 0.107176 0.360633
O O3 0.255559 0.090872 0.854600
O O4 0.403602 0.182498 0.888037
O O5 0.810430 0.257310 0.637516
O O6 0.714259 0.375250 0.678435
O O7 0.855607 0.639623 0.850524
O O8 0.749916 0.459637 0.219638
O O9 0.500000 0.500000 0.500000
O O10 0.481194 0.801560 0.980242
O O11 0.379310 0.528464 0.497095
O O12 0.613126 0.149748 0.269136
O O13 0.899454 0.175489 0.081753
O O14 0.863121 0.973059 0.349172
O O15 0.952090 0.751667 0.164821
O O16 0.000000 0.000000 0.000000
O O17 0.000000 0.500000 0.500000
O O18 0.000000 0.500000 0.000000
#
# Coordination Sequence:
#
# PCOD9050835 Si02
#       8
#     2   2   2   2   2   2   2   2
#     4  11  23  42  65 103 135 182 238 288 356 424
#     4  12  26  47  76 106 148 187 240 306 358 428
#     4  10  25  44  69 101 146 188 237 308 355 425
#     4  11  22  43  68  98 136 186 236 284 358 424
#     4  11  23  47  76 104 147 189 239 302 361 427
#     4  12  25  46  71 105 140 190 245 291 365 434
#     4  10  25  47  75 109 141 190 241 290 364 434
#     4  11  25  46  73 103 143 186 233 292 355 425
#
# _framework density 25.944284
#
# number of rings (size 3 to 8) (size 9 to 14) (size 15 to 20)
#    0.000    1.000    3.750    1.500    1.750    7.000 
#    0.000   19.375    0.000    0.000    0.000    0.000 
#    0.000    0.000    0.000    0.000    0.000    0.000 
#
# Total GULP energy -89446.918030 kJ/mol
# GULP energy per Si atom -5590.432377 kJ/mol
# Density = 2.588523 g / cm^3
# Si number density = 25.944284 Si / 1000 Ang^3
#
#
#
# Elastic Constant Matrix: (Units=GPa)
#
#
# Indices 1 2 3 4 5 6 
#
# 1 127.6719 51.7157 17.2253 6.8326 -30.4305 -21.7329
# 2 51.7157 157.9026 -7.3832 9.7994 13.2015 -0.4508
# 3 17.2253 -7.3832 -29.8887 -34.5123 16.0251 -22.6480
# 4 6.8326 9.7994 -34.5123 15.9480 -10.4293 6.7214
# 5 -30.4305 13.2015 16.0251 -10.4293 39.4366 10.7930
# 6 -21.7329 -0.4508 -22.6480 6.7214 10.7930 78.6401
#
#
#
# Elastic Compliance Matrix: (Units=1/GPa)
#
#
# Indices 1 2 3 4 5 6 
#
# 1 0.012789 -0.005911 0.002183 0.011193 0.013561 0.001311
# 2 -0.005911 0.009875 0.000117 -0.010882 -0.011039 0.000902
# 3 0.002183 0.000117 -0.008861 -0.020087 -0.000003 -0.000231
# 4 0.011193 -0.010882 -0.020087 0.050543 0.037140 -0.012171
# 5 0.013561 -0.011039 -0.000003 0.037140 0.051121 -0.006507
# 6 0.001311 0.000902 -0.000231 -0.012171 -0.006507 0.014951
#
#
# Mechanical properties :
#
#
# Convention : Reuss Voigt Hill
#
# Bulk Modulus (GPa) = 151.94856 42.08904 97.01880
# Shear Modulus (GPa) = 35.75663 39.74679 37.75171
#
# Velocity S-wave (km/s) = 3.71645 3.91833 3.81873
# Velocity P-wave (km/s) = 8.78125 6.06046 7.54452
#
# Compressibility (1/GPa) = 0.00658117
#
# Stress axis : x y z
#
# Youngs Moduli (GPa) = 78.19200 101.26221 -112.85792
#
# Poissons Ratio (x) = 0.59859 0.24639
# Poissons Ratio (y) = 0.46221 0.01319
# Poissons Ratio (z) = -0.17071 -0.01183
#
# Static dielectric constant tensor:
#      x y z
#    x 2.064380 0.013320 -0.124600 
#    y 0.013320 2.051340 0.064640 
#    z -0.124600 0.064640 2.475480 
# 
# From -- ./inp_files/107543.got.cif
#   From: 2010.05.17/outbox.cif.g08.bks.cpg/sg2_54_cif.got.tgz:107543.got - 2010.06.03 11:33:40.
