data_PCOD9050984
_publ_section_title
;
Structure prediction by ZEFSAII (Michael W. Deem and Ramdas Pophale) SiO2 
 PCOD9050984
Probable space group: P -1
;
_chemical_formula_sum "Si O2"
_cell_formula_units_Z 16
_cell_length_a 10.000553
_cell_length_b 12.737576
_cell_length_c 7.540870
_cell_angle_alpha 46.226630
_cell_angle_beta 107.881173
_cell_angle_gamma 99.114948
_cell_volume 658.069349
_symmetry_space_group_name_H-M "P -1"
_symmetry_group_IT_number 2
_symmetry_cell_setting 'triclinic'
loop_
_space_group_symop_operation_xyz
x,y,z
-x,-y,-z
loop_
_atom_site_type_symbol
_atom_site_label
_atom_site_fract_x
_atom_site_fract_y
_atom_site_fract_z
Si Si1 0.513553 0.328196 0.757813
Si Si2 0.121980 0.227254 0.945292
Si Si3 0.820648 0.322083 0.781368
Si Si4 0.903860 0.628089 0.615539
Si Si5 0.665962 0.009655 0.513084
Si Si6 0.202890 0.533278 0.778436
Si Si7 0.440214 0.689456 0.810543
Si Si8 0.651458 0.789957 0.483030
O O1 0.500000 0.500000 0.500000
O O2 0.675978 0.274006 0.855363
O O3 0.416606 0.233220 0.709566
O O4 0.478284 0.320130 0.959232
O O5 0.110433 0.264423 0.687680
O O6 0.962678 0.216011 0.965401
O O7 0.171898 0.374865 0.880984
O O8 0.229680 0.093861 0.202673
O O9 0.793937 0.367766 0.512791
O O10 0.851574 0.474063 0.710791
O O11 0.800530 0.695597 0.644047
O O12 0.068052 0.596530 0.761992
O O13 0.679938 0.946271 0.393321
O O14 0.500000 0.000000 0.500000
O O15 0.680441 0.177516 0.363679
O O16 0.351506 0.550888 0.908787
O O17 0.537143 0.730220 0.640217
#
# Coordination Sequence:
#
# PCOD9050984 Si02
#       8
#     2   2   2   2   2   2   2   2
#     4  12  25  40  67 102 133 164 219 271 329 385
#     4   9  20  40  72  93 135 174 216 265 326 390
#     4   9  18  39  63 104 134 167 213 272 325 389
#     4   9  19  38  66 105 130 169 216 266 329 394
#     4  10  25  45  60  94 134 176 219 267 322 387
#     4   9  19  40  71  99 131 166 217 273 325 375
#     4  11  26  45  65  96 135 168 221 277 314 387
#     4  11  24  42  66  93 136 173 212 261 337 378
#
# _framework density 24.313548000000001
#
# number of rings (size 3 to 8) (size 9 to 14) (size 15 to 20)
#    0.000    2.000    2.500    1.500    5.250    2.000 
#    2.250    7.500    0.000    0.000    0.000    0.000 
#    0.000    0.000    0.000    0.000    0.000    0.000 
#
# Total GULP energy -89570.232663 kJ/mol
# GULP energy per Si atom -5598.139541 kJ/mol
# Density = 2.425821 g / cm^3
# Si number density = 24.313548 Si / 1000 Ang^3
#
#
#
# Elastic Constant Matrix: (Units=GPa)
#
#
# Indices 1 2 3 4 5 6 
#
# 1 142.5832 17.3214 13.0756 4.3307 11.7394 -31.8356
# 2 17.3214 81.9226 20.1444 5.0097 2.7403 -20.1991
# 3 13.0756 20.1444 95.5316 6.5389 14.7096 -11.2086
# 4 4.3307 5.0097 6.5389 48.5104 -10.2536 4.8662
# 5 11.7394 2.7403 14.7096 -10.2536 29.5945 -1.7375
# 6 -31.8356 -20.1991 -11.2086 4.8662 -1.7375 40.3689
#
#
#
# Elastic Compliance Matrix: (Units=1/GPa)
#
#
# Indices 1 2 3 4 5 6 
#
# 1 0.009046 0.000108 0.000439 -0.002522 -0.004254 0.007431
# 2 0.000108 0.014565 -0.002008 -0.002099 -0.000708 0.007038
# 3 0.000439 -0.002008 0.012506 -0.003328 -0.007187 0.002906
# 4 -0.002522 -0.002099 -0.003328 0.024465 0.010947 -0.006441
# 5 -0.004254 -0.000708 -0.007187 0.010947 0.042603 -0.005190
# 6 0.007431 0.007038 0.002906 -0.006441 -0.005190 0.035513
#
#
# Mechanical properties :
#
#
# Convention : Reuss Voigt Hill
#
# Bulk Modulus (GPa) = 30.12470 46.79115 38.45793
# Shear Modulus (GPa) = 32.74715 41.66116 37.20415
#
# Velocity S-wave (km/s) = 3.67395 4.14393 3.91600
# Velocity P-wave (km/s) = 5.51491 6.49483 6.02483
#
# Compressibility (1/GPa) = 0.03319535
#
# Stress axis : x y z
#
# Youngs Moduli (GPa) = 110.54529 68.65867 79.95941
#
# Poissons Ratio (x) = -0.00743 -0.03507
# Poissons Ratio (y) = -0.01196 0.16053
# Poissons Ratio (z) = -0.04848 0.13784
#
# Static dielectric constant tensor:
#      x y z
#    x 1.926400 -0.021580 0.011970 
#    y -0.021580 1.976940 -0.026520 
#    z 0.011970 -0.026520 1.986900 
# 
# From -- ./inp_files/77201.got.cif
#   From: 2010.05.17/outbox.cif.g08.bks.cpg/sg2_39_cif.got.tgz:77201.got - 2010.06.03 11:33:40.
