data_PCOD9050382
_publ_section_title
;
Structure prediction by ZEFSAII (Michael W. Deem and Ramdas Pophale) SiO2 
 PCOD9050382
Probable space group: P -1
;
_chemical_formula_sum "Si O2"
_cell_formula_units_Z 14
_cell_length_a 13.305302
_cell_length_b 6.976499
_cell_length_c 11.111134
_cell_angle_alpha 95.319633
_cell_angle_beta 130.013352
_cell_angle_gamma 118.802932
_cell_volume 553.910944
_symmetry_space_group_name_H-M "P -1"
_symmetry_group_IT_number 2
_symmetry_cell_setting 'triclinic'
loop_
_space_group_symop_operation_xyz
x,y,z
-x,-y,-z
loop_
_atom_site_type_symbol
_atom_site_label
_atom_site_fract_x
_atom_site_fract_y
_atom_site_fract_z
Si Si1 0.795596 0.198436 0.480641
Si Si2 0.838484 0.226363 0.785869
Si Si3 0.209188 0.769194 0.781156
Si Si4 0.726084 0.670704 0.420948
Si Si5 0.722202 0.713098 0.167222
Si Si6 0.655355 0.940997 0.853448
Si Si7 0.952012 0.938179 0.144271
O O1 0.781071 0.249906 0.612040
O O2 0.709034 0.193961 0.288366
O O3 0.013499 0.461428 0.634569
O O4 0.726059 0.904341 0.423035
O O5 0.936737 0.121207 0.831565
O O6 0.666670 0.042785 0.736016
O O7 0.000000 0.500000 0.000000
O O8 0.198531 0.989762 0.766572
O O9 0.311367 0.880912 0.997236
O O10 0.788912 0.679992 0.336194
O O11 0.530167 0.374724 0.285128
O O12 0.881784 0.780282 0.642285
O O13 0.803435 0.696521 0.111893
O O14 0.500000 0.500000 0.000000
O O15 0.826179 0.964376 0.983603
#
# Coordination Sequence:
#
# PCOD9050382 Si02
#       7
#     2   2   2   2   2   2   2
#     4   9  19  33  56  90 120 164 199 252 313 363
#     4  11  22  39  63  89 132 174 204 253 320 375
#     4   9  17  33  59  88 122 156 205 251 315 361
#     4  10  20  36  64  94 127 158 210 261 316 366
#     4  10  17  34  62  93 120 159 207 262 307 367
#     4  11  21  39  68  93 124 168 211 255 310 381
#     4  10  22  36  61  96 124 162 214 260 309 373
#
# _framework density 25.274818
#
# number of rings (size 3 to 8) (size 9 to 14) (size 15 to 20)
#    0.000    2.000    4.286    0.857    0.000    3.429 
#    0.000    0.000    6.286   12.000    0.000    0.000 
#    0.000    0.000    0.000    0.000    0.000    0.000 
#
# Total GULP energy -78069.415032 kJ/mol
# GULP energy per Si atom -5576.386788 kJ/mol
# Density = 2.521729 g / cm^3
# Si number density = 25.274818 Si / 1000 Ang^3
#
#
#
# Elastic Constant Matrix: (Units=GPa)
#
#
# Indices 1 2 3 4 5 6 
#
# 1 58.3158 63.6242 80.9983 -33.8754 -6.1770 34.1652
# 2 63.6242 149.6902 42.8089 13.0572 -23.3695 42.6890
# 3 80.9983 42.8089 102.6338 25.6627 -10.0584 28.9351
# 4 -33.8754 13.0572 25.6627 37.8563 16.8492 -8.9239
# 5 -6.1770 -23.3695 -10.0584 16.8492 37.1930 -12.9740
# 6 34.1652 42.6890 28.9351 -8.9239 -12.9740 63.8176
#
#
#
# Elastic Compliance Matrix: (Units=1/GPa)
#
#
# Indices 1 2 3 4 5 6 
#
# 1 -0.004654 0.003732 0.008354 -0.016470 0.009866 -0.004090
# 2 0.003732 0.007764 -0.005744 0.003112 0.001170 -0.003914
# 3 0.008354 -0.005744 0.002959 0.009931 -0.006591 -0.001923
# 4 -0.016470 0.003112 0.009931 0.004092 0.001109 0.003030
# 5 0.009866 0.001170 -0.006591 0.001109 0.027938 0.002759
# 6 -0.004090 -0.003914 -0.001923 0.003030 0.002759 0.022335
#
#
# Mechanical properties :
#
#
# Convention : Reuss Voigt Hill
#
# Bulk Modulus (GPa) = 53.31994 76.16696 64.74345
# Shear Modulus (GPa) = 92.59045 35.98728 64.28887
#
# Velocity S-wave (km/s) = 6.05913 3.77747 5.04888
# Velocity P-wave (km/s) = 8.37213 7.01617 7.72396
#
# Compressibility (1/GPa) = 0.01875471
#
# Stress axis : x y z
#
# Youngs Moduli (GPa) = -214.88879 128.79562 337.93151
#
# Poissons Ratio (x) = -0.48070 -2.82313
# Poissons Ratio (y) = 0.80202 1.94107
# Poissons Ratio (z) = 1.79521 0.73980
#
# Static dielectric constant tensor:
#      x y z
#    x 2.143400 -0.020760 -0.139990 
#    y -0.020760 2.037910 -0.064330 
#    z -0.139990 -0.064330 2.092890 
# 
# From -- ./inp_files/446116.got.cif
#   From: 2010.05.17/outbox.cif.g08.bks.cpg/sg2_224_cif.got.tgz:446116.got - 2010.06.03 11:33:40.
