data_PCOD9050439
_publ_section_title
;
Structure prediction by ZEFSAII (Michael W. Deem and Ramdas Pophale) SiO2 
 PCOD9050439
Probable space group: P -1
;
_chemical_formula_sum "Si O2"
_cell_formula_units_Z 14
_cell_length_a 8.573003
_cell_length_b 17.865483
_cell_length_c 9.813572
_cell_angle_alpha 97.197578
_cell_angle_beta 55.231052
_cell_angle_gamma 50.068866
_cell_volume 592.480547
_symmetry_space_group_name_H-M "P -1"
_symmetry_group_IT_number 2
_symmetry_cell_setting 'triclinic'
loop_
_space_group_symop_operation_xyz
x,y,z
-x,-y,-z
loop_
_atom_site_type_symbol
_atom_site_label
_atom_site_fract_x
_atom_site_fract_y
_atom_site_fract_z
Si Si1 0.828428 0.828952 0.998823
Si Si2 0.095011 0.307456 0.297491
Si Si3 0.617656 0.641310 0.980176
Si Si4 0.074841 0.035691 0.085005
Si Si5 0.072376 0.898531 0.526677
Si Si6 0.098543 0.607953 0.286284
Si Si7 0.133529 0.182881 0.721478
O O1 0.896701 0.772707 0.102229
O O2 0.043650 0.703675 0.749293
O O3 0.972540 0.864314 0.927507
O O4 0.354568 0.994065 0.245895
O O5 0.218940 0.340531 0.166609
O O6 0.864687 0.405575 0.572287
O O7 0.484582 0.132895 0.123002
O O8 0.938151 0.463410 0.770353
O O9 0.419611 0.731129 0.243719
O O10 0.246034 0.736196 0.104206
O O11 0.843911 0.111699 0.360655
O O12 0.000000 0.000000 0.000000
O O13 0.000000 0.000000 0.500000
O O14 0.808650 0.772310 0.409713
O O15 0.500000 0.500000 0.000000
O O16 0.500000 0.000000 0.500000
#
# Coordination Sequence:
#
# PCOD9050439 Si02
#       7
#     2   2   2   2   2   2   2
#     4  11  23  37  66  98 131 167 219 273 324 378
#     4  11  22  42  64  93 132 173 218 265 328 392
#     4  11  22  42  67  94 134 174 214 268 328 391
#     4  11  24  39  64 103 133 165 220 276 325 382
#     4  11  21  39  65  97 133 169 218 267 328 387
#     4  10  25  41  67  93 127 177 219 264 330 390
#     4  11  22  40  67  97 129 170 225 265 318 387
#
# _framework density 23.629466000000001
#
# number of rings (size 3 to 8) (size 9 to 14) (size 15 to 20)
#    0.000    1.143    4.286    3.857    6.000    1.143 
#    0.000    3.571    3.143    0.000    0.000    0.000 
#    0.000    0.000    0.000    0.000    0.000    0.000 
#
# Total GULP energy -78315.422308 kJ/mol
# GULP energy per Si atom -5593.958736 kJ/mol
# Density = 2.357568 g / cm^3
# Si number density = 23.629466 Si / 1000 Ang^3
#
#
#
# Elastic Constant Matrix: (Units=GPa)
#
#
# Indices 1 2 3 4 5 6 
#
# 1 124.9453 39.4840 49.9908 -20.8866 39.6604 15.0823
# 2 39.4840 100.1342 37.5032 -9.0649 17.3236 24.6481
# 3 49.9908 37.5032 150.4001 -29.2719 49.1852 4.8051
# 4 -20.8866 -9.0649 -29.2719 46.7480 -10.2493 5.6911
# 5 39.6604 17.3236 49.1852 -10.2493 51.3099 -1.3883
# 6 15.0823 24.6481 4.8051 5.6911 -1.3883 40.1486
#
#
#
# Elastic Compliance Matrix: (Units=1/GPa)
#
#
# Indices 1 2 3 4 5 6 
#
# 1 0.012437 -0.002080 -0.000048 0.003836 -0.008213 -0.004217
# 2 -0.002080 0.013694 -0.001845 0.001234 -0.001207 -0.007622
# 3 -0.000048 -0.001845 0.011014 0.004685 -0.008993 -0.001143
# 4 0.003836 0.001234 0.004685 0.026477 -0.002763 -0.006608
# 5 -0.008213 -0.001207 -0.008993 -0.002763 0.034490 0.006487
# 6 -0.004217 -0.007622 -0.001143 -0.006608 0.006487 0.032469
#
#
# Mechanical properties :
#
#
# Convention : Reuss Voigt Hill
#
# Bulk Modulus (GPa) = 34.24648 69.93729 52.09189
# Shear Modulus (GPa) = 33.72435 44.20809 38.96622
#
# Velocity S-wave (km/s) = 3.78195 4.33007 4.06526
# Velocity P-wave (km/s) = 5.79616 7.39331 6.64291
#
# Compressibility (1/GPa) = 0.02920008
#
# Stress axis : x y z
#
# Youngs Moduli (GPa) = 80.40266 73.02262 90.79068
#
# Poissons Ratio (x) = 0.15188 0.00436
# Poissons Ratio (y) = 0.16723 0.16751
# Poissons Ratio (z) = 0.00387 0.13473
#
# Static dielectric constant tensor:
#      x y z
#    x 1.936350 -0.020330 0.019890 
#    y -0.020330 1.911560 0.050880 
#    z 0.019890 0.050880 1.996920 
# 
# From -- ./inp_files/212760.got.cif
#   From: 2010.05.17/outbox.cif.g08.bks.cpg/sg2_107_cif.got.tgz:212760.got - 2010.06.03 11:33:40.
