data_PCOD9050941
_publ_section_title
;
Structure prediction by ZEFSAII (Michael W. Deem and Ramdas Pophale) SiO2 
 PCOD9050941
Probable space group: P -1
;
_chemical_formula_sum "Si O2"
_cell_formula_units_Z 16
_cell_length_a 8.563580
_cell_length_b 12.479218
_cell_length_c 12.762434
_cell_angle_alpha 46.317742
_cell_angle_beta 68.892109
_cell_angle_gamma 101.999297
_cell_volume 677.368349
_symmetry_space_group_name_H-M "P -1"
_symmetry_group_IT_number 2
_symmetry_cell_setting 'triclinic'
loop_
_space_group_symop_operation_xyz
x,y,z
-x,-y,-z
loop_
_atom_site_type_symbol
_atom_site_label
_atom_site_fract_x
_atom_site_fract_y
_atom_site_fract_z
Si Si1 0.016235 0.050308 0.582192
Si Si2 0.515735 0.787313 0.669882
Si Si3 0.287303 0.373606 0.970497
Si Si4 0.019169 0.401550 0.377077
Si Si5 0.634259 0.485055 0.632532
Si Si6 0.801473 0.765889 0.223056
Si Si7 0.931367 0.278727 0.965342
Si Si8 0.444697 0.908941 0.398217
O O1 0.044061 0.241439 0.456941
O O2 0.805802 0.840803 0.826787
O O3 0.000000 0.000000 0.500000
O O4 0.249154 0.109764 0.514202
O O5 0.400701 0.566309 0.886003
O O6 0.553878 0.925154 0.661633
O O7 0.387748 0.782156 0.604006
O O8 0.479542 0.453095 0.785253
O O9 0.071165 0.328240 0.003016
O O10 0.108235 0.574239 0.154919
O O11 0.176878 0.512868 0.367416
O O12 0.745490 0.246739 0.536247
O O13 0.765967 0.694193 0.398684
O O14 0.438350 0.321466 0.707134
O O15 0.899939 0.683713 0.190670
O O16 0.000000 0.000000 0.000000
O O17 0.692214 0.050558 0.189333
#
# Coordination Sequence:
#
# PCOD9050941 Si02
#       8
#     2   2   2   2   2   2   2   2
#     4  12  26  42  66 103 141 192 238 284 336 391
#     4  11  23  42  66  96 143 190 241 272 332 411
#     4  11  24  43  73  95 138 189 238 281 334 413
#     4  12  26  42  68 102 147 173 229 293 339 405
#     4  10  25  44  73 104 131 175 228 287 349 410
#     4  10  25  48  79 101 131 176 231 283 357 429
#     4  11  26  44  70 102 135 183 228 284 354 411
#     4  11  25  40  66 102 141 190 225 282 341 404
#
# _framework density 23.620823999999999
#
# number of rings (size 3 to 8) (size 9 to 14) (size 15 to 20)
#    0.000    1.000    5.000    0.000    8.750    2.500 
#    0.000    1.250    0.000    0.000    0.000    0.000 
#    0.000    0.000    0.000    0.000    0.000    0.000 
#
# Total GULP energy -89262.091797 kJ/mol
# GULP energy per Si atom -5578.880737 kJ/mol
# Density = 2.356706 g / cm^3
# Si number density = 23.620824 Si / 1000 Ang^3
#
#
#
# Elastic Constant Matrix: (Units=GPa)
#
#
# Indices 1 2 3 4 5 6 
#
# 1 96.6013 19.0846 49.5522 -9.3238 -2.1838 20.7237
# 2 19.0846 37.8318 18.1078 0.5173 3.7104 -6.5980
# 3 49.5522 18.1078 138.0891 -8.6837 0.7683 8.7067
# 4 -9.3238 0.5173 -8.6837 30.1886 -4.9976 -2.9452
# 5 -2.1838 3.7104 0.7683 -4.9976 45.2977 -9.0687
# 6 20.7237 -6.5980 8.7067 -2.9452 -9.0687 34.7843
#
#
#
# Elastic Compliance Matrix: (Units=1/GPa)
#
#
# Indices 1 2 3 4 5 6 
#
# 1 0.016504 -0.008205 -0.004012 0.003065 -0.000162 -0.010167
# 2 -0.008205 0.033848 -0.002385 -0.002886 -0.001173 0.011356
# 3 -0.004012 -0.002385 0.009096 0.001388 -0.000046 -0.000234
# 4 0.003065 -0.002886 0.001388 0.035419 0.004562 0.001467
# 5 -0.000162 -0.001173 -0.000046 0.004562 0.023974 0.006522
# 6 -0.010167 0.011356 -0.000234 0.001467 0.006522 0.038843
#
#
# Mechanical properties :
#
#
# Convention : Reuss Voigt Hill
#
# Bulk Modulus (GPa) = 33.06315 49.55683 41.30999
# Shear Modulus (GPa) = 25.38453 34.43929 29.91191
#
# Velocity S-wave (km/s) = 3.28177 3.82253 3.56242
# Velocity P-wave (km/s) = 5.32803 6.36459 5.86923
#
# Compressibility (1/GPa) = 0.03024515
#
# Stress axis : x y z
#
# Youngs Moduli (GPa) = 60.59136 29.54350 109.93431
#
# Poissons Ratio (x) = 0.24240 0.44103
# Poissons Ratio (y) = 0.49714 0.26223
# Poissons Ratio (z) = 0.24308 0.07047
#
# Static dielectric constant tensor:
#      x y z
#    x 1.991810 -0.003110 0.032310 
#    y -0.003110 1.904800 0.005680 
#    z 0.032310 0.005680 1.812570 
# 
# From -- ./inp_files/505248.got.cif
#   From: 2010.05.17/outbox.cif.g08.bks.cpg/sg2_253_cif.got.tgz:505248.got - 2010.06.03 11:33:40.
