data_PCOD9050811
_publ_section_title
;
Structure prediction by ZEFSAII (Michael W. Deem and Ramdas Pophale) SiO2 
 PCOD9050811
Probable space group: P -1
;
_chemical_formula_sum "Si O2"
_cell_formula_units_Z 16
_cell_length_a 27.550826
_cell_length_b 12.477699
_cell_length_c 5.321112
_cell_angle_alpha 120.963836
_cell_angle_beta 48.337529
_cell_angle_gamma 151.032153
_cell_volume 650.386395
_symmetry_space_group_name_H-M "P -1"
_symmetry_group_IT_number 2
_symmetry_cell_setting 'triclinic'
loop_
_space_group_symop_operation_xyz
x,y,z
-x,-y,-z
loop_
_atom_site_type_symbol
_atom_site_label
_atom_site_fract_x
_atom_site_fract_y
_atom_site_fract_z
Si Si1 0.871685 0.294587 0.573738
Si Si2 0.006552 0.926409 0.137097
Si Si3 0.219753 0.601141 0.804915
Si Si4 0.626759 0.367650 0.739734
Si Si5 0.393065 0.035672 0.423066
Si Si6 0.236824 0.240235 0.960681
Si Si7 0.217464 0.957286 0.914536
Si Si8 0.546498 0.437301 0.723483
O O1 0.870574 0.235194 0.228700
O O2 0.000000 0.500000 0.500000
O O3 0.815487 0.342963 0.821636
O O4 0.800256 0.107943 0.813552
O O5 0.902549 0.659727 0.160262
O O6 0.000000 0.000000 0.500000
O O7 0.000000 0.000000 0.000000
O O8 0.135341 0.075355 0.905457
O O9 0.315220 0.653053 0.636623
O O10 0.289261 0.776461 0.544428
O O11 0.609979 0.468318 0.767212
O O12 0.499326 0.143876 0.032353
O O13 0.729737 0.568730 0.824801
O O14 0.453405 0.185539 0.648332
O O15 0.335714 0.072227 0.557827
O O16 0.359164 0.393904 0.613376
O O17 0.206675 0.087895 0.084662
O O18 0.500000 0.500000 0.000000
#
# Coordination Sequence:
#
# PCOD9050811 Si02
#       8
#     2   2   2   2   2   2   2   2
#     4  11  26  48  72 107 145 198 245 303 367 439
#     4  12  27  49  73 106 147 191 244 299 372 443
#     4  11  25  47  72 107 148 190 246 308 371 446
#     4  11  23  45  71 106 147 194 249 304 372 437
#     4  10  25  44  68 108 143 197 242 307 368 440
#     4  11  25  43  74 106 146 191 249 308 366 440
#     4  11  25  44  75 105 146 188 250 301 367 436
#     4  11  24  43  73 104 150 196 248 304 366 441
#
# _framework density 24.600760000000001
#
# number of rings (size 3 to 8) (size 9 to 14) (size 15 to 20)
#    0.000    1.000    1.250    3.750    8.750    6.500 
#    9.000    0.000    0.000    0.000    0.000    0.000 
#    0.000    0.000    0.000    0.000    0.000    0.000 
#
# Total GULP energy -89435.292222 kJ/mol
# GULP energy per Si atom -5589.705764 kJ/mol
# Density = 2.454477 g / cm^3
# Si number density = 24.600760 Si / 1000 Ang^3
#
#
#
# Elastic Constant Matrix: (Units=GPa)
#
#
# Indices 1 2 3 4 5 6 
#
# 1 104.0298 28.4412 6.8302 2.4965 -6.1543 -5.5900
# 2 28.4412 123.5381 14.1311 -7.3849 10.5157 -1.6549
# 3 6.8302 14.1311 60.0388 10.6740 -5.0425 -11.1859
# 4 2.4965 -7.3849 10.6740 24.5689 6.7225 -4.7044
# 5 -6.1543 10.5157 -5.0425 6.7225 40.8062 2.9494
# 6 -5.5900 -1.6549 -11.1859 -4.7044 2.9494 37.8500
#
#
#
# Elastic Compliance Matrix: (Units=1/GPa)
#
#
# Indices 1 2 3 4 5 6 
#
# 1 0.010656 -0.002875 0.000357 -0.002664 0.002758 0.001008
# 2 -0.002875 0.009877 -0.003410 0.005959 -0.004388 0.000082
# 3 0.000357 -0.003410 0.020488 -0.010479 0.004882 0.004276
# 4 -0.002664 0.005959 -0.010479 0.051381 -0.011993 0.004091
# 5 0.002758 -0.004388 0.004882 -0.011993 0.028782 -0.002075
# 6 0.001008 0.000082 0.004276 0.004091 -0.002075 0.028506
#
#
# Mechanical properties :
#
#
# Convention : Reuss Voigt Hill
#
# Bulk Modulus (GPa) = 34.28696 42.93463 38.61079
# Shear Modulus (GPa) = 29.19397 36.52531 32.85964
#
# Velocity S-wave (km/s) = 3.44860 3.85739 3.65871
# Velocity P-wave (km/s) = 5.46121 6.10981 5.79459
#
# Compressibility (1/GPa) = 0.02916561
#
# Stress axis : x y z
#
# Youngs Moduli (GPa) = 93.84081 101.24073 48.81003
#
# Poissons Ratio (x) = 0.29104 -0.01744
# Poissons Ratio (y) = 0.26977 0.16647
# Poissons Ratio (z) = -0.03353 0.34528
#
# Static dielectric constant tensor:
#      x y z
#    x 2.076170 0.002710 -0.027690 
#    y 0.002710 2.025590 0.040540 
#    z -0.027690 0.040540 1.968820 
# 
# From -- ./inp_files/109568.got.cif
#   From: 2010.05.17/outbox.cif.g08.bks.cpg/sg2_55_cif.got.tgz:109568.got - 2010.06.03 11:33:40.
