data_PCOD9050554
_publ_section_title
;
Structure prediction by ZEFSAII (Michael W. Deem and Ramdas Pophale) SiO2 
 PCOD9050554
Probable space group: P -1
;
_chemical_formula_sum "Si O2"
_cell_formula_units_Z 14
_cell_length_a 9.743553
_cell_length_b 7.862951
_cell_length_c 17.984598
_cell_angle_alpha 62.965456
_cell_angle_beta 150.726318
_cell_angle_gamma 106.743076
_cell_volume 581.244042
_symmetry_space_group_name_H-M "P -1"
_symmetry_group_IT_number 2
_symmetry_cell_setting 'triclinic'
loop_
_space_group_symop_operation_xyz
x,y,z
-x,-y,-z
loop_
_atom_site_type_symbol
_atom_site_label
_atom_site_fract_x
_atom_site_fract_y
_atom_site_fract_z
Si Si1 0.347509 0.512729 0.345277
Si Si2 0.675832 0.475356 0.357925
Si Si3 0.290797 0.945684 0.233609
Si Si4 0.682544 0.148207 0.304487
Si Si5 0.648411 0.155463 0.121672
Si Si6 0.253725 0.121870 0.411360
Si Si7 0.704101 0.169992 0.981220
O O1 0.500000 0.500000 0.500000
O O2 0.579532 0.447293 0.401946
O O3 0.198949 0.742727 0.215890
O O4 0.163904 0.349382 0.296514
O O5 0.639690 0.303848 0.319814
O O6 0.460844 0.672832 0.186528
O O7 0.000000 0.500000 0.500000
O O8 0.585242 0.883931 0.433514
O O9 0.960077 0.904177 0.869247
O O10 0.417125 0.041766 0.205233
O O11 0.658550 0.244113 0.191404
O O12 0.000000 0.000000 0.500000
O O13 0.982873 0.027044 0.301712
O O14 0.424139 0.021609 0.042081
O O15 0.626842 0.257935 0.010542
O O16 0.500000 0.000000 0.500000
#
# Coordination Sequence:
#
# PCOD9050554 Si02
#       7
#     2   2   2   2   2   2   2
#     4  10  25  42  73 107 136 183 239 292 355 422
#     4  12  28  47  72 104 145 188 242 300 363 430
#     4  11  23  46  72 105 140 188 235 298 355 424
#     4  12  25  45  76 106 144 190 244 292 355 433
#     4  11  25  46  70 107 143 192 233 293 360 422
#     4  11  21  42  74 102 142 186 240 287 351 431
#     4  11  27  48  72 105 149 186 240 302 365 415
#
# _framework density 24.086268
#
# number of rings (size 3 to 8) (size 9 to 14) (size 15 to 20)
#    0.000    0.857    2.857    3.429    4.000    4.571 
#    2.571    0.000    0.000    0.000    0.000    0.000 
#    0.000    0.000    0.000    0.000    0.000    0.000 
#
# Total GULP energy -78212.036389 kJ/mol
# GULP energy per Si atom -5586.574028 kJ/mol
# Density = 2.403145 g / cm^3
# Si number density = 24.086268 Si / 1000 Ang^3
#
#
#
# Elastic Constant Matrix: (Units=GPa)
#
#
# Indices 1 2 3 4 5 6 
#
# 1 169.6316 29.5712 50.5258 2.4214 -24.7733 -5.3184
# 2 29.5712 76.5707 18.7006 -1.9212 1.2167 -10.3471
# 3 50.5258 18.7006 85.8660 8.5332 -4.8847 8.5814
# 4 2.4214 -1.9212 8.5332 28.2808 -6.8163 -0.4039
# 5 -24.7733 1.2167 -4.8847 -6.8163 49.8573 17.6701
# 6 -5.3184 -10.3471 8.5814 -0.4039 17.6701 36.2784
#
#
#
# Elastic Compliance Matrix: (Units=1/GPa)
#
#
# Indices 1 2 3 4 5 6 
#
# 1 0.008056 -0.002182 -0.004137 0.001362 0.003973 -0.000383
# 2 -0.002182 0.015712 -0.003191 0.001341 -0.004042 0.006900
# 3 -0.004137 -0.003191 0.015860 -0.004484 0.001025 -0.005817
# 4 0.001362 0.001341 -0.004484 0.038039 0.005648 -0.000684
# 5 0.003973 -0.004042 0.001025 0.005648 0.028123 -0.014448
# 6 -0.000383 0.006900 -0.005817 -0.000684 -0.014448 0.037882
#
#
# Mechanical properties :
#
#
# Convention : Reuss Voigt Hill
#
# Bulk Modulus (GPa) = 48.51936 58.85151 53.68543
# Shear Modulus (GPa) = 29.48792 38.43467 33.96130
#
# Velocity S-wave (km/s) = 3.50274 3.99897 3.75905
# Velocity P-wave (km/s) = 6.04538 6.76823 6.41699
#
# Compressibility (1/GPa) = 0.02061033
#
# Stress axis : x y z
#
# Youngs Moduli (GPa) = 124.12634 63.64566 63.05019
#
# Poissons Ratio (x) = 0.13886 0.26081
# Poissons Ratio (y) = 0.27081 0.20119
# Poissons Ratio (z) = 0.51345 0.20309
#
# Static dielectric constant tensor:
#      x y z
#    x 1.953970 0.024990 -0.086080 
#    y 0.024990 1.980510 -0.009760 
#    z -0.086080 -0.009760 2.045300 
# 
# From -- ./inp_files/188441.got.cif
#   From: 2010.05.17/outbox.cif.g08.bks.cpg/sg2_95_cif.got.tgz:188441.got - 2010.06.03 11:33:40.
