data_PCOD9050066
_publ_section_title
;
Structure prediction by ZEFSAII (Michael W. Deem and Ramdas Pophale) SiO2 
 PCOD9050066
Probable space group: P -1
;
_chemical_formula_sum "Si O2"
_cell_formula_units_Z 12
_cell_length_a 10.117366
_cell_length_b 11.749664
_cell_length_c 5.385412
_cell_angle_alpha 69.995751
_cell_angle_beta 57.487110
_cell_angle_gamma 58.175953
_cell_volume 457.161011
_symmetry_space_group_name_H-M "P -1"
_symmetry_group_IT_number 2
_symmetry_cell_setting 'triclinic'
loop_
_space_group_symop_operation_xyz
x,y,z
-x,-y,-z
loop_
_atom_site_type_symbol
_atom_site_label
_atom_site_fract_x
_atom_site_fract_y
_atom_site_fract_z
Si Si1 0.631989 0.056576 0.210031
Si Si2 0.462741 0.323849 0.458344
Si Si3 0.653764 0.807000 0.950822
Si Si4 0.066469 0.109245 0.284110
Si Si5 0.885587 0.520677 0.840590
Si Si6 0.730070 0.384850 0.423560
O O1 0.603023 0.199762 0.250265
O O2 0.540284 0.104141 0.999391
O O3 0.500000 0.000000 0.500000
O O4 0.828365 0.945618 0.044444
O O5 0.577486 0.342002 0.553660
O O6 0.341414 0.484291 0.419337
O O7 0.343003 0.254286 0.733924
O O8 0.781679 0.874900 0.729368
O O9 0.736361 0.668792 0.824318
O O10 0.904722 0.252064 0.394305
O O11 0.000000 0.000000 0.500000
O O12 0.000000 0.500000 0.500000
O O13 0.783166 0.433370 0.075454
O O14 0.000000 0.500000 0.000000
#
# Coordination Sequence:
#
# PCOD9050066 Si02
#       6
#     2   2   2   2   2   2
#     4  12  27  44  75 106 150 202 254 312 397 472
#     4  10  24  50  74 103 150 197 259 317 397 461
#     4  11  25  45  72 102 152 201 252 315 393 466
#     4  12  26  45  73 110 154 197 257 320 392 469
#     4  11  25  45  77 113 151 199 261 331 393 462
#     4  10  24  48  74 110 149 197 260 326 385 467
#
# _framework density 26.248956
#
# number of rings (size 3 to 8) (size 9 to 14) (size 15 to 20)
#    0.000    1.000    3.333    1.500    9.333    2.000 
#    3.000    5.000    0.000    0.000    0.000    0.000 
#    0.000    0.000    0.000    0.000    0.000    0.000 
#
# Total GULP energy -66850.457045 kJ/mol
# GULP energy per Si atom -5570.871420 kJ/mol
# Density = 2.618921 g / cm^3
# Si number density = 26.248956 Si / 1000 Ang^3
#
#
#
# Elastic Constant Matrix: (Units=GPa)
#
#
# Indices 1 2 3 4 5 6 
#
# 1 67.6533 32.3745 15.8943 -6.8959 -18.3615 5.5361
# 2 32.3745 192.3734 23.6916 30.6902 -7.3234 9.4645
# 3 15.8943 23.6916 104.9803 -5.5218 -19.8564 10.3474
# 4 -6.8959 30.6902 -5.5218 57.4444 2.9199 -14.1148
# 5 -18.3615 -7.3234 -19.8564 2.9199 41.5465 -1.4719
# 6 5.5361 9.4645 10.3474 -14.1148 -1.4719 53.6828
#
#
#
# Elastic Compliance Matrix: (Units=1/GPa)
#
#
# Indices 1 2 3 4 5 6 
#
# 1 0.018881 -0.003417 -0.000519 0.003653 0.007235 -0.000086
# 2 -0.003417 0.006703 -0.001175 -0.004516 -0.000637 -0.001808
# 3 -0.000519 -0.001175 0.010950 0.001024 0.004674 -0.001453
# 4 0.003653 -0.004516 0.001024 0.021823 -0.000015 0.005960
# 5 0.007235 -0.000637 0.004674 -0.000015 0.029363 -0.000733
# 6 -0.000086 -0.001808 -0.001453 0.005960 -0.000733 0.020782
#
#
# Mechanical properties :
#
#
# Convention : Reuss Voigt Hill
#
# Bulk Modulus (GPa) = 38.00343 56.54751 47.27547
# Shear Modulus (GPa) = 39.21699 50.07120 44.64409
#
# Velocity S-wave (km/s) = 3.86947 4.37229 4.12854
# Velocity P-wave (km/s) = 5.87140 6.86140 6.38561
#
# Compressibility (1/GPa) = 0.02631341
#
# Stress axis : x y z
#
# Youngs Moduli (GPa) = 52.96303 149.18324 91.32098
#
# Poissons Ratio (x) = 0.50974 0.04735
# Poissons Ratio (y) = 0.18097 0.10732
# Poissons Ratio (z) = 0.02746 0.17533
#
# Static dielectric constant tensor:
#      x y z
#    x 2.152020 0.015260 0.094650 
#    y 0.015260 2.182040 0.072680 
#    z 0.094650 0.072680 2.123110 
# 
# From -- ./inp_files/68259.got.cif
#   From: 2010.05.17/outbox.cif.g08.bks.cpg/sg2_35_cif.got.tgz:68259.got - 2010.06.03 11:33:40.
