data_PCOD9050506
_publ_section_title
;
Structure prediction by ZEFSAII (Michael W. Deem and Ramdas Pophale) SiO2 
 PCOD9050506
Probable space group: P -1
;
_chemical_formula_sum "Si O2"
_cell_formula_units_Z 16
_cell_length_a 15.507317
_cell_length_b 8.379108
_cell_length_c 11.891837
_cell_angle_alpha 121.360918
_cell_angle_beta 112.842931
_cell_angle_gamma 114.950461
_cell_volume 741.143024
_symmetry_space_group_name_H-M "P -1"
_symmetry_group_IT_number 2
_symmetry_cell_setting 'triclinic'
loop_
_space_group_symop_operation_xyz
x,y,z
-x,-y,-z
loop_
_atom_site_type_symbol
_atom_site_label
_atom_site_fract_x
_atom_site_fract_y
_atom_site_fract_z
Si Si1 0.730921 0.711506 0.749719
Si Si2 0.965287 0.337977 0.233753
Si Si3 0.629811 0.150088 0.210545
Si Si4 0.762115 0.943668 0.185370
Si Si5 0.759011 0.739395 0.508666
Si Si6 0.951891 0.132629 0.555729
Si Si7 0.302306 0.760822 0.476997
Si Si8 0.502577 0.612825 0.301746
O O1 0.751054 0.762139 0.645305
O O2 0.739839 0.502573 0.697657
O O3 0.571993 0.511604 0.657835
O O4 0.859396 0.043531 0.993178
O O5 0.935299 0.513041 0.274297
O O6 0.141457 0.585937 0.379157
O O7 0.916681 0.196383 0.281607
O O8 0.754950 0.513356 0.397614
O O9 0.591312 0.101109 0.307162
O O10 0.691621 0.039856 0.183513
O O11 0.500000 0.000000 0.000000
O O12 0.807627 0.949553 0.333872
O O13 0.638659 0.617903 0.941484
O O14 0.606199 0.594524 0.330746
O O15 0.900500 0.051654 0.629514
O O16 0.000000 0.000000 0.500000
O O17 0.389052 0.039401 0.540809
#
# Coordination Sequence:
#
# PCOD9050506 Si02
#       8
#     2   2   2   2   2   2   2   2
#     4  10  25  42  67  97 134 180 230 268 331 392
#     4  11  23  45  67  94 135 183 220 275 330 393
#     4  11  22  38  66  99 136 176 218 271 341 403
#     4  11  24  42  68  98 138 172 221 273 337 404
#     4  11  23  41  67  97 136 176 222 279 329 391
#     4  12  26  43  69 102 139 171 222 276 337 399
#     4  11  23  42  68  96 132 179 224 275 330 393
#     4  11  22  44  66  98 133 177 219 282 330 392
#
# _framework density 21.588277000000001
#
# number of rings (size 3 to 8) (size 9 to 14) (size 15 to 20)
#    0.000    1.000    3.750    2.250    5.250    1.500 
#    0.000    0.000    0.000    0.000    0.000    0.000 
#    0.000    0.000    0.000    0.000    0.000    0.000 
#
# Total GULP energy -89353.361641 kJ/mol
# GULP energy per Si atom -5584.585103 kJ/mol
# Density = 2.153914 g / cm^3
# Si number density = 21.588277 Si / 1000 Ang^3
#
#
#
# Elastic Constant Matrix: (Units=GPa)
#
#
# Indices 1 2 3 4 5 6 
#
# 1 110.4556 31.7125 37.5279 6.3901 -6.6504 -13.2759
# 2 31.7125 120.7125 47.3768 8.3770 -6.3687 3.8487
# 3 37.5279 47.3768 95.0498 4.5894 -18.6701 -7.0875
# 4 6.3901 8.3770 4.5894 29.0237 -3.3026 1.6095
# 5 -6.6504 -6.3687 -18.6701 -3.3026 31.2223 0.8520
# 6 -13.2759 3.8487 -7.0875 1.6095 0.8520 39.2203
#
#
#
# Elastic Compliance Matrix: (Units=1/GPa)
#
#
# Indices 1 2 3 4 5 6 
#
# 1 0.011134 -0.001640 -0.003282 -0.001670 -0.000195 0.003409
# 2 -0.001640 0.010869 -0.005118 -0.001984 -0.001336 -0.002436
# 3 -0.003282 -0.005118 0.016043 0.000438 0.007839 0.002102
# 4 -0.001670 -0.001984 0.000438 0.035807 0.003339 -0.001833
# 5 -0.000195 -0.001336 0.007839 0.003339 0.036740 0.000547
# 6 0.003409 -0.002436 0.002102 -0.001833 0.000547 0.027333
#
#
# Mechanical properties :
#
#
# Convention : Reuss Voigt Hill
#
# Bulk Modulus (GPa) = 55.66270 62.16137 58.91203
# Shear Modulus (GPa) = 30.48865 33.86664 32.17765
#
# Velocity S-wave (km/s) = 3.76211 3.96504 3.86491
# Velocity P-wave (km/s) = 6.68663 7.05823 6.87494
#
# Compressibility (1/GPa) = 0.01796535
#
# Stress axis : x y z
#
# Youngs Moduli (GPa) = 89.81496 92.00822 62.33186
#
# Poissons Ratio (x) = 0.15089 0.20457
# Poissons Ratio (y) = 0.14730 0.31903
# Poissons Ratio (z) = 0.29477 0.47092
#
# Static dielectric constant tensor:
#      x y z
#    x 1.813850 0.001080 0.007940 
#    y 0.001080 1.789330 -0.009970 
#    z 0.007940 -0.009970 1.784460 
# 
# From -- ./inp_files/448066.got.cif
#   From: 2010.05.17/outbox.cif.g08.bks.cpg/sg2_225_cif.got.tgz:448066.got - 2010.06.03 11:33:40.
