data_PCOD9050653
_publ_section_title
;
Structure prediction by ZEFSAII (Michael W. Deem and Ramdas Pophale) SiO2 
 PCOD9050653
Probable space group: P -1
;
_chemical_formula_sum "Si O2"
_cell_formula_units_Z 16
_cell_length_a 16.902358
_cell_length_b 8.924423
_cell_length_c 9.588912
_cell_angle_alpha 109.107320
_cell_angle_beta 107.139651
_cell_angle_gamma 129.426610
_cell_volume 765.557028
_symmetry_space_group_name_H-M "P -1"
_symmetry_group_IT_number 2
_symmetry_cell_setting 'triclinic'
loop_
_space_group_symop_operation_xyz
x,y,z
-x,-y,-z
loop_
_atom_site_type_symbol
_atom_site_label
_atom_site_fract_x
_atom_site_fract_y
_atom_site_fract_z
Si Si1 0.153431 0.180443 0.796845
Si Si2 0.327735 0.075640 0.148767
Si Si3 0.855632 0.884499 0.551276
Si Si4 0.390632 0.670112 0.580443
Si Si5 0.401022 0.551339 0.245244
Si Si6 0.853669 0.234646 0.766147
Si Si7 0.854149 0.200436 0.284678
Si Si8 0.320482 0.919665 0.601814
O O1 0.184784 0.225214 0.661535
O O2 0.123998 0.953117 0.752856
O O3 0.283775 0.429812 0.037839
O O4 0.013079 0.063585 0.712815
O O5 0.465206 0.179689 0.238570
O O6 0.369607 0.321669 0.206798
O O7 0.265117 0.967740 0.238012
O O8 0.203856 0.834127 0.904821
O O9 0.742214 0.630461 0.517640
O O10 0.859907 0.078697 0.638537
O O11 0.398616 0.653286 0.413502
O O12 0.369654 0.822652 0.644127
O O13 0.550299 0.793023 0.319434
O O14 0.803843 0.284856 0.640951
O O15 0.000000 0.500000 0.000000
O O16 0.736168 0.067297 0.294622
O O17 0.000000 0.500000 0.500000
#
# Coordination Sequence:
#
# PCOD9050653 Si02
#       8
#     2   2   2   2   2   2   2   2
#     4  10  25  43  69  98 129 182 217 275 328 393
#     4  11  25  43  70  98 131 177 221 272 332 393
#     4  11  24  46  69  98 134 175 227 266 328 404
#     4  12  25  44  68 100 135 171 225 276 329 395
#     4  11  24  45  69  95 136 170 226 273 334 394
#     4  12  25  44  71  99 134 179 217 272 333 392
#     4  11  24  46  65  98 139 173 221 276 330 392
#     4  12  26  43  67 100 135 176 219 277 333 389
#
# _framework density 20.899813999999999
#
# number of rings (size 3 to 8) (size 9 to 14) (size 15 to 20)
#    0.000    0.750    3.750    3.000    3.500    3.000 
#    2.250    0.000    0.000    0.000    0.000    0.000 
#    0.000    0.000    0.000    0.000    0.000    0.000 
#
# Total GULP energy -89544.675932 kJ/mol
# GULP energy per Si atom -5596.542246 kJ/mol
# Density = 2.085224 g / cm^3
# Si number density = 20.899814 Si / 1000 Ang^3
#
#
#
# Elastic Constant Matrix: (Units=GPa)
#
#
# Indices 1 2 3 4 5 6 
#
# 1 100.4173 18.9527 12.5971 -9.6640 15.7614 6.0722
# 2 18.9527 45.0488 -8.4153 -0.3527 1.3115 13.1817
# 3 12.5971 -8.4153 85.0799 -13.7676 17.3335 7.1542
# 4 -9.6640 -0.3527 -13.7676 31.6837 -3.8446 -1.0923
# 5 15.7614 1.3115 17.3335 -3.8446 24.2123 -2.5610
# 6 6.0722 13.1817 7.1542 -1.0923 -2.5610 31.4391
#
#
#
# Elastic Compliance Matrix: (Units=1/GPa)
#
#
# Indices 1 2 3 4 5 6 
#
# 1 0.012338 -0.004793 -0.000339 0.002663 -0.007190 -0.000790
# 2 -0.004793 0.029092 0.005468 0.000351 -0.003669 -0.012803
# 3 -0.000339 0.005468 0.016100 0.005335 -0.011457 -0.006639
# 4 0.002663 0.000351 0.005335 0.034656 -0.000141 -0.000683
# 5 -0.007190 -0.003669 -0.011457 -0.000141 0.055423 0.010044
# 6 -0.000790 -0.012803 -0.006639 -0.000683 0.010044 0.039633
#
#
# Mechanical properties :
#
#
# Convention : Reuss Voigt Hill
#
# Bulk Modulus (GPa) = 17.18120 30.75723 23.96921
# Shear Modulus (GPa) = 24.27543 31.29446 27.78495
#
# Velocity S-wave (km/s) = 3.41180 3.87377 3.65010
# Velocity P-wave (km/s) = 4.87433 5.89547 5.40905
#
# Compressibility (1/GPa) = 0.05820317
#
# Stress axis : x y z
#
# Youngs Moduli (GPa) = 81.04941 34.37400 62.11059
#
# Poissons Ratio (x) = 0.16475 0.02103
# Poissons Ratio (y) = 0.38846 -0.33962
# Poissons Ratio (z) = 0.02745 -0.18796
#
# Static dielectric constant tensor:
#      x y z
#    x 1.709890 -0.004670 0.011360 
#    y -0.004670 1.721690 -0.003370 
#    z 0.011360 -0.003370 1.763200 
# 
# From -- ./inp_files/189787.got.cif
#   From: 2010.05.17/outbox.cif.g08.bks.cpg/sg2_95_cif.got.tgz:189787.got - 2010.06.03 11:33:40.
