data_PCOD9050817
_publ_section_title
;
Structure prediction by ZEFSAII (Michael W. Deem and Ramdas Pophale) SiO2 
 PCOD9050817
Probable space group: P -1
;
_chemical_formula_sum "Si O2"
_cell_formula_units_Z 14
_cell_length_a 9.928306
_cell_length_b 9.914418
_cell_length_c 11.070858
_cell_angle_alpha 84.558015
_cell_angle_beta 67.839771
_cell_angle_gamma 40.918462
_cell_volume 627.708910
_symmetry_space_group_name_H-M "P -1"
_symmetry_group_IT_number 2
_symmetry_cell_setting 'triclinic'
loop_
_space_group_symop_operation_xyz
x,y,z
-x,-y,-z
loop_
_atom_site_type_symbol
_atom_site_label
_atom_site_fract_x
_atom_site_fract_y
_atom_site_fract_z
Si Si1 0.848266 0.929932 0.367369
Si Si2 0.627722 0.055346 0.670582
Si Si3 0.029324 0.127743 0.927197
Si Si4 0.571051 0.026804 0.093504
Si Si5 0.119239 0.789257 0.610462
Si Si6 0.302422 0.502032 0.174512
Si Si7 0.511174 0.540916 0.296323
O O1 0.647797 0.040542 0.519386
O O2 0.796986 0.995398 0.238735
O O3 0.056765 0.669642 0.316584
O O4 0.947093 0.003376 0.373813
O O5 0.494390 0.025846 0.771195
O O6 0.893410 0.868305 0.645741
O O7 0.518699 0.277405 0.729731
O O8 0.795249 0.356480 0.926479
O O9 0.157809 0.130495 0.977993
O O10 0.000000 0.000000 0.000000
O O11 0.429016 0.270241 0.127652
O O12 0.500000 0.000000 0.000000
O O13 0.317744 0.637522 0.453680
O O14 0.242512 0.661539 0.704852
O O15 0.458988 0.488431 0.202278
#
# Coordination Sequence:
#
# PCOD9050817 Si02
#       7
#     2   2   2   2   2   2   2
#     4   9  19  41  69 100 128 169 221 269 329 384
#     4  11  21  42  65  99 147 163 211 285 325 392
#     4  10  24  47  71  96 129 177 225 273 322 399
#     4  12  30  45  63  98 136 180 220 273 342 386
#     4  10  17  34  65 104 137 165 212 268 330 392
#     4  10  22  45  66  96 129 172 234 263 320 401
#     4  10  19  35  69 103 129 176 216 259 332 402
#
# _framework density 22.303331
#
# number of rings (size 3 to 8) (size 9 to 14) (size 15 to 20)
#    0.857    0.857    2.857    1.714    4.000    3.429 
#    2.571    0.000    0.000    0.000    0.000    0.000 
#    0.000    0.000    0.000    0.000    0.000    0.000 
#
# Total GULP energy -78211.574008 kJ/mol
# GULP energy per Si atom -5586.541001 kJ/mol
# Density = 2.225257 g / cm^3
# Si number density = 22.303331 Si / 1000 Ang^3
#
#
#
# Elastic Constant Matrix: (Units=GPa)
#
#
# Indices 1 2 3 4 5 6 
#
# 1 127.5922 56.8901 56.4742 -22.2724 13.0725 -0.7821
# 2 56.8901 147.4276 45.6856 -17.2893 8.2455 4.8565
# 3 56.4742 45.6856 93.8233 -8.5141 2.2980 18.5880
# 4 -22.2724 -17.2893 -8.5141 33.0615 9.2420 4.2164
# 5 13.0725 8.2455 2.2980 9.2420 36.4194 -2.7029
# 6 -0.7821 4.8565 18.5880 4.2164 -2.7029 32.1591
#
#
#
# Elastic Compliance Matrix: (Units=1/GPa)
#
#
# Indices 1 2 3 4 5 6 
#
# 1 0.013853 -0.002015 -0.007181 0.007614 -0.005750 0.003310
# 2 -0.002015 0.008895 -0.002697 0.003202 -0.001964 -0.000418
# 3 -0.007181 -0.002697 0.018190 -0.000690 0.001469 -0.010067
# 4 0.007614 0.003202 -0.000690 0.041768 -0.014503 -0.006595
# 5 -0.005750 -0.001964 0.001469 -0.014503 0.033855 0.004055
# 6 0.003310 -0.000418 -0.010067 -0.006595 0.004055 0.038263
#
#
# Mechanical properties :
#
#
# Convention : Reuss Voigt Hill
#
# Bulk Modulus (GPa) = 58.30230 76.32699 67.31465
# Shear Modulus (GPa) = 27.12537 34.31422 30.71980
#
# Velocity S-wave (km/s) = 3.49119 3.92666 3.71531
# Velocity P-wave (km/s) = 6.51526 7.40640 6.97507
#
# Compressibility (1/GPa) = 0.01715198
#
# Stress axis : x y z
#
# Youngs Moduli (GPa) = 72.18713 112.41679 54.97485
#
# Poissons Ratio (x) = 0.22649 0.39479
# Poissons Ratio (y) = 0.14544 0.14828
# Poissons Ratio (z) = 0.51840 0.30321
#
# Static dielectric constant tensor:
#      x y z
#    x 1.791070 -0.050520 0.033820 
#    y -0.050520 1.819470 0.010180 
#    z 0.033820 0.010180 1.914680 
# 
# From -- ./inp_files/376318.got.cif
#   From: 2010.05.17/outbox.cif.g08.bks.cpg/sg2_189_cif.got.tgz:376318.got - 2010.06.03 11:33:40.
