data_PCOD9050854
_publ_section_title
;
Structure prediction by ZEFSAII (Michael W. Deem and Ramdas Pophale) SiO2 
 PCOD9050854
Probable space group: P -1
;
_chemical_formula_sum "Si O2"
_cell_formula_units_Z 14
_cell_length_a 19.815976
_cell_length_b 8.948973
_cell_length_c 7.809718
_cell_angle_alpha 52.551383
_cell_angle_beta 127.668190
_cell_angle_gamma 148.946145
_cell_volume 553.239784
_symmetry_space_group_name_H-M "P -1"
_symmetry_group_IT_number 2
_symmetry_cell_setting 'triclinic'
loop_
_space_group_symop_operation_xyz
x,y,z
-x,-y,-z
loop_
_atom_site_type_symbol
_atom_site_label
_atom_site_fract_x
_atom_site_fract_y
_atom_site_fract_z
Si Si1 0.658969 0.244303 0.098572
Si Si2 0.976314 0.992438 0.760721
Si Si3 0.551136 0.827291 0.664855
Si Si4 0.106952 0.830642 0.994773
Si Si5 0.301350 0.617637 0.309486
Si Si6 0.631550 0.575132 0.017482
Si Si7 0.876305 0.376800 0.503474
O O1 0.691760 0.502286 0.057611
O O2 0.727793 0.186189 0.341034
O O3 0.718503 0.323095 0.946740
O O4 0.500000 0.000000 0.000000
O O5 0.822605 0.736619 0.635345
O O6 0.058408 0.305526 0.591971
O O7 0.029910 0.892440 0.836321
O O8 0.000000 0.000000 0.000000
O O9 0.442062 0.747036 0.437817
O O10 0.475920 0.682077 0.834664
O O11 0.676072 0.181968 0.650930
O O12 0.570235 0.643991 0.768245
O O13 0.144937 0.814692 0.250966
O O14 0.000000 0.500000 0.000000
O O15 0.245749 0.106660 0.921004
O O16 0.000000 0.500000 0.500000
#
# Coordination Sequence:
#
# PCOD9050854 Si02
#       7
#     2   2   2   2   2   2   2
#     4  12  25  45  72 104 145 184 245 303 353 427
#     4  12  23  47  71 102 141 188 238 296 357 435
#     4  10  25  44  69  99 143 191 233 292 373 434
#     4  12  27  45  72 106 143 185 241 298 358 431
#     4  11  23  44  71  99 138 190 238 296 362 432
#     4  11  24  46  65 102 145 182 238 298 355 431
#     4  12  27  47  75 105 146 194 240 296 364 435
#
# _framework density 25.305484
#
# number of rings (size 3 to 8) (size 9 to 14) (size 15 to 20)
#    0.000    0.571    5.714    0.857    4.000    3.429 
#    0.000    0.000    0.000    0.000    0.000    0.000 
#    0.000    0.000    0.000    0.000    0.000    0.000 
#
# Total GULP energy -78169.480866 kJ/mol
# GULP energy per Si atom -5583.534348 kJ/mol
# Density = 2.524789 g / cm^3
# Si number density = 25.305484 Si / 1000 Ang^3
#
#
#
# Elastic Constant Matrix: (Units=GPa)
#
#
# Indices 1 2 3 4 5 6 
#
# 1 70.4191 2.3814 23.2628 2.3240 31.7643 -3.7572
# 2 2.3814 144.6423 -0.9936 0.8157 6.6663 14.6906
# 3 23.2628 -0.9936 112.1937 2.8987 23.0525 -8.1606
# 4 2.3240 0.8157 2.8987 36.7365 4.9128 7.9391
# 5 31.7643 6.6663 23.0525 4.9128 46.9667 -11.3517
# 6 -3.7572 14.6906 -8.1606 7.9391 -11.3517 33.1047
#
#
#
# Elastic Compliance Matrix: (Units=1/GPa)
#
#
# Indices 1 2 3 4 5 6 
#
# 1 0.021053 0.000679 -0.001674 0.001529 -0.014564 -0.003685
# 2 0.000679 0.007474 0.000146 0.001106 -0.002776 -0.004421
# 3 -0.001674 0.000146 0.010078 -0.000469 -0.003511 0.001138
# 4 0.001529 0.001106 -0.000469 0.030144 -0.006505 -0.009893
# 5 -0.014564 -0.002776 -0.003511 -0.006505 0.037078 0.012988
# 6 -0.003685 -0.004421 0.001138 -0.009893 0.012988 0.038857
#
#
# Mechanical properties :
#
#
# Convention : Reuss Voigt Hill
#
# Bulk Modulus (GPa) = 27.09658 41.83959 34.46808
# Shear Modulus (GPa) = 31.50869 43.53523 37.52196
#
# Velocity S-wave (km/s) = 3.53247 4.15226 3.85484
# Velocity P-wave (km/s) = 5.23152 6.28951 5.78476
#
# Compressibility (1/GPa) = 0.03690502
#
# Stress axis : x y z
#
# Youngs Moduli (GPa) = 47.49898 133.79511 99.22750
#
# Poissons Ratio (x) = -0.09081 0.16615
# Poissons Ratio (y) = -0.03224 -0.01445
# Poissons Ratio (z) = 0.07953 -0.01948
#
# Static dielectric constant tensor:
#      x y z
#    x 2.029830 0.033100 -0.030770 
#    y 0.033100 2.077470 0.089670 
#    z -0.030770 0.089670 1.978020 
# 
# From -- ./inp_files/343347.got.cif
#   From: 2010.05.17/outbox.cif.g08.bks.cpg/sg2_172_cif.got.tgz:343347.got - 2010.06.03 11:33:40.
