data_PCOD9050734
_publ_section_title
;
Structure prediction by ZEFSAII (Michael W. Deem and Ramdas Pophale) SiO2 
 PCOD9050734
Probable space group: P -1
;
_chemical_formula_sum "Si O2"
_cell_formula_units_Z 16
_cell_length_a 8.767760
_cell_length_b 14.062881
_cell_length_c 8.894095
_cell_angle_alpha 110.459836
_cell_angle_beta 69.451987
_cell_angle_gamma 138.027953
_cell_volume 679.830858
_symmetry_space_group_name_H-M "P -1"
_symmetry_group_IT_number 2
_symmetry_cell_setting 'triclinic'
loop_
_space_group_symop_operation_xyz
x,y,z
-x,-y,-z
loop_
_atom_site_type_symbol
_atom_site_label
_atom_site_fract_x
_atom_site_fract_y
_atom_site_fract_z
Si Si1 0.868028 0.128950 0.723399
Si Si2 0.973756 0.787284 0.603412
Si Si3 0.268120 0.587921 0.976131
Si Si4 0.494603 0.496654 0.318946
Si Si5 0.632757 0.168552 0.376715
Si Si6 0.458129 0.693656 0.291742
Si Si7 0.653220 0.172268 0.036310
Si Si8 0.045106 0.033050 0.826617
O O1 0.033934 0.225139 0.580457
O O2 0.946990 0.087378 0.803936
O O3 0.633527 0.979166 0.647232
O O4 0.824898 0.214723 0.869946
O O5 0.221771 0.855608 0.608281
O O6 0.778594 0.645675 0.688084
O O7 0.941278 0.890635 0.702146
O O8 0.307749 0.598860 0.146989
O O9 0.357280 0.526545 0.825084
O O10 0.425533 0.751479 0.948059
O O11 0.000000 0.500000 0.000000
O O12 0.500000 0.500000 0.500000
O O13 0.537169 0.625581 0.306909
O O14 0.647851 0.274955 0.533415
O O15 0.737375 0.226511 0.205895
O O16 0.683615 0.847535 0.232717
O O17 0.500000 0.000000 0.000000
O O18 0.000000 0.000000 0.000000
#
# Coordination Sequence:
#
# PCOD9050734 Si02
#       8
#     2   2   2   2   2   2   2   2
#     4  11  24  45  76 113 153 194 251 313 386 444
#     4  12  26  45  76 108 153 197 255 314 382 450
#     4  12  30  51  77 109 155 201 255 315 383 453
#     4  12  30  51  77 110 155 206 256 311 384 455
#     4  11  25  45  78 114 151 192 255 311 381 446
#     4  12  28  50  77 109 158 197 258 313 383 458
#     4  10  25  43  77 107 151 189 249 307 377 446
#     4  12  27  44  76 109 149 198 252 319 383 450
#
# _framework density 23.535266
#
# number of rings (size 3 to 8) (size 9 to 14) (size 15 to 20)
#    0.000    0.500    1.250    4.875   19.250    0.500 
#    0.000    0.000    0.000    0.000    0.000    0.000 
#    0.000    0.000    0.000    0.000    0.000    0.000 
#
# Total GULP energy -89467.486758 kJ/mol
# GULP energy per Si atom -5591.717922 kJ/mol
# Density = 2.348170 g / cm^3
# Si number density = 23.535266 Si / 1000 Ang^3
#
#
#
# Elastic Constant Matrix: (Units=GPa)
#
#
# Indices 1 2 3 4 5 6 
#
# 1 97.8944 7.5548 44.0346 11.4292 6.9924 -4.0233
# 2 7.5548 74.7368 23.3125 -12.1920 -6.4865 -6.6389
# 3 44.0346 23.3125 211.3719 4.7615 -9.7898 -7.4838
# 4 11.4292 -12.1920 4.7615 31.3415 -8.4990 -0.7365
# 5 6.9924 -6.4865 -9.7898 -8.4990 50.9421 5.2954
# 6 -4.0233 -6.6389 -7.4838 -0.7365 5.2954 48.2343
#
#
#
# Elastic Compliance Matrix: (Units=1/GPa)
#
#
# Indices 1 2 3 4 5 6 
#
# 1 0.012357 -0.001661 -0.002395 -0.005691 -0.003392 0.000716
# 2 -0.001661 0.015649 -0.001356 0.007775 0.003093 0.001584
# 3 -0.002395 -0.001356 0.005448 -0.000165 0.001141 0.000331
# 4 -0.005691 0.007775 -0.000165 0.039279 0.008266 0.000262
# 5 -0.003392 0.003093 0.001141 0.008266 0.022296 -0.002002
# 6 0.000716 0.001584 0.000331 0.000262 -0.002002 0.021285
#
#
# Mechanical properties :
#
#
# Convention : Reuss Voigt Hill
#
# Bulk Modulus (GPa) = 44.18963 59.31187 51.75075
# Shear Modulus (GPa) = 37.12531 46.71034 41.91782
#
# Velocity S-wave (km/s) = 3.97600 4.45983 4.22484
# Velocity P-wave (km/s) = 6.31623 7.19556 6.77019
#
# Compressibility (1/GPa) = 0.02262974
#
# Stress axis : x y z
#
# Youngs Moduli (GPa) = 80.92859 63.90369 183.56597
#
# Poissons Ratio (x) = 0.10617 0.43955
# Poissons Ratio (y) = 0.13445 0.24884
# Poissons Ratio (z) = 0.19378 0.08663
#
# Static dielectric constant tensor:
#      x y z
#    x 1.894910 0.103380 0.028490 
#    y 0.103380 1.992280 0.002380 
#    z 0.028490 0.002380 1.876460 
# 
# From -- ./inp_files/208226.got.cif
#   From: 2010.05.17/outbox.cif.g08.bks.cpg/sg2_105_cif.got.tgz:208226.got - 2010.06.03 11:33:40.
