data_PCOD9050723
_publ_section_title
;
Structure prediction by ZEFSAII (Michael W. Deem and Ramdas Pophale) SiO2 
 PCOD9050723
Probable space group: P -1
;
_chemical_formula_sum "Si O2"
_cell_formula_units_Z 13
_cell_length_a 8.280104
_cell_length_b 7.620197
_cell_length_c 10.827093
_cell_angle_alpha 107.247657
_cell_angle_beta 98.427870
_cell_angle_gamma 128.494116
_cell_volume 457.801424
_symmetry_space_group_name_H-M "P -1"
_symmetry_group_IT_number 2
_symmetry_cell_setting 'triclinic'
loop_
_space_group_symop_operation_xyz
x,y,z
-x,-y,-z
loop_
_atom_site_type_symbol
_atom_site_label
_atom_site_fract_x
_atom_site_fract_y
_atom_site_fract_z
Si Si1 0.500000 0.000000 0.500000
Si Si2 0.103668 0.442516 0.894407
Si Si3 0.131202 0.944088 0.572878
Si Si4 0.364081 0.102526 0.263885
Si Si5 0.421565 0.517553 0.250444
Si Si6 0.371264 0.161906 0.007664
Si Si7 0.008668 0.372925 0.280596
O O1 0.728874 0.064052 0.509897
O O2 0.502962 0.916191 0.628919
O O3 0.084037 0.518794 0.771889
O O4 0.375634 0.626010 0.979410
O O5 0.913986 0.130308 0.804709
O O6 0.000000 0.500000 0.000000
O O7 0.340186 0.220655 0.719494
O O8 0.995763 0.698960 0.595137
O O9 0.000000 0.000000 0.500000
O O10 0.446148 0.379943 0.329157
O O11 0.408579 0.075739 0.121339
O O12 0.300031 0.303107 0.086288
O O13 0.273718 0.565208 0.302487
O O14 0.158376 0.908680 0.860515
#
# Coordination Sequence:
#
# PCOD9050723 Si02
#       7
#     1   2   2   2   2   2   2
#     4  12  26  48  78 102 150 198 254 304 372 442
#     4  12  24  42  73 110 150 189 247 312 369 451
#     4  12  30  51  77 111 152 201 257 310 374 450
#     4  10  25  45  72 105 146 198 246 303 374 447
#     4  10  26  49  72 108 150 190 249 315 369 453
#     4  10  25  43  74 108 147 190 241 305 379 442
#     4  12  25  46  77 110 145 197 246 309 385 437
#
# _framework density 28.396592999999999
#
# number of rings (size 3 to 8) (size 9 to 14) (size 15 to 20)
#    0.923    0.000    1.538    3.692    8.615    4.308 
#    0.000    4.615    0.000    0.000    0.000    0.000 
#    0.000    0.000    0.000    0.000    0.000    0.000 
#
# Total GULP energy -72623.630176 kJ/mol
# GULP energy per Si atom -5586.433090 kJ/mol
# Density = 2.833196 g / cm^3
# Si number density = 28.396593 Si / 1000 Ang^3
#
#
#
# Elastic Constant Matrix: (Units=GPa)
#
#
# Indices 1 2 3 4 5 6 
#
# 1 114.2104 14.9593 17.5403 -27.7232 25.1233 15.9436
# 2 14.9593 172.9160 33.0221 -33.0294 26.0618 12.2398
# 3 17.5403 33.0221 125.1811 -22.5193 27.6860 -1.2366
# 4 -27.7232 -33.0294 -22.5193 49.1411 -5.6461 9.8332
# 5 25.1233 26.0618 27.6860 -5.6461 40.3474 -0.6991
# 6 15.9436 12.2398 -1.2366 9.8332 -0.6991 60.5316
#
#
#
# Elastic Compliance Matrix: (Units=1/GPa)
#
#
# Indices 1 2 3 4 5 6 
#
# 1 0.013534 0.002297 0.001320 0.009830 -0.009540 -0.005709
# 2 0.002297 0.007952 0.000005 0.006661 -0.005697 -0.003361
# 3 0.001320 0.000005 0.010252 0.004820 -0.007203 -0.001005
# 4 0.009830 0.006661 0.004820 0.033397 -0.009220 -0.009369
# 5 -0.009540 -0.005697 -0.007203 -0.009220 0.038151 0.005456
# 6 -0.005709 -0.003361 -0.001005 -0.009369 0.005456 0.020268
#
#
# Mechanical properties :
#
#
# Convention : Reuss Voigt Hill
#
# Bulk Modulus (GPa) = 25.65293 60.37230 43.01262
# Shear Modulus (GPa) = 38.66826 53.12309 45.89568
#
# Velocity S-wave (km/s) = 3.69415 4.32992 4.02461
# Velocity P-wave (km/s) = 5.22007 6.80471 6.06437
#
# Compressibility (1/GPa) = 0.03898189
#
# Stress axis : x y z
#
# Youngs Moduli (GPa) = 73.88894 125.75026 97.53868
#
# Poissons Ratio (x) = -0.28882 -0.12871
# Poissons Ratio (y) = -0.16970 -0.00053
# Poissons Ratio (z) = -0.09750 -0.00068
#
# Static dielectric constant tensor:
#      x y z
#    x 2.309340 -0.218920 -0.107090 
#    y -0.218920 2.350020 0.014770 
#    z -0.107090 0.014770 2.201750 
# 
# From -- ./inp_files/61188.got.cif
#   From: 2010.05.17/outbox.cif.g08.bks.cpg/sg2_31_cif.got.tgz:61188.got - 2010.06.03 11:33:40.
