data_PCOD9050589
_publ_section_title
;
Structure prediction by ZEFSAII (Michael W. Deem and Ramdas Pophale) SiO2 
 PCOD9050589
Probable space group: P -1
;
_chemical_formula_sum "Si O2"
_cell_formula_units_Z 16
_cell_length_a 11.715412
_cell_length_b 8.920441
_cell_length_c 17.099661
_cell_angle_alpha 126.960069
_cell_angle_beta 137.264840
_cell_angle_gamma 82.500888
_cell_volume 793.651492
_symmetry_space_group_name_H-M "P -1"
_symmetry_group_IT_number 2
_symmetry_cell_setting 'triclinic'
loop_
_space_group_symop_operation_xyz
x,y,z
-x,-y,-z
loop_
_atom_site_type_symbol
_atom_site_label
_atom_site_fract_x
_atom_site_fract_y
_atom_site_fract_z
Si Si1 0.944332 0.989592 0.060565
Si Si2 0.529767 0.151035 0.743627
Si Si3 0.683942 0.039325 0.154812
Si Si4 0.871613 0.059787 0.613740
Si Si5 0.513616 0.170728 0.246283
Si Si6 0.140604 0.759843 0.176457
Si Si7 0.329124 0.394745 0.948120
Si Si8 0.114089 0.305806 0.386796
O O1 0.027858 0.861927 0.109119
O O2 0.699990 0.877683 0.908771
O O3 0.060212 0.223301 0.243361
O O4 0.000000 0.000000 0.000000
O O5 0.641199 0.154642 0.722497
O O6 0.296758 0.046281 0.571127
O O7 0.547813 0.984453 0.756865
O O8 0.631084 0.400036 0.912378
O O9 0.628534 0.085950 0.225872
O O10 0.902633 0.250987 0.299754
O O11 0.669687 0.804813 0.069960
O O12 0.500000 0.000000 0.000000
O O13 0.843518 0.196840 0.710003
O O14 0.097701 0.243865 0.751416
O O15 0.854623 0.856759 0.592408
O O16 0.684083 0.439162 0.428244
O O17 0.000000 0.500000 0.000000
O O18 0.500000 0.500000 0.000000
#
# Coordination Sequence:
#
# PCOD9050589 Si02
#       8
#     2   2   2   2   2   2   2   2
#     4  11  24  45  65  97 134 168 217 269 322 382
#     4  12  25  43  68  97 131 174 216 266 328 384
#     4  11  23  43  70  95 128 173 217 267 325 382
#     4  10  25  43  65  98 132 168 218 268 319 386
#     4  12  25  43  68  97 131 174 216 266 328 384
#     4  11  23  43  70  95 128 173 217 267 325 382
#     4  11  24  45  65  97 134 168 217 269 322 382
#     4  10  25  43  65  98 132 168 218 268 319 386
#
# _framework density 20.159983
#
# number of rings (size 3 to 8) (size 9 to 14) (size 15 to 20)
#    0.000    1.000    5.000    0.750    3.500    4.000 
#    0.000    0.000    0.000    0.000    0.000    0.000 
#    0.000    0.000    0.000    0.000    0.000    0.000 
#
# Total GULP energy -89264.943327 kJ/mol
# GULP energy per Si atom -5579.058958 kJ/mol
# Density = 2.011410 g / cm^3
# Si number density = 20.159983 Si / 1000 Ang^3
#
#
#
# Elastic Constant Matrix: (Units=GPa)
#
#
# Indices 1 2 3 4 5 6 
#
# 1 62.1189 3.4113 -2.6675 7.6852 18.5606 -3.2852
# 2 3.4113 36.4247 45.3796 3.8157 8.4214 -13.3224
# 3 -2.6675 45.3796 132.8757 4.9812 23.4655 -13.5692
# 4 7.6852 3.8157 4.9812 35.1717 -2.1109 2.3332
# 5 18.5606 8.4214 23.4655 -2.1109 23.8090 -7.4876
# 6 -3.2852 -13.3224 -13.5692 2.3332 -7.4876 24.5188
#
#
#
# Elastic Compliance Matrix: (Units=1/GPa)
#
#
# Indices 1 2 3 4 5 6 
#
# 1 0.025258 -0.005186 0.006881 -0.007309 -0.026208 -0.002933
# 2 -0.005186 0.058931 -0.019328 -0.003539 0.009434 0.023847
# 3 0.006881 -0.019328 0.016820 -0.002461 -0.016964 -0.005218
# 4 -0.007309 -0.003539 -0.002461 0.031680 0.010946 -0.003936
# 5 -0.026208 0.009434 -0.016964 0.010946 0.081876 0.016188
# 6 -0.002933 0.023847 -0.005218 -0.003936 0.016188 0.055779
#
#
# Mechanical properties :
#
#
# Convention : Reuss Voigt Hill
#
# Bulk Modulus (GPa) = 15.21072 35.96290 25.58681
# Shear Modulus (GPa) = 15.26596 29.05297 22.15946
#
# Velocity S-wave (km/s) = 2.75479 3.80033 3.31899
# Velocity P-wave (km/s) = 4.20474 6.09378 5.23517
#
# Compressibility (1/GPa) = 0.06574312
#
# Stress axis : x y z
#
# Youngs Moduli (GPa) = 39.59076 16.96887 59.45223
#
# Poissons Ratio (x) = 0.08800 -0.40909
# Poissons Ratio (y) = 0.20532 1.14912
# Poissons Ratio (z) = -0.27242 0.32798
#
# Static dielectric constant tensor:
#      x y z
#    x -0.173500 0.025020 0.117450 
#    y 0.025020 1.717070 0.008050 
#    z 0.117450 0.008050 1.692970 
# 
# From -- ./inp_files/70834.got.cif
#   From: 2010.05.17/outbox.cif.g08.bks.cpg/sg2_36_cif.got.tgz:70834.got - 2010.06.03 11:33:40.
