data_PCOD9050302
_publ_section_title
;
Structure prediction by ZEFSAII (Michael W. Deem and Ramdas Pophale) SiO2 
 PCOD9050302
Probable space group: P -1
;
_chemical_formula_sum "Si O2"
_cell_formula_units_Z 13
_cell_length_a 14.389709
_cell_length_b 9.468821
_cell_length_c 9.651455
_cell_angle_alpha 147.290061
_cell_angle_beta 131.169578
_cell_angle_gamma 46.291602
_cell_volume 503.644654
_symmetry_space_group_name_H-M "P -1"
_symmetry_group_IT_number 2
_symmetry_cell_setting 'triclinic'
loop_
_space_group_symop_operation_xyz
x,y,z
-x,-y,-z
loop_
_atom_site_type_symbol
_atom_site_label
_atom_site_fract_x
_atom_site_fract_y
_atom_site_fract_z
Si Si1 0.198831 0.165734 0.682142
Si Si2 0.398985 0.695195 0.664238
Si Si3 0.000000 0.500000 0.000000
Si Si4 0.377648 0.903612 0.265511
Si Si5 0.791089 0.548861 0.580811
Si Si6 0.008786 0.798950 0.711664
Si Si7 0.573531 0.642677 0.016037
O O1 0.103838 0.079196 0.412907
O O2 0.281256 0.916546 0.654082
O O3 0.300690 0.260791 0.767600
O O4 0.111383 0.390659 0.892727
O O5 0.500000 0.500000 0.500000
O O6 0.337103 0.501900 0.530751
O O7 0.496415 0.799062 0.936745
O O8 0.115720 0.452961 0.197899
O O9 0.363538 0.691393 0.192097
O O10 0.500000 0.000000 0.500000
O O11 0.254681 0.161753 0.309965
O O12 0.444835 0.716431 0.046789
O O13 0.860088 0.298075 0.333908
O O14 0.000000 0.500000 0.500000
O O15 0.000000 0.000000 0.000000
#
# Coordination Sequence:
#
# PCOD9050302 Si02
#       7
#     2   2   1   2   2   2   2
#     4  11  26  47  76 115 156 206 271 322 402 478
#     4  12  25  45  75 109 154 198 257 332 406 477
#     4  10  24  50  74 106 158 212 262 328 382 470
#     4  11  24  47  75 114 155 199 254 327 406 476
#     4  11  25  47  78 116 156 209 271 327 403 480
#     4  11  30  53  79 115 161 219 273 335 395 480
#     4  11  25  45  76 113 157 200 254 333 405 476
#
# _framework density 25.811848999999999
#
# number of rings (size 3 to 8) (size 9 to 14) (size 15 to 20)
#    0.000    0.923    1.538    3.231    2.154   11.077 
#    0.000    2.308    0.000    0.000    0.000    0.000 
#    0.000    0.000    0.000    0.000    0.000    0.000 
#
# Total GULP energy -72430.751784 kJ/mol
# GULP energy per Si atom -5571.596291 kJ/mol
# Density = 2.575310 g / cm^3
# Si number density = 25.811849 Si / 1000 Ang^3
#
#
#
# Elastic Constant Matrix: (Units=GPa)
#
#
# Indices 1 2 3 4 5 6 
#
# 1 126.0471 43.7543 31.0059 -2.0768 -13.9753 -29.0844
# 2 43.7543 146.6765 84.7587 -15.8492 5.0373 -7.4272
# 3 31.0059 84.7587 131.7430 -23.1835 -19.9602 -9.1677
# 4 -2.0768 -15.8492 -23.1835 41.6035 8.4668 3.6447
# 5 -13.9753 5.0373 -19.9602 8.4668 34.4775 1.9039
# 6 -29.0844 -7.4272 -9.1677 3.6447 1.9039 43.8254
#
#
#
# Elastic Compliance Matrix: (Units=1/GPa)
#
#
# Indices 1 2 3 4 5 6 
#
# 1 0.011311 -0.003961 0.000855 -0.002263 0.005831 0.006949
# 2 -0.003961 0.013651 -0.009028 0.002020 -0.009214 -0.001972
# 3 0.000855 -0.009028 0.015308 0.003023 0.009699 0.001567
# 4 -0.002263 0.002020 0.003023 0.027857 -0.006161 -0.002576
# 5 0.005831 -0.009214 0.009699 -0.006161 0.039670 0.003126
# 6 0.006949 -0.001972 0.001567 -0.002576 0.003126 0.027501
#
#
# Mechanical properties :
#
#
# Convention : Reuss Voigt Hill
#
# Bulk Modulus (GPa) = 62.49338 80.38939 71.44138
# Shear Modulus (GPa) = 30.32130 40.31113 35.31621
#
# Velocity S-wave (km/s) = 3.43111 3.95616 3.70295
# Velocity P-wave (km/s) = 6.32142 7.21666 6.78383
#
# Compressibility (1/GPa) = 0.01600170
#
# Stress axis : x y z
#
# Youngs Moduli (GPa) = 88.41147 73.25327 65.32444
#
# Poissons Ratio (x) = 0.29016 -0.05586
# Poissons Ratio (y) = 0.35021 0.58977
# Poissons Ratio (z) = -0.07560 0.66135
#
# Static dielectric constant tensor:
#      x y z
#    x 3.685260 1.051680 -2.686840 
#    y 1.051680 2.614360 -1.615390 
#    z -2.686840 -1.615390 6.308810 
# 
# From -- ./inp_files/297126.got.cif
#   From: 2010.05.17/outbox.cif.g08.bks.cpg/sg2_149_cif.got.tgz:297126.got - 2010.06.03 11:33:40.
