data_PCOD9050532
_publ_section_title
;
Structure prediction by ZEFSAII (Michael W. Deem and Ramdas Pophale) SiO2 
 PCOD9050532
Probable space group: P -1
;
_chemical_formula_sum "Si O2"
_cell_formula_units_Z 16
_cell_length_a 6.805755
_cell_length_b 20.061697
_cell_length_c 18.771160
_cell_angle_alpha 152.669758
_cell_angle_beta 41.450599
_cell_angle_gamma 126.748718
_cell_volume 759.448932
_symmetry_space_group_name_H-M "P -1"
_symmetry_group_IT_number 2
_symmetry_cell_setting 'triclinic'
loop_
_space_group_symop_operation_xyz
x,y,z
-x,-y,-z
loop_
_atom_site_type_symbol
_atom_site_label
_atom_site_fract_x
_atom_site_fract_y
_atom_site_fract_z
Si Si1 0.250744 0.630227 0.727623
Si Si2 0.316082 0.615111 0.101829
Si Si3 0.342962 0.481402 0.226082
Si Si4 0.426673 0.261077 0.125610
Si Si5 0.382003 0.256751 0.605463
Si Si6 0.613633 0.145065 0.587787
Si Si7 0.668618 0.925665 0.683981
Si Si8 0.153735 0.825845 0.802631
O O1 0.500000 0.500000 0.500000
O O2 0.370646 0.698480 0.828668
O O3 0.166841 0.764528 0.821002
O O4 0.973557 0.552547 0.745569
O O5 0.403215 0.764023 0.248032
O O6 0.950412 0.642829 0.228696
O O7 0.500000 0.500000 0.000000
O O8 0.424687 0.572129 0.952295
O O9 0.418116 0.382170 0.181594
O O10 0.365742 0.650364 0.394374
O O11 0.086263 0.262510 0.249135
O O12 0.550257 0.096503 0.902535
O O13 0.419794 0.223408 0.647573
O O14 0.405031 0.108866 0.410920
O O15 0.969757 0.115679 0.441761
O O16 0.500000 0.000000 0.500000
O O17 0.489317 0.818327 0.673706
O O18 0.000000 0.000000 0.000000
#
# Coordination Sequence:
#
# PCOD9050532 Si02
#       8
#     2   2   2   2   2   2   2   2
#     4  11  27  41  71 104 135 172 228 280 339 408
#     4  11  25  44  68  99 130 177 229 271 336 402
#     4  11  26  42  71  96 136 176 220 275 344 394
#     4  10  25  44  69  98 134 178 221 281 332 401
#     4  11  26  43  67 101 135 177 224 278 331 401
#     4  11  27  41  66 101 138 177 224 279 328 399
#     4  10  25  42  70  95 136 177 226 269 341 396
#     4   9  22  45  66  98 132 178 225 275 335 402
#
# _framework density 21.067909
#
# number of rings (size 3 to 8) (size 9 to 14) (size 15 to 20)
#    0.000    1.500    1.250    0.375   12.250    6.000 
#    0.000    0.000    0.000    0.000    0.000    0.000 
#    0.000    0.000    0.000    0.000    0.000    0.000 
#
# Total GULP energy -89321.973414 kJ/mol
# GULP energy per Si atom -5582.623338 kJ/mol
# Density = 2.101996 g / cm^3
# Si number density = 21.067909 Si / 1000 Ang^3
#
#
#
# Elastic Constant Matrix: (Units=GPa)
#
#
# Indices 1 2 3 4 5 6 
#
# 1 149.2361 43.9264 31.2767 14.2256 12.6887 18.7190
# 2 43.9264 94.6374 21.1956 15.1990 -5.5268 16.2962
# 3 31.2767 21.1956 65.8593 6.5921 14.3610 8.1716
# 4 14.2256 15.1990 6.5921 33.5033 1.5088 -2.2435
# 5 12.6887 -5.5268 14.3610 1.5088 33.9037 3.9271
# 6 18.7190 16.2962 8.1716 -2.2435 3.9271 28.4265
#
#
#
# Elastic Compliance Matrix: (Units=1/GPa)
#
#
# Indices 1 2 3 4 5 6 
#
# 1 0.008811 -0.002815 -0.002121 -0.002170 -0.002365 -0.003423
# 2 -0.002815 0.015139 -0.003391 -0.005756 0.006041 -0.007139
# 3 -0.002121 -0.003391 0.019221 -0.001077 -0.007713 -0.001204
# 4 -0.002170 -0.005756 -0.001077 0.034226 -0.002124 0.008032
# 5 -0.002365 0.006041 -0.007713 -0.002124 0.035275 -0.004729
# 6 -0.003423 -0.007139 -0.001204 0.008032 -0.004729 0.043159
#
#
# Mechanical properties :
#
#
# Convention : Reuss Voigt Hill
#
# Bulk Modulus (GPa) = 37.70917 55.83668 46.77292
# Shear Modulus (GPa) = 27.57501 33.38898 30.48200
#
# Velocity S-wave (km/s) = 3.62175 3.98531 3.80787
# Velocity P-wave (km/s) = 5.95207 6.90924 6.44844
#
# Compressibility (1/GPa) = 0.02651875
#
# Stress axis : x y z
#
# Youngs Moduli (GPa) = 113.49297 66.05390 52.02519
#
# Poissons Ratio (x) = 0.18594 0.11034
# Poissons Ratio (y) = 0.31947 0.17640
# Poissons Ratio (z) = 0.24070 0.22397
#
# Static dielectric constant tensor:
#      x y z
#    x 1.767290 0.043810 -0.006150 
#    y 0.043810 1.762000 -0.024460 
#    z -0.006150 -0.024460 1.818180 
# 
# From -- ./inp_files/49400.got.cif
#   From: 2010.05.17/outbox.cif.g08.bks.cpg/sg2_25_cif.got.tgz:49400.got - 2010.06.03 11:33:40.
