data_PCOD9050037
_publ_section_title
;
Structure prediction by ZEFSAII (Michael W. Deem and Ramdas Pophale) SiO2 
 PCOD9050037
Probable space group: P -1
;
_chemical_formula_sum "Si O2"
_cell_formula_units_Z 12
_cell_length_a 9.867587
_cell_length_b 13.773957
_cell_length_c 4.943846
_cell_angle_alpha 69.738841
_cell_angle_beta 108.432071
_cell_angle_gamma 136.473378
_cell_volume 431.920718
_symmetry_space_group_name_H-M "P -1"
_symmetry_group_IT_number 2
_symmetry_cell_setting 'triclinic'
loop_
_space_group_symop_operation_xyz
x,y,z
-x,-y,-z
loop_
_atom_site_type_symbol
_atom_site_label
_atom_site_fract_x
_atom_site_fract_y
_atom_site_fract_z
Si Si1 0.569477 0.930468 0.457445
Si Si2 0.518811 0.394161 0.502303
Si Si3 0.692287 0.791385 0.961518
Si Si4 0.135815 0.657251 0.295174
Si Si5 0.949720 0.651300 0.656321
Si Si6 0.032427 0.900153 0.736569
O O1 0.665433 0.896310 0.756816
O O2 0.370767 0.776862 0.366228
O O3 0.257907 0.974110 0.752987
O O4 0.500000 0.000000 0.500000
O O5 0.500000 0.500000 0.500000
O O6 0.457948 0.346569 0.199997
O O7 0.746889 0.489335 0.626400
O O8 0.379028 0.256064 0.735137
O O9 0.908948 0.854167 0.980016
O O10 0.074405 0.650462 0.957787
O O11 0.064041 0.716687 0.383401
O O12 0.916840 0.748021 0.664955
O O13 0.000000 0.500000 0.500000
O O14 0.000000 0.000000 0.500000
#
# Coordination Sequence:
#
# PCOD9050037 Si02
#       6
#     2   2   2   2   2   2
#     4  11  24  52  76 111 151 201 246 305 373 446
#     4  12  24  45  78 112 150 194 249 309 375 436
#     4  11  26  48  76 112 148 193 250 309 366 442
#     4  12  27  48  75 107 150 195 246 307 369 440
#     4  12  25  45  75 108 147 194 250 305 368 439
#     4  10  24  48  73 108 149 198 249 305 369 442
#
# _framework density 27.782875000000001
#
# number of rings (size 3 to 8) (size 9 to 14) (size 15 to 20)
#    0.000    0.667    3.333    4.000    2.333    2.000 
#    6.000    5.000    0.000    0.000    0.000    0.000 
#    0.000    0.000    0.000    0.000    0.000    0.000 
#
# Total GULP energy -67265.053943 kJ/mol
# GULP energy per Si atom -5605.421162 kJ/mol
# Density = 2.771964 g / cm^3
# Si number density = 27.782875 Si / 1000 Ang^3
#
#
#
# Elastic Constant Matrix: (Units=GPa)
#
#
# Indices 1 2 3 4 5 6 
#
# 1 234.2480 70.7914 42.7819 -4.1414 -19.2904 23.7335
# 2 70.7914 197.9311 19.2065 12.1630 2.7120 14.8156
# 3 42.7819 19.2065 91.7229 7.4805 -3.8492 17.6258
# 4 -4.1414 12.1630 7.4805 45.3753 -2.2770 3.4329
# 5 -19.2904 2.7120 -3.8492 -2.2770 46.8613 -2.0464
# 6 23.7335 14.8156 17.6258 3.4329 -2.0464 75.9992
#
#
#
# Elastic Compliance Matrix: (Units=1/GPa)
#
#
# Indices 1 2 3 4 5 6 
#
# 1 0.005493 -0.001823 -0.002037 0.001506 0.002234 -0.000895
# 2 -0.001823 0.005883 -0.000198 -0.001735 -0.001213 -0.000486
# 3 -0.002037 -0.000198 0.012468 -0.002027 0.000006 -0.002125
# 4 0.001506 -0.001735 -0.002027 0.023108 0.001648 -0.000661
# 5 0.002234 -0.001213 0.000006 0.001648 0.022413 0.000067
# 6 -0.000895 -0.000486 -0.002125 -0.000661 0.000067 0.014057
#
#
# Mechanical properties :
#
#
# Convention : Reuss Voigt Hill
#
# Bulk Modulus (GPa) = 63.58030 87.71796 75.64913
# Shear Modulus (GPa) = 51.66306 59.72196 55.69251
#
# Velocity S-wave (km/s) = 4.31690 4.64140 4.48209
# Velocity P-wave (km/s) = 6.91245 7.76947 7.35346
#
# Compressibility (1/GPa) = 0.01572814
#
# Stress axis : x y z
#
# Youngs Moduli (GPa) = 182.03870 169.97854 80.20501
#
# Poissons Ratio (x) = 0.30989 0.16342
# Poissons Ratio (y) = 0.33188 0.01584
# Poissons Ratio (z) = 0.37090 0.03358
#
# Static dielectric constant tensor:
#      x y z
#    x 2.245480 -0.048710 0.034250 
#    y -0.048710 2.232530 -0.014770 
#    z 0.034250 -0.014770 2.081920 
# 
# From -- ./inp_files/23459.got.cif
#   From: 2010.05.17/outbox.cif.g08.bks.cpg/sg2_12_cif.got.tgz:23459.got - 2010.06.03 11:33:40.
