data_PCOD9050787
_publ_section_title
;
Structure prediction by ZEFSAII (Michael W. Deem and Ramdas Pophale) SiO2 
 PCOD9050787
Probable space group: P -1
;
_chemical_formula_sum "Si O2"
_cell_formula_units_Z 16
_cell_length_a 12.313910
_cell_length_b 14.431899
_cell_length_c 9.795310
_cell_angle_alpha 145.116603
_cell_angle_beta 113.277443
_cell_angle_gamma 48.462734
_cell_volume 698.745445
_symmetry_space_group_name_H-M "P -1"
_symmetry_group_IT_number 2
_symmetry_cell_setting 'triclinic'
loop_
_space_group_symop_operation_xyz
x,y,z
-x,-y,-z
loop_
_atom_site_type_symbol
_atom_site_label
_atom_site_fract_x
_atom_site_fract_y
_atom_site_fract_z
Si Si1 0.066158 0.734287 0.488704
Si Si2 0.574597 0.317454 0.703447
Si Si3 0.032569 0.141557 0.916069
Si Si4 0.417060 0.475532 0.307798
Si Si5 0.839021 0.845510 0.288764
Si Si6 0.599568 0.798035 0.202177
Si Si7 0.720518 0.599931 0.296436
Si Si8 0.897928 0.730077 0.654054
O O1 0.250127 0.559114 0.373795
O O2 0.975047 0.708941 0.301003
O O3 0.993722 0.746162 0.610407
O O4 0.035489 0.946662 0.685941
O O5 0.606414 0.378292 0.651528
O O6 0.440133 0.304196 0.597506
O O7 0.727791 0.097425 0.570556
O O8 0.500000 0.500000 0.000000
O O9 0.088029 0.177331 0.848239
O O10 0.857703 0.358481 0.116152
O O11 0.143041 0.110683 0.053641
O O12 0.500000 0.500000 0.500000
O O13 0.489011 0.251525 0.998789
O O14 0.719990 0.802191 0.184686
O O15 0.697580 0.607973 0.131967
O O16 0.500000 0.000000 0.500000
O O17 0.768119 0.740165 0.526981
O O18 0.000000 0.500000 0.500000
#
# Coordination Sequence:
#
# PCOD9050787 Si02
#       8
#     2   2   2   2   2   2   2   2
#     4  12  25  47  73 108 147 191 249 310 368 443
#     4  12  24  48  71 104 148 196 245 304 370 450
#     4  11  25  43  70 107 148 190 243 308 376 438
#     4  12  30  47  73 112 152 194 248 312 380 440
#     4  12  25  44  76 109 143 190 256 310 361 440
#     4  12  25  47  72 110 149 200 250 304 373 446
#     4  11  23  44  72 103 141 199 248 296 363 449
#     4  10  25  44  67 104 147 194 240 301 376 443
#
# _framework density 22.898181000000001
#
# number of rings (size 3 to 8) (size 9 to 14) (size 15 to 20)
#    0.000    0.500    5.000    2.250    7.000    2.000 
#    2.250    1.250    0.000    0.000    0.000    0.000 
#    0.000    0.000    0.000    0.000    0.000    0.000 
#
# Total GULP energy -89486.007458 kJ/mol
# GULP energy per Si atom -5592.875466 kJ/mol
# Density = 2.284606 g / cm^3
# Si number density = 22.898181 Si / 1000 Ang^3
#
#
#
# Elastic Constant Matrix: (Units=GPa)
#
#
# Indices 1 2 3 4 5 6 
#
# 1 127.2698 19.0255 24.8034 -15.5076 5.9981 0.8668
# 2 19.0255 73.0384 36.8790 -16.2220 4.1621 -8.3370
# 3 24.8034 36.8790 92.4065 -17.6601 16.5329 -21.7156
# 4 -15.5076 -16.2220 -17.6601 41.7184 -2.2137 -4.0811
# 5 5.9981 4.1621 16.5329 -2.2137 35.5525 -3.6455
# 6 0.8668 -8.3370 -21.7156 -4.0811 -3.6455 45.0159
#
#
#
# Elastic Compliance Matrix: (Units=1/GPa)
#
#
# Indices 1 2 3 4 5 6 
#
# 1 0.008610 -0.001056 -0.001660 0.001958 -0.000540 -0.001029
# 2 -0.001056 0.018016 -0.006129 0.004172 0.001270 0.000881
# 3 -0.001660 -0.006129 0.017406 0.004754 -0.006059 0.007234
# 4 0.001958 0.004172 0.004754 0.028844 -0.000660 0.005590
# 5 -0.000540 0.001270 -0.006059 -0.000660 0.030822 -0.000241
# 6 -0.001029 0.000881 0.007234 0.005590 -0.000241 0.026374
#
#
# Mechanical properties :
#
#
# Convention : Reuss Voigt Hill
#
# Bulk Modulus (GPa) = 37.96503 50.45894 44.21199
# Shear Modulus (GPa) = 31.93978 38.59116 35.26547
#
# Velocity S-wave (km/s) = 3.73884 4.10974 3.92867
# Velocity P-wave (km/s) = 5.93755 6.67862 6.31896
#
# Compressibility (1/GPa) = 0.02634003
#
# Stress axis : x y z
#
# Youngs Moduli (GPa) = 116.14660 55.50535 57.45085
#
# Poissons Ratio (x) = 0.05862 0.09539
# Poissons Ratio (y) = 0.12267 0.35214
# Poissons Ratio (z) = 0.19285 0.34022
#
# Static dielectric constant tensor:
#      x y z
#    x 1.877800 -0.027460 0.059700 
#    y -0.027460 1.872410 0.023330 
#    z 0.059700 0.023330 1.929960 
# 
# From -- ./inp_files/256837.got.cif
#   From: 2010.05.17/outbox.cif.g08.bks.cpg/sg2_129_cif.got.tgz:256837.got - 2010.06.03 11:33:40.
