data_PCOD9050339
_publ_section_title
;
Structure prediction by ZEFSAII (Michael W. Deem and Ramdas Pophale) SiO2 
 PCOD9050339
Probable space group: P -1
;
_chemical_formula_sum "Si O2"
_cell_formula_units_Z 16
_cell_length_a 16.039281
_cell_length_b 16.782832
_cell_length_c 12.123175
_cell_angle_alpha 53.784563
_cell_angle_beta 153.315535
_cell_angle_gamma 144.538196
_cell_volume 723.332620
_symmetry_space_group_name_H-M "P -1"
_symmetry_group_IT_number 2
_symmetry_cell_setting 'triclinic'
loop_
_space_group_symop_operation_xyz
x,y,z
-x,-y,-z
loop_
_atom_site_type_symbol
_atom_site_label
_atom_site_fract_x
_atom_site_fract_y
_atom_site_fract_z
Si Si1 0.856727 0.211184 0.373169
Si Si2 0.400353 0.112449 0.363375
Si Si3 0.188341 0.482352 0.706979
Si Si4 0.295683 0.322548 0.373260
Si Si5 0.795486 0.131306 0.125986
Si Si6 0.575122 0.829449 0.398958
Si Si7 0.032919 0.757599 0.173415
Si Si8 0.845134 0.842274 0.143455
O O1 0.049025 0.382563 0.508288
O O2 0.928310 0.155328 0.591281
O O3 0.490254 0.064978 0.054281
O O4 0.945406 0.204290 0.364249
O O5 0.438555 0.167849 0.486822
O O6 0.720114 0.216220 0.602862
O O7 0.211170 0.930823 0.281303
O O8 0.245343 0.131979 0.090656
O O9 0.000000 0.500000 0.500000
O O10 0.147171 0.378987 0.834334
O O11 0.533946 0.663133 0.961987
O O12 0.500000 0.500000 0.500000
O O13 0.496335 0.307976 0.618635
O O14 0.025528 0.205825 0.239104
O O15 0.165244 0.287607 0.125908
O O16 0.638056 0.172842 0.892795
O O17 0.935633 0.993527 0.661473
#
# Coordination Sequence:
#
# PCOD9050339 Si02
#       8
#     2   2   2   2   2   2   2   2
#     4  10  25  45  71  96 146 188 227 292 352 419
#     4  11  22  43  76 105 139 184 234 300 349 424
#     4  12  26  41  67 110 145 176 228 295 360 413
#     4  12  28  44  72 101 140 190 239 291 345 422
#     4  10  24  51  68  99 141 191 238 286 346 419
#     4  11  24  45  75 103 136 187 244 286 354 420
#     4  11  24  44  71 106 146 180 233 299 357 408
#     4  11  23  42  69 106 133 186 228 285 359 414
#
# _framework density 22.119837
#
# number of rings (size 3 to 8) (size 9 to 14) (size 15 to 20)
#    0.000    1.000    3.750    2.250    7.000    2.500 
#    0.000    1.875    0.000    0.000    0.000    0.000 
#    0.000    0.000    0.000    0.000    0.000    0.000 
#
# Total GULP energy -89334.016493 kJ/mol
# GULP energy per Si atom -5583.376031 kJ/mol
# Density = 2.206949 g / cm^3
# Si number density = 22.119837 Si / 1000 Ang^3
#
#
#
# Elastic Constant Matrix: (Units=GPa)
#
#
# Indices 1 2 3 4 5 6 
#
# 1 104.3897 46.7083 28.4154 2.2726 -3.8960 4.2874
# 2 46.7083 85.9915 -0.8462 0.5757 -1.9941 -0.5871
# 3 28.4154 -0.8462 46.7879 -13.0221 -4.6772 -1.8094
# 4 2.2726 0.5757 -13.0221 40.9694 5.4613 -2.1637
# 5 -3.8960 -1.9941 -4.6772 5.4613 24.3162 -4.8174
# 6 4.2874 -0.5871 -1.8094 -2.1637 -4.8174 44.6071
#
#
#
# Elastic Compliance Matrix: (Units=1/GPa)
#
#
# Indices 1 2 3 4 5 6 
#
# 1 0.017367 -0.009531 -0.012141 -0.004855 0.000262 -0.002494
# 2 -0.009531 0.016892 0.006937 0.002454 0.000967 0.001643
# 3 -0.012141 0.006937 0.032266 0.010595 0.003128 0.003419
# 4 -0.004855 0.002454 0.010595 0.028724 -0.004629 0.001822
# 5 0.000262 0.000967 0.003128 -0.004629 0.043803 0.004620
# 6 -0.002494 0.001643 0.003419 0.001822 0.004620 0.023405
#
#
# Mechanical properties :
#
#
# Convention : Reuss Voigt Hill
#
# Bulk Modulus (GPa) = 26.98755 42.85823 34.92289
# Shear Modulus (GPa) = 24.47632 32.83797 28.65715
#
# Velocity S-wave (km/s) = 3.33007 3.85716 3.60327
# Velocity P-wave (km/s) = 5.19739 6.26534 5.75619
#
# Compressibility (1/GPa) = 0.03705413
#
# Stress axis : x y z
#
# Youngs Moduli (GPa) = 57.58047 59.20089 30.99234
#
# Poissons Ratio (x) = 0.56426 0.37629
# Poissons Ratio (y) = 0.54881 -0.21500
# Poissons Ratio (z) = 0.69910 -0.41069
#
# Static dielectric constant tensor:
#      x y z
#    x 1.863640 0.004020 -0.003910 
#    y 0.004020 1.886860 0.037170 
#    z -0.003910 0.037170 1.825330 
# 
# From -- ./inp_files/455675.got.cif
#   From: 2010.05.17/outbox.cif.g08.bks.cpg/sg2_228_cif.got.tgz:455675.got - 2010.06.03 11:33:40.
