data_PCOD9050181
_publ_section_title
;
Structure prediction by ZEFSAII (Michael W. Deem and Ramdas Pophale) SiO2 
 PCOD9050181
Probable space group: P -1
;
_chemical_formula_sum "Si O2"
_cell_formula_units_Z 16
_cell_length_a 6.886376
_cell_length_b 12.225301
_cell_length_c 7.984125
_cell_angle_alpha 93.452671
_cell_angle_beta 57.739847
_cell_angle_gamma 98.790831
_cell_volume 561.546824
_symmetry_space_group_name_H-M "P -1"
_symmetry_group_IT_number 2
_symmetry_cell_setting 'triclinic'
loop_
_space_group_symop_operation_xyz
x,y,z
-x,-y,-z
loop_
_atom_site_type_symbol
_atom_site_label
_atom_site_fract_x
_atom_site_fract_y
_atom_site_fract_z
Si Si1 0.865191 0.808060 0.734724
Si Si2 0.988204 0.381189 0.910749
Si Si3 0.376013 0.140125 0.641371
Si Si4 0.590011 0.984615 0.721712
Si Si5 0.574724 0.618908 0.390175
Si Si6 0.112132 0.849974 0.951300
Si Si7 0.508743 0.624786 0.081280
Si Si8 0.071750 0.623429 0.400714
O O1 0.771296 0.918662 0.724009
O O2 0.051693 0.860902 0.788666
O O3 0.987380 0.727697 0.548468
O O4 0.657627 0.723264 0.910672
O O5 0.273788 0.371180 0.862590
O O6 0.140784 0.378664 0.661169
O O7 0.859476 0.277597 0.060530
O O8 0.000000 0.500000 0.000000
O O9 0.368166 0.056494 0.487284
O O10 0.448471 0.257231 0.527402
O O11 0.543616 0.110554 0.714011
O O12 0.116704 0.136921 0.834888
O O13 0.339839 0.930169 0.904083
O O14 0.500000 0.500000 0.500000
O O15 0.356484 0.625467 0.340957
O O16 0.228888 0.632700 0.144901
O O17 0.500000 0.500000 0.000000
O O18 0.000000 0.500000 0.500000
#
# Coordination Sequence:
#
# PCOD9050181 Si02
#       8
#     2   2   2   2   2   2   2   2
#     4  12  25  44  69 110 139 187 248 296 363 436
#     4  11  22  40  62  98 139 178 232 292 351 433
#     4  10  24  49  68 106 144 184 249 300 352 446
#     4  11  26  46  78  98 146 193 238 305 365 423
#     4  11  24  41  69  99 137 183 226 287 359 425
#     4  11  24  46  71 102 143 186 243 300 361 431
#     4  12  24  42  65 100 146 182 233 298 354 428
#     4  12  24  40  64  98 144 191 240 296 361 437
#
# _framework density 28.492725
#
# number of rings (size 3 to 8) (size 9 to 14) (size 15 to 20)
#    0.000    0.750    3.750    4.875    5.250    0.500 
#    0.000    2.500    0.000    0.000    0.000    0.000 
#    0.000    0.000    0.000    0.000    0.000    0.000 
#
# Total GULP energy -89361.048545 kJ/mol
# GULP energy per Si atom -5585.065534 kJ/mol
# Density = 2.842787 g / cm^3
# Si number density = 28.492725 Si / 1000 Ang^3
#
#
#
# Elastic Constant Matrix: (Units=GPa)
#
#
# Indices 1 2 3 4 5 6 
#
# 1 196.4975 42.0811 39.7321 -17.2832 0.9056 -57.4928
# 2 42.0811 176.9611 56.8501 -41.7218 -11.6076 -42.0648
# 3 39.7321 56.8501 117.0819 6.9473 -11.7129 -17.8770
# 4 -17.2832 -41.7218 6.9473 51.6216 -9.0334 13.4271
# 5 0.9056 -11.6076 -11.7129 -9.0334 70.3985 -10.7183
# 6 -57.4928 -42.0648 -17.8770 13.4271 -10.7183 65.2625
#
#
#
# Elastic Compliance Matrix: (Units=1/GPa)
#
#
# Indices 1 2 3 4 5 6 
#
# 1 0.007281 0.000913 -0.001994 0.001994 0.000925 0.006199
# 2 0.000913 0.010311 -0.004813 0.008506 0.002714 0.004828
# 3 -0.001994 -0.004813 0.011906 -0.006013 0.000397 -0.000295
# 4 0.001994 0.008506 -0.006013 0.028324 0.004077 0.000434
# 5 0.000925 0.002714 0.000397 0.004077 0.015907 0.004446
# 6 0.006199 0.004828 -0.000295 0.000434 0.004446 0.024455
#
#
# Mechanical properties :
#
#
# Convention : Reuss Voigt Hill
#
# Bulk Modulus (GPa) = 56.45826 85.31856 70.88841
# Shear Modulus (GPa) = 43.15007 60.91499 52.03253
#
# Velocity S-wave (km/s) = 3.89578 4.62877 4.27801
# Velocity P-wave (km/s) = 6.33199 7.65352 7.02391
#
# Compressibility (1/GPa) = 0.01771220
#
# Stress axis : x y z
#
# Youngs Moduli (GPa) = 137.33495 96.98371 83.99214
#
# Poissons Ratio (x) = -0.08856 0.16746
# Poissons Ratio (y) = -0.12541 0.40422
# Poissons Ratio (z) = 0.27381 0.46674
#
# Static dielectric constant tensor:
#      x y z
#    x 2.590210 -0.143610 -0.007640 
#    y -0.143610 2.033450 0.041850 
#    z -0.007640 0.041850 2.162810 
# 
# From -- ./inp_files/186371.got.cif
#   From: 2010.05.17/outbox.cif.g08.bks.cpg/sg2_94_cif.got.tgz:186371.got - 2010.06.03 11:33:40.
