data_PCOD9050480
_publ_section_title
;
Structure prediction by ZEFSAII (Michael W. Deem and Ramdas Pophale) SiO2 
 PCOD9050480
Probable space group: P -1
;
_chemical_formula_sum "Si O2"
_cell_formula_units_Z 14
_cell_length_a 8.477109
_cell_length_b 11.642338
_cell_length_c 8.487942
_cell_angle_alpha 56.287802
_cell_angle_beta 117.124075
_cell_angle_gamma 98.487935
_cell_volume 613.872905
_symmetry_space_group_name_H-M "P -1"
_symmetry_group_IT_number 2
_symmetry_cell_setting 'triclinic'
loop_
_space_group_symop_operation_xyz
x,y,z
-x,-y,-z
loop_
_atom_site_type_symbol
_atom_site_label
_atom_site_fract_x
_atom_site_fract_y
_atom_site_fract_z
Si Si1 0.759521 0.519300 0.336632
Si Si2 0.144418 0.037328 0.412635
Si Si3 0.107041 0.704880 0.898603
Si Si4 0.913853 0.536276 0.694363
Si Si5 0.515557 0.266605 0.103431
Si Si6 0.691146 0.211919 0.541832
Si Si7 0.503843 0.020063 0.799413
O O1 0.922802 0.537867 0.281747
O O2 0.769546 0.354176 0.498301
O O3 0.769727 0.592283 0.454850
O O4 0.586078 0.589165 0.114096
O O5 0.321130 0.054159 0.584330
O O6 0.036162 0.175784 0.180246
O O7 0.189275 0.913478 0.401693
O O8 0.000000 0.000000 0.500000
O O9 0.996980 0.650981 0.744093
O O10 0.288003 0.751159 0.876320
O O11 0.152827 0.573772 0.134473
O O12 0.537227 0.259711 0.305707
O O13 0.420543 0.134533 0.112620
O O14 0.618786 0.140984 0.714529
O O15 0.500000 0.000000 0.000000
#
# Coordination Sequence:
#
# PCOD9050480 Si02
#       7
#     2   2   2   2   2   2   2
#     4  11  24  44  69  99 137 171 232 279 331 397
#     4  11  21  43  71  92 138 174 226 272 333 404
#     4  11  23  42  68  98 133 181 222 269 344 398
#     4  10  25  42  64 102 134 175 225 279 336 391
#     4  11  23  44  69  98 135 180 223 271 338 408
#     4  11  24  44  70 100 134 184 221 274 342 406
#     4  11  27  44  66 103 136 176 230 278 339 400
#
# _framework density 22.806025000000002
#
# number of rings (size 3 to 8) (size 9 to 14) (size 15 to 20)
#    0.000    1.143    4.286    2.143    8.000    1.714 
#    0.000    1.429    0.000    0.000    0.000    0.000 
#    0.000    0.000    0.000    0.000    0.000    0.000 
#
# Total GULP energy -78203.875666 kJ/mol
# GULP energy per Si atom -5585.991119 kJ/mol
# Density = 2.275412 g / cm^3
# Si number density = 22.806025 Si / 1000 Ang^3
#
#
#
# Elastic Constant Matrix: (Units=GPa)
#
#
# Indices 1 2 3 4 5 6 
#
# 1 68.1465 3.9528 41.1405 -9.0043 -21.9241 9.2840
# 2 3.9528 52.8671 28.0061 0.9308 -6.4371 7.7120
# 3 41.1405 28.0061 85.4215 -11.2517 -10.8174 -3.1644
# 4 -9.0043 0.9308 -11.2517 29.9096 -2.7782 -9.7419
# 5 -21.9241 -6.4371 -10.8174 -2.7782 36.7666 -9.9865
# 6 9.2840 7.7120 -3.1644 -9.7419 -9.9865 21.6462
#
#
#
# Elastic Compliance Matrix: (Units=1/GPa)
#
#
# Indices 1 2 3 4 5 6 
#
# 1 0.029421 0.010261 -0.017033 -0.001772 0.010154 -0.014877
# 2 0.010261 0.031303 -0.017958 -0.012749 -0.001308 -0.024520
# 3 -0.017033 -0.017958 0.029300 0.015492 0.003738 0.026683
# 4 -0.001772 -0.012749 0.015492 0.053247 0.015842 0.038840
# 5 0.010154 -0.001308 0.003738 0.015842 0.041558 0.022960
# 6 -0.014877 -0.024520 0.026683 0.038840 0.022960 0.093287
#
#
# Mechanical properties :
#
#
# Convention : Reuss Voigt Hill
#
# Bulk Modulus (GPa) = 24.65156 39.18154 31.91655
# Shear Modulus (GPa) = 14.65851 26.55351 20.60601
#
# Velocity S-wave (km/s) = 2.53800 3.41592 3.00914
# Velocity P-wave (km/s) = 4.40696 5.72500 5.10866
#
# Compressibility (1/GPa) = 0.04056538
#
# Stress axis : x y z
#
# Youngs Moduli (GPa) = 33.98889 31.94536 34.12962
#
# Poissons Ratio (x) = -0.32779 0.58132
# Poissons Ratio (y) = -0.34876 0.61290
# Poissons Ratio (z) = 0.57892 0.57368
#
# Static dielectric constant tensor:
#      x y z
#    x 1.846660 0.007890 0.027890 
#    y 0.007890 1.891710 -0.002960 
#    z 0.027890 -0.002960 1.873890 
# 
# From -- ./inp_files/184506.got.cif
#   From: 2010.05.17/outbox.cif.g08.bks.cpg/sg2_93_cif.got.tgz:184506.got - 2010.06.03 11:33:40.
