data_PCOD9050963
_publ_section_title
;
Structure prediction by ZEFSAII (Michael W. Deem and Ramdas Pophale) SiO2 
 PCOD9050963
Probable space group: P -1
;
_chemical_formula_sum "Si O2"
_cell_formula_units_Z 14
_cell_length_a 8.916577
_cell_length_b 14.551876
_cell_length_c 9.585182
_cell_angle_alpha 112.711740
_cell_angle_beta 90.245644
_cell_angle_gamma 39.861364
_cell_volume 639.326833
_symmetry_space_group_name_H-M "P -1"
_symmetry_group_IT_number 2
_symmetry_cell_setting 'triclinic'
loop_
_space_group_symop_operation_xyz
x,y,z
-x,-y,-z
loop_
_atom_site_type_symbol
_atom_site_label
_atom_site_fract_x
_atom_site_fract_y
_atom_site_fract_z
Si Si1 0.286242 0.923094 0.117749
Si Si2 0.430315 0.616352 0.249053
Si Si3 0.429675 0.945782 0.872432
Si Si4 0.838807 0.237714 0.956014
Si Si5 0.111225 0.349777 0.512087
Si Si6 0.263966 0.351234 0.815732
Si Si7 0.198439 0.682601 0.551385
O O1 0.176929 0.871577 0.091019
O O2 0.493381 0.826118 0.190373
O O3 0.439718 0.850761 0.928983
O O4 0.032891 0.138013 0.251000
O O5 0.243209 0.696401 0.164296
O O6 0.621110 0.603712 0.203393
O O7 0.244421 0.731586 0.449708
O O8 0.620325 0.415874 0.151643
O O9 0.622460 0.829731 0.674825
O O10 0.128894 0.118901 0.919010
O O11 0.500000 0.000000 0.000000
O O12 0.184659 0.341734 0.664930
O O13 0.000000 0.500000 0.500000
O O14 0.914386 0.363281 0.519413
O O15 0.000000 0.500000 0.000000
O O16 0.500000 0.500000 0.500000
#
# Coordination Sequence:
#
# PCOD9050963 Si02
#       7
#     2   2   2   2   2   2   2
#     4  11  26  47  73 105 140 192 237 290 355 425
#     4  10  25  45  71 104 140 185 236 289 352 425
#     4  12  26  46  69 103 144 182 238 294 348 415
#     4  10  25  44  74  99 138 191 232 290 354 420
#     4  12  29  45  73 105 141 192 233 295 361 412
#     4  11  27  48  77 105 145 183 240 299 354 425
#     4  12  27  45  71 103 148 185 242 290 351 427
#
# _framework density 21.898033000000002
#
# number of rings (size 3 to 8) (size 9 to 14) (size 15 to 20)
#    0.000    0.857    1.429    3.000   18.000    1.714 
#    0.000    0.000    0.000    0.000    0.000    0.000 
#    0.000    0.000    0.000    0.000    0.000    0.000 
#
# Total GULP energy -78291.887015 kJ/mol
# GULP energy per Si atom -5592.277644 kJ/mol
# Density = 2.184819 g / cm^3
# Si number density = 21.898033 Si / 1000 Ang^3
#
#
#
# Elastic Constant Matrix: (Units=GPa)
#
#
# Indices 1 2 3 4 5 6 
#
# 1 132.7546 70.2548 60.8911 -4.1672 -1.4986 -34.6298
# 2 70.2548 112.4945 47.2409 -5.8068 9.1066 -28.7272
# 3 60.8911 47.2409 149.4959 -21.2886 -14.0185 -22.5293
# 4 -4.1672 -5.8068 -21.2886 25.4572 7.1695 5.7925
# 5 -1.4986 9.1066 -14.0185 7.1695 38.9102 -7.6792
# 6 -34.6298 -28.7272 -22.5293 5.7925 -7.6792 38.5699
#
#
#
# Elastic Compliance Matrix: (Units=1/GPa)
#
#
# Indices 1 2 3 4 5 6 
#
# 1 0.013939 -0.006007 -0.002933 -0.004152 0.003146 0.007577
# 2 -0.006007 0.014696 -0.001872 0.001084 -0.003848 0.003530
# 3 -0.002933 -0.001872 0.009846 0.006160 0.003013 0.001398
# 4 -0.004152 0.001084 0.006160 0.048359 -0.008748 -0.008326
# 5 0.003146 -0.003848 0.003013 -0.008748 0.031246 0.009254
# 6 0.007577 0.003530 0.001398 -0.008326 0.009254 0.039269
#
#
# Mechanical properties :
#
#
# Convention : Reuss Voigt Hill
#
# Bulk Modulus (GPa) = 59.32633 83.50206 71.41420
# Shear Modulus (GPa) = 27.08601 35.01137 31.04869
#
# Velocity S-wave (km/s) = 3.52080 4.00288 3.76955
# Velocity P-wave (km/s) = 6.60900 7.71875 7.18533
#
# Compressibility (1/GPa) = 0.01685592
#
# Stress axis : x y z
#
# Youngs Moduli (GPa) = 71.74049 68.04662 101.56593
#
# Poissons Ratio (x) = 0.40878 0.29794
# Poissons Ratio (y) = 0.43097 0.19009
# Poissons Ratio (z) = 0.21045 0.12735
#
# Static dielectric constant tensor:
#      x y z
#    x 2.231030 0.239360 -0.490050 
#    y 0.239360 1.936370 -0.210220 
#    z -0.490050 -0.210220 2.374330 
# 
# From -- ./inp_files/183998.got.cif
#   From: 2010.05.17/outbox.cif.g08.bks.cpg/sg2_92_cif.got.tgz:183998.got - 2010.06.03 11:33:40.
