data_PCOD9050583
_publ_section_title
;
Structure prediction by ZEFSAII (Michael W. Deem and Ramdas Pophale) SiO2 
 PCOD9050583
Probable space group: P -1
;
_chemical_formula_sum "Si O2"
_cell_formula_units_Z 12
_cell_length_a 6.009037
_cell_length_b 12.410356
_cell_length_c 11.906351
_cell_angle_alpha 143.739714
_cell_angle_beta 105.695415
_cell_angle_gamma 75.779723
_cell_volume 504.984872
_symmetry_space_group_name_H-M "P -1"
_symmetry_group_IT_number 2
_symmetry_cell_setting 'triclinic'
loop_
_space_group_symop_operation_xyz
x,y,z
-x,-y,-z
loop_
_atom_site_type_symbol
_atom_site_label
_atom_site_fract_x
_atom_site_fract_y
_atom_site_fract_z
Si Si1 0.623397 0.458265 0.330700
Si Si2 0.335901 0.770417 0.655813
Si Si3 0.698461 0.814242 0.059133
Si Si4 0.102485 0.305230 0.599727
Si Si5 0.566668 0.703379 0.183958
Si Si6 0.130144 0.919874 0.337642
O O1 0.559939 0.641211 0.548186
O O2 0.749432 0.308951 0.304029
O O3 0.776359 0.537182 0.318793
O O4 0.400977 0.350400 0.165145
O O5 0.158418 0.713898 0.487782
O O6 0.351964 0.987449 0.837283
O O7 0.563612 0.799716 0.145413
O O8 0.962934 0.811631 0.140052
O O9 0.176012 0.324006 0.753762
O O10 0.199096 0.095689 0.421003
O O11 0.363003 0.810132 0.314654
O O12 0.500000 0.500000 0.000000
O O13 0.000000 0.000000 0.500000
#
# Coordination Sequence:
#
# PCOD9050583 Si02
#       6
#     2   2   2   2   2   2
#     4  11  23  43  67  92 130 170 223 267 323 378
#     4  10  25  43  65  94 126 177 218 269 319 385
#     4  11  24  41  67  96 132 168 216 271 325 390
#     4  11  23  40  66  91 131 167 213 265 324 387
#     4  12  25  39  65 102 131 168 215 269 332 390
#     4  11  25  41  64  97 135 173 213 261 330 398
#
# _framework density 23.763089000000001
#
# number of rings (size 3 to 8) (size 9 to 14) (size 15 to 20)
#    0.000    1.000    3.333    2.500    7.000    0.667 
#    0.000    0.000    0.000   11.000    0.000    0.000 
#    0.000    0.000    0.000    0.000    0.000    0.000 
#
# Total GULP energy -66869.846664 kJ/mol
# GULP energy per Si atom -5572.487222 kJ/mol
# Density = 2.370900 g / cm^3
# Si number density = 23.763089 Si / 1000 Ang^3
#
#
#
# Elastic Constant Matrix: (Units=GPa)
#
#
# Indices 1 2 3 4 5 6 
#
# 1 26.3916 24.9888 15.8758 16.1816 9.0392 5.1303
# 2 24.9888 138.4095 15.3169 23.8716 -10.1663 25.0001
# 3 15.8758 15.3169 71.2605 15.8569 18.3152 5.1248
# 4 16.1816 23.8716 15.8569 44.3438 3.1637 14.9397
# 5 9.0392 -10.1663 18.3152 3.1637 39.0760 3.6089
# 6 5.1303 25.0001 5.1248 14.9397 3.6089 36.4419
#
#
#
# Elastic Compliance Matrix: (Units=1/GPa)
#
#
# Indices 1 2 3 4 5 6 
#
# 1 0.065605 -0.010657 -0.005082 -0.017885 -0.014819 0.007589
# 2 -0.010657 0.010902 -0.001200 0.000187 0.006451 -0.006526
# 3 -0.005082 -0.001200 0.018103 -0.003888 -0.007429 0.001322
# 4 -0.017885 0.000187 -0.003888 0.033896 0.004316 -0.011387
# 5 -0.014819 0.006451 -0.007429 0.004316 0.034428 -0.006474
# 6 0.007589 -0.006526 0.001322 -0.011387 -0.006474 0.035972
#
#
# Mechanical properties :
#
#
# Convention : Reuss Voigt Hill
#
# Bulk Modulus (GPa) = 16.46577 38.71385 27.58981
# Shear Modulus (GPa) = 19.76081 35.96437 27.86259
#
# Velocity S-wave (km/s) = 2.88683 3.89454 3.42792
# Velocity P-wave (km/s) = 4.24923 6.04567 5.22523
#
# Compressibility (1/GPa) = 0.06073206
#
# Stress axis : x y z
#
# Youngs Moduli (GPa) = 15.24284 91.72714 55.24077
#
# Poissons Ratio (x) = 0.97749 0.28076
# Poissons Ratio (y) = 0.16244 0.06626
# Poissons Ratio (z) = 0.07747 0.11003
#
# Static dielectric constant tensor:
#      x y z
#    x 1.936130 0.018410 0.051210 
#    y 0.018410 1.946190 -0.033060 
#    z 0.051210 -0.033060 1.972030 
# 
# From -- ./inp_files/22265.got.cif
#   From: 2010.05.17/outbox.cif.g08.bks.cpg/sg2_12_cif.got.tgz:22265.got - 2010.06.03 11:33:40.
