data_PCOD9050072
_publ_section_title
;
Structure prediction by ZEFSAII (Michael W. Deem and Ramdas Pophale) SiO2 
 PCOD9050072
Probable space group: P -1
;
_chemical_formula_sum "Si O2"
_cell_formula_units_Z 15
_cell_length_a 10.973082
_cell_length_b 8.987581
_cell_length_c 6.593779
_cell_angle_alpha 104.935359
_cell_angle_beta 104.701913
_cell_angle_gamma 105.048952
_cell_volume 569.804152
_symmetry_space_group_name_H-M "P -1"
_symmetry_group_IT_number 2
_symmetry_cell_setting 'triclinic'
loop_
_space_group_symop_operation_xyz
x,y,z
-x,-y,-z
loop_
_atom_site_type_symbol
_atom_site_label
_atom_site_fract_x
_atom_site_fract_y
_atom_site_fract_z
Si Si1 0.168152 0.849968 0.977482
Si Si2 0.000000 0.500000 0.500000
Si Si3 0.660817 0.812200 0.041810
Si Si4 0.564484 0.348901 0.407175
Si Si5 0.098635 0.985912 0.359181
Si Si6 0.769130 0.655762 0.391356
Si Si7 0.197538 0.749320 0.554635
Si Si8 0.556603 0.161800 0.722908
O O1 0.296014 0.822056 0.126299
O O2 0.232101 0.018694 0.936834
O O3 0.064632 0.877365 0.103127
O O4 0.112825 0.717612 0.725079
O O5 0.887933 0.584732 0.391796
O O6 0.893633 0.423281 0.631284
O O7 0.578535 0.718346 0.781402
O O8 0.724369 0.708272 0.174237
O O9 0.547758 0.846125 0.146523
O O10 0.646576 0.524432 0.410593
O O11 0.654791 0.241432 0.333168
O O12 0.564934 0.314445 0.633984
O O13 0.178349 0.172928 0.403755
O O14 0.190411 0.900218 0.481961
O O15 0.000000 0.000000 0.500000
O O16 0.500000 0.000000 0.500000
#
# Coordination Sequence:
#
# PCOD9050072 Si02
#       8
#     2   1   2   2   2   2   2   2
#     4  12  24  41  74 112 140 185 241 292 356 426
#     4  10  24  48  74  92 140 188 240 300 356 408
#     4  12  24  42  70 109 144 184 238 287 349 438
#     4  11  24  43  71 104 153 186 228 289 359 433
#     4  12  25  47  73 100 140 188 247 298 350 416
#     4  11  25  46  70 103 141 190 238 295 358 413
#     4  11  22  46  73 102 139 189 239 296 354 422
#     4  12  22  39  70 106 149 191 223 281 358 428
#
# _framework density 26.324835
#
# number of rings (size 3 to 8) (size 9 to 14) (size 15 to 20)
#    0.000    0.533    6.667    2.400    0.000    1.067 
#    2.400    0.667    2.933    0.000    0.000    0.000 
#    0.000    0.000    0.000    0.000    0.000    0.000 
#
# Total GULP energy -83783.139904 kJ/mol
# GULP energy per Si atom -5585.542660 kJ/mol
# Density = 2.626492 g / cm^3
# Si number density = 26.324835 Si / 1000 Ang^3
#
#
#
# Elastic Constant Matrix: (Units=GPa)
#
#
# Indices 1 2 3 4 5 6 
#
# 1 120.9104 45.7779 51.4722 -8.6344 -0.5626 -19.9644
# 2 45.7779 162.9079 32.1733 -32.2654 12.6682 -17.1392
# 3 51.4722 32.1733 113.9770 -9.8808 -16.8625 -10.8504
# 4 -8.6344 -32.2654 -9.8808 31.4308 -4.7453 5.0567
# 5 -0.5626 12.6682 -16.8625 -4.7453 54.1298 -7.1755
# 6 -19.9644 -17.1392 -10.8504 5.0567 -7.1755 52.6657
#
#
#
# Elastic Compliance Matrix: (Units=1/GPa)
#
#
# Indices 1 2 3 4 5 6 
#
# 1 0.011352 -0.002203 -0.004406 -0.001035 -0.000470 0.002714
# 2 -0.002203 0.008663 -0.000941 0.007620 -0.001563 0.000846
# 3 -0.004406 -0.000941 0.011906 0.002061 0.004176 0.000848
# 4 -0.001035 0.007620 0.002061 0.040515 0.002258 -0.001070
# 5 -0.000470 -0.001563 0.004176 0.002258 0.020702 0.002777
# 6 0.002714 0.000846 0.000848 -0.001070 0.002777 0.020948
#
#
# Mechanical properties :
#
#
# Convention : Reuss Voigt Hill
#
# Bulk Modulus (GPa) = 59.44366 72.96022 66.20194
# Shear Modulus (GPa) = 37.09404 45.53670 41.31537
#
# Velocity S-wave (km/s) = 3.75786 4.16360 3.96592
# Velocity P-wave (km/s) = 6.43883 7.13369 6.79515
#
# Compressibility (1/GPa) = 0.01682265
#
# Stress axis : x y z
#
# Youngs Moduli (GPa) = 88.08859 115.43324 83.99006
#
# Poissons Ratio (x) = 0.25429 0.37004
# Poissons Ratio (y) = 0.19405 0.07901
# Poissons Ratio (z) = 0.38810 0.10859
#
# Static dielectric constant tensor:
#      x y z
#    x 2.133920 0.095780 -0.043530 
#    y 0.095780 2.416360 0.204250 
#    z -0.043530 0.204250 2.224660 
# 
# From -- ./inp_files/60713.got.cif
#   From: 2010.05.17/outbox.cif.g08.bks.cpg/sg2_31_cif.got.tgz:60713.got - 2010.06.03 11:33:40.
