data_PCOD9050472
_publ_section_title
;
Structure prediction by ZEFSAII (Michael W. Deem and Ramdas Pophale) SiO2 
 PCOD9050472
Probable space group: P -1
;
_chemical_formula_sum "Si O2"
_cell_formula_units_Z 14
_cell_length_a 12.685549
_cell_length_b 9.969963
_cell_length_c 15.892110
_cell_angle_alpha 145.242894
_cell_angle_beta 143.839283
_cell_angle_gamma 50.803297
_cell_volume 673.183360
_symmetry_space_group_name_H-M "P -1"
_symmetry_group_IT_number 2
_symmetry_cell_setting 'triclinic'
loop_
_space_group_symop_operation_xyz
x,y,z
-x,-y,-z
loop_
_atom_site_type_symbol
_atom_site_label
_atom_site_fract_x
_atom_site_fract_y
_atom_site_fract_z
Si Si1 0.043993 0.727373 0.872024
Si Si2 0.881221 0.174780 0.217591
Si Si3 0.420522 0.156999 0.209247
Si Si4 0.655949 0.623584 0.554889
Si Si5 0.518790 0.212412 0.056338
Si Si6 0.721097 0.881476 0.548339
Si Si7 0.648058 0.326461 0.825578
O O1 0.096952 0.706301 0.798318
O O2 0.856342 0.572794 0.685563
O O3 0.203786 0.674434 0.007925
O O4 0.000000 0.000000 0.000000
O O5 0.079195 0.160369 0.373019
O O6 0.732453 0.299123 0.238554
O O7 0.777452 0.916287 0.995661
O O8 0.523670 0.386108 0.350840
O O9 0.408086 0.208178 0.326074
O O10 0.512058 0.920425 0.121776
O O11 0.680913 0.753318 0.548022
O O12 0.388612 0.411071 0.088632
O O13 0.500000 0.000000 0.000000
O O14 0.551171 0.787316 0.334825
O O15 0.709262 0.157256 0.703923
#
# Coordination Sequence:
#
# PCOD9050472 Si02
#       7
#     2   2   2   2   2   2   2
#     4  11  17  36  61  86 115 148 195 243 282 333
#     4   9  19  37  61  82 116 154 195 226 294 345
#     4   9  18  32  58  84 109 161 191 218 292 347
#     4  10  17  34  63  83 113 152 193 237 279 344
#     4  10  22  39  56  83 126 156 182 235 302 344
#     4  10  20  36  60  93 110 147 200 241 283 336
#     4  11  21  34  62  88 121 146 192 243 285 339
#
# _framework density 20.796710999999998
#
# number of rings (size 3 to 8) (size 9 to 14) (size 15 to 20)
#    0.857    1.143    4.286    0.857    0.000    1.143 
#    0.000    1.429   15.714    0.000    0.000    0.000 
#    0.000    0.000    0.000    0.000    0.000    0.000 
#
# Total GULP energy -78034.293599 kJ/mol
# GULP energy per Si atom -5573.878114 kJ/mol
# Density = 2.074938 g / cm^3
# Si number density = 20.796711 Si / 1000 Ang^3
#
#
#
# Elastic Constant Matrix: (Units=GPa)
#
#
# Indices 1 2 3 4 5 6 
#
# 1 64.4460 28.9456 15.2421 0.9955 10.6251 -2.6508
# 2 28.9456 132.2689 40.8985 -12.4160 2.5984 -7.5463
# 3 15.2421 40.8985 110.0904 -11.8159 10.8136 1.4516
# 4 0.9955 -12.4160 -11.8159 40.6283 -4.2888 -0.5053
# 5 10.6251 2.5984 10.8136 -4.2888 26.2514 3.0555
# 6 -2.6508 -7.5463 1.4516 -0.5053 3.0555 7.7374
#
#
#
# Elastic Compliance Matrix: (Units=1/GPa)
#
#
# Indices 1 2 3 4 5 6 
#
# 1 0.018976 -0.003625 -0.000844 -0.002598 -0.008115 0.006159
# 2 -0.003625 0.010058 -0.003201 0.002464 0.001160 0.008871
# 3 -0.000844 -0.003201 0.010944 0.001850 -0.003066 -0.004132
# 4 -0.002598 0.002464 0.001850 0.026429 0.004221 0.001226
# 5 -0.008115 0.001160 -0.003066 0.004221 0.045395 -0.018724
# 6 0.006159 0.008871 -0.004132 0.001226 -0.018724 0.148255
#
#
# Mechanical properties :
#
#
# Convention : Reuss Voigt Hill
#
# Bulk Modulus (GPa) = 40.58672 52.99752 46.79212
# Shear Modulus (GPa) = 17.62994 29.70469 23.66731
#
# Velocity S-wave (km/s) = 2.91473 3.78343 3.37713
# Velocity P-wave (km/s) = 5.55751 6.68018 6.14454
#
# Compressibility (1/GPa) = 0.02463860
#
# Stress axis : x y z
#
# Youngs Moduli (GPa) = 52.69833 99.42233 91.37668
#
# Poissons Ratio (x) = 0.36040 0.07708
# Poissons Ratio (y) = 0.19103 0.29251
# Poissons Ratio (z) = 0.04445 0.31827
#
# Static dielectric constant tensor:
#      x y z
#    x 1.803910 -0.027230 -0.013890 
#    y -0.027230 1.749070 0.016430 
#    z -0.013890 0.016430 1.829330 
# 
# From -- ./inp_files/597766.got.cif
#   From: 2010.05.17/outbox.cif.g08.bks.cpg/sg2_299_cif.got.tgz:597766.got - 2010.06.03 11:33:40.
