data_PCOD9050603
_publ_section_title
;
Structure prediction by ZEFSAII (Michael W. Deem and Ramdas Pophale) SiO2 
 PCOD9050603
Probable space group: P -1
;
_chemical_formula_sum "Si O2"
_cell_formula_units_Z 16
_cell_length_a 15.004285
_cell_length_b 8.420335
_cell_length_c 9.342462
_cell_angle_alpha 111.638213
_cell_angle_beta 40.064934
_cell_angle_gamma 108.687344
_cell_volume 704.751900
_symmetry_space_group_name_H-M "P -1"
_symmetry_group_IT_number 2
_symmetry_cell_setting 'triclinic'
loop_
_space_group_symop_operation_xyz
x,y,z
-x,-y,-z
loop_
_atom_site_type_symbol
_atom_site_label
_atom_site_fract_x
_atom_site_fract_y
_atom_site_fract_z
Si Si1 0.363619 0.755403 0.091414
Si Si2 0.035306 0.809197 0.856460
Si Si3 0.380261 0.088443 0.334229
Si Si4 0.777855 0.728549 0.656712
Si Si5 0.590422 0.622226 0.106531
Si Si6 0.742516 0.648147 0.227630
Si Si7 0.285310 0.608429 0.563189
Si Si8 0.953755 0.300193 0.519276
O O1 0.202831 0.722512 0.239036
O O2 0.373619 0.886060 0.255502
O O3 0.464923 0.838111 0.872857
O O4 0.422959 0.574739 0.995316
O O5 0.175112 0.751070 0.737836
O O6 0.044157 0.789049 0.667683
O O7 0.907055 0.685280 0.028079
O O8 0.000000 0.000000 0.000000
O O9 0.278739 0.148652 0.352453
O O10 0.325975 0.182920 0.570130
O O11 0.765904 0.539003 0.537711
O O12 0.933322 0.767145 0.533672
O O13 0.677163 0.729571 0.917618
O O14 0.681555 0.615077 0.135561
O O15 0.440342 0.673800 0.354492
O O16 0.709032 0.493064 0.327251
O O17 0.000000 0.500000 0.500000
#
# Coordination Sequence:
#
# PCOD9050603 Si02
#       8
#     2   2   2   2   2   2   2   2
#     4  11  22  42  67  97 132 171 215 275 324 381
#     4  12  25  44  64  96 136 171 209 273 339 383
#     4  10  25  43  66  97 134 173 212 270 336 385
#     4  11  22  41  67 100 125 172 226 265 317 394
#     4  12  22  42  71  96 130 171 225 272 315 392
#     4  11  23  45  64  96 135 171 214 269 328 394
#     4  11  24  41  68  96 126 178 221 260 327 394
#     4  12  22  40  70  98 125 173 224 269 315 386
#
# _framework density 22.703026000000001
#
# number of rings (size 3 to 8) (size 9 to 14) (size 15 to 20)
#    0.000    0.750    6.250    1.875    1.750    0.500 
#    2.250    0.625    0.000    0.000    0.000    0.000 
#    0.000    0.000    0.000    0.000    0.000    0.000 
#
# Total GULP energy -89640.796699 kJ/mol
# GULP energy per Si atom -5602.549794 kJ/mol
# Density = 2.265135 g / cm^3
# Si number density = 22.703026 Si / 1000 Ang^3
#
#
#
# Elastic Constant Matrix: (Units=GPa)
#
#
# Indices 1 2 3 4 5 6 
#
# 1 83.3491 33.0949 27.8395 1.9451 -8.8206 -2.4420
# 2 33.0949 63.2484 26.6490 15.2557 -10.8516 -4.4182
# 3 27.8395 26.6490 102.8221 3.6519 -23.8656 -0.5710
# 4 1.9451 15.2557 3.6519 45.3020 9.2701 -6.2631
# 5 -8.8206 -10.8516 -23.8656 9.2701 57.7300 -5.1387
# 6 -2.4420 -4.4182 -0.5710 -6.2631 -5.1387 18.7658
#
#
#
# Elastic Compliance Matrix: (Units=1/GPa)
#
#
# Indices 1 2 3 4 5 6 
#
# 1 0.015852 -0.007843 -0.002420 0.002343 -0.000355 0.000827
# 2 -0.007843 0.023845 -0.002933 -0.007790 0.003579 0.002884
# 3 -0.002420 -0.002933 0.012153 -0.000717 0.004244 0.000287
# 4 0.002343 -0.007790 -0.000717 0.026521 -0.005137 0.005894
# 5 -0.000355 0.003579 0.004244 -0.005137 0.020960 0.004951
# 6 0.000827 0.002884 0.000287 0.005894 0.004951 0.057406
#
#
# Mechanical properties :
#
#
# Convention : Reuss Voigt Hill
#
# Bulk Modulus (GPa) = 39.28190 47.17628 43.22909
# Shear Modulus (GPa) = 26.09371 35.14865 30.62118
#
# Velocity S-wave (km/s) = 3.39388 3.93898 3.67655
# Velocity P-wave (km/s) = 5.71822 6.44300 6.09140
#
# Compressibility (1/GPa) = 0.02545702
#
# Stress axis : x y z
#
# Youngs Moduli (GPa) = 63.08186 41.93733 82.28381
#
# Poissons Ratio (x) = 0.32893 0.19916
# Poissons Ratio (y) = 0.49477 0.24134
# Poissons Ratio (z) = 0.15268 0.12301
#
# Static dielectric constant tensor:
#      x y z
#    x 1.819500 -0.002330 -0.011930 
#    y -0.002330 1.875600 0.005240 
#    z -0.011930 0.005240 1.846610 
# 
# From -- ./inp_files/299069.got.cif
#   From: 2010.05.17/outbox.cif.g08.bks.cpg/sg2_150_cif.got.tgz:299069.got - 2010.06.03 11:33:40.
