data_PCOD9050050
_publ_section_title
;
Structure prediction by ZEFSAII (Michael W. Deem and Ramdas Pophale) SiO2 
 PCOD9050050
Probable space group: P -1
;
_chemical_formula_sum "Si O2"
_cell_formula_units_Z 11
_cell_length_a 10.549246
_cell_length_b 13.889757
_cell_length_c 9.867866
_cell_angle_alpha 116.676094
_cell_angle_beta 28.183258
_cell_angle_gamma 132.095714
_cell_volume 463.296528
_symmetry_space_group_name_H-M "P -1"
_symmetry_group_IT_number 2
_symmetry_cell_setting 'triclinic'
loop_
_space_group_symop_operation_xyz
x,y,z
-x,-y,-z
loop_
_atom_site_type_symbol
_atom_site_label
_atom_site_fract_x
_atom_site_fract_y
_atom_site_fract_z
Si Si1 0.500224 0.877636 0.172306
Si Si2 0.093255 0.409468 0.296091
Si Si3 0.740888 0.668797 0.369392
Si Si4 0.500000 0.000000 0.500000
Si Si5 0.964959 0.876525 0.529971
Si Si6 0.314618 0.743492 0.680626
O O1 0.691569 0.987144 0.183535
O O2 0.150829 0.739275 0.488061
O O3 0.337642 0.922341 0.251022
O O4 0.725699 0.845110 0.865764
O O5 0.000000 0.500000 0.500000
O O6 0.986624 0.371466 0.215746
O O7 0.500000 0.500000 0.000000
O O8 0.500000 0.500000 0.500000
O O9 0.785698 0.742538 0.515717
O O10 0.563116 0.708516 0.460680
O O11 0.116639 0.730424 0.994324
O O12 0.508628 0.891828 0.517032
O O13 0.000000 0.000000 0.500000
#
# Coordination Sequence:
#
# PCOD9050050 Si02
#       6
#     2   2   2   1   2   2
#     4  11  25  42  71  99 134 175 225 290 338 410
#     4  11  24  41  67  96 133 172 222 286 338 401
#     4  12  27  44  69 102 147 189 229 284 350 424
#     4  10  24  48  74 104 134 176 240 296 358 398
#     4  12  25  44  69 101 139 183 232 279 341 413
#     4  11  25  45  71 100 136 184 233 289 349 414
#
# _framework density 23.742892000000001
#
# number of rings (size 3 to 8) (size 9 to 14) (size 15 to 20)
#    0.000    0.727    0.000    6.545    7.636    5.818 
#    0.000    0.000    0.000    0.000    0.000    0.000 
#    0.000    0.000    0.000    0.000    0.000    0.000 
#
# Total GULP energy -61360.931683 kJ/mol
# GULP energy per Si atom -5578.266517 kJ/mol
# Density = 2.368885 g / cm^3
# Si number density = 23.742892 Si / 1000 Ang^3
#
#
#
# Elastic Constant Matrix: (Units=GPa)
#
#
# Indices 1 2 3 4 5 6 
#
# 1 72.5653 31.0854 23.9478 20.7718 13.1366 13.6434
# 2 31.0854 112.7304 27.5911 24.5424 6.2378 -13.1942
# 3 23.9478 27.5911 125.0450 28.8248 1.1379 8.1233
# 4 20.7718 24.5424 28.8248 44.1257 2.0291 12.1708
# 5 13.1366 6.2378 1.1379 2.0291 45.3800 14.2509
# 6 13.6434 -13.1942 8.1233 12.1708 14.2509 61.8355
#
#
#
# Elastic Compliance Matrix: (Units=1/GPa)
#
#
# Indices 1 2 3 4 5 6 
#
# 1 0.018442 -0.003885 -0.001381 -0.004633 -0.003631 -0.002968
# 2 -0.003885 0.012091 -0.000948 -0.005596 -0.001863 0.005093
# 3 -0.001381 -0.000948 0.009654 -0.005073 0.000612 -0.000308
# 4 -0.004633 -0.005596 -0.005073 0.032973 0.002852 -0.006653
# 5 -0.003631 -0.001863 0.000612 0.002852 0.025091 -0.006021
# 6 -0.002968 0.005093 -0.000308 -0.006653 -0.006021 0.020651
#
#
# Mechanical properties :
#
#
# Convention : Reuss Voigt Hill
#
# Bulk Modulus (GPa) = 36.02269 52.84324 44.43297
# Shear Modulus (GPa) = 35.56566 45.44933 40.50750
#
# Velocity S-wave (km/s) = 3.87453 4.37994 4.13496
# Velocity P-wave (km/s) = 5.93472 6.91977 6.44609
#
# Compressibility (1/GPa) = 0.02776028
#
# Stress axis : x y z
#
# Youngs Moduli (GPa) = 54.22315 82.70281 103.57885
#
# Poissons Ratio (x) = 0.32133 0.14303
# Poissons Ratio (y) = 0.21068 0.09817
# Poissons Ratio (z) = 0.07487 0.07838
#
# Static dielectric constant tensor:
#      x y z
#    x 1.903400 0.031680 0.015420 
#    y 0.031680 1.858730 -0.023100 
#    z 0.015420 -0.023100 1.828780 
# 
# From -- ./inp_files/21435.got.cif
#   From: 2010.05.17/outbox.cif.g08.bks.cpg/sg2_11_cif.got.tgz:21435.got - 2010.06.03 11:33:40.
