data_PCOD9050355
_publ_section_title
;
Structure prediction by ZEFSAII (Michael W. Deem and Ramdas Pophale) SiO2 
 PCOD9050355
Probable space group: P -1
;
_chemical_formula_sum "Si O2"
_cell_formula_units_Z 16
_cell_length_a 17.099441
_cell_length_b 17.844892
_cell_length_c 9.294975
_cell_angle_alpha 44.737379
_cell_angle_beta 49.241433
_cell_angle_gamma 15.462842
_cell_volume 524.568607
_symmetry_space_group_name_H-M "P -1"
_symmetry_group_IT_number 2
_symmetry_cell_setting 'triclinic'
loop_
_space_group_symop_operation_xyz
x,y,z
-x,-y,-z
loop_
_atom_site_type_symbol
_atom_site_label
_atom_site_fract_x
_atom_site_fract_y
_atom_site_fract_z
Si Si1 0.779052 0.787241 0.035131
Si Si2 0.371077 0.811392 0.375341
Si Si3 0.000841 0.225083 0.750518
Si Si4 0.098863 0.551931 0.718504
Si Si5 0.535650 0.065454 0.262910
Si Si6 0.768697 0.173122 0.189985
Si Si7 0.780091 0.426476 0.050140
Si Si8 0.264358 0.774566 0.350543
O O1 0.682625 0.892513 0.171466
O O2 0.875754 0.782750 0.806574
O O3 0.252215 0.415181 0.094028
O O4 0.500000 0.000000 0.000000
O O5 0.323789 0.824496 0.578569
O O6 0.609041 0.674385 0.253371
O O7 0.894919 0.921096 0.793327
O O8 0.527530 0.546244 0.484944
O O9 0.258687 0.049328 0.745079
O O10 0.087856 0.033815 0.826606
O O11 0.885661 0.405016 0.510072
O O12 0.790844 0.414388 0.881164
O O13 0.004891 0.523923 0.817828
O O14 0.500000 0.000000 0.500000
O O15 0.015402 0.997947 0.221559
O O16 0.500000 0.500000 0.000000
O O17 0.503470 0.625131 0.167012
O O18 0.000000 0.000000 0.500000
#
# Coordination Sequence:
#
# PCOD9050355 Si02
#       8
#     2   2   2   2   2   2   2   2
#     4  11  28  51  91 120 178 231 307 372 464 552
#     4  10  27  50  87 124 189 231 310 379 467 565
#     4  12  29  48  80 125 174 229 291 378 460 542
#     4  11  27  54  81 135 171 236 304 378 461 561
#     4  12  28  54  85 127 180 237 301 379 472 560
#     4  12  28  48  89 134 189 241 312 395 477 563
#     4  10  28  51  84 125 175 237 302 370 462 555
#     4  10  24  51  84 133 182 245 312 382 473 566
#
# _framework density 30.501255
#
# number of rings (size 3 to 8) (size 9 to 14) (size 15 to 20)
#    0.750    0.250    0.000    3.375   10.500    6.500 
#    0.000    0.000    0.000    1.500    0.000    5.250 
#    0.000    0.000    0.000    0.000    0.000    0.000 
#
# Total GULP energy -89447.369433 kJ/mol
# GULP energy per Si atom -5590.460590 kJ/mol
# Density = 3.043183 g / cm^3
# Si number density = 30.501255 Si / 1000 Ang^3
#
#
#
# Elastic Constant Matrix: (Units=GPa)
#
#
# Indices 1 2 3 4 5 6 
#
# 1 194.1179 71.8332 106.7861 42.4509 28.1736 8.1253
# 2 71.8332 199.9582 125.2963 57.3993 13.8965 -13.2998
# 3 106.7861 125.2963 342.0726 47.2581 21.5611 -0.0602
# 4 42.4509 57.3993 47.2581 63.3626 -0.4370 20.8358
# 5 28.1736 13.8965 21.5611 -0.4370 75.5335 20.2264
# 6 8.1253 -13.2998 -0.0602 20.8358 20.2264 65.6302
#
#
#
# Elastic Compliance Matrix: (Units=1/GPa)
#
#
# Indices 1 2 3 4 5 6 
#
# 1 0.007230 -0.000367 -0.001442 -0.003784 -0.002508 0.001003
# 2 -0.000367 0.009369 -0.001971 -0.008580 -0.002532 0.005447
# 3 -0.001442 -0.001971 0.004161 -0.000348 -0.000284 -0.000019
# 4 -0.003784 -0.008580 -0.000348 0.030706 0.006776 -0.013107
# 5 -0.002508 -0.002532 -0.000284 0.006776 0.016776 -0.007524
# 6 0.001003 0.005447 -0.000019 -0.013107 -0.007524 0.022696
#
#
# Mechanical properties :
#
#
# Convention : Reuss Voigt Hill
#
# Bulk Modulus (GPa) = 75.75271 149.33110 112.54190
# Shear Modulus (GPa) = 48.59176 69.72082 59.15629
#
# Velocity S-wave (km/s) = 3.99570 4.78623 4.40872
# Velocity P-wave (km/s) = 6.79539 8.92240 7.93053
#
# Compressibility (1/GPa) = 0.01320085
#
# Stress axis : x y z
#
# Youngs Moduli (GPa) = 138.31830 106.73160 240.30061
#
# Poissons Ratio (x) = 0.03914 0.34642
# Poissons Ratio (y) = 0.05073 0.47374
# Poissons Ratio (z) = 0.19940 0.21042
#
# Static dielectric constant tensor:
#      x y z
#    x 5.213650 0.628770 -1.771210 
#    y 0.628770 3.156440 -0.617830 
#    z -1.771210 -0.617830 3.393660 
# 
# From -- ./inp_files/314775.got.cif
#   From: 2010.05.17/outbox.cif.g08.bks.cpg/sg2_158_cif.got.tgz:314775.got - 2010.06.03 11:33:40.
