data_PCOD9050218
_publ_section_title
;
Structure prediction by ZEFSAII (Michael W. Deem and Ramdas Pophale) SiO2 
 PCOD9050218
Probable space group: P -1
;
_chemical_formula_sum "Si O2"
_cell_formula_units_Z 12
_cell_length_a 7.792327
_cell_length_b 9.393993
_cell_length_c 13.471414
_cell_angle_alpha 56.607333
_cell_angle_beta 33.610306
_cell_angle_gamma 65.279474
_cell_volume 454.023025
_symmetry_space_group_name_H-M "P -1"
_symmetry_group_IT_number 2
_symmetry_cell_setting 'triclinic'
loop_
_space_group_symop_operation_xyz
x,y,z
-x,-y,-z
loop_
_atom_site_type_symbol
_atom_site_label
_atom_site_fract_x
_atom_site_fract_y
_atom_site_fract_z
Si Si1 0.550690 0.162979 0.039206
Si Si2 0.748094 0.633005 0.592885
Si Si3 0.615127 0.342978 0.442074
Si Si4 0.857286 0.853091 0.942789
Si Si5 0.124153 0.976613 0.568590
Si Si6 0.177996 0.585195 0.024863
O O1 0.448476 0.191156 0.962655
O O2 0.706932 0.318175 0.967707
O O3 0.224897 0.087307 0.273698
O O4 0.780518 0.014286 0.982348
O O5 0.600587 0.667376 0.545076
O O6 0.475309 0.558836 0.825517
O O7 0.000000 0.500000 0.500000
O O8 0.848317 0.819176 0.519533
O O9 0.500000 0.500000 0.500000
O O10 0.639623 0.150684 0.543418
O O11 0.967951 0.413344 0.216311
O O12 0.115788 0.919158 0.711940
O O13 0.967959 0.703936 0.014554
#
# Coordination Sequence:
#
# PCOD9050218 Si02
#       6
#     2   2   2   2   2   2
#     4   9  22  40  75 113 150 204 251 317 380 457
#     4  12  29  49  80 113 153 205 261 317 385 465
#     4  12  30  49  77 114 156 203 259 318 389 457
#     4   9  21  42  73 111 152 202 249 313 383 448
#     4  10  24  49  73 105 163 199 248 322 390 440
#     4  12  26  47  77 112 156 200 264 310 388 459
#
# _framework density 26.430375000000002
#
# number of rings (size 3 to 8) (size 9 to 14) (size 15 to 20)
#    1.000    0.333    1.667    1.500    7.000    4.000 
#    0.000    0.000    0.000    0.000    0.000    0.000 
#    0.000    0.000    0.000    0.000    0.000    0.000 
#
# Total GULP energy -67249.923021 kJ/mol
# GULP energy per Si atom -5604.160252 kJ/mol
# Density = 2.637022 g / cm^3
# Si number density = 26.430375 Si / 1000 Ang^3
#
#
#
# Elastic Constant Matrix: (Units=GPa)
#
#
# Indices 1 2 3 4 5 6 
#
# 1 151.6237 71.3126 20.5473 -8.6701 -5.3327 -0.1303
# 2 71.3126 265.7858 57.9302 9.6765 -10.7723 -23.2385
# 3 20.5473 57.9302 58.3973 -0.2734 -14.8305 -21.1431
# 4 -8.6701 9.6765 -0.2734 49.0940 4.9498 -3.9626
# 5 -5.3327 -10.7723 -14.8305 4.9498 31.1135 -2.8876
# 6 -0.1303 -23.2385 -21.1431 -3.9626 -2.8876 43.8684
#
#
#
# Elastic Compliance Matrix: (Units=1/GPa)
#
#
# Indices 1 2 3 4 5 6 
#
# 1 0.007812 -0.001999 -0.001463 0.001682 -0.000469 -0.001620
# 2 -0.001999 0.005367 -0.004545 -0.001357 -0.000389 0.000498
# 3 -0.001463 -0.004545 0.030451 0.000478 0.013841 0.013219
# 4 0.001682 -0.001357 0.000478 0.021362 -0.003237 0.001233
# 5 -0.000469 -0.000389 0.013841 -0.003237 0.039854 0.008794
# 6 -0.001620 0.000498 0.013219 0.001233 0.008794 0.030116
#
#
# Mechanical properties :
#
#
# Convention : Reuss Voigt Hill
#
# Bulk Modulus (GPa) = 36.21262 86.15411 61.18337
# Shear Modulus (GPa) = 31.21466 46.54961 38.88214
#
# Velocity S-wave (km/s) = 3.44032 4.20124 3.83967
# Velocity P-wave (km/s) = 5.43249 7.49675 6.54649
#
# Compressibility (1/GPa) = 0.02761468
#
# Stress axis : x y z
#
# Youngs Moduli (GPa) = 128.00748 186.33805 32.83985
#
# Poissons Ratio (x) = 0.37248 0.04806
# Poissons Ratio (y) = 0.25588 0.14926
# Poissons Ratio (z) = 0.18732 0.84692
#
# Static dielectric constant tensor:
#      x y z
#    x 2.054190 -0.010950 0.046050 
#    y -0.010950 2.098040 0.011060 
#    z 0.046050 0.011060 2.165490 
# 
# From -- ./inp_files/494441.got.cif
#   From: 2010.05.17/outbox.cif.g08.bks.cpg/sg2_248_cif.got.tgz:494441.got - 2010.06.03 11:33:40.
