data_PCOD9050722
_publ_section_title
;
Structure prediction by ZEFSAII (Michael W. Deem and Ramdas Pophale) SiO2 
 PCOD9050722
Probable space group: P -1
;
_chemical_formula_sum "Si O2"
_cell_formula_units_Z 14
_cell_length_a 17.484070
_cell_length_b 7.401578
_cell_length_c 9.067192
_cell_angle_alpha 64.942213
_cell_angle_beta 116.623176
_cell_angle_gamma 146.645501
_cell_volume 573.844107
_symmetry_space_group_name_H-M "P -1"
_symmetry_group_IT_number 2
_symmetry_cell_setting 'triclinic'
loop_
_space_group_symop_operation_xyz
x,y,z
-x,-y,-z
loop_
_atom_site_type_symbol
_atom_site_label
_atom_site_fract_x
_atom_site_fract_y
_atom_site_fract_z
Si Si1 0.602715 0.202530 0.292763
Si Si2 0.982999 0.493177 0.313037
Si Si3 0.323069 0.494834 0.433697
Si Si4 0.900173 0.135551 0.975014
Si Si5 0.955459 0.796549 0.675818
Si Si6 0.425755 0.501334 0.055523
Si Si7 0.683757 0.953028 0.338707
O O1 0.654088 0.431600 0.395416
O O2 0.453307 0.834449 0.344311
O O3 0.702009 0.196080 0.353828
O O4 0.586208 0.304116 0.097862
O O5 0.000000 0.500000 0.500000
O O6 0.042468 0.787282 0.168229
O O7 0.064004 0.458276 0.322413
O O8 0.812832 0.167071 0.260785
O O9 0.182952 0.357927 0.325303
O O10 0.313469 0.239740 0.492307
O O11 0.733176 0.864967 0.920847
O O12 0.000000 0.500000 0.000000
O O13 0.929904 0.016159 0.160175
O O14 0.000000 0.000000 0.500000
O O15 0.532640 0.691002 0.218952
O O16 0.500000 0.500000 0.000000
#
# Coordination Sequence:
#
# PCOD9050722 Si02
#       7
#     2   2   2   2   2   2   2
#     4  11  26  43  70 110 144 190 245 299 369 439
#     4  11  25  45  71 108 149 188 242 310 363 439
#     4  11  24  43  73 103 144 194 241 301 364 442
#     4  10  25  43  74 108 142 196 247 300 371 443
#     4  11  21  43  70 100 142 188 247 291 365 436
#     4  12  24  46  74 104 149 191 248 307 367 438
#     4  12  25  47  73 105 148 191 243 305 368 436
#
# _framework density 24.396868999999999
#
# number of rings (size 3 to 8) (size 9 to 14) (size 15 to 20)
#    0.000    0.857    2.857    4.286    6.000    2.286 
#    0.000    1.429    0.000    0.000    0.000    0.000 
#    0.000    0.000    0.000    0.000    0.000    0.000 
#
# Total GULP energy -78340.019706 kJ/mol
# GULP energy per Si atom -5595.715693 kJ/mol
# Density = 2.434134 g / cm^3
# Si number density = 24.396869 Si / 1000 Ang^3
#
#
#
# Elastic Constant Matrix: (Units=GPa)
#
#
# Indices 1 2 3 4 5 6 
#
# 1 113.1714 32.6704 33.8184 0.8974 20.5492 -1.3734
# 2 32.6704 130.1637 53.7085 -3.4544 6.8263 37.9686
# 3 33.8184 53.7085 130.4459 4.3913 -5.2946 16.5791
# 4 0.8974 -3.4544 4.3913 44.9850 3.8503 6.4327
# 5 20.5492 6.8263 -5.2946 3.8503 33.6193 3.6950
# 6 -1.3734 37.9686 16.5791 6.4327 3.6950 40.4645
#
#
#
# Elastic Compliance Matrix: (Units=1/GPa)
#
#
# Indices 1 2 3 4 5 6 
#
# 1 0.011994 -0.002904 -0.002860 -0.000244 -0.007719 0.005048
# 2 -0.002904 0.013316 -0.003375 0.003123 -0.000536 -0.011658
# 3 -0.002860 -0.003375 0.010182 -0.001384 0.004336 -0.001278
# 4 -0.000244 0.003123 -0.001384 0.023688 -0.002769 -0.005884
# 5 -0.007719 -0.000536 0.004336 -0.002769 0.036054 -0.004387
# 6 0.005048 -0.011658 -0.001278 -0.005884 -0.004387 0.037683
#
#
# Mechanical properties :
#
#
# Convention : Reuss Voigt Hill
#
# Bulk Modulus (GPa) = 58.09578 68.24173 63.16876
# Shear Modulus (GPa) = 31.86080 40.71934 36.29007
#
# Velocity S-wave (km/s) = 3.61770 4.08982 3.86098
# Velocity P-wave (km/s) = 6.42766 7.09467 6.76939
#
# Compressibility (1/GPa) = 0.01721295
#
# Stress axis : x y z
#
# Youngs Moduli (GPa) = 83.37464 75.09970 98.21168
#
# Poissons Ratio (x) = 0.21812 0.28092
# Poissons Ratio (y) = 0.24215 0.33144
# Poissons Ratio (z) = 0.23848 0.25344
#
# Static dielectric constant tensor:
#      x y z
#    x 2.146790 -0.156430 0.174860 
#    y -0.156430 2.035780 -0.094710 
#    z 0.174860 -0.094710 2.192330 
# 
# From -- ./inp_files/328607.got.cif
#   From: 2010.05.17/outbox.cif.g08.bks.cpg/sg2_165_cif.got.tgz:328607.got - 2010.06.03 11:33:40.
