data_PCOD9050588
_publ_section_title
;
Structure prediction by ZEFSAII (Michael W. Deem and Ramdas Pophale) SiO2 
 PCOD9050588
Probable space group: P -1
;
_chemical_formula_sum "Si O2"
_cell_formula_units_Z 14
_cell_length_a 22.528079
_cell_length_b 15.086137
_cell_length_c 8.613651
_cell_angle_alpha 47.859555
_cell_angle_beta 31.514131
_cell_angle_gamma 27.231279
_cell_volume 652.148208
_symmetry_space_group_name_H-M "P -1"
_symmetry_group_IT_number 2
_symmetry_cell_setting 'triclinic'
loop_
_space_group_symop_operation_xyz
x,y,z
-x,-y,-z
loop_
_atom_site_type_symbol
_atom_site_label
_atom_site_fract_x
_atom_site_fract_y
_atom_site_fract_z
Si Si1 0.617775 0.495833 0.135537
Si Si2 0.360300 0.179569 0.473283
Si Si3 0.582746 0.108984 0.784673
Si Si4 0.935909 0.958430 0.315030
Si Si5 0.597192 0.613420 0.712039
Si Si6 0.274561 0.017567 0.728166
Si Si7 0.904169 0.171380 0.388449
O O1 0.500000 0.500000 0.500000
O O2 0.581669 0.645784 0.138777
O O3 0.850401 0.278134 0.841392
O O4 0.541838 0.588515 0.021406
O O5 0.295804 0.360288 0.483240
O O6 0.500000 0.000000 0.500000
O O7 0.217668 0.193882 0.725514
O O8 0.493900 0.093936 0.124811
O O9 0.626096 0.039972 0.591974
O O10 0.779878 0.997837 0.552084
O O11 0.846456 0.123682 0.447087
O O12 0.000000 0.000000 0.000000
O O13 0.421234 0.817421 0.753951
O O14 0.733626 0.405558 0.554790
O O15 0.084484 0.101138 0.017956
O O16 0.000000 0.000000 0.500000
#
# Coordination Sequence:
#
# PCOD9050588 Si02
#       7
#     2   2   2   2   2   2   2
#     4  11  22  39  62  92 131 175 212 260 326 389
#     4   9  22  45  70  93 125 175 222 273 325 377
#     4  11  24  42  67  95 132 171 217 271 325 392
#     4  12  24  41  62  95 137 171 211 264 327 389
#     4  10  25  43  65  98 130 173 220 271 327 382
#     4  11  24  44  69  96 130 174 221 272 324 389
#     4  12  26  40  64 102 135 172 217 266 329 394
#
# _framework density 21.467511999999999
#
# number of rings (size 3 to 8) (size 9 to 14) (size 15 to 20)
#    0.000    1.143    4.286    0.429    8.000    2.286 
#    0.000    4.286    0.000    8.571    0.000    0.000 
#    0.000    0.000    0.000    0.000    0.000    0.000 
#
# Total GULP energy -77997.753778 kJ/mol
# GULP energy per Si atom -5571.268127 kJ/mol
# Density = 2.141865 g / cm^3
# Si number density = 21.467512 Si / 1000 Ang^3
#
#
#
# Elastic Constant Matrix: (Units=GPa)
#
#
# Indices 1 2 3 4 5 6 
#
# 1 105.2403 50.9761 21.4694 7.0895 1.6087 14.4210
# 2 50.9761 115.0541 45.8817 7.1269 -5.6779 17.0495
# 3 21.4694 45.8817 51.7893 -7.3961 -4.4319 3.5116
# 4 7.0895 7.1269 -7.3961 39.8791 -7.3708 16.2975
# 5 1.6087 -5.6779 -4.4319 -7.3708 43.1857 -2.3390
# 6 14.4210 17.0495 3.5116 16.2975 -2.3390 29.1914
#
#
#
# Elastic Compliance Matrix: (Units=1/GPa)
#
#
# Indices 1 2 3 4 5 6 
#
# 1 0.012468 -0.004706 -0.000994 -0.000564 -0.001449 -0.003093
# 2 -0.004706 0.016788 -0.012985 -0.002721 0.000349 -0.004372
# 3 -0.000994 -0.012985 0.032950 0.009626 0.003300 -0.000999
# 4 -0.000564 -0.002721 0.009626 0.036332 0.005817 -0.019108
# 5 -0.001449 0.000349 0.003300 0.005817 0.024524 -0.001168
# 6 -0.003093 -0.004372 -0.000999 -0.019108 -0.001168 0.049032
#
#
# Mechanical properties :
#
#
# Convention : Reuss Voigt Hill
#
# Bulk Modulus (GPa) = 40.26404 56.52646 48.39525
# Shear Modulus (GPa) = 22.96287 32.70167 27.83227
#
# Velocity S-wave (km/s) = 3.27411 3.90719 3.60458
# Velocity P-wave (km/s) = 5.75235 6.83690 6.31794
#
# Compressibility (1/GPa) = 0.02483606
#
# Stress axis : x y z
#
# Youngs Moduli (GPa) = 80.20335 59.56566 30.34941
#
# Poissons Ratio (x) = 0.28031 0.03018
# Poissons Ratio (y) = 0.37743 0.39408
# Poissons Ratio (z) = 0.07976 0.77344
#
# Static dielectric constant tensor:
#      x y z
#    x 1.865570 -0.021510 -0.022130 
#    y -0.021510 1.810620 0.043810 
#    z -0.022130 0.043810 1.873420 
# 
# From -- ./inp_files/354497.got.cif
#   From: 2010.05.17/outbox.cif.g08.bks.cpg/sg2_178_cif.got.tgz:354497.got - 2010.06.03 11:33:40.
