data_PCOD9050042
_publ_section_title
;
Structure prediction by ZEFSAII (Michael W. Deem and Ramdas Pophale) SiO2 
 PCOD9050042
Probable space group: P -1
;
_chemical_formula_sum "Si O2"
_cell_formula_units_Z 16
_cell_length_a 11.282371
_cell_length_b 16.567855
_cell_length_c 9.686960
_cell_angle_alpha 120.323730
_cell_angle_beta 102.334353
_cell_angle_gamma 29.226862
_cell_volume 643.022409
_symmetry_space_group_name_H-M "P -1"
_symmetry_group_IT_number 2
_symmetry_cell_setting 'triclinic'
loop_
_space_group_symop_operation_xyz
x,y,z
-x,-y,-z
loop_
_atom_site_type_symbol
_atom_site_label
_atom_site_fract_x
_atom_site_fract_y
_atom_site_fract_z
Si Si1 0.292328 0.731669 0.693162
Si Si2 0.358929 0.619822 0.901410
Si Si3 0.312777 0.367710 0.371411
Si Si4 0.375429 0.036620 0.837855
Si Si5 0.968088 0.835686 0.372539
Si Si6 0.188562 0.521472 0.782461
Si Si7 0.256385 0.853420 0.271200
Si Si8 0.750056 0.846895 0.539825
O O1 0.500000 0.500000 0.500000
O O2 0.212538 0.772458 0.867431
O O3 0.469262 0.702971 0.683070
O O4 0.001569 0.935357 0.709387
O O5 0.414425 0.336493 0.801747
O O6 0.693178 0.402072 0.763458
O O7 0.289456 0.723523 0.114622
O O8 0.460214 0.164054 0.222425
O O9 0.241884 0.434502 0.574387
O O10 0.016015 0.588982 0.403164
O O11 0.591947 0.954735 0.741366
O O12 0.184935 0.116553 0.742694
O O13 0.139827 0.252442 0.057764
O O14 0.884961 0.844626 0.504439
O O15 0.849386 0.024683 0.506716
O O16 0.267636 0.576191 0.832404
O O17 0.500000 0.000000 0.500000
#
# Coordination Sequence:
#
# PCOD9050042 Si02
#       8
#     2   2   2   2   2   2   2   2
#     4  12  23  41  65  97 139 179 214 268 325 399
#     4  12  24  42  64  99 139 172 220 265 327 396
#     4  12  23  44  71  97 132 177 220 271 335 385
#     4  11  25  45  68  97 130 175 226 274 327 388
#     4  11  22  44  69  93 132 174 220 275 324 387
#     4  12  26  40  67 104 138 173 215 271 326 402
#     4  12  24  40  66 100 137 178 216 261 334 398
#     4  10  24  48  73  93 127 175 227 280 327 384
#
# _framework density 24.882494000000001
#
# number of rings (size 3 to 8) (size 9 to 14) (size 15 to 20)
#    0.000    0.500    6.250    1.875    1.750    1.500 
#    0.000    1.875    0.000    0.000    0.000    0.000 
#    0.000    0.000    0.000    0.000    0.000    0.000 
#
# Total GULP energy -89477.094321 kJ/mol
# GULP energy per Si atom -5592.318395 kJ/mol
# Density = 2.482586 g / cm^3
# Si number density = 24.882494 Si / 1000 Ang^3
#
#
#
# Elastic Constant Matrix: (Units=GPa)
#
#
# Indices 1 2 3 4 5 6 
#
# 1 122.8400 42.5104 17.1865 9.2155 -18.8567 6.1320
# 2 42.5104 169.5623 37.9704 29.9296 -9.5245 -10.7068
# 3 17.1865 37.9704 86.3225 15.8843 6.8033 -7.6439
# 4 9.2155 29.9296 15.8843 49.9085 -4.6860 0.5811
# 5 -18.8567 -9.5245 6.8033 -4.6860 33.1599 -7.1000
# 6 6.1320 -10.7068 -7.6439 0.5811 -7.1000 23.5018
#
#
#
# Elastic Compliance Matrix: (Units=1/GPa)
#
#
# Indices 1 2 3 4 5 6 
#
# 1 0.009961 -0.002070 -0.001781 0.000463 0.004935 -0.002642
# 2 -0.002070 0.007897 -0.002203 -0.003520 0.001921 0.004089
# 3 -0.001781 -0.002203 0.014108 -0.003286 -0.004405 0.002800
# 4 0.000463 -0.003520 -0.003286 0.023390 0.002684 -0.002561
# 5 0.004935 0.001921 -0.004405 0.002684 0.036767 0.009196
# 6 -0.002642 0.004089 0.002800 -0.002561 0.009196 0.048854
#
#
# Mechanical properties :
#
#
# Convention : Reuss Voigt Hill
#
# Bulk Modulus (GPa) = 50.35703 63.78437 57.07070
# Shear Modulus (GPa) = 31.30796 40.05122 35.67959
#
# Velocity S-wave (km/s) = 3.55101 4.01635 3.79083
# Velocity P-wave (km/s) = 6.09054 6.87008 6.49202
#
# Compressibility (1/GPa) = 0.01985820
#
# Stress axis : x y z
#
# Youngs Moduli (GPa) = 100.39383 126.62719 70.88187
#
# Poissons Ratio (x) = 0.26209 0.12622
# Poissons Ratio (y) = 0.20779 0.15618
# Poissons Ratio (z) = 0.17878 0.27901
#
# Static dielectric constant tensor:
#      x y z
#    x 1.975110 0.025410 0.016380 
#    y 0.025410 2.056260 0.003100 
#    z 0.016380 0.003100 2.029730 
# 
# From -- ./inp_files/436907.got.cif
#   From: 2010.05.17/outbox.cif.g08.bks.cpg/sg2_219_cif.got.tgz:436907.got - 2010.06.03 11:33:40.
