data_PCOD9050428
_publ_section_title
;
Structure prediction by ZEFSAII (Michael W. Deem and Ramdas Pophale) SiO2 
 PCOD9050428
Probable space group: P -1
;
_chemical_formula_sum "Si O2"
_cell_formula_units_Z 16
_cell_length_a 20.235712
_cell_length_b 8.897627
_cell_length_c 14.688417
_cell_angle_alpha 50.582538
_cell_angle_beta 161.711259
_cell_angle_gamma 132.077823
_cell_volume 615.975373
_symmetry_space_group_name_H-M "P -1"
_symmetry_group_IT_number 2
_symmetry_cell_setting 'triclinic'
loop_
_space_group_symop_operation_xyz
x,y,z
-x,-y,-z
loop_
_atom_site_type_symbol
_atom_site_label
_atom_site_fract_x
_atom_site_fract_y
_atom_site_fract_z
Si Si1 0.984399 0.984702 0.672707
Si Si2 0.620188 0.405781 0.911439
Si Si3 0.205607 0.919335 0.321487
Si Si4 0.674723 0.678329 0.263335
Si Si5 0.743692 0.164223 0.765680
Si Si6 0.610606 0.032893 0.271308
Si Si7 0.491633 0.339795 0.474731
Si Si8 0.920447 0.613912 0.440672
O O1 0.894722 0.793507 0.563039
O O2 0.770668 0.063278 0.383088
O O3 0.135280 0.184865 0.746973
O O4 0.092583 0.931447 0.927137
O O5 0.510568 0.420694 0.862398
O O6 0.459534 0.211394 0.725581
O O7 0.644824 0.609803 0.807884
O O8 0.847815 0.351543 0.220221
O O9 0.236519 0.864429 0.484860
O O10 0.406065 0.119622 0.490883
O O11 0.199706 0.767391 0.289870
O O12 0.000000 0.000000 0.000000
O O13 0.741763 0.556767 0.312654
O O14 0.577272 0.857884 0.028834
O O15 0.721425 0.349060 0.726126
O O16 0.500000 0.000000 0.500000
O O17 0.500000 0.500000 0.500000
O O18 0.000000 0.500000 0.500000
#
# Coordination Sequence:
#
# PCOD9050428 Si02
#       8
#     2   2   2   2   2   2   2   2
#     4  11  22  46  70 101 136 181 249 288 347 438
#     4  11  24  48  66 109 143 177 245 300 352 426
#     4  11  23  43  68 102 137 187 233 289 353 422
#     4  11  25  46  76 101 134 195 235 296 353 423
#     4  10  25  41  65 102 137 188 232 282 355 424
#     4  11  21  44  76 100 140 184 246 293 348 433
#     4  11  25  44  70  97 144 188 231 297 357 419
#     4  12  28  41  70 106 142 183 231 301 371 413
#
# _framework density 25.975064
#
# number of rings (size 3 to 8) (size 9 to 14) (size 15 to 20)
#    0.000    1.000    5.000    1.125    8.750    0.500 
#    4.500    3.125    0.000    0.000    0.000    0.000 
#    0.000    0.000    0.000    0.000    0.000    0.000 
#
# Total GULP energy -89200.636442 kJ/mol
# GULP energy per Si atom -5575.039778 kJ/mol
# Density = 2.591594 g / cm^3
# Si number density = 25.975064 Si / 1000 Ang^3
#
#
#
# Elastic Constant Matrix: (Units=GPa)
#
#
# Indices 1 2 3 4 5 6 
#
# 1 179.9862 21.1336 32.6238 -7.4623 18.5458 -49.0305
# 2 21.1336 58.4822 0.6751 -7.5181 6.9867 -22.9056
# 3 32.6238 0.6751 87.8445 -3.8851 -1.3750 -17.0929
# 4 -7.4623 -7.5181 -3.8851 30.9561 3.4619 1.0074
# 5 18.5458 6.9867 -1.3750 3.4619 28.6307 -9.6129
# 6 -49.0305 -22.9056 -17.0929 1.0074 -9.6129 33.0628
#
#
#
# Elastic Compliance Matrix: (Units=1/GPa)
#
#
# Indices 1 2 3 4 5 6 
#
# 1 0.010009 0.003362 -0.000504 0.002891 -0.002249 0.016170
# 2 0.003362 0.026573 0.003664 0.007031 -0.001017 0.024780
# 3 -0.000504 0.003664 0.013547 0.001808 0.003101 0.009641
# 4 0.002891 0.007031 0.001808 0.035279 -0.005252 0.007491
# 5 -0.002249 -0.001017 0.003101 -0.005252 0.040617 0.009534
# 6 0.016170 0.024780 0.009641 0.007491 0.009534 0.078920
#
#
# Mechanical properties :
#
#
# Convention : Reuss Voigt Hill
#
# Bulk Modulus (GPa) = 15.82944 48.35311 32.09127
# Shear Modulus (GPa) = 23.47877 36.65527 30.06702
#
# Velocity S-wave (km/s) = 3.00975 3.76063 3.40595
# Velocity P-wave (km/s) = 4.26444 6.12471 5.27719
#
# Compressibility (1/GPa) = 0.06317344
#
# Stress axis : x y z
#
# Youngs Moduli (GPa) = 99.91047 37.63265 73.81564
#
# Poissons Ratio (x) = -0.12654 0.03720
# Poissons Ratio (y) = -0.33594 -0.27044
# Poissons Ratio (z) = 0.05035 -0.13788
#
# Static dielectric constant tensor:
#      x y z
#    x 2.158780 0.033850 0.010460 
#    y 0.033850 2.152280 0.056540 
#    z 0.010460 0.056540 2.069810 
# 
# From -- ./inp_files/540421.got.cif
#   From: 2010.05.17/outbox.cif.g08.bks.cpg/sg2_271_cif.got.tgz:540421.got - 2010.06.03 11:33:40.
