data_PCOD9050305
_publ_section_title
;
Structure prediction by ZEFSAII (Michael W. Deem and Ramdas Pophale) SiO2 
 PCOD9050305
Probable space group: P -1
;
_chemical_formula_sum "Si O2"
_cell_formula_units_Z 13
_cell_length_a 5.050888
_cell_length_b 10.334542
_cell_length_c 17.137160
_cell_angle_alpha 37.251839
_cell_angle_beta 96.872878
_cell_angle_gamma 111.446147
_cell_volume 480.110627
_symmetry_space_group_name_H-M "P -1"
_symmetry_group_IT_number 2
_symmetry_cell_setting 'triclinic'
loop_
_space_group_symop_operation_xyz
x,y,z
-x,-y,-z
loop_
_atom_site_type_symbol
_atom_site_label
_atom_site_fract_x
_atom_site_fract_y
_atom_site_fract_z
Si Si1 0.577099 0.968578 0.639157
Si Si2 0.760183 0.772527 0.885361
Si Si3 0.792750 0.780098 0.157430
Si Si4 0.366311 0.864768 0.943640
Si Si5 0.718251 0.481544 0.451458
Si Si6 0.000000 0.000000 0.500000
Si Si7 0.003037 0.558570 0.758891
O O1 0.577096 0.220198 0.532439
O O2 0.728955 0.950163 0.573999
O O3 0.750229 0.907717 0.742395
O O4 0.231302 0.775709 0.716441
O O5 0.646605 0.883015 0.897784
O O6 0.082823 0.799334 0.907366
O O7 0.500000 0.500000 0.000000
O O8 0.820625 0.680483 0.292415
O O9 0.809204 0.567781 0.209484
O O10 0.573562 0.894258 0.124297
O O11 0.000000 0.000000 0.000000
O O12 0.258399 0.636464 0.105711
O O13 0.500000 0.500000 0.500000
O O14 0.000000 0.500000 0.500000
O O15 0.892140 0.702188 0.628544
#
# Coordination Sequence:
#
# PCOD9050305 Si02
#       7
#     2   2   2   2   2   1   2
#     4  12  27  43  75 106 145 193 244 310 367 441
#     4  12  24  45  74 108 148 187 246 302 371 444
#     4  10  24  50  74 108 151 201 252 307 376 450
#     4  11  25  48  74 108 146 191 243 305 368 442
#     4  12  28  50  76 109 153 197 249 308 379 447
#     4  12  26  44  70 104 148 188 250 300 370 430
#     4  11  25  47  71 108 143 194 244 309 365 444
#
# _framework density 27.077093000000001
#
# number of rings (size 3 to 8) (size 9 to 14) (size 15 to 20)
#    0.000    0.615    3.077    3.692    4.308    0.000 
#    2.769    4.615    0.000    0.000    0.000    0.000 
#    0.000    0.000    0.000    0.000    0.000    0.000 
#
# Total GULP energy -72625.861448 kJ/mol
# GULP energy per Si atom -5586.604727 kJ/mol
# Density = 2.701546 g / cm^3
# Si number density = 27.077093 Si / 1000 Ang^3
#
#
#
# Elastic Constant Matrix: (Units=GPa)
#
#
# Indices 1 2 3 4 5 6 
#
# 1 123.0500 58.3799 63.4432 4.0448 5.5851 -23.9655
# 2 58.3799 136.2176 72.4989 -25.8726 -0.8159 -23.6054
# 3 63.4432 72.4989 189.3040 -21.1291 5.6440 -0.4460
# 4 4.0448 -25.8726 -21.1291 61.7403 -5.5416 16.6484
# 5 5.5851 -0.8159 5.6440 -5.5416 37.6836 4.1612
# 6 -23.9655 -23.6054 -0.4460 16.6484 4.1612 61.1141
#
#
#
# Elastic Compliance Matrix: (Units=1/GPa)
#
#
# Indices 1 2 3 4 5 6 
#
# 1 0.013044 -0.003922 -0.003365 -0.005315 -0.002872 0.005219
# 2 -0.003922 0.011499 -0.002706 0.003827 0.001607 0.001732
# 3 -0.003365 -0.002706 0.007723 0.002537 -0.000012 -0.002999
# 4 -0.005315 0.003827 0.002537 0.021202 0.004344 -0.006659
# 5 -0.002872 0.001607 -0.000012 0.004344 0.028035 -0.003598
# 6 0.005219 0.001732 -0.002999 -0.006659 -0.003598 0.021116
#
#
# Mechanical properties :
#
#
# Convention : Reuss Voigt Hill
#
# Bulk Modulus (GPa) = 81.43117 93.02395 87.22756
# Shear Modulus (GPa) = 39.46409 49.05758 44.26083
#
# Velocity S-wave (km/s) = 3.82183 4.26111 4.04743
# Velocity P-wave (km/s) = 7.04374 7.65763 7.35709
#
# Compressibility (1/GPa) = 0.01228031
#
# Stress axis : x y z
#
# Youngs Moduli (GPa) = 76.66503 86.96551 129.48202
#
# Poissons Ratio (x) = 0.34104 0.43569
# Poissons Ratio (y) = 0.30065 0.35041
# Poissons Ratio (z) = 0.25797 0.23535
#
# Static dielectric constant tensor:
#      x y z
#    x 3.125980 0.915290 -0.772690 
#    y 0.915290 2.792710 -0.640820 
#    z -0.772690 -0.640820 3.036530 
# 
# From -- ./inp_files/548990.got.cif
#   From: 2010.05.17/outbox.cif.g08.bks.cpg/sg2_275_cif.got.tgz:548990.got - 2010.06.03 11:33:40.
