data_PCOD9050208
_publ_section_title
;
Structure prediction by ZEFSAII (Michael W. Deem and Ramdas Pophale) SiO2 
 PCOD9050208
Probable space group: P -1
;
_chemical_formula_sum "Si O2"
_cell_formula_units_Z 16
_cell_length_a 8.178343
_cell_length_b 10.564404
_cell_length_c 7.537654
_cell_angle_alpha 101.822075
_cell_angle_beta 102.452180
_cell_angle_gamma 101.535684
_cell_volume 601.787613
_symmetry_space_group_name_H-M "P -1"
_symmetry_group_IT_number 2
_symmetry_cell_setting 'triclinic'
loop_
_space_group_symop_operation_xyz
x,y,z
-x,-y,-z
loop_
_atom_site_type_symbol
_atom_site_label
_atom_site_fract_x
_atom_site_fract_y
_atom_site_fract_z
Si Si1 0.357434 0.966448 0.608864
Si Si2 0.565525 0.179256 0.971495
Si Si3 0.357808 0.546739 0.085196
Si Si4 0.032872 0.770694 0.859728
Si Si5 0.534559 0.285683 0.353240
Si Si6 0.057924 0.333637 0.796292
Si Si7 0.812067 0.830789 0.533603
Si Si8 0.191373 0.508448 0.377360
O O1 0.445964 0.046599 0.824671
O O2 0.343495 0.812810 0.593121
O O3 0.500000 0.000000 0.500000
O O4 0.210477 0.031925 0.519577
O O5 0.594467 0.294222 0.861392
O O6 0.473899 0.233786 0.128653
O O7 0.760806 0.178884 0.068029
O O8 0.183293 0.476503 0.922318
O O9 0.500000 0.500000 0.000000
O O10 0.329099 0.488773 0.257324
O O11 0.946921 0.861088 0.738487
O O12 0.956918 0.628837 0.695058
O O13 0.976375 0.745939 0.046475
O O14 0.370365 0.252720 0.439715
O O15 0.677997 0.427830 0.418095
O O16 0.134978 0.255537 0.639495
O O17 0.897010 0.382076 0.695407
#
# Coordination Sequence:
#
# PCOD9050208 Si02
#       8
#     2   2   2   2   2   2   2   2
#     4  10  24  49  71  93 137 184 236 288 343 399
#     4  12  23  44  72 102 136 183 229 286 347 410
#     4  11  21  36  65 101 136 185 223 273 344 406
#     4  11  25  43  70 110 139 178 228 277 358 414
#     4  11  26  43  73 100 135 184 238 283 340 408
#     4  11  22  42  67  99 150 179 220 278 347 421
#     4  11  26  44  71 103 138 182 233 291 337 411
#     4  11  22  44  68 100 146 187 217 280 351 418
#
# _framework density 26.587451000000001
#
# number of rings (size 3 to 8) (size 9 to 14) (size 15 to 20)
#    0.000    1.000    2.500    4.875    7.000    1.500 
#    0.000    5.000    0.000    0.000    0.000    0.000 
#    0.000    0.000    0.000    0.000    0.000    0.000 
#
# Total GULP energy -89559.376689 kJ/mol
# GULP energy per Si atom -5597.461043 kJ/mol
# Density = 2.652694 g / cm^3
# Si number density = 26.587451 Si / 1000 Ang^3
#
#
#
# Elastic Constant Matrix: (Units=GPa)
#
#
# Indices 1 2 3 4 5 6 
#
# 1 114.3806 31.7654 55.8206 4.3109 -0.3894 -2.3138
# 2 31.7654 70.9172 20.9208 -6.3961 4.9455 -2.1073
# 3 55.8206 20.9208 151.2403 3.8755 -9.0066 -2.0925
# 4 4.3109 -6.3961 3.8755 46.5621 -2.9557 6.0150
# 5 -0.3894 4.9455 -9.0066 -2.9557 58.6787 -0.2876
# 6 -2.3138 -2.1073 -2.0925 6.0150 -0.2876 43.7057
#
#
#
# Elastic Compliance Matrix: (Units=1/GPa)
#
#
# Indices 1 2 3 4 5 6 
#
# 1 0.011823 -0.004296 -0.003738 -0.001443 -0.000204 0.000437
# 2 -0.004296 0.016623 -0.000864 0.002642 -0.001428 0.000160
# 3 -0.003738 -0.000864 0.008201 -0.000402 0.001288 0.000217
# 4 -0.001443 0.002642 -0.000402 0.022453 0.000822 -0.003053
# 5 -0.000204 -0.001428 0.001288 0.000822 0.017400 -0.000017
# 6 0.000437 0.000160 0.000217 -0.003053 -0.000017 0.023342
#
#
# Mechanical properties :
#
#
# Convention : Reuss Voigt Hill
#
# Bulk Modulus (GPa) = 53.05185 61.50575 57.27880
# Shear Modulus (GPa) = 40.34792 44.99139 42.66965
#
# Velocity S-wave (km/s) = 3.89981 4.11810 4.01044
# Velocity P-wave (km/s) = 6.34626 6.76722 6.56012
#
# Compressibility (1/GPa) = 0.01884948
#
# Stress axis : x y z
#
# Youngs Moduli (GPa) = 84.58273 60.15858 121.93084
#
# Poissons Ratio (x) = 0.25843 0.45584
# Poissons Ratio (y) = 0.36334 0.10540
# Poissons Ratio (z) = 0.31621 0.05200
#
# Static dielectric constant tensor:
#      x y z
#    x 2.108820 -0.043270 -0.014390 
#    y -0.043270 2.173430 -0.062760 
#    z -0.014390 -0.062760 2.090550 
# 
# From -- ./inp_files/179226.got.cif
#   From: 2010.05.17/outbox.cif.g08.bks.cpg/sg2_90_cif.got.tgz:179226.got - 2010.06.03 11:33:40.
