data_PCOD9050892
_publ_section_title
;
Structure prediction by ZEFSAII (Michael W. Deem and Ramdas Pophale) SiO2 
 PCOD9050892
Probable space group: P -1
;
_chemical_formula_sum "Si O2"
_cell_formula_units_Z 16
_cell_length_a 13.399286
_cell_length_b 13.895851
_cell_length_c 9.995247
_cell_angle_alpha 67.724081
_cell_angle_beta 143.634375
_cell_angle_gamma 138.822833
_cell_volume 591.038018
_symmetry_space_group_name_H-M "P -1"
_symmetry_group_IT_number 2
_symmetry_cell_setting 'triclinic'
loop_
_space_group_symop_operation_xyz
x,y,z
-x,-y,-z
loop_
_atom_site_type_symbol
_atom_site_label
_atom_site_fract_x
_atom_site_fract_y
_atom_site_fract_z
Si Si1 0.201728 0.960903 0.092017
Si Si2 0.119702 0.443717 0.838769
Si Si3 0.633496 0.660417 0.780968
Si Si4 0.503383 0.094289 0.630293
Si Si5 0.612816 0.377165 0.707460
Si Si6 0.966672 0.883244 0.613772
Si Si7 0.189745 0.834491 0.675714
Si Si8 0.270747 0.580574 0.653597
O O1 0.241593 0.861106 0.138970
O O2 0.388636 0.057777 0.377081
O O3 0.207278 0.013393 0.923185
O O4 0.895033 0.843550 0.883852
O O5 0.324451 0.588477 0.863795
O O6 0.819812 0.346412 0.514457
O O7 0.221991 0.376059 0.001956
O O8 0.136222 0.494874 0.979440
O O9 0.382055 0.544102 0.456846
O O10 0.526475 0.668647 0.789418
O O11 0.583859 0.244317 0.700694
O O12 0.265472 0.921472 0.565489
O O13 0.340932 0.273363 0.561615
O O14 0.992979 0.803203 0.579344
O O15 0.000000 0.000000 0.500000
O O16 0.010070 0.636438 0.570070
O O17 0.500000 0.000000 0.000000
#
# Coordination Sequence:
#
# PCOD9050892 Si02
#       8
#     2   2   2   2   2   2   2   2
#     4  10  25  44  71 104 148 187 239 300 359 428
#     4  11  25  48  70 104 143 189 243 294 352 428
#     4  11  25  48  72 103 147 193 235 299 355 433
#     4  11  23  46  71 109 142 189 243 297 363 422
#     4  11  25  45  72 104 144 189 238 296 364 426
#     4  11  23  42  67 107 140 184 232 293 363 430
#     4  12  23  45  75 102 140 183 237 298 357 424
#     4  11  27  47  74 108 140 190 243 295 364 421
#
# _framework density 27.071014999999999
#
# number of rings (size 3 to 8) (size 9 to 14) (size 15 to 20)
#    0.000    1.000    2.500    3.000    1.750    4.500 
#    6.750    0.000    0.000    0.000    0.000    0.000 
#    0.000    0.000    0.000    0.000    0.000    0.000 
#
# Total GULP energy -89494.323517 kJ/mol
# GULP energy per Si atom -5593.395220 kJ/mol
# Density = 2.700940 g / cm^3
# Si number density = 27.071015 Si / 1000 Ang^3
#
#
#
# Elastic Constant Matrix: (Units=GPa)
#
#
# Indices 1 2 3 4 5 6 
#
# 1 227.6200 54.4128 41.8652 -23.2188 2.8360 2.9273
# 2 54.4128 86.4473 40.3048 -26.3299 -16.6840 15.7043
# 3 41.8652 40.3048 131.6291 -40.8039 -34.7902 -2.3537
# 4 -23.2188 -26.3299 -40.8039 45.6682 11.1872 -2.1819
# 5 2.8360 -16.6840 -34.7902 11.1872 56.1543 -7.4209
# 6 2.9273 15.7043 -2.3537 -2.1819 -7.4209 52.0577
#
#
#
# Elastic Compliance Matrix: (Units=1/GPa)
#
#
# Indices 1 2 3 4 5 6 
#
# 1 0.005430 -0.003211 -0.001134 0.000393 -0.001963 0.000349
# 2 -0.003211 0.017629 -0.001988 0.005953 0.002369 -0.004640
# 3 -0.001134 -0.001988 0.012799 0.008346 0.006058 0.002456
# 4 0.000393 0.005953 0.008346 0.032896 0.000365 -0.000010
# 5 -0.001963 0.002369 0.006058 0.000365 0.022677 0.002918
# 6 0.000349 -0.004640 0.002456 -0.000010 0.002918 0.021116
#
#
# Mechanical properties :
#
#
# Convention : Reuss Voigt Hill
#
# Bulk Modulus (GPa) = 43.12181 79.87356 61.49769
# Shear Modulus (GPa) = 37.60938 51.38362 44.49650
#
# Velocity S-wave (km/s) = 3.73136 4.36145 4.05865
# Velocity P-wave (km/s) = 5.87603 7.41163 6.68805
#
# Compressibility (1/GPa) = 0.02319012
#
# Stress axis : x y z
#
# Youngs Moduli (GPa) = 184.17305 56.72369 78.13154
#
# Poissons Ratio (x) = 0.18215 0.08864
# Poissons Ratio (y) = 0.59142 0.15534
# Poissons Ratio (z) = 0.20894 0.11278
#
# Static dielectric constant tensor:
#      x y z
#    x 2.041340 -0.004460 -0.007730 
#    y -0.004460 2.315260 0.158860 
#    z -0.007730 0.158860 2.223160 
# 
# From -- ./inp_files/272744.got.cif
#   From: 2010.05.17/outbox.cif.g08.bks.cpg/sg2_137_cif.got.tgz:272744.got - 2010.06.03 11:33:40.
