data_PCOD9050064
_publ_section_title
;
Structure prediction by ZEFSAII (Michael W. Deem and Ramdas Pophale) SiO2 
 PCOD9050064
Probable space group: P -1
;
_chemical_formula_sum "Si O2"
_cell_formula_units_Z 16
_cell_length_a 8.731683
_cell_length_b 11.493973
_cell_length_c 21.157677
_cell_angle_alpha 132.613154
_cell_angle_beta 148.823426
_cell_angle_gamma 45.565663
_cell_volume 767.218054
_symmetry_space_group_name_H-M "P -1"
_symmetry_group_IT_number 2
_symmetry_cell_setting 'triclinic'
loop_
_space_group_symop_operation_xyz
x,y,z
-x,-y,-z
loop_
_atom_site_type_symbol
_atom_site_label
_atom_site_fract_x
_atom_site_fract_y
_atom_site_fract_z
Si Si1 0.535819 0.352261 0.804833
Si Si2 0.331359 0.037754 0.624815
Si Si3 0.437956 0.174499 0.483277
Si Si4 0.692593 0.383118 0.729111
Si Si5 0.849622 0.317831 0.413090
Si Si6 0.106928 0.461032 0.374151
Si Si7 0.837129 0.412014 0.056883
Si Si8 0.326040 0.239439 0.260326
O O1 0.686714 0.333360 0.781742
O O2 0.248735 0.524741 0.762082
O O3 0.359579 0.219417 0.713229
O O4 0.778511 0.349875 0.944321
O O5 0.441718 0.993593 0.575229
O O6 0.575832 0.913264 0.713059
O O7 0.000000 0.000000 0.500000
O O8 0.705752 0.225931 0.632382
O O9 0.299540 0.309230 0.429309
O O10 0.151745 0.208662 0.442851
O O11 0.357302 0.522793 0.643069
O O12 0.957088 0.464374 0.834968
O O13 0.919415 0.385897 0.530954
O O14 0.617783 0.216101 0.309215
O O15 0.274045 0.411676 0.346853
O O16 0.029374 0.272346 0.122814
O O17 0.500000 0.500000 0.000000
#
# Coordination Sequence:
#
# PCOD9050064 Si02
#       8
#     2   2   2   2   2   2   2   2
#     4  12  22  40  60  89 131 160 208 254 301 366
#     4  11  27  41  60  94 131 167 198 249 327 384
#     4  10  20  38  64  92 124 160 200 256 325 373
#     4  10  21  38  64  96 122 155 208 268 306 357
#     4  10  17  34  65  95 118 155 205 263 321 358
#     4  10  17  34  61  90 120 157 199 262 307 355
#     4  11  24  39  67  94 115 167 219 259 298 349
#     4  10  22  40  60  90 128 166 205 255 304 372
#
# _framework density 20.854565999999998
#
# number of rings (size 3 to 8) (size 9 to 14) (size 15 to 20)
#    0.000    1.500    3.750    2.250    1.750    3.000 
#    0.000    0.000    0.000    3.750    0.000    0.000 
#    0.000    0.000    0.000    0.000    0.000    0.000 
#
# Total GULP energy -89232.349827 kJ/mol
# GULP energy per Si atom -5577.021864 kJ/mol
# Density = 2.080710 g / cm^3
# Si number density = 20.854566 Si / 1000 Ang^3
#
#
#
# Elastic Constant Matrix: (Units=GPa)
#
#
# Indices 1 2 3 4 5 6 
#
# 1 93.1232 18.8156 46.4621 -9.4991 -5.0447 4.8219
# 2 18.8156 25.9873 32.1197 -12.8329 -12.5398 16.2959
# 3 46.4621 32.1197 128.9706 -26.2825 -16.6560 11.6441
# 4 -9.4991 -12.8329 -26.2825 28.4678 8.7608 -8.7540
# 5 -5.0447 -12.5398 -16.6560 8.7608 44.1705 -9.0526
# 6 4.8219 16.2959 11.6441 -8.7540 -9.0526 28.4875
#
#
#
# Elastic Compliance Matrix: (Units=1/GPa)
#
#
# Indices 1 2 3 4 5 6 
#
# 1 0.013968 -0.009374 -0.003449 -0.001217 -0.001389 0.003593
# 2 -0.009374 0.101179 -0.013847 0.013050 0.011006 -0.043124
# 3 -0.003449 -0.013847 0.013339 0.006355 0.000503 0.005166
# 4 -0.001217 0.013050 0.006355 0.048629 -0.002824 0.004189
# 5 -0.001389 0.011006 0.000503 -0.002824 0.026627 0.001328
# 6 0.003593 -0.043124 0.005166 0.004189 0.001328 0.058761
#
#
# Mechanical properties :
#
#
# Convention : Reuss Voigt Hill
#
# Bulk Modulus (GPa) = 13.30762 49.20844 31.25803
# Shear Modulus (GPa) = 14.66738 30.27073 22.46906
#
# Velocity S-wave (km/s) = 2.65489 3.81401 3.28596
# Velocity P-wave (km/s) = 3.97403 6.56070 5.42382
#
# Compressibility (1/GPa) = 0.07514492
#
# Stress axis : x y z
#
# Youngs Moduli (GPa) = 71.59217 9.88345 74.97072
#
# Poissons Ratio (x) = 0.09265 0.25859
# Poissons Ratio (y) = 0.67112 1.03812
# Poissons Ratio (z) = 0.24693 0.13686
#
# Static dielectric constant tensor:
#      x y z
#    x 1.775000 -0.008120 -0.009150 
#    y -0.008120 1.820900 -0.000400 
#    z -0.009150 -0.000400 1.758670 
# 
# From -- ./inp_files/218314.got.cif
#   From: 2010.05.17/outbox.cif.g08.bks.cpg/sg2_110_cif.got.tgz:218314.got - 2010.06.03 11:33:40.
