data_PCOD9050639
_publ_section_title
;
Structure prediction by ZEFSAII (Michael W. Deem and Ramdas Pophale) SiO2 
 PCOD9050639
Probable space group: P -1
;
_chemical_formula_sum "Si O2"
_cell_formula_units_Z 16
_cell_length_a 8.806043
_cell_length_b 7.780682
_cell_length_c 14.942916
_cell_angle_alpha 95.551383
_cell_angle_beta 139.883915
_cell_angle_gamma 89.467575
_cell_volume 653.259173
_symmetry_space_group_name_H-M "P -1"
_symmetry_group_IT_number 2
_symmetry_cell_setting 'triclinic'
loop_
_space_group_symop_operation_xyz
x,y,z
-x,-y,-z
loop_
_atom_site_type_symbol
_atom_site_label
_atom_site_fract_x
_atom_site_fract_y
_atom_site_fract_z
Si Si1 0.251779 0.471328 0.337182
Si Si2 0.724949 0.864247 0.786077
Si Si3 0.980000 0.776843 0.075165
Si Si4 0.758287 0.370966 0.193915
Si Si5 0.411282 0.641384 0.253578
Si Si6 0.723941 0.313652 0.377280
Si Si7 0.658816 0.730312 0.104913
Si Si8 0.149010 0.160171 0.623322
O O1 0.500000 0.500000 0.500000
O O2 0.212116 0.294408 0.254215
O O3 0.285074 0.635477 0.293941
O O4 0.023838 0.445986 0.294305
O O5 0.441265 0.839857 0.657408
O O6 0.854456 0.044806 0.821443
O O7 0.799230 0.828864 0.919658
O O8 0.160272 0.661270 0.094036
O O9 0.819017 0.718999 0.086728
O O10 0.754242 0.286722 0.284516
O O11 0.628343 0.548316 0.137890
O O12 0.604930 0.245819 0.048420
O O13 0.563542 0.475845 0.317687
O O14 0.605040 0.787504 0.314045
O O15 0.978819 0.315830 0.538447
O O16 0.786772 0.856979 0.243786
O O17 0.000000 0.000000 0.500000
#
# Coordination Sequence:
#
# PCOD9050639 Si02
#       8
#     2   2   2   2   2   2   2   2
#     4  11  25  41  68 103 135 181 233 286 347 410
#     4  10  25  43  69 100 143 185 226 288 358 417
#     4  11  23  46  68 104 140 181 232 289 355 414
#     4  11  23  44  70 106 137 174 244 291 339 399
#     4  11  24  41  73  97 135 183 235 284 341 414
#     4  11  23  45  71 101 141 184 234 284 346 415
#     4  11  25  43  71 105 135 184 234 295 335 414
#     4  12  27  46  69 105 146 186 225 283 361 419
#
# _framework density 24.492578000000002
#
# number of rings (size 3 to 8) (size 9 to 14) (size 15 to 20)
#    0.000    1.000    3.750    1.875    5.250    4.000 
#    0.000    3.125    0.000    0.000    0.000    0.000 
#    0.000    0.000    0.000    0.000    0.000    0.000 
#
# Total GULP energy -89219.578959 kJ/mol
# GULP energy per Si atom -5576.223685 kJ/mol
# Density = 2.443683 g / cm^3
# Si number density = 24.492578 Si / 1000 Ang^3
#
#
#
# Elastic Constant Matrix: (Units=GPa)
#
#
# Indices 1 2 3 4 5 6 
#
# 1 119.9439 31.1552 55.7185 9.2121 16.2158 19.1320
# 2 31.1552 73.5030 9.7764 14.2616 -11.8294 1.6624
# 3 55.7185 9.7764 120.6884 17.7897 2.6307 5.9376
# 4 9.2121 14.2616 17.7897 34.4333 -2.3070 5.1063
# 5 16.2158 -11.8294 2.6307 -2.3070 46.1264 9.4651
# 6 19.1320 1.6624 5.9376 5.1063 9.4651 24.8221
#
#
#
# Elastic Compliance Matrix: (Units=1/GPa)
#
#
# Indices 1 2 3 4 5 6 
#
# 1 0.014567 -0.006471 -0.006118 0.002844 -0.004616 -0.008156
# 2 -0.006471 0.018312 0.002286 -0.006982 0.006007 0.002360
# 3 -0.006118 0.002286 0.011599 -0.005578 0.001296 0.002441
# 4 0.002844 -0.006982 -0.005578 0.035305 0.000937 -0.008010
# 5 -0.004616 0.006007 0.001296 0.000937 0.026332 -0.007388
# 6 -0.008156 0.002360 0.002441 -0.008010 -0.007388 0.050296
#
#
# Mechanical properties :
#
#
# Convention : Reuss Voigt Hill
#
# Bulk Modulus (GPa) = 41.89080 56.38171 49.13626
# Shear Modulus (GPa) = 27.03105 35.57538 31.30321
#
# Velocity S-wave (km/s) = 3.32572 3.81530 3.57889
# Velocity P-wave (km/s) = 5.64693 6.51756 6.09780
#
# Compressibility (1/GPa) = 0.02387159
#
# Stress axis : x y z
#
# Youngs Moduli (GPa) = 68.65032 54.61034 86.21392
#
# Poissons Ratio (x) = 0.35337 0.52747
# Poissons Ratio (y) = 0.44421 -0.19709
# Poissons Ratio (z) = 0.42002 -0.12484
#
# Static dielectric constant tensor:
#      x y z
#    x 1.962980 0.132040 -0.172530 
#    y 0.132040 0.670610 1.152520 
#    z -0.172530 1.152520 1.060340 
# 
# From -- ./inp_files/495104.got.cif
#   From: 2010.05.17/outbox.cif.g08.bks.cpg/sg2_248_cif.got.tgz:495104.got - 2010.06.03 11:33:40.
