data_PCOD9050054
_publ_section_title
;
Structure prediction by ZEFSAII (Michael W. Deem and Ramdas Pophale) SiO2 
 PCOD9050054
Probable space group: P -1
;
_chemical_formula_sum "Si O2"
_cell_formula_units_Z 13
_cell_length_a 16.942234
_cell_length_b 12.468093
_cell_length_c 4.778194
_cell_angle_alpha 106.049090
_cell_angle_beta 72.061226
_cell_angle_gamma 149.013956
_cell_volume 494.213976
_symmetry_space_group_name_H-M "P -1"
_symmetry_group_IT_number 2
_symmetry_cell_setting 'triclinic'
loop_
_space_group_symop_operation_xyz
x,y,z
-x,-y,-z
loop_
_atom_site_type_symbol
_atom_site_label
_atom_site_fract_x
_atom_site_fract_y
_atom_site_fract_z
Si Si1 0.652303 0.682926 0.659526
Si Si2 0.000000 0.000000 0.500000
Si Si3 0.856383 0.665224 0.853370
Si Si4 0.398344 0.990210 0.668487
Si Si5 0.205417 0.756747 0.208602
Si Si6 0.531164 0.350710 0.933456
Si Si7 0.059709 0.380029 0.791951
O O1 0.500000 0.500000 0.500000
O O2 0.823567 0.848972 0.492397
O O3 0.609970 0.545076 0.840682
O O4 0.627297 0.781400 0.860574
O O5 0.922536 0.845012 0.741749
O O6 0.680715 0.474631 0.025998
O O7 0.857877 0.572903 0.541248
O O8 0.959724 0.748807 0.071449
O O9 0.239920 0.799561 0.529755
O O10 0.500000 0.000000 0.500000
O O11 0.482823 0.200863 0.660481
O O12 0.363845 0.955984 0.010736
O O13 0.088926 0.722060 0.226604
O O14 0.147517 0.571900 0.022804
#
# Coordination Sequence:
#
# PCOD9050054 Si02
#       7
#     2   1   2   2   2   2   2
#     4  10  24  48  74 106 146 196 245 317 375 448
#     4  10  26  48  74 116 146 190 264 308 384 456
#     4  11  25  45  75 104 146 196 239 317 373 450
#     4  12  25  42  70 105 146 195 246 305 373 453
#     4  11  25  43  67 106 142 194 249 305 362 454
#     4  10  25  44  70 106 147 189 249 306 376 446
#     4  11  24  45  70 101 149 191 247 305 379 440
#
# _framework density 26.304393999999998
#
# number of rings (size 3 to 8) (size 9 to 14) (size 15 to 20)
#    0.000    1.231    0.000    4.154    8.615    4.308 
#    2.769    0.000    0.000    0.000    0.000    0.000 
#    0.000    0.000    0.000    0.000    0.000    0.000 
#
# Total GULP energy -72501.444789 kJ/mol
# GULP energy per Si atom -5577.034215 kJ/mol
# Density = 2.624452 g / cm^3
# Si number density = 26.304394 Si / 1000 Ang^3
#
#
#
# Elastic Constant Matrix: (Units=GPa)
#
#
# Indices 1 2 3 4 5 6 
#
# 1 148.8812 47.7315 40.9836 -6.1443 -2.5710 25.0637
# 2 47.7315 107.0346 31.8302 -8.1971 -20.3770 25.9504
# 3 40.9836 31.8302 85.9719 1.6719 -1.0386 10.8113
# 4 -6.1443 -8.1971 1.6719 43.8636 4.4660 -0.0359
# 5 -2.5710 -20.3770 -1.0386 4.4660 49.6887 -5.8003
# 6 25.0637 25.9504 10.8113 -0.0359 -5.8003 47.9487
#
#
#
# Elastic Compliance Matrix: (Units=1/GPa)
#
#
# Indices 1 2 3 4 5 6 
#
# 1 0.008817 -0.002519 -0.002962 0.000981 -0.001042 -0.002703
# 2 -0.002519 0.013603 -0.003217 0.001833 0.004661 -0.004755
# 3 -0.002962 -0.003217 0.014257 -0.001453 -0.001050 -0.000053
# 4 0.000981 0.001833 -0.001453 0.023485 -0.001495 -0.001341
# 5 -0.001042 0.004661 -0.001050 -0.001495 0.022206 0.000944
# 6 -0.002703 -0.004755 -0.000053 -0.001341 0.000944 0.024967
#
#
# Mechanical properties :
#
#
# Convention : Reuss Voigt Hill
#
# Bulk Modulus (GPa) = 51.86444 64.77535 58.31989
# Shear Modulus (GPa) = 38.12150 43.05638 40.58894
#
# Velocity S-wave (km/s) = 3.81102 4.05019 3.93243
# Velocity P-wave (km/s) = 6.25500 6.82282 6.54507
#
# Compressibility (1/GPa) = 0.01928104
#
# Stress axis : x y z
#
# Youngs Moduli (GPa) = 113.41191 73.51052 70.13965
#
# Poissons Ratio (x) = 0.18518 0.20778
# Poissons Ratio (y) = 0.28569 0.22565
# Poissons Ratio (z) = 0.33598 0.23649
#
# Static dielectric constant tensor:
#      x y z
#    x 2.132020 -0.037800 -0.044810 
#    y -0.037800 2.087190 0.015230 
#    z -0.044810 0.015230 1.956120 
# 
# From -- ./inp_files/95278.got.cif
#   From: 2010.05.17/outbox.cif.g08.bks.cpg/sg2_48_cif.got.tgz:95278.got - 2010.06.03 11:33:40.
