data_PCOD9050701
_publ_section_title
;
Structure prediction by ZEFSAII (Michael W. Deem and Ramdas Pophale) SiO2 
 PCOD9050701
Probable space group: P -1
;
_chemical_formula_sum "Si O2"
_cell_formula_units_Z 15
_cell_length_a 15.895159
_cell_length_b 8.335002
_cell_length_c 4.999196
_cell_angle_alpha 62.834481
_cell_angle_beta 100.754575
_cell_angle_gamma 102.346409
_cell_volume 572.611433
_symmetry_space_group_name_H-M "P -1"
_symmetry_group_IT_number 2
_symmetry_cell_setting 'triclinic'
loop_
_space_group_symop_operation_xyz
x,y,z
-x,-y,-z
loop_
_atom_site_type_symbol
_atom_site_label
_atom_site_fract_x
_atom_site_fract_y
_atom_site_fract_z
Si Si1 0.000000 0.000000 0.500000
Si Si2 0.723897 0.172720 0.651168
Si Si3 0.582032 0.925435 0.468755
Si Si4 0.872850 0.158796 0.099370
Si Si5 0.967547 0.695622 0.270445
Si Si6 0.806565 0.488741 0.082669
Si Si7 0.553493 0.693114 0.109737
Si Si8 0.367122 0.573629 0.259901
O O1 0.966066 0.815059 0.440769
O O2 0.103002 0.959352 0.551168
O O3 0.793418 0.079269 0.928396
O O4 0.775286 0.354043 0.411623
O O5 0.657951 0.242134 0.767092
O O6 0.669189 0.061629 0.472899
O O7 0.567197 0.856518 0.212111
O O8 0.500000 0.000000 0.500000
O O9 0.589259 0.754931 0.797049
O O10 0.967391 0.182583 0.992468
O O11 0.855579 0.358610 0.022296
O O12 0.874915 0.649961 0.111111
O O13 0.000000 0.500000 0.500000
O O14 0.720289 0.523300 0.855196
O O15 0.450672 0.629018 0.082390
O O16 0.600371 0.540757 0.392535
#
# Coordination Sequence:
#
# PCOD9050701 Si02
#       8
#     1   2   2   2   2   2   2   2
#     4  12  26  42  74 104 140 184 246 298 366 450
#     4  11  24  43  70 102 141 186 244 294 371 438
#     4  12  25  44  71 103 145 192 242 302 370 436
#     4  11  24  46  68 104 139 190 238 307 362 446
#     4  12  24  47  73 103 142 191 241 302 375 443
#     4  11  24  44  75  99 140 189 243 301 375 443
#     4  11  26  46  71 106 147 192 245 303 368 441
#     4  10  25  43  72 103 140 187 240 300 362 444
#
# _framework density 26.195778000000001
#
# number of rings (size 3 to 8) (size 9 to 14) (size 15 to 20)
#    0.000    0.800    4.000    2.000    5.600    2.133 
#    2.400    0.000    0.000    0.000    0.000    0.000 
#    0.000    0.000    0.000    0.000    0.000    0.000 
#
# Total GULP energy -83917.965712 kJ/mol
# GULP energy per Si atom -5594.531047 kJ/mol
# Density = 2.613615 g / cm^3
# Si number density = 26.195778 Si / 1000 Ang^3
#
#
#
# Elastic Constant Matrix: (Units=GPa)
#
#
# Indices 1 2 3 4 5 6 
#
# 1 138.3992 58.3490 38.8428 9.8550 47.0230 10.3137
# 2 58.3490 161.5013 25.4091 33.7226 20.6842 11.7388
# 3 38.8428 25.4091 76.5373 10.3643 14.4371 14.2248
# 4 9.8550 33.7226 10.3643 46.1793 14.3002 5.9197
# 5 47.0230 20.6842 14.4371 14.3002 50.7887 11.5770
# 6 10.3137 11.7388 14.2248 5.9197 11.5770 25.6865
#
#
#
# Elastic Compliance Matrix: (Units=1/GPa)
#
#
# Indices 1 2 3 4 5 6 
#
# 1 0.013467 -0.003747 -0.004541 0.004047 -0.011490 0.003066
# 2 -0.003747 0.008683 -0.000220 -0.005893 0.002094 -0.001928
# 3 -0.004541 -0.000220 0.016825 -0.002246 0.001907 -0.007736
# 4 0.004047 -0.005893 -0.002246 0.028305 -0.008602 -0.000335
# 5 -0.011490 0.002094 0.001907 -0.008602 0.033780 -0.010642
# 6 0.003066 -0.001928 -0.007736 -0.000335 -0.010642 0.047738
#
#
# Mechanical properties :
#
#
# Convention : Reuss Voigt Hill
#
# Bulk Modulus (GPa) = 45.53915 69.07108 57.30511
# Shear Modulus (GPa) = 28.87944 41.45338 35.16641
#
# Velocity S-wave (km/s) = 3.32391 3.98231 3.66791
# Velocity P-wave (km/s) = 5.67037 6.89707 6.31358
#
# Compressibility (1/GPa) = 0.02195913
#
# Stress axis : x y z
#
# Youngs Moduli (GPa) = 74.25563 115.17147 59.43508
#
# Poissons Ratio (x) = 0.43159 0.26989
# Poissons Ratio (y) = 0.27826 0.01305
# Poissons Ratio (z) = 0.33719 0.02528
#
# Static dielectric constant tensor:
#      x y z
#    x 2.035000 -0.032320 -0.040920 
#    y -0.032320 2.060480 0.023770 
#    z -0.040920 0.023770 1.768930 
# 
# From -- ./inp_files/89956.got.cif
#   From: 2010.05.17/outbox.cif.g08.bks.cpg/sg2_45_cif.got.tgz:89956.got - 2010.06.03 11:33:40.
