data_PCOD9050030
_publ_section_title
;
Structure prediction by ZEFSAII (Michael W. Deem and Ramdas Pophale) SiO2 
 PCOD9050030
Probable space group: P -1
;
_chemical_formula_sum "Si O2"
_cell_formula_units_Z 13
_cell_length_a 7.370242
_cell_length_b 9.023957
_cell_length_c 13.231574
_cell_angle_alpha 132.501229
_cell_angle_beta 56.691338
_cell_angle_gamma 128.990308
_cell_volume 492.322691
_symmetry_space_group_name_H-M "P -1"
_symmetry_group_IT_number 2
_symmetry_cell_setting 'triclinic'
loop_
_space_group_symop_operation_xyz
x,y,z
-x,-y,-z
loop_
_atom_site_type_symbol
_atom_site_label
_atom_site_fract_x
_atom_site_fract_y
_atom_site_fract_z
Si Si1 0.270600 0.031660 0.198242
Si Si2 0.058306 0.527335 0.374761
Si Si3 0.537673 0.626424 0.151648
Si Si4 0.716620 0.479271 0.213357
Si Si5 0.095341 0.938238 0.837834
Si Si6 0.725914 0.728007 0.503591
Si Si7 0.000000 0.500000 0.000000
O O1 0.517457 0.239832 0.188095
O O2 0.262817 0.072384 0.339542
O O3 0.089690 0.088499 0.208786
O O4 0.201030 0.779565 0.078349
O O5 0.319236 0.572812 0.271686
O O6 0.000000 0.500000 0.500000
O O7 0.887066 0.293292 0.270138
O O8 0.969132 0.707090 0.448208
O O9 0.726288 0.560057 0.128484
O O10 0.661052 0.876395 0.192922
O O11 0.500000 0.500000 0.000000
O O12 0.704139 0.683992 0.370958
O O13 0.973390 0.479814 0.126240
O O14 0.000000 0.000000 0.000000
O O15 0.500000 0.500000 0.500000
#
# Coordination Sequence:
#
# PCOD9050030 Si02
#       7
#     2   2   2   2   2   2   1
#     4  11  23  49  68 104 145 195 245 306 362 444
#     4  12  24  47  77 107 147 199 244 305 376 437
#     4  12  25  47  76 112 146 195 252 306 374 448
#     4  11  24  45  73 103 149 189 243 307 367 442
#     4  12  24  45  75 104 150 191 248 313 366 441
#     4  10  24  48  73 104 149 194 241 304 374 445
#     4  12  26  40  72 102 146 190 242 288 382 424
#
# _framework density 26.405445
#
# number of rings (size 3 to 8) (size 9 to 14) (size 15 to 20)
#    0.000    0.615    6.154    1.385    4.308    1.231 
#    5.538    0.000    0.000    0.000    0.000    0.000 
#    0.000    0.000    0.000    0.000    0.000    0.000 
#
# Total GULP energy -72488.653049 kJ/mol
# GULP energy per Si atom -5576.050235 kJ/mol
# Density = 2.634535 g / cm^3
# Si number density = 26.405445 Si / 1000 Ang^3
#
#
#
# Elastic Constant Matrix: (Units=GPa)
#
#
# Indices 1 2 3 4 5 6 
#
# 1 95.6640 12.8408 38.5465 -20.0464 2.6917 7.4893
# 2 12.8408 156.1727 68.7619 -8.3840 -2.0088 24.3806
# 3 38.5465 68.7619 222.0884 -18.6632 17.6242 7.7782
# 4 -20.0464 -8.3840 -18.6632 48.0842 -4.1995 -2.5749
# 5 2.6917 -2.0088 17.6242 -4.1995 43.8611 -8.9624
# 6 7.4893 24.3806 7.7782 -2.5749 -8.9624 39.3943
#
#
#
# Elastic Compliance Matrix: (Units=1/GPa)
#
#
# Indices 1 2 3 4 5 6 
#
# 1 0.012186 0.000307 -0.001781 0.004344 0.000016 -0.001867
# 2 0.000307 0.008180 -0.002429 0.000409 0.000449 -0.004512
# 3 -0.001781 -0.002429 0.005806 0.000909 -0.002195 0.000256
# 4 0.004344 0.000409 0.000909 0.023220 0.001744 0.000656
# 5 0.000016 0.000449 -0.002195 0.001744 0.025089 0.005974
# 6 -0.001867 -0.004512 0.000256 0.000656 0.005974 0.029884
#
#
# Mechanical properties :
#
#
# Convention : Reuss Voigt Hill
#
# Bulk Modulus (GPa) = 54.45108 79.35814 66.90461
# Shear Modulus (GPa) = 42.26904 49.85298 46.06101
#
# Velocity S-wave (km/s) = 4.00530 4.34980 4.18110
# Velocity P-wave (km/s) = 6.48505 7.43953 6.97863
#
# Compressibility (1/GPa) = 0.01836511
#
# Stress axis : x y z
#
# Youngs Moduli (GPa) = 82.06387 122.25628 172.24834
#
# Poissons Ratio (x) = -0.03755 0.30676
# Poissons Ratio (y) = -0.02521 0.41840
# Poissons Ratio (z) = 0.14615 0.29697
#
# Static dielectric constant tensor:
#      x y z
#    x 2.198740 -0.008520 -0.037750 
#    y -0.008520 2.193800 -0.093850 
#    z -0.037750 -0.093850 2.226000 
# 
# From -- ./inp_files/380526.got.cif
#   From: 2010.05.17/outbox.cif.g08.bks.cpg/sg2_191_cif.got.tgz:380526.got - 2010.06.03 11:33:40.
