data_PCOD9050143
_publ_section_title
;
Structure prediction by ZEFSAII (Michael W. Deem and Ramdas Pophale) SiO2 
 PCOD9050143
Probable space group: P -1
;
_chemical_formula_sum "Si O2"
_cell_formula_units_Z 12
_cell_length_a 5.219587
_cell_length_b 7.459690
_cell_length_c 16.752138
_cell_angle_alpha 58.766548
_cell_angle_beta 100.750648
_cell_angle_gamma 71.680575
_cell_volume 477.868650
_symmetry_space_group_name_H-M "P -1"
_symmetry_group_IT_number 2
_symmetry_cell_setting 'triclinic'
loop_
_space_group_symop_operation_xyz
x,y,z
-x,-y,-z
loop_
_atom_site_type_symbol
_atom_site_label
_atom_site_fract_x
_atom_site_fract_y
_atom_site_fract_z
Si Si1 0.887213 0.218877 0.504700
Si Si2 0.652853 0.381283 0.119671
Si Si3 0.344512 0.873797 0.071613
Si Si4 0.772466 0.923891 0.688290
Si Si5 0.779582 0.586770 0.621881
Si Si6 0.366615 0.105208 0.759983
O O1 0.536664 0.388450 0.425193
O O2 0.084054 0.338760 0.462568
O O3 0.902790 0.086378 0.619259
O O4 0.000000 0.000000 0.500000
O O5 0.487337 0.593407 0.124304
O O6 0.001018 0.268754 0.189872
O O7 0.615202 0.149901 0.174507
O O8 0.500000 0.500000 0.000000
O O9 0.401357 0.894170 0.162617
O O10 0.500000 0.000000 0.000000
O O11 0.000000 0.000000 0.000000
O O12 0.729616 0.772067 0.649243
O O13 0.479912 0.104051 0.677876
O O14 0.044954 0.321397 0.717341
#
# Coordination Sequence:
#
# PCOD9050143 Si02
#       6
#     2   2   2   2   2   2
#     4  10  24  48  78 112 155 207 255 324 386 455
#     4  12  27  49  77 112 157 199 260 321 385 463
#     4  12  28  52  78 109 157 206 260 323 385 457
#     4  11  26  46  77 111 155 205 261 319 388 461
#     4  11  26  49  78 113 159 202 260 320 390 460
#     4  12  29  46  81 116 155 210 260 320 395 462
#
# _framework density 25.111502000000002
#
# number of rings (size 3 to 8) (size 9 to 14) (size 15 to 20)
#    0.000    0.667    3.333    3.000   11.667    2.667 
#    0.000    0.000    0.000    0.000    0.000    0.000 
#    0.000    0.000    0.000    0.000    0.000    0.000 
#
# Total GULP energy -67231.615708 kJ/mol
# GULP energy per Si atom -5602.634642 kJ/mol
# Density = 2.505435 g / cm^3
# Si number density = 25.111502 Si / 1000 Ang^3
#
#
#
# Elastic Constant Matrix: (Units=GPa)
#
#
# Indices 1 2 3 4 5 6 
#
# 1 111.1095 47.9508 54.0151 -2.2506 18.1489 -17.1442
# 2 47.9508 186.0355 44.9458 -2.0881 9.0211 4.3551
# 3 54.0151 44.9458 143.5724 8.0771 23.0120 -1.9213
# 4 -2.2506 -2.0881 8.0771 50.8296 -3.1100 1.0410
# 5 18.1489 9.0211 23.0120 -3.1100 55.3369 -5.9826
# 6 -17.1442 4.3551 -1.9213 1.0410 -5.9826 40.6409
#
#
#
# Elastic Compliance Matrix: (Units=1/GPa)
#
#
# Indices 1 2 3 4 5 6 
#
# 1 0.013044 -0.002467 -0.003849 0.000878 -0.001651 0.005319
# 2 -0.002467 0.006321 -0.001106 0.000367 0.000068 -0.001770
# 3 -0.003849 -0.001106 0.009271 -0.001823 -0.002668 -0.001413
# 4 0.000878 0.000367 -0.001823 0.020112 0.001536 -0.000044
# 5 -0.001651 0.000068 -0.002668 0.001536 0.020022 0.002078
# 6 0.005319 -0.001770 -0.001413 -0.000044 0.002078 0.027280
#
#
# Mechanical properties :
#
#
# Convention : Reuss Voigt Hill
#
# Bulk Modulus (GPa) = 72.50387 81.61563 77.05975
# Shear Modulus (GPa) = 43.29409 48.94853 46.12131
#
# Velocity S-wave (km/s) = 4.15670 4.41982 4.29028
# Velocity P-wave (km/s) = 7.20923 7.65625 7.43610
#
# Compressibility (1/GPa) = 0.01379237
#
# Stress axis : x y z
#
# Youngs Moduli (GPa) = 76.66326 158.21392 107.86839
#
# Poissons Ratio (x) = 0.39029 0.41516
# Poissons Ratio (y) = 0.18912 0.11927
# Poissons Ratio (z) = 0.29506 0.17494
#
# Static dielectric constant tensor:
#      x y z
#    x 2.023490 -0.007590 0.016660 
#    y -0.007590 1.928190 0.041010 
#    z 0.016660 0.041010 2.065870 
# 
# From -- ./inp_files/546148.got.cif
#   From: 2010.05.17/outbox.cif.g08.bks.cpg/sg2_274_cif.got.tgz:546148.got - 2010.06.03 11:33:40.
