data_PCOD9050922
_publ_section_title
;
Structure prediction by ZEFSAII (Michael W. Deem and Ramdas Pophale) SiO2 
 PCOD9050922
Probable space group: P -1
;
_chemical_formula_sum "Si O2"
_cell_formula_units_Z 16
_cell_length_a 11.608719
_cell_length_b 13.332771
_cell_length_c 14.506280
_cell_angle_alpha 31.580992
_cell_angle_beta 132.020442
_cell_angle_gamma 146.525742
_cell_volume 641.913822
_symmetry_space_group_name_H-M "P -1"
_symmetry_group_IT_number 2
_symmetry_cell_setting 'triclinic'
loop_
_space_group_symop_operation_xyz
x,y,z
-x,-y,-z
loop_
_atom_site_type_symbol
_atom_site_label
_atom_site_fract_x
_atom_site_fract_y
_atom_site_fract_z
Si Si1 0.331612 0.757388 0.324141
Si Si2 0.414437 0.962037 0.584734
Si Si3 0.146962 0.596471 0.090690
Si Si4 0.323333 0.459639 0.996953
Si Si5 0.155281 0.943419 0.967122
Si Si6 0.665225 0.780017 0.419807
Si Si7 0.569446 0.471519 0.784207
Si Si8 0.987341 0.789043 0.515474
O O1 0.230278 0.872531 0.148150
O O2 0.545935 0.882077 0.283482
O O3 0.164530 0.454975 0.444210
O O4 0.403350 0.818821 0.419667
O O5 0.331970 0.692548 0.794076
O O6 0.222879 0.950430 0.482982
O O7 0.500000 0.000000 0.500000
O O8 0.177249 0.815325 0.992952
O O9 0.354889 0.664431 0.114246
O O10 0.037722 0.352879 0.292108
O O11 0.000000 0.500000 0.000000
O O12 0.086883 0.196465 0.051102
O O13 0.500000 0.500000 0.000000
O O14 0.366305 0.471679 0.119404
O O15 0.317811 0.253704 0.809792
O O16 0.500000 0.500000 0.500000
O O17 0.669861 0.710667 0.582045
O O18 0.886080 0.912171 0.386219
#
# Coordination Sequence:
#
# PCOD9050922 Si02
#       8
#     2   2   2   2   2   2   2   2
#     4  10  21  42  69  92 134 170 209 270 333 390
#     4  12  25  44  69  94 126 182 234 266 324 395
#     4  10  17  34  65  96 130 162 204 263 330 398
#     4  12  27  48  65  95 137 169 235 287 319 386
#     4  11  22  43  69  96 129 178 213 273 335 399
#     4   9  21  42  65 105 140 165 206 275 330 405
#     4  11  22  42  70  99 132 174 217 268 342 399
#     4   9  20  42  62  94 137 165 209 267 328 389
#
# _framework density 24.925466
#
# number of rings (size 3 to 8) (size 9 to 14) (size 15 to 20)
#    0.000    1.500    5.000    1.125    1.750    1.500 
#    4.500    0.000    0.000    0.000    0.000    0.000 
#    0.000    0.000    0.000    0.000    0.000    0.000 
#
# Total GULP energy -89673.368788 kJ/mol
# GULP energy per Si atom -5604.585549 kJ/mol
# Density = 2.486873 g / cm^3
# Si number density = 24.925466 Si / 1000 Ang^3
#
#
#
# Elastic Constant Matrix: (Units=GPa)
#
#
# Indices 1 2 3 4 5 6 
#
# 1 154.0627 64.4822 29.8956 17.2733 -19.3612 26.2080
# 2 64.4822 155.1977 24.6749 22.5223 -18.3575 22.8348
# 3 29.8956 24.6749 103.4345 13.0937 -3.4758 5.1463
# 4 17.2733 22.5223 13.0937 33.8944 -7.7581 -0.1480
# 5 -19.3612 -18.3575 -3.4758 -7.7581 38.8751 8.6428
# 6 26.2080 22.8348 5.1463 -0.1480 8.6428 42.3119
#
#
#
# Elastic Compliance Matrix: (Units=1/GPa)
#
#
# Indices 1 2 3 4 5 6 
#
# 1 0.009318 -0.002055 -0.001561 -0.001805 0.004365 -0.005371
# 2 -0.002055 0.008986 -0.000737 -0.003901 0.003303 -0.004175
# 3 -0.001561 -0.000737 0.010637 -0.003012 -0.000826 0.000229
# 4 -0.001805 -0.003901 -0.003012 0.034945 0.003288 0.003040
# 5 0.004365 0.003303 -0.000826 0.003288 0.032487 -0.011010
# 6 -0.005371 -0.004175 0.000229 0.003040 -0.011010 0.031446
#
#
# Mechanical properties :
#
#
# Convention : Reuss Voigt Hill
#
# Bulk Modulus (GPa) = 49.41846 72.31116 60.86481
# Shear Modulus (GPa) = 34.89933 42.59242 38.74587
#
# Velocity S-wave (km/s) = 3.74591 4.13824 3.94695
# Velocity P-wave (km/s) = 6.21117 7.20467 6.72629
#
# Compressibility (1/GPa) = 0.02023535
#
# Stress axis : x y z
#
# Youngs Moduli (GPa) = 107.31501 111.28927 94.01134
#
# Poissons Ratio (x) = 0.22871 0.14672
# Poissons Ratio (y) = 0.22054 0.06929
# Poissons Ratio (z) = 0.16748 0.08202
#
# Static dielectric constant tensor:
#      x y z
#    x 1.933120 0.008640 0.031230 
#    y 0.008640 2.026610 -0.036910 
#    z 0.031230 -0.036910 2.042410 
# 
# From -- ./inp_files/521473.got.cif
#   From: 2010.05.17/outbox.cif.g08.bks.cpg/sg2_261_cif.got.tgz:521473.got - 2010.06.03 11:33:40.
