data_PCOD9050573
_publ_section_title
;
Structure prediction by ZEFSAII (Michael W. Deem and Ramdas Pophale) SiO2 
 PCOD9050573
Probable space group: P -1
;
_chemical_formula_sum "Si O2"
_cell_formula_units_Z 16
_cell_length_a 10.009554
_cell_length_b 13.114616
_cell_length_c 15.171132
_cell_angle_alpha 106.828800
_cell_angle_beta 123.591310
_cell_angle_gamma 32.467540
_cell_volume 817.596614
_symmetry_space_group_name_H-M "P -1"
_symmetry_group_IT_number 2
_symmetry_cell_setting 'triclinic'
loop_
_space_group_symop_operation_xyz
x,y,z
-x,-y,-z
loop_
_atom_site_type_symbol
_atom_site_label
_atom_site_fract_x
_atom_site_fract_y
_atom_site_fract_z
Si Si1 0.750792 0.053604 0.148672
Si Si2 0.114372 0.314440 0.987269
Si Si3 0.330046 0.901842 0.665784
Si Si4 0.681693 0.447858 0.134971
Si Si5 0.655847 0.160414 0.946126
Si Si6 0.731775 0.884372 0.834900
Si Si7 0.352892 0.576079 0.226809
Si Si8 0.652958 0.330476 0.446535
O O1 0.716489 0.109442 0.251598
O O2 0.485731 0.112397 0.059136
O O3 0.665261 0.168091 0.058068
O O4 0.105755 0.812961 0.207470
O O5 0.891483 0.383138 0.854758
O O6 0.066228 0.277820 0.050952
O O7 0.000000 0.500000 0.000000
O O8 0.509633 0.911811 0.738005
O O9 0.477655 0.716449 0.622772
O O10 0.004373 0.113046 0.552692
O O11 0.598469 0.619882 0.136837
O O12 0.543608 0.483516 0.184004
O O13 0.043046 0.220936 0.191318
O O14 0.500000 0.500000 0.000000
O O15 0.602450 0.068612 0.873396
O O16 0.000000 0.000000 0.000000
O O17 0.592820 0.420310 0.353515
O O18 0.500000 0.500000 0.500000
#
# Coordination Sequence:
#
# PCOD9050573 Si02
#       8
#     2   2   2   2   2   2   2   2
#     4  11  21  36  61  90 130 156 206 255 313 384
#     4  11  21  34  56  94 127 158 200 255 324 379
#     4  10  25  43  64  96 119 161 216 264 319 364
#     4  12  23  39  59  91 134 168 209 242 304 386
#     4  12  22  36  59  94 134 172 200 244 312 384
#     4  11  23  40  60  92 132 165 205 257 311 375
#     4  12  22  38  60  93 122 167 207 253 318 368
#     4  11  24  44  68  90 121 163 213 271 316 366
#
# _framework density 19.569552000000002
#
# number of rings (size 3 to 8) (size 9 to 14) (size 15 to 20)
#    0.000    0.750    6.250    2.625    3.500    1.000 
#    0.000    0.625    0.000    1.500    0.000    0.000 
#    0.000    0.000    0.000    0.000    0.000    0.000 
#
# Total GULP energy -89237.401510 kJ/mol
# GULP energy per Si atom -5577.337594 kJ/mol
# Density = 1.952501 g / cm^3
# Si number density = 19.569552 Si / 1000 Ang^3
#
#
#
# Elastic Constant Matrix: (Units=GPa)
#
#
# Indices 1 2 3 4 5 6 
#
# 1 81.4374 23.6323 42.1443 12.3518 -11.8611 -8.0649
# 2 23.6323 97.0044 33.7525 15.2131 -5.6440 15.6714
# 3 42.1443 33.7525 115.1623 3.7465 -12.7276 1.2017
# 4 12.3518 15.2131 3.7465 31.2448 6.8537 4.2964
# 5 -11.8611 -5.6440 -12.7276 6.8537 31.0077 5.7379
# 6 -8.0649 15.6714 1.2017 4.2964 5.7379 38.9407
#
#
#
# Elastic Compliance Matrix: (Units=1/GPa)
#
#
# Indices 1 2 3 4 5 6 
#
# 1 0.017826 -0.001834 -0.005236 -0.007281 0.005086 0.004645
# 2 -0.001834 0.013650 -0.002775 -0.005450 0.002887 -0.005612
# 3 -0.005236 -0.002775 0.011590 0.001699 0.002024 -0.000811
# 4 -0.007281 -0.005450 0.001699 0.040159 -0.011569 -0.002093
# 5 0.005086 0.002887 0.002024 -0.011569 0.038967 -0.004637
# 6 0.004645 -0.005612 -0.000811 -0.002093 -0.004637 0.029840
#
#
# Mechanical properties :
#
#
# Convention : Reuss Voigt Hill
#
# Bulk Modulus (GPa) = 42.77581 54.74025 48.75803
# Shear Modulus (GPa) = 27.85324 33.17698 30.51511
#
# Velocity S-wave (km/s) = 3.77675 4.12191 3.95310
# Velocity P-wave (km/s) = 6.39721 7.11944 6.76797
#
# Compressibility (1/GPa) = 0.02337770
#
# Stress axis : x y z
#
# Youngs Moduli (GPa) = 56.09777 73.25801 86.28499
#
# Poissons Ratio (x) = 0.13434 0.45176
# Poissons Ratio (y) = 0.10287 0.23941
# Poissons Ratio (z) = 0.29371 0.20327
#
# Static dielectric constant tensor:
#      x y z
#    x 1.725170 0.008750 -0.019630 
#    y 0.008750 1.774420 0.025140 
#    z -0.019630 0.025140 1.803100 
# 
# From -- ./inp_files/500473.got.cif
#   From: 2010.05.17/outbox.cif.g08.bks.cpg/sg2_251_cif.got.tgz:500473.got - 2010.06.03 11:33:40.
