data_PCOD9050491
_publ_section_title
;
Structure prediction by ZEFSAII (Michael W. Deem and Ramdas Pophale) SiO2 
 PCOD9050491
Probable space group: P -1
;
_chemical_formula_sum "Si O2"
_cell_formula_units_Z 12
_cell_length_a 8.785183
_cell_length_b 12.635979
_cell_length_c 4.800194
_cell_angle_alpha 86.917412
_cell_angle_beta 96.087279
_cell_angle_gamma 64.194729
_cell_volume 474.041685
_symmetry_space_group_name_H-M "P -1"
_symmetry_group_IT_number 2
_symmetry_cell_setting 'triclinic'
loop_
_space_group_symop_operation_xyz
x,y,z
-x,-y,-z
loop_
_atom_site_type_symbol
_atom_site_label
_atom_site_fract_x
_atom_site_fract_y
_atom_site_fract_z
Si Si1 0.759870 0.302518 0.598689
Si Si2 0.121379 0.858188 0.860510
Si Si3 0.387969 0.366940 0.731611
Si Si4 0.766573 0.980547 0.481807
Si Si5 0.551757 0.885264 0.218089
Si Si6 0.828886 0.504905 0.828783
O O1 0.788696 0.260734 0.291926
O O2 0.844516 0.385691 0.702036
O O3 0.848112 0.181591 0.811144
O O4 0.595829 0.074052 0.585632
O O5 0.925244 0.922911 0.725874
O O6 0.197049 0.946667 0.764270
O O7 0.426484 0.238149 0.878327
O O8 0.561037 0.361447 0.637203
O O9 0.252804 0.399455 0.447757
O O10 0.306862 0.459411 0.950256
O O11 0.726714 0.874872 0.383481
O O12 0.500000 0.000000 0.000000
O O13 0.000000 0.500000 0.000000
#
# Coordination Sequence:
#
# PCOD9050491 Si02
#       6
#     2   2   2   2   2   2
#     4  12  25  47  73 102 140 187 237 282 359 412
#     4  11  25  43  73 104 143 184 231 289 344 418
#     4  12  26  48  73 100 144 185 233 289 353 419
#     4  10  25  42  65 107 142 182 233 283 347 420
#     4  11  25  42  72 101 145 187 233 278 360 416
#     4  12  29  47  73 104 137 181 243 297 352 408
#
# _framework density 25.314229999999998
#
# number of rings (size 3 to 8) (size 9 to 14) (size 15 to 20)
#    0.000    0.667    1.667    4.500   11.667    1.333 
#    0.000    0.000    0.000    0.000    0.000    0.000 
#    0.000    0.000    0.000    0.000    0.000    0.000 
#
# Total GULP energy -67325.578896 kJ/mol
# GULP energy per Si atom -5610.464908 kJ/mol
# Density = 2.525661 g / cm^3
# Si number density = 25.314230 Si / 1000 Ang^3
#
#
#
# Elastic Constant Matrix: (Units=GPa)
#
#
# Indices 1 2 3 4 5 6 
#
# 1 115.8211 36.7719 4.7733 -2.9144 16.8951 16.6681
# 2 36.7719 111.9808 11.7237 11.1273 -2.2987 12.1242
# 3 4.7733 11.7237 90.5289 -9.5490 5.9230 -6.7334
# 4 -2.9144 11.1273 -9.5490 57.9300 -9.6063 1.4205
# 5 16.8951 -2.2987 5.9230 -9.6063 26.1998 3.7450
# 6 16.6681 12.1242 -6.7334 1.4205 3.7450 35.1255
#
#
#
# Elastic Compliance Matrix: (Units=1/GPa)
#
#
# Indices 1 2 3 4 5 6 
#
# 1 0.011260 -0.003503 0.000088 0.000168 -0.007044 -0.003373
# 2 -0.003503 0.010826 -0.001839 -0.001946 0.003297 -0.002700
# 3 0.000088 -0.001839 0.011874 0.001794 -0.002685 0.003083
# 4 0.000168 -0.001946 0.001794 0.019007 0.006357 -0.000511
# 5 -0.007044 0.003297 -0.002685 0.006357 0.046441 -0.003519
# 6 -0.003373 -0.002700 0.003083 -0.000511 -0.003519 0.031989
#
#
# Mechanical properties :
#
#
# Convention : Reuss Voigt Hill
#
# Bulk Modulus (GPa) = 42.64113 47.20763 44.92438
# Shear Modulus (GPa) = 33.39528 41.52186 37.45857
#
# Velocity S-wave (km/s) = 3.63606 4.05440 3.85092
# Velocity P-wave (km/s) = 5.87445 6.37234 6.12846
#
# Compressibility (1/GPa) = 0.02345154
#
# Stress axis : x y z
#
# Youngs Moduli (GPa) = 88.81272 92.36818 84.21780
#
# Poissons Ratio (x) = 0.32354 -0.00738
# Poissons Ratio (y) = 0.31109 0.15489
# Poissons Ratio (z) = -0.00779 0.16988
#
# Static dielectric constant tensor:
#      x y z
#    x 2.000590 0.007120 0.027640 
#    y 0.007120 2.004200 0.000120 
#    z 0.027640 0.000120 1.984070 
# 
# From -- ./inp_files/24103.got.cif
#   From: 2010.05.17/outbox.cif.g08.bks.cpg/sg2_13_cif.got.tgz:24103.got - 2010.06.03 11:33:40.
