data_PCOD9050323
_publ_section_title
;
Structure prediction by ZEFSAII (Michael W. Deem and Ramdas Pophale) SiO2 
 PCOD9050323
Probable space group: P -1
;
_chemical_formula_sum "Si O2"
_cell_formula_units_Z 13
_cell_length_a 7.161184
_cell_length_b 4.998666
_cell_length_c 17.754588
_cell_angle_alpha 61.551111
_cell_angle_beta 63.208016
_cell_angle_gamma 95.485157
_cell_volume 458.169924
_symmetry_space_group_name_H-M "P -1"
_symmetry_group_IT_number 2
_symmetry_cell_setting 'triclinic'
loop_
_space_group_symop_operation_xyz
x,y,z
-x,-y,-z
loop_
_atom_site_type_symbol
_atom_site_label
_atom_site_fract_x
_atom_site_fract_y
_atom_site_fract_z
Si Si1 0.839138 0.141945 0.406115
Si Si2 0.000000 0.000000 0.000000
Si Si3 0.491745 0.891838 0.929793
Si Si4 0.360280 0.527639 0.295487
Si Si5 0.803632 0.463009 0.217880
Si Si6 0.256146 0.579680 0.471616
Si Si7 0.105801 0.290964 0.073123
O O1 0.837109 0.385340 0.307809
O O2 0.701393 0.168021 0.501491
O O3 0.752607 0.764893 0.446591
O O4 0.103424 0.268140 0.365641
O O5 0.811442 0.688165 0.034647
O O6 0.061931 0.133346 0.877853
O O7 0.585954 0.174649 0.812570
O O8 0.683306 0.733871 0.914679
O O9 0.211381 0.731915 0.991106
O O10 0.500000 0.000000 0.000000
O O11 0.541685 0.374533 0.264584
O O12 0.394966 0.644999 0.360241
O O13 0.913962 0.269944 0.171978
O O14 0.000000 0.500000 0.500000
#
# Coordination Sequence:
#
# PCOD9050323 Si02
#       7
#     2   1   2   2   2   2   2
#     4  11  26  51  76 109 155 199 254 325 388 455
#     4  12  26  48  62 114 150 198 244 312 388 454
#     4  11  24  47  76 107 148 201 255 306 391 468
#     4  11  24  47  76 109 142 200 252 310 387 462
#     4  12  27  44  77 106 150 196 249 319 381 462
#     4  10  24  50  78 107 152 200 256 321 386 460
#     4  11  25  46  72 106 155 195 249 321 376 472
#
# _framework density 28.373754999999999
#
# number of rings (size 3 to 8) (size 9 to 14) (size 15 to 20)
#    0.000    0.923    0.000    6.923    6.462    2.462 
#   16.615    0.000    0.000    0.000    0.000    0.000 
#    0.000    0.000    0.000    0.000    0.000    0.000 
#
# Total GULP energy -72695.683027 kJ/mol
# GULP energy per Si atom -5591.975617 kJ/mol
# Density = 2.830918 g / cm^3
# Si number density = 28.373755 Si / 1000 Ang^3
#
#
#
# Elastic Constant Matrix: (Units=GPa)
#
#
# Indices 1 2 3 4 5 6 
#
# 1 136.0133 35.2830 41.3053 4.5202 -6.6388 -37.2940
# 2 35.2830 114.0086 55.7507 39.8202 3.9896 -4.5405
# 3 41.3053 55.7507 207.1368 11.5653 13.0277 -12.4927
# 4 4.5202 39.8202 11.5653 57.1790 -7.8725 2.8196
# 5 -6.6388 3.9896 13.0277 -7.8725 54.4764 4.9220
# 6 -37.2940 -4.5405 -12.4927 2.8196 4.9220 66.0954
#
#
#
# Elastic Compliance Matrix: (Units=1/GPa)
#
#
# Indices 1 2 3 4 5 6 
#
# 1 0.009796 -0.002846 -0.001052 0.001369 0.001403 0.004970
# 2 -0.002846 0.014305 -0.002658 -0.009457 -0.002074 -0.000568
# 3 -0.001052 -0.002658 0.005826 0.000560 -0.001282 0.000396
# 4 0.001369 -0.009457 0.000560 0.024512 0.004371 -0.001143
# 5 0.001403 -0.002074 -0.001282 0.004371 0.019730 -0.001249
# 6 0.004970 -0.000568 0.000396 -0.001143 -0.001249 0.018112
#
#
# Mechanical properties :
#
#
# Convention : Reuss Voigt Hill
#
# Bulk Modulus (GPa) = 59.47553 80.20408 69.83981
# Shear Modulus (GPa) = 45.04531 57.20481 51.12506
#
# Velocity S-wave (km/s) = 3.98875 4.49499 4.24942
# Velocity P-wave (km/s) = 6.49773 7.43426 6.98172
#
# Compressibility (1/GPa) = 0.01681364
#
# Stress axis : x y z
#
# Youngs Moduli (GPa) = 102.08445 69.90468 171.63495
#
# Poissons Ratio (x) = 0.19896 0.18060
# Poissons Ratio (y) = 0.29055 0.45628
# Poissons Ratio (z) = 0.10742 0.18584
#
# Static dielectric constant tensor:
#      x y z
#    x 2.154140 0.255270 -0.001980 
#    y 0.255270 1.976850 -0.130620 
#    z -0.001980 -0.130620 2.172230 
# 
# From -- ./inp_files/552303.got.cif
#   From: 2010.05.17/outbox.cif.g08.bks.cpg/sg2_277_cif.got.tgz:552303.got - 2010.06.03 11:33:40.
