data_PCOD9050642
_publ_section_title
;
Structure prediction by ZEFSAII (Michael W. Deem and Ramdas Pophale) SiO2 
 PCOD9050642
Probable space group: P -1
;
_chemical_formula_sum "Si O2"
_cell_formula_units_Z 14
_cell_length_a 9.082019
_cell_length_b 10.117252
_cell_length_c 15.624851
_cell_angle_alpha 115.007457
_cell_angle_beta 108.504951
_cell_angle_gamma 126.776958
_cell_volume 644.399265
_symmetry_space_group_name_H-M "P -1"
_symmetry_group_IT_number 2
_symmetry_cell_setting 'triclinic'
loop_
_space_group_symop_operation_xyz
x,y,z
-x,-y,-z
loop_
_atom_site_type_symbol
_atom_site_label
_atom_site_fract_x
_atom_site_fract_y
_atom_site_fract_z
Si Si1 0.683303 0.780617 0.648697
Si Si2 0.209851 0.685257 0.325620
Si Si3 0.425411 0.765648 0.929742
Si Si4 0.169198 0.508833 0.088283
Si Si5 0.875370 0.500592 0.553755
Si Si6 0.233809 0.089128 0.115989
Si Si7 0.745446 0.909729 0.196015
O O1 0.500000 0.500000 0.500000
O O2 0.481009 0.760443 0.590491
O O3 0.674066 0.751382 0.740026
O O4 0.024981 0.041955 0.752886
O O5 0.929241 0.189526 0.963957
O O6 0.920053 0.538999 0.199071
O O7 0.500000 0.000000 0.500000
O O8 0.731885 0.365564 0.762313
O O9 0.501705 0.747554 0.850929
O O10 0.915602 0.487987 0.657011
O O11 0.500000 0.000000 0.000000
O O12 0.457096 0.676787 0.138616
O O13 0.000000 0.500000 0.000000
O O14 0.000000 0.500000 0.500000
O O15 0.053429 0.793409 0.655477
O O16 0.373104 0.143807 0.934715
O O17 0.000000 0.000000 0.000000
#
# Coordination Sequence:
#
# PCOD9050642 Si02
#       7
#     2   2   2   2   2   2   2
#     4  10  25  43  69 101 145 182 240 298 372 426
#     4  12  26  42  70 109 145 183 250 307 359 426
#     4  12  21  44  74 100 139 191 248 299 355 439
#     4  12  26  44  72 108 144 191 251 304 357 439
#     4  11  23  42  73 101 142 190 242 295 374 438
#     4  12  25  45  75 105 138 193 249 300 367 436
#     4  11  22  44  67  99 140 188 237 301 363 428
#
# _framework density 21.725660000000001
#
# number of rings (size 3 to 8) (size 9 to 14) (size 15 to 20)
#    0.000    0.571    5.714    1.714    6.000    1.714 
#    2.571    0.714    0.000    0.000    0.000    0.000 
#    0.000    0.000    0.000    0.000    0.000    0.000 
#
# Total GULP energy -78166.176640 kJ/mol
# GULP energy per Si atom -5583.298331 kJ/mol
# Density = 2.167621 g / cm^3
# Si number density = 21.725660 Si / 1000 Ang^3
#
#
#
# Elastic Constant Matrix: (Units=GPa)
#
#
# Indices 1 2 3 4 5 6 
#
# 1 102.4579 32.2901 44.5567 -9.0953 11.5795 36.6052
# 2 32.2901 73.8018 21.1591 -5.9220 -6.1638 32.5402
# 3 44.5567 21.1591 146.5061 -13.0363 -7.9324 18.0817
# 4 -9.0953 -5.9220 -13.0363 46.4561 12.3616 0.8465
# 5 11.5795 -6.1638 -7.9324 12.3616 48.5668 -3.3647
# 6 36.6052 32.5402 18.0817 0.8465 -3.3647 54.3193
#
#
#
# Elastic Compliance Matrix: (Units=1/GPa)
#
#
# Indices 1 2 3 4 5 6 
#
# 1 0.016230 -0.002471 -0.003512 0.003715 -0.006308 -0.008737
# 2 -0.002471 0.019322 -0.000619 0.001475 0.001899 -0.009609
# 3 -0.003512 -0.000619 0.008160 0.001032 0.001837 0.000119
# 4 0.003715 0.001475 0.001032 0.024713 -0.007136 -0.004558
# 5 -0.006308 0.001899 0.001837 -0.007136 0.024739 0.004145
# 6 -0.008737 -0.009609 0.000119 -0.004558 0.004145 0.030342
#
#
# Mechanical properties :
#
#
# Convention : Reuss Voigt Hill
#
# Bulk Modulus (GPa) = 32.77775 57.64194 45.20984
# Shear Modulus (GPa) = 34.04190 44.85244 39.44717
#
# Velocity S-wave (km/s) = 3.96270 4.54860 4.26572
# Velocity P-wave (km/s) = 6.00476 7.36041 6.71688
#
# Compressibility (1/GPa) = 0.03050850
#
# Stress axis : x y z
#
# Youngs Moduli (GPa) = 61.61434 51.75398 122.55266
#
# Poissons Ratio (x) = 0.12787 0.43039
# Poissons Ratio (y) = 0.15223 0.07587
# Poissons Ratio (z) = 0.21638 0.03204
#
# Static dielectric constant tensor:
#      x y z
#    x 1.858380 -0.004120 0.034580 
#    y -0.004120 1.818580 -0.033160 
#    z 0.034580 -0.033160 1.853210 
# 
# From -- ./inp_files/504281.got.cif
#   From: 2010.05.17/outbox.cif.g08.bks.cpg/sg2_253_cif.got.tgz:504281.got - 2010.06.03 11:33:40.
