data_PCOD9050231
_publ_section_title
;
Structure prediction by ZEFSAII (Michael W. Deem and Ramdas Pophale) SiO2 
 PCOD9050231
Probable space group: P -1
;
_chemical_formula_sum "Si O2"
_cell_formula_units_Z 14
_cell_length_a 11.721243
_cell_length_b 13.633104
_cell_length_c 5.667873
_cell_angle_alpha 71.423334
_cell_angle_beta 55.297508
_cell_angle_gamma 50.255536
_cell_volume 571.045804
_symmetry_space_group_name_H-M "P -1"
_symmetry_group_IT_number 2
_symmetry_cell_setting 'triclinic'
loop_
_space_group_symop_operation_xyz
x,y,z
-x,-y,-z
loop_
_atom_site_type_symbol
_atom_site_label
_atom_site_fract_x
_atom_site_fract_y
_atom_site_fract_z
Si Si1 0.638960 0.526761 0.873336
Si Si2 0.789124 0.976700 0.167489
Si Si3 0.535823 0.094082 0.764375
Si Si4 0.679649 0.206566 0.809440
Si Si5 0.069860 0.743494 0.331793
Si Si6 0.097440 0.444280 0.675197
Si Si7 0.828350 0.767416 0.981307
O O1 0.796977 0.383962 0.882515
O O2 0.735448 0.555338 0.542327
O O3 0.500000 0.500000 0.000000
O O4 0.513138 0.663127 0.045316
O O5 0.802633 0.897184 0.986218
O O6 0.948499 0.873576 0.225004
O O7 0.616662 0.028176 0.472253
O O8 0.753115 0.108224 0.019635
O O9 0.661286 0.127965 0.689684
O O10 0.342413 0.219484 0.897000
O O11 0.500000 0.000000 0.000000
O O12 0.813145 0.242759 0.627885
O O13 0.956519 0.717910 0.649951
O O14 0.131591 0.306901 0.763753
O O15 0.000000 0.500000 0.500000
O O16 0.000000 0.500000 0.000000
#
# Coordination Sequence:
#
# PCOD9050231 Si02
#       7
#     2   2   2   2   2   2   2
#     4  10  24  49  74 108 154 202 257 319 396 470
#     4  12  24  44  72 102 147 193 256 315 383 458
#     4  12  25  44  68 105 144 192 249 314 382 462
#     4  11  26  45  73 104 151 198 250 316 393 462
#     4  11  24  47  72 108 144 197 252 317 386 468
#     4  12  27  48  79 115 154 206 264 324 394 467
#     4  12  26  44  75 105 152 193 259 317 387 461
#
# _framework density 24.516425000000002
#
# number of rings (size 3 to 8) (size 9 to 14) (size 15 to 20)
#    0.000    0.571    4.286    2.571    4.000    3.429 
#    0.000    2.143    0.000    0.000    0.000    0.000 
#    0.000    0.000    0.000    0.000    0.000    0.000 
#
# Total GULP energy -77972.217533 kJ/mol
# GULP energy per Si atom -5569.444109 kJ/mol
# Density = 2.446062 g / cm^3
# Si number density = 24.516425 Si / 1000 Ang^3
#
#
#
# Elastic Constant Matrix: (Units=GPa)
#
#
# Indices 1 2 3 4 5 6 
#
# 1 130.6570 28.9085 39.2672 8.9882 -16.0973 -8.1186
# 2 28.9085 118.6803 27.2663 1.5015 -2.0733 -6.7108
# 3 39.2672 27.2663 88.4768 11.9469 -9.8452 -4.5540
# 4 8.9882 1.5015 11.9469 34.3080 -6.0022 3.0739
# 5 -16.0973 -2.0733 -9.8452 -6.0022 30.1186 6.2329
# 6 -8.1186 -6.7108 -4.5540 3.0739 6.2329 43.6328
#
#
#
# Elastic Compliance Matrix: (Units=1/GPa)
#
#
# Indices 1 2 3 4 5 6 
#
# 1 0.009486 -0.001456 -0.003222 -0.000733 0.003617 0.000740
# 2 -0.001456 0.009359 -0.002369 0.000527 -0.001016 0.001029
# 3 -0.003222 -0.002369 0.014202 -0.003708 0.001914 0.000506
# 4 -0.000733 0.000527 -0.003708 0.031883 0.005505 -0.003475
# 5 0.003617 -0.001016 0.001914 0.005505 0.037839 -0.005077
# 6 0.000740 0.001029 0.000506 -0.003475 -0.005077 0.024237
#
#
# Mechanical properties :
#
#
# Convention : Reuss Voigt Hill
#
# Bulk Modulus (GPa) = 52.76237 58.74423 55.75330
# Shear Modulus (GPa) = 33.91733 37.77002 35.84367
#
# Velocity S-wave (km/s) = 3.72352 3.92931 3.82779
# Velocity P-wave (km/s) = 6.32883 6.67826 6.50589
#
# Compressibility (1/GPa) = 0.01895290
#
# Stress axis : x y z
#
# Youngs Moduli (GPa) = 105.41702 106.85161 70.41214
#
# Poissons Ratio (x) = 0.15560 0.22685
# Poissons Ratio (y) = 0.15351 0.16682
# Poissons Ratio (z) = 0.33963 0.25315
#
# Static dielectric constant tensor:
#      x y z
#    x 2.275400 -0.087450 -0.049540 
#    y -0.087450 2.263830 0.004110 
#    z -0.049540 0.004110 1.867420 
# 
# From -- ./inp_files/77287.got.cif
#   From: 2010.05.17/outbox.cif.g08.bks.cpg/sg2_39_cif.got.tgz:77287.got - 2010.06.03 11:33:40.
