data_PCOD9050278
_publ_section_title
;
Structure prediction by ZEFSAII (Michael W. Deem and Ramdas Pophale) SiO2 
 PCOD9050278
Probable space group: P -1
;
_chemical_formula_sum "Si O2"
_cell_formula_units_Z 15
_cell_length_a 13.382343
_cell_length_b 9.583604
_cell_length_c 8.309332
_cell_angle_alpha 100.601577
_cell_angle_beta 71.171160
_cell_angle_gamma 145.454897
_cell_volume 565.269944
_symmetry_space_group_name_H-M "P -1"
_symmetry_group_IT_number 2
_symmetry_cell_setting 'triclinic'
loop_
_space_group_symop_operation_xyz
x,y,z
-x,-y,-z
loop_
_atom_site_type_symbol
_atom_site_label
_atom_site_fract_x
_atom_site_fract_y
_atom_site_fract_z
Si Si1 0.912322 0.430291 0.704172
Si Si2 0.936947 0.149117 0.993494
Si Si3 0.222800 0.468695 0.391867
Si Si4 0.069833 0.031345 0.709641
Si Si5 0.516974 0.684228 0.070126
Si Si6 0.444220 0.143490 0.243196
Si Si7 0.500000 0.500000 0.500000
Si Si8 0.224502 0.640867 0.759254
O O1 0.800335 0.448288 0.727293
O O2 0.000000 0.500000 0.500000
O O3 0.093270 0.625432 0.765456
O O4 0.762066 0.141279 0.749608
O O5 0.966589 0.059465 0.823846
O O6 0.100923 0.435570 0.919984
O O7 0.725708 0.963232 0.049349
O O8 0.947991 0.086349 0.146838
O O9 0.232845 0.556830 0.573995
O O10 0.404280 0.581435 0.272391
O O11 0.044392 0.172956 0.412564
O O12 0.283399 0.287713 0.613463
O O13 0.460872 0.699255 0.937744
O O14 0.500000 0.500000 0.000000
O O15 0.443420 0.277756 0.392465
O O16 0.564148 0.140625 0.245714
#
# Coordination Sequence:
#
# PCOD9050278 Si02
#       8
#     2   2   2   2   2   2   1   2
#     4  10  24  50  69 101 145 190 241 300 343 429
#     4  11  23  43  66 101 148 179 231 299 369 404
#     4  11  26  46  73 101 142 191 243 282 365 428
#     4  11  24  43  68 103 143 184 235 300 351 438
#     4  12  25  44  70 106 149 186 230 304 356 432
#     4  12  26  44  74 105 147 179 243 295 360 425
#     4  12  24  38  74 106 132 186 234 288 362 420
#     4  11  24  47  72 103 138 190 235 299 357 424
#
# _framework density 26.535992
#
# number of rings (size 3 to 8) (size 9 to 14) (size 15 to 20)
#    0.000    0.800    4.000    3.200    3.733    3.200 
#    2.400    1.333    0.000    0.000    0.000    0.000 
#    0.000    0.000    0.000    0.000    0.000    0.000 
#
# Total GULP energy -83751.231523 kJ/mol
# GULP energy per Si atom -5583.415435 kJ/mol
# Density = 2.647559 g / cm^3
# Si number density = 26.535992 Si / 1000 Ang^3
#
#
#
# Elastic Constant Matrix: (Units=GPa)
#
#
# Indices 1 2 3 4 5 6 
#
# 1 63.1816 16.9469 19.4413 -4.1505 6.4063 13.6923
# 2 16.9469 146.7305 32.5454 -13.9266 -11.5873 15.3499
# 3 19.4413 32.5454 140.9027 -11.8546 -18.3149 7.0477
# 4 -4.1505 -13.9266 -11.8546 41.3884 1.1861 -0.3356
# 5 6.4063 -11.5873 -18.3149 1.1861 45.6531 -8.0838
# 6 13.6923 15.3499 7.0477 -0.3356 -8.0838 36.2673
#
#
#
# Elastic Compliance Matrix: (Units=1/GPa)
#
#
# Indices 1 2 3 4 5 6 
#
# 1 0.019164 -0.001200 -0.002623 0.000861 -0.005380 -0.007409
# 2 -0.001200 0.007750 -0.001177 0.002097 0.001200 -0.002312
# 3 -0.002623 -0.001177 0.008285 0.001620 0.003469 0.000667
# 4 0.000861 0.002097 0.001620 0.025402 0.000180 -0.001252
# 5 -0.005380 0.001200 0.003469 0.000180 0.025508 0.006537
# 6 -0.007409 -0.002312 0.000667 -0.001252 0.006537 0.032665
#
#
# Mechanical properties :
#
#
# Convention : Reuss Voigt Hill
#
# Bulk Modulus (GPa) = 39.68281 54.29798 46.99039
# Shear Modulus (GPa) = 36.45015 43.45384 39.95199
#
# Velocity S-wave (km/s) = 3.71025 4.05105 3.88439
# Velocity P-wave (km/s) = 5.77420 6.51059 6.15342
#
# Compressibility (1/GPa) = 0.02519983
#
# Stress axis : x y z
#
# Youngs Moduli (GPa) = 52.18081 129.02538 120.70431
#
# Poissons Ratio (x) = 0.15478 0.31667
# Poissons Ratio (y) = 0.06260 0.14202
# Poissons Ratio (z) = 0.13690 0.15181
#
# Static dielectric constant tensor:
#      x y z
#    x 3.478790 0.167380 0.117340 
#    y 0.167380 2.066180 0.078650 
#    z 0.117340 0.078650 2.013670 
# 
# From -- ./inp_files/187105.got.cif
#   From: 2010.05.17/outbox.cif.g08.bks.cpg/sg2_94_cif.got.tgz:187105.got - 2010.06.03 11:33:40.
