data_PCOD9050018
_publ_section_title
;
Structure prediction by ZEFSAII (Michael W. Deem and Ramdas Pophale) SiO2 
 PCOD9050018
Probable space group: P -1
;
_chemical_formula_sum "Si O2"
_cell_formula_units_Z 14
_cell_length_a 9.480272
_cell_length_b 12.343787
_cell_length_c 10.140620
_cell_angle_alpha 137.300710
_cell_angle_beta 43.345187
_cell_angle_gamma 128.703982
_cell_volume 541.752422
_symmetry_space_group_name_H-M "P -1"
_symmetry_group_IT_number 2
_symmetry_cell_setting 'triclinic'
loop_
_space_group_symop_operation_xyz
x,y,z
-x,-y,-z
loop_
_atom_site_type_symbol
_atom_site_label
_atom_site_fract_x
_atom_site_fract_y
_atom_site_fract_z
Si Si1 0.940677 0.673093 0.957405
Si Si2 0.564924 0.050728 0.649105
Si Si3 0.547277 0.516001 0.258684
Si Si4 0.385897 0.732868 0.789429
Si Si5 0.022173 0.691973 0.406651
Si Si6 0.212725 0.132067 0.464935
Si Si7 0.226086 0.232225 0.111743
O O1 0.885112 0.767598 0.952837
O O2 0.155034 0.768703 0.962468
O O3 0.988309 0.496760 0.727941
O O4 0.742895 0.619855 0.140950
O O5 0.740179 0.215278 0.684677
O O6 0.500000 0.000000 0.500000
O O7 0.670294 0.916024 0.526745
O O8 0.362409 0.092722 0.895371
O O9 0.440985 0.627579 0.530214
O O10 0.617519 0.380383 0.182498
O O11 0.378519 0.410753 0.182074
O O12 0.597429 0.868972 0.768523
O O13 0.882912 0.716544 0.395159
O O14 0.928964 0.775183 0.667317
O O15 0.000000 0.000000 0.500000
#
# Coordination Sequence:
#
# PCOD9050018 Si02
#       7
#     2   2   2   2   2   2   2
#     4  12  25  40  74 110 141 177 223 295 356 410
#     4  11  28  47  69  97 138 188 238 287 330 413
#     4  11  23  43  70 105 141 178 228 286 359 403
#     4  11  23  44  71 105 139 175 234 292 335 420
#     4  11  23  47  72 101 137 180 235 285 352 409
#     4  10  24  48  72  94 137 191 229 281 337 410
#     4  12  25  44  69 104 142 186 224 280 360 407
#
# _framework density 25.842063
#
# number of rings (size 3 to 8) (size 9 to 14) (size 15 to 20)
#    0.000    0.857    4.286    2.143    4.000    1.143 
#    0.000    0.000    0.000    0.000    0.000    0.000 
#    0.000    0.000    0.000    0.000    0.000    0.000 
#
# Total GULP energy -78366.308024 kJ/mol
# GULP energy per Si atom -5597.593430 kJ/mol
# Density = 2.578325 g / cm^3
# Si number density = 25.842063 Si / 1000 Ang^3
#
#
#
# Elastic Constant Matrix: (Units=GPa)
#
#
# Indices 1 2 3 4 5 6 
#
# 1 142.3898 47.1480 19.7513 -2.5781 -12.2550 -24.8963
# 2 47.1480 80.1034 8.0011 -21.2737 -6.7587 12.8062
# 3 19.7513 8.0011 125.1502 -3.1894 -1.6903 -0.3451
# 4 -2.5781 -21.2737 -3.1894 33.2055 2.9257 0.8057
# 5 -12.2550 -6.7587 -1.6903 2.9257 34.5711 -13.6682
# 6 -24.8963 12.8062 -0.3451 0.8057 -13.6682 31.7082
#
#
#
# Elastic Compliance Matrix: (Units=1/GPa)
#
#
# Indices 1 2 3 4 5 6 
#
# 1 0.019833 -0.018268 -0.001976 -0.012536 0.016412 0.030322
# 2 -0.018268 0.033344 0.001010 0.022275 -0.015680 -0.035125
# 3 -0.001976 0.001010 0.008252 0.001449 -0.001177 -0.002414
# 4 -0.012536 0.022275 0.001449 0.045434 -0.014178 -0.026089
# 5 0.016412 -0.015680 -0.001177 -0.014178 0.048888 0.040640
# 6 0.030322 -0.035125 -0.002414 -0.026089 0.040640 0.087687
#
#
# Mechanical properties :
#
#
# Convention : Reuss Voigt Hill
#
# Bulk Modulus (GPa) = 43.55333 55.27159 49.41246
# Shear Modulus (GPa) = 17.26753 38.07982 27.67368
#
# Velocity S-wave (km/s) = 2.58775 3.84286 3.27598
# Velocity P-wave (km/s) = 5.08123 6.41286 5.78548
#
# Compressibility (1/GPa) = 0.02296035
#
# Stress axis : x y z
#
# Youngs Moduli (GPa) = 50.41989 29.99070 121.18153
#
# Poissons Ratio (x) = 0.54788 0.23950
# Poissons Ratio (y) = 0.92109 -0.12245
# Poissons Ratio (z) = 0.09965 -0.03030
#
# Static dielectric constant tensor:
#      x y z
#    x 2.058250 0.117190 0.083390 
#    y 0.117190 2.066750 0.064020 
#    z 0.083390 0.064020 2.077730 
# 
# From -- ./inp_files/189729.got.cif
#   From: 2010.05.17/outbox.cif.g08.bks.cpg/sg2_95_cif.got.tgz:189729.got - 2010.06.03 11:33:40.
