data_PCOD9050671
_publ_section_title
;
Structure prediction by ZEFSAII (Michael W. Deem and Ramdas Pophale) SiO2 
 PCOD9050671
Probable space group: P -1
;
_chemical_formula_sum "Si O2"
_cell_formula_units_Z 16
_cell_length_a 8.202667
_cell_length_b 12.176679
_cell_length_c 11.798924
_cell_angle_alpha 61.911055
_cell_angle_beta 125.267871
_cell_angle_gamma 129.365368
_cell_volume 733.599333
_symmetry_space_group_name_H-M "P -1"
_symmetry_group_IT_number 2
_symmetry_cell_setting 'triclinic'
loop_
_space_group_symop_operation_xyz
x,y,z
-x,-y,-z
loop_
_atom_site_type_symbol
_atom_site_label
_atom_site_fract_x
_atom_site_fract_y
_atom_site_fract_z
Si Si1 0.438221 0.337391 0.575331
Si Si2 0.346292 0.753816 0.745788
Si Si3 0.061711 0.900142 0.494295
Si Si4 0.072021 0.797048 0.934727
Si Si5 0.403569 0.678500 0.117059
Si Si6 0.244694 0.079965 0.995382
Si Si7 0.261277 0.478030 0.961739
Si Si8 0.337143 0.189615 0.363721
O O1 0.500000 0.500000 0.500000
O O2 0.594783 0.333476 0.741569
O O3 0.431505 0.265368 0.486510
O O4 0.180508 0.235887 0.570326
O O5 0.195748 0.830213 0.641178
O O6 0.215899 0.592505 0.822629
O O7 0.456101 0.747742 0.673127
O O8 0.565716 0.856263 0.861353
O O9 0.226947 0.016683 0.412293
O O10 0.000000 0.000000 0.500000
O O11 0.241890 0.743601 0.984681
O O12 0.930184 0.687811 0.033470
O O13 0.877547 0.792778 0.775122
O O14 0.230011 0.956154 0.968702
O O15 0.657564 0.781091 0.115386
O O16 0.298345 0.527040 0.084486
O O17 0.000000 0.000000 0.000000
O O18 0.500000 0.500000 0.000000
#
# Coordination Sequence:
#
# PCOD9050671 Si02
#       8
#     2   2   2   2   2   2   2   2
#     4  11  26  44  66  99 143 183 229 284 339 415
#     4  11  24  44  70 101 138 186 229 282 359 410
#     4  10  25  43  70  93 138 184 232 279 344 415
#     4  12  23  41  73 104 137 179 236 287 344 410
#     4  11  26  42  70 103 137 182 232 286 346 408
#     4  11  23  43  71 105 136 171 236 296 342 401
#     4  11  23  44  70 103 140 181 224 289 357 416
#     4  11  23  45  69  98 140 187 228 283 348 415
#
# _framework density 21.810271
#
# number of rings (size 3 to 8) (size 9 to 14) (size 15 to 20)
#    0.000    1.000    2.500    3.375   12.250    0.000 
#    0.000    0.625    0.000    0.000    0.000    0.000 
#    0.000    0.000    0.000    0.000    0.000    0.000 
#
# Total GULP energy -89356.166212 kJ/mol
# GULP energy per Si atom -5584.760388 kJ/mol
# Density = 2.176063 g / cm^3
# Si number density = 21.810271 Si / 1000 Ang^3
#
#
#
# Elastic Constant Matrix: (Units=GPa)
#
#
# Indices 1 2 3 4 5 6 
#
# 1 63.6886 -8.0991 31.8272 2.7848 -5.8374 -4.3691
# 2 -8.0991 100.0426 21.6303 -16.3831 -3.9881 5.8793
# 3 31.8272 21.6303 125.5066 -15.7027 -1.6205 -12.6767
# 4 2.7848 -16.3831 -15.7027 35.1350 -8.2409 -9.2319
# 5 -5.8374 -3.9881 -1.6205 -8.2409 33.7537 -3.2690
# 6 -4.3691 5.8793 -12.6767 -9.2319 -3.2690 39.0019
#
#
#
# Elastic Compliance Matrix: (Units=1/GPa)
#
#
# Indices 1 2 3 4 5 6 
#
# 1 0.019131 0.002509 -0.005571 -0.002286 0.002745 -0.000357
# 2 0.002509 0.011579 -0.002087 0.004709 0.002774 -0.000796
# 3 -0.005571 -0.002087 0.010976 0.005911 0.001221 0.004760
# 4 -0.002286 0.004709 0.005911 0.038989 0.011040 0.011109
# 5 0.002745 0.002774 0.001221 0.011040 0.033737 0.005727
# 6 -0.000357 -0.000796 0.004760 0.011109 0.005727 0.030376
#
#
# Mechanical properties :
#
#
# Convention : Reuss Voigt Hill
#
# Bulk Modulus (GPa) = 31.85814 42.21719 37.03766
# Shear Modulus (GPa) = 30.20262 37.83674 34.01968
#
# Velocity S-wave (km/s) = 3.72531 4.16963 3.95372
# Velocity P-wave (km/s) = 5.75696 6.52531 6.15314
#
# Compressibility (1/GPa) = 0.03138915
#
# Stress axis : x y z
#
# Youngs Moduli (GPa) = 52.27020 86.36573 91.10711
#
# Poissons Ratio (x) = -0.21672 0.50752
# Poissons Ratio (y) = -0.13116 0.19016
# Poissons Ratio (z) = 0.29117 0.18026
#
# Static dielectric constant tensor:
#      x y z
#    x 1.876210 -0.019120 -0.059400 
#    y -0.019120 1.832990 0.047020 
#    z -0.059400 0.047020 1.884530 
# 
# From -- ./inp_files/298960.got.cif
#   From: 2010.05.17/outbox.cif.g08.bks.cpg/sg2_150_cif.got.tgz:298960.got - 2010.06.03 11:33:40.
