data_PCOD9050332
_publ_section_title
;
Structure prediction by ZEFSAII (Michael W. Deem and Ramdas Pophale) SiO2 
 PCOD9050332
Probable space group: P -1
;
_chemical_formula_sum "Si O2"
_cell_formula_units_Z 10
_cell_length_a 7.074567
_cell_length_b 6.868615
_cell_length_c 7.686083
_cell_angle_alpha 81.839677
_cell_angle_beta 105.499886
_cell_angle_gamma 83.983591
_cell_volume 352.246673
_symmetry_space_group_name_H-M "P -1"
_symmetry_group_IT_number 2
_symmetry_cell_setting 'triclinic'
loop_
_space_group_symop_operation_xyz
x,y,z
-x,-y,-z
loop_
_atom_site_type_symbol
_atom_site_label
_atom_site_fract_x
_atom_site_fract_y
_atom_site_fract_z
Si Si1 0.754135 0.491700 0.147708
Si Si2 0.201875 0.364530 0.256088
Si Si3 0.501793 0.726303 0.364698
Si Si4 0.920641 0.058009 0.780366
Si Si5 0.347872 0.957045 0.814132
O O1 0.612692 0.617179 0.236969
O O2 0.692531 0.269866 0.160098
O O3 0.873653 0.918256 0.261198
O O4 0.749417 0.578482 0.938088
O O5 0.387841 0.369827 0.426184
O O6 0.987624 0.478660 0.249567
O O7 0.153755 0.140424 0.276605
O O8 0.262705 0.765590 0.291097
O O9 0.551496 0.952957 0.333595
O O10 0.000000 0.000000 0.000000
O O11 0.500000 0.000000 0.000000
#
# Coordination Sequence:
#
# PCOD9050332 Si02
#       5
#     2   2   2   2   2
#     4  10  25  49  83 116 161 209 263 329 400 471
#     4  10  24  50  81 121 163 204 264 333 399 472
#     4  12  25  50  85 118 155 210 269 326 397 474
#     4  11  23  46  78 119 158 207 263 326 396 474
#     4  11  25  50  79 113 160 213 259 322 402 471
#
# _framework density 28.389195999999998
#
# number of rings (size 3 to 8) (size 9 to 14) (size 15 to 20)
#    0.000    1.200    2.000    2.400    0.000    4.000 
#    0.000   14.000    0.000    0.000    0.000    0.000 
#    0.000    0.000    0.000    0.000    0.000    0.000 
#
# Total GULP energy -56111.393932 kJ/mol
# GULP energy per Si atom -5611.139393 kJ/mol
# Density = 2.832458 g / cm^3
# Si number density = 28.389196 Si / 1000 Ang^3
#
#
#
# Elastic Constant Matrix: (Units=GPa)
#
#
# Indices 1 2 3 4 5 6 
#
# 1 316.6321 106.3546 94.6436 0.7598 45.9308 -21.9615
# 2 106.3546 158.7577 60.5837 -3.3837 19.8842 1.1250
# 3 94.6436 60.5837 190.8283 -7.4510 42.4174 -18.7428
# 4 0.7598 -3.3837 -7.4510 45.1088 3.8923 10.5372
# 5 45.9308 19.8842 42.4174 3.8923 64.0443 -1.8133
# 6 -21.9615 1.1250 -18.7428 10.5372 -1.8133 65.1664
#
#
#
# Elastic Compliance Matrix: (Units=1/GPa)
#
#
# Indices 1 2 3 4 5 6 
#
# 1 0.004671 -0.002545 -0.000990 -0.000598 -0.001829 0.001379
# 2 -0.002545 0.008640 -0.001637 0.000783 0.000134 -0.001601
# 3 -0.000990 -0.001637 0.007240 0.001048 -0.003598 0.001507
# 4 -0.000598 0.000783 0.001048 0.023466 -0.002041 -0.003765
# 5 -0.001829 0.000134 -0.003598 -0.002041 0.019369 -0.000784
# 6 0.001379 -0.001601 0.001507 -0.003765 -0.000784 0.016858
#
#
# Mechanical properties :
#
#
# Convention : Reuss Voigt Hill
#
# Bulk Modulus (GPa) = 97.97924 132.15352 115.06638
# Shear Modulus (GPa) = 53.19645 61.83964 57.51805
#
# Velocity S-wave (km/s) = 4.33347 4.67227 4.50605
# Velocity P-wave (km/s) = 7.72181 8.70394 8.22754
#
# Compressibility (1/GPa) = 0.01020624
#
# Stress axis : x y z
#
# Youngs Moduli (GPa) = 214.06452 115.74237 138.12487
#
# Poissons Ratio (x) = 0.29457 0.13677
# Poissons Ratio (y) = 0.54481 0.22613
# Poissons Ratio (z) = 0.21197 0.18949
#
# Static dielectric constant tensor:
#      x y z
#    x 0.585480 0.392050 0.313750 
#    y 0.392050 2.285520 -0.027140 
#    z 0.313750 -0.027140 2.187250 
# 
# From -- ./inp_files/143746.got.cif
#   From: 2010.05.17/outbox.cif.g08.bks.cpg/sg2_72_cif.got.tgz:143746.got - 2010.06.03 11:33:40.
