data_PCOD9050767
_publ_section_title
;
Structure prediction by ZEFSAII (Michael W. Deem and Ramdas Pophale) SiO2 
 PCOD9050767
Probable space group: P -1
;
_chemical_formula_sum "Si O2"
_cell_formula_units_Z 14
_cell_length_a 17.988139
_cell_length_b 15.584205
_cell_length_c 8.295447
_cell_angle_alpha 126.266015
_cell_angle_beta 43.544383
_cell_angle_gamma 157.684679
_cell_volume 579.885614
_symmetry_space_group_name_H-M "P -1"
_symmetry_group_IT_number 2
_symmetry_cell_setting 'triclinic'
loop_
_space_group_symop_operation_xyz
x,y,z
-x,-y,-z
loop_
_atom_site_type_symbol
_atom_site_label
_atom_site_fract_x
_atom_site_fract_y
_atom_site_fract_z
Si Si1 0.533114 0.409791 0.280537
Si Si2 0.175554 0.730912 0.384430
Si Si3 0.633788 0.127493 0.260824
Si Si4 0.953627 0.092431 0.413950
Si Si5 0.937939 0.144226 0.143316
Si Si6 0.953398 0.602305 0.255282
Si Si7 0.327560 0.259222 0.083555
O O1 0.500000 0.500000 0.500000
O O2 0.444482 0.330631 0.147156
O O3 0.335166 0.162235 0.403736
O O4 0.812109 0.623795 0.089600
O O5 0.155581 0.826463 0.611744
O O6 0.089235 0.671433 0.273572
O O7 0.000000 0.500000 0.500000
O O8 0.441593 0.921991 0.202269
O O9 0.718719 0.322540 0.304841
O O10 0.500000 0.000000 0.500000
O O11 0.871502 0.264856 0.022835
O O12 0.010992 0.145111 0.192851
O O13 0.067893 0.293783 0.549981
O O14 0.069356 0.090660 0.309717
O O15 0.733767 0.898874 0.099337
O O16 0.500000 0.500000 0.000000
#
# Coordination Sequence:
#
# PCOD9050767 Si02
#       7
#     2   2   2   2   2   2   2
#     4  12  25  45  67  96 138 177 226 274 331 404
#     4  11  24  44  69  97 134 178 221 278 341 393
#     4  11  23  45  69  94 136 174 227 277 335 399
#     4  11  24  44  68  99 136 174 222 278 339 395
#     4  11  26  45  66 100 135 176 227 276 337 398
#     4  10  25  44  66 102 133 174 223 280 336 404
#     4  12  24  44  71  97 137 178 221 278 336 401
#
# _framework density 24.142690999999999
#
# number of rings (size 3 to 8) (size 9 to 14) (size 15 to 20)
#    0.000    0.857    4.286    2.143    4.000    1.143 
#    0.000    0.000    0.000    0.000    0.000    0.000 
#    0.000    0.000    0.000    0.000    0.000    0.000 
#
# Total GULP energy -78400.963266 kJ/mol
# GULP energy per Si atom -5600.068805 kJ/mol
# Density = 2.408774 g / cm^3
# Si number density = 24.142691 Si / 1000 Ang^3
#
#
#
# Elastic Constant Matrix: (Units=GPa)
#
#
# Indices 1 2 3 4 5 6 
#
# 1 42.8234 -1.4767 0.5280 0.8284 4.6070 6.7177
# 2 -1.4767 149.0573 33.2660 -1.4006 3.9103 1.2308
# 3 0.5280 33.2660 83.4967 -9.0790 11.4365 0.3326
# 4 0.8284 -1.4006 -9.0790 60.3116 -2.1451 1.5879
# 5 4.6070 3.9103 11.4365 -2.1451 25.8796 -1.5060
# 6 6.7177 1.2308 0.3326 1.5879 -1.5060 29.8077
#
#
#
# Elastic Compliance Matrix: (Units=1/GPa)
#
#
# Indices 1 2 3 4 5 6 
#
# 1 0.024820 0.000337 0.000385 -0.000299 -0.005005 -0.005849
# 2 0.000337 0.007375 -0.002983 -0.000270 0.000102 -0.000328
# 3 0.000385 -0.002983 0.014155 0.001865 -0.005748 -0.000511
# 4 -0.000299 -0.000270 0.001865 0.016903 0.000624 -0.000811
# 5 -0.005005 0.000102 -0.005748 0.000624 0.042299 0.003292
# 6 -0.005849 -0.000328 -0.000511 -0.000811 0.003292 0.035095
#
#
# Mechanical properties :
#
#
# Convention : Reuss Voigt Hill
#
# Bulk Modulus (GPa) = 23.90707 37.77911 30.84309
# Shear Modulus (GPa) = 31.42444 39.40377 35.41411
#
# Velocity S-wave (km/s) = 3.61170 4.04433 3.83412
# Velocity P-wave (km/s) = 5.22651 6.12300 5.69243
#
# Compressibility (1/GPa) = 0.04182864
#
# Stress axis : x y z
#
# Youngs Moduli (GPa) = 40.28963 135.58780 70.64860
#
# Poissons Ratio (x) = -0.04565 -0.02721
# Poissons Ratio (y) = -0.01357 0.21072
# Poissons Ratio (z) = -0.01552 0.40440
#
# Static dielectric constant tensor:
#      x y z
#    x 1.930020 0.023190 0.020020 
#    y 0.023190 1.928980 -0.022600 
#    z 0.020020 -0.022600 1.987620 
# 
# From -- ./inp_files/55313.got.cif
#   From: 2010.05.17/outbox.cif.g08.bks.cpg/sg2_28_cif.got.tgz:55313.got - 2010.06.03 11:33:40.
