data_PCOD9050748
_publ_section_title
;
Structure prediction by ZEFSAII (Michael W. Deem and Ramdas Pophale) SiO2 
 PCOD9050748
Probable space group: P -1
;
_chemical_formula_sum "Si O2"
_cell_formula_units_Z 14
_cell_length_a 9.240370
_cell_length_b 11.754384
_cell_length_c 20.291846
_cell_angle_alpha 145.740940
_cell_angle_beta 39.912996
_cell_angle_gamma 118.437657
_cell_volume 716.140361
_symmetry_space_group_name_H-M "P -1"
_symmetry_group_IT_number 2
_symmetry_cell_setting 'triclinic'
loop_
_space_group_symop_operation_xyz
x,y,z
-x,-y,-z
loop_
_atom_site_type_symbol
_atom_site_label
_atom_site_fract_x
_atom_site_fract_y
_atom_site_fract_z
Si Si1 0.078262 0.213764 0.239620
Si Si2 0.127977 0.741113 0.810153
Si Si3 0.576338 0.943711 0.522478
Si Si4 0.587281 0.435364 0.581046
Si Si5 0.892005 0.437015 0.814488
Si Si6 0.474053 0.388980 0.851819
Si Si7 0.568407 0.298528 0.102703
O O1 0.309078 0.274712 0.176048
O O2 0.914620 0.261835 0.253833
O O3 0.881072 0.361366 0.434233
O O4 0.208991 0.948802 0.083216
O O5 0.414616 0.616553 0.674564
O O6 0.991522 0.604768 0.827558
O O7 0.000000 0.000000 0.000000
O O8 0.445444 0.792463 0.523023
O O9 0.871277 0.784643 0.350378
O O10 0.500000 0.000000 0.500000
O O11 0.509701 0.164840 0.694440
O O12 0.472925 0.547060 0.744591
O O13 0.727998 0.375147 0.789788
O O14 0.721365 0.552911 0.992586
O O15 0.388984 0.584541 0.920591
#
# Coordination Sequence:
#
# PCOD9050748 Si02
#       7
#     2   2   2   2   2   2   2
#     4  11  24  42  65  92 124 169 204 256 317 369
#     4  11  22  43  64  92 129 159 210 257 304 379
#     4  11  24  40  63  95 127 159 210 263 308 372
#     4  11  24  41  63  95 125 165 204 259 319 366
#     4  10  25  44  64  91 125 172 210 254 315 369
#     4  11  23  44  66  89 126 171 210 256 311 375
#     4  11  23  42  65  93 127 159 213 260 306 380
#
# _framework density 19.549240999999999
#
# number of rings (size 3 to 8) (size 9 to 14) (size 15 to 20)
#    0.000    1.143    4.286    1.286    4.000    0.571 
#    0.000    1.429    0.000    0.000    0.000    0.000 
#    0.000    0.000    0.000    0.000    0.000    0.000 
#
# Total GULP energy -78253.651147 kJ/mol
# GULP energy per Si atom -5589.546511 kJ/mol
# Density = 1.950475 g / cm^3
# Si number density = 19.549241 Si / 1000 Ang^3
#
#
#
# Elastic Constant Matrix: (Units=GPa)
#
#
# Indices 1 2 3 4 5 6 
#
# 1 99.0033 24.7669 48.4409 8.7241 12.6662 -22.2432
# 2 24.7669 48.7747 49.9172 20.4751 -3.2003 -7.6464
# 3 48.4409 49.9172 105.6207 13.0728 0.9055 -2.0808
# 4 8.7241 20.4751 13.0728 33.0162 6.3506 -2.7980
# 5 12.6662 -3.2003 0.9055 6.3506 31.2896 11.7280
# 6 -22.2432 -7.6464 -2.0808 -2.7980 11.7280 24.8851
#
#
#
# Elastic Compliance Matrix: (Units=1/GPa)
#
#
# Indices 1 2 3 4 5 6 
#
# 1 0.026340 0.000971 -0.012253 0.004902 -0.024246 0.034796
# 2 0.000971 0.059341 -0.024906 -0.027958 0.008345 0.009942
# 3 -0.012253 -0.024906 0.025748 0.005301 0.007937 -0.019596
# 4 0.004902 -0.027958 0.005301 0.048761 -0.018871 0.010610
# 5 -0.024246 0.008345 0.007937 -0.018871 0.065509 -0.051439
# 6 0.034796 0.009942 -0.019596 0.010610 -0.051439 0.098138
#
#
# Mechanical properties :
#
#
# Convention : Reuss Voigt Hill
#
# Bulk Modulus (GPa) = 25.60533 55.51653 40.56093
# Shear Modulus (GPa) = 12.21805 26.52312 19.37058
#
# Velocity S-wave (km/s) = 2.50269 3.68738 3.15121
# Velocity P-wave (km/s) = 4.63439 6.82561 5.83381
#
# Compressibility (1/GPa) = 0.03905437
#
# Stress axis : x y z
#
# Youngs Moduli (GPa) = 37.96443 16.85170 38.83845
#
# Poissons Ratio (x) = -0.01636 0.47587
# Poissons Ratio (y) = -0.03685 0.96729
# Poissons Ratio (z) = 0.46517 0.41970
#
# Static dielectric constant tensor:
#      x y z
#    x 1.686270 0.013720 -0.001670 
#    y 0.013720 1.672170 -0.015960 
#    z -0.001670 -0.015960 1.656850 
# 
# From -- ./inp_files/40266.got.cif
#   From: 2010.05.17/outbox.cif.g08.bks.cpg/sg2_21_cif.got.tgz:40266.got - 2010.06.03 11:33:40.
