data_PCOD9050487
_publ_section_title
;
Structure prediction by ZEFSAII (Michael W. Deem and Ramdas Pophale) SiO2 
 PCOD9050487
Probable space group: P -1
;
_chemical_formula_sum "Si O2"
_cell_formula_units_Z 14
_cell_length_a 14.115523
_cell_length_b 7.964458
_cell_length_c 10.827350
_cell_angle_alpha 87.824353
_cell_angle_beta 75.787891
_cell_angle_gamma 145.842837
_cell_volume 593.957147
_symmetry_space_group_name_H-M "P -1"
_symmetry_group_IT_number 2
_symmetry_cell_setting 'triclinic'
loop_
_space_group_symop_operation_xyz
x,y,z
-x,-y,-z
loop_
_atom_site_type_symbol
_atom_site_label
_atom_site_fract_x
_atom_site_fract_y
_atom_site_fract_z
Si Si1 0.832694 0.864206 0.495504
Si Si2 0.467357 0.461576 0.217849
Si Si3 0.534580 0.895108 0.755604
Si Si4 0.550825 0.884314 0.473101
Si Si5 0.612316 0.303297 0.868957
Si Si6 0.165839 0.916893 0.753446
Si Si7 0.130968 0.337840 0.006681
O O1 0.738313 0.821561 0.641333
O O2 0.640854 0.485432 0.512277
O O3 0.886155 0.061704 0.357042
O O4 0.000000 0.000000 0.500000
O O5 0.457274 0.264370 0.160605
O O6 0.491019 0.678787 0.138351
O O7 0.653714 0.729316 0.241660
O O8 0.585352 0.897894 0.605627
O O9 0.656598 0.241458 0.743247
O O10 0.313126 0.631431 0.849148
O O11 0.500000 0.000000 0.500000
O O12 0.736442 0.109356 0.325784
O O13 0.790207 0.616359 0.889532
O O14 0.500000 0.000000 0.000000
O O15 0.987922 0.673751 0.912195
O O16 0.000000 0.000000 0.000000
#
# Coordination Sequence:
#
# PCOD9050487 Si02
#       7
#     2   2   2   2   2   2   2
#     4  11  21  38  64  98 131 167 222 270 323 395
#     4  11  20  41  70  91 131 181 217 271 334 389
#     4  11  21  43  69  94 131 177 223 266 337 392
#     4  11  22  42  67  95 132 177 215 275 333 391
#     4  10  25  42  64  99 133 170 226 275 326 400
#     4  11  21  41  67  99 129 172 226 265 331 402
#     4  11  22  42  67  93 134 170 215 279 327 391
#
# _framework density 23.570727000000002
#
# number of rings (size 3 to 8) (size 9 to 14) (size 15 to 20)
#    0.000    1.143    4.286    3.429    0.000    2.286 
#    2.571    7.857    0.000    0.000    0.000    0.000 
#    0.000    0.000    0.000    0.000    0.000    0.000 
#
# Total GULP energy -77980.492503 kJ/mol
# GULP energy per Si atom -5570.035179 kJ/mol
# Density = 2.351708 g / cm^3
# Si number density = 23.570727 Si / 1000 Ang^3
#
#
#
# Elastic Constant Matrix: (Units=GPa)
#
#
# Indices 1 2 3 4 5 6 
#
# 1 172.5141 32.0449 46.1178 2.8201 -14.4056 -5.2069
# 2 32.0449 84.0216 12.8605 23.9595 -4.1151 7.7446
# 3 46.1178 12.8605 111.2097 2.2816 -38.3176 3.5167
# 4 2.8201 23.9595 2.2816 30.5999 8.7651 -3.8636
# 5 -14.4056 -4.1151 -38.3176 8.7651 52.8092 1.5991
# 6 -5.2069 7.7446 3.5167 -3.8636 1.5991 42.4990
#
#
#
# Elastic Compliance Matrix: (Units=1/GPa)
#
#
# Indices 1 2 3 4 5 6 
#
# 1 0.007150 -0.003253 -0.003061 0.002663 -0.001026 0.002003
# 2 -0.003253 0.018210 0.001190 -0.015936 0.004205 -0.005422
# 3 -0.003061 0.001190 0.013810 -0.004917 0.010172 -0.002564
# 4 0.002663 -0.015936 -0.004917 0.049994 -0.012643 0.008658
# 5 -0.001026 0.004205 0.010172 -0.012643 0.028583 -0.003959
# 6 0.002003 -0.005422 -0.002564 0.008658 -0.003959 0.025912
#
#
# Mechanical properties :
#
#
# Convention : Reuss Voigt Hill
#
# Bulk Modulus (GPa) = 34.57278 61.08797 47.83037
# Shear Modulus (GPa) = 30.57215 43.62979 37.10097
#
# Velocity S-wave (km/s) = 3.60535 4.30701 3.97171
# Velocity P-wave (km/s) = 5.65959 7.12088 6.43187
#
# Compressibility (1/GPa) = 0.02892449
#
# Stress axis : x y z
#
# Youngs Moduli (GPa) = 139.85561 54.91406 72.40890
#
# Poissons Ratio (x) = 0.17863 0.22161
# Poissons Ratio (y) = 0.45492 -0.08618
# Poissons Ratio (z) = 0.42804 -0.06536
#
# Static dielectric constant tensor:
#      x y z
#    x 2.117060 0.006940 0.215170 
#    y 0.006940 1.942060 0.043370 
#    z 0.215170 0.043370 2.215300 
# 
# From -- ./inp_files/447645.got.cif
#   From: 2010.05.17/outbox.cif.g08.bks.cpg/sg2_224_cif.got.tgz:447645.got - 2010.06.03 11:33:40.
