data_PCOD9050995
_publ_section_title
;
Structure prediction by ZEFSAII (Michael W. Deem and Ramdas Pophale) SiO2 
 PCOD9050995
Probable space group: P -1
;
_chemical_formula_sum "Si O2"
_cell_formula_units_Z 16
_cell_length_a 8.749633
_cell_length_b 17.944147
_cell_length_c 11.252930
_cell_angle_alpha 36.703925
_cell_angle_beta 39.604484
_cell_angle_gamma 41.375181
_cell_volume 631.016823
_symmetry_space_group_name_H-M "P -1"
_symmetry_group_IT_number 2
_symmetry_cell_setting 'triclinic'
loop_
_space_group_symop_operation_xyz
x,y,z
-x,-y,-z
loop_
_atom_site_type_symbol
_atom_site_label
_atom_site_fract_x
_atom_site_fract_y
_atom_site_fract_z
Si Si1 0.718696 0.575312 0.113508
Si Si2 0.166363 0.319781 0.673870
Si Si3 0.210268 0.563732 0.439496
Si Si4 0.809538 0.777766 0.975039
Si Si5 0.948074 0.835743 0.351748
Si Si6 0.338096 0.963315 0.903263
Si Si7 0.505450 0.193437 0.223513
Si Si8 0.409954 0.653680 0.801148
O O1 0.513529 0.504539 0.344980
O O2 0.703589 0.672319 0.108528
O O3 0.609728 0.667118 0.949462
O O4 0.000000 0.500000 0.000000
O O5 0.103765 0.445932 0.640766
O O6 0.385509 0.335822 0.434732
O O7 0.900921 0.352598 0.721067
O O8 0.235966 0.204593 0.877842
O O9 0.087972 0.676371 0.466007
O O10 0.624019 0.913061 0.848053
O O11 0.116423 0.711647 0.855102
O O12 0.723480 0.862723 0.545644
O O13 0.156179 0.904853 0.162559
O O14 0.801976 0.885618 0.247747
O O15 0.328191 0.896604 0.864864
O O16 0.597078 0.233512 0.240795
O O17 0.500000 0.500000 0.000000
#
# Coordination Sequence:
#
# PCOD9050995 Si02
#       8
#     2   2   2   2   2   2   2   2
#     4  11  23  38  60  97 134 165 204 265 324 375
#     4  11  24  39  64  98 130 168 207 255 320 396
#     4  11  21  41  64  92 128 166 216 251 311 392
#     4  11  24  40  60  94 135 161 208 266 323 374
#     4  11  22  43  71  89 121 171 226 262 314 370
#     4  10  25  45  65  95 124 164 221 279 310 365
#     4  11  22  41  68  91 122 173 217 258 316 384
#     4  12  24  40  65  97 134 172 205 258 321 389
#
# _framework density 25.355902
#
# number of rings (size 3 to 8) (size 9 to 14) (size 15 to 20)
#    0.000    1.000    3.750    4.875    1.750    3.500 
#    0.000    1.250    0.000    0.000    0.000    0.000 
#    0.000    0.000    0.000    0.000    0.000    0.000 
#
# Total GULP energy -89280.195823 kJ/mol
# GULP energy per Si atom -5580.012239 kJ/mol
# Density = 2.529819 g / cm^3
# Si number density = 25.355902 Si / 1000 Ang^3
#
#
#
# Elastic Constant Matrix: (Units=GPa)
#
#
# Indices 1 2 3 4 5 6 
#
# 1 103.1295 18.9136 22.4103 12.3592 -2.9749 -36.1007
# 2 18.9136 96.1382 18.8517 13.4625 -10.5279 -37.5325
# 3 22.4103 18.8517 99.1720 28.1813 -7.6523 -18.6459
# 4 12.3592 13.4625 28.1813 29.8022 -6.6779 -9.5213
# 5 -2.9749 -10.5279 -7.6523 -6.6779 39.6627 3.7993
# 6 -36.1007 -37.5325 -18.6459 -9.5213 3.7993 39.4573
#
#
#
# Elastic Compliance Matrix: (Units=1/GPa)
#
#
# Indices 1 2 3 4 5 6 
#
# 1 0.015316 0.004104 -0.000325 -0.002382 0.000129 0.017176
# 2 0.004104 0.018143 0.000600 -0.003395 0.002731 0.020213
# 3 -0.000325 0.000600 0.014331 -0.012299 0.000442 0.004035
# 4 -0.002382 -0.003395 -0.012299 0.048803 0.004755 0.000098
# 5 0.000129 0.002731 0.000442 0.004755 0.026689 0.001503
# 6 0.017176 0.020213 0.004035 0.000098 0.001503 0.062072
#
#
# Mechanical properties :
#
#
# Convention : Reuss Voigt Hill
#
# Bulk Modulus (GPa) = 17.68453 46.53232 32.10843
# Shear Modulus (GPa) = 25.58261 37.66871 31.62566
#
# Velocity S-wave (km/s) = 3.17983 3.85853 3.53550
# Velocity P-wave (km/s) = 4.52453 6.18405 5.41821
#
# Compressibility (1/GPa) = 0.05654659
#
# Stress axis : x y z
#
# Youngs Moduli (GPa) = 65.29011 55.11907 69.78028
#
# Poissons Ratio (x) = -0.22619 0.02268
# Poissons Ratio (y) = -0.26793 -0.04185
# Poissons Ratio (z) = 0.02122 -0.03306
#
# Static dielectric constant tensor:
#      x y z
#    x 2.037170 0.044420 0.042610 
#    y 0.044420 2.359300 -0.022750 
#    z 0.042610 -0.022750 2.058700 
# 
# From -- ./inp_files/405364.got.cif
#   From: 2010.05.17/outbox.cif.g08.bks.cpg/sg2_203_cif.got.tgz:405364.got - 2010.06.03 11:33:40.
