data_PCOD9050107
_publ_section_title
;
Structure prediction by ZEFSAII (Michael W. Deem and Ramdas Pophale) SiO2 
 PCOD9050107
Probable space group: P -1
;
_chemical_formula_sum "Si O2"
_cell_formula_units_Z 16
_cell_length_a 11.751162
_cell_length_b 11.626604
_cell_length_c 7.855764
_cell_angle_alpha 74.087111
_cell_angle_beta 48.746146
_cell_angle_gamma 97.685043
_cell_volume 698.709051
_symmetry_space_group_name_H-M "P -1"
_symmetry_group_IT_number 2
_symmetry_cell_setting 'triclinic'
loop_
_space_group_symop_operation_xyz
x,y,z
-x,-y,-z
loop_
_atom_site_type_symbol
_atom_site_label
_atom_site_fract_x
_atom_site_fract_y
_atom_site_fract_z
Si Si1 0.260793 0.150577 0.056776
Si Si2 0.639150 0.316666 0.638505
Si Si3 0.031614 0.184888 0.736041
Si Si4 0.471700 0.273672 0.482757
Si Si5 0.640864 0.561246 0.692166
Si Si6 0.952795 0.096194 0.221187
Si Si7 0.263032 0.881870 0.189703
Si Si8 0.561590 0.950173 0.624381
O O1 0.088459 0.166826 0.210520
O O2 0.229016 0.008394 0.220832
O O3 0.438930 0.252965 0.916105
O O4 0.318984 0.166954 0.792044
O O5 0.625038 0.316140 0.447006
O O6 0.710543 0.458487 0.599227
O O7 0.727516 0.226270 0.649085
O O8 0.203566 0.303640 0.458493
O O9 0.874560 0.187862 0.792781
O O10 0.032319 0.042889 0.757699
O O11 0.014073 0.187124 0.955766
O O12 0.438721 0.397093 0.408702
O O13 0.473238 0.197618 0.339916
O O14 0.500000 0.500000 0.000000
O O15 0.753411 0.045586 0.434563
O O16 0.445104 0.947244 0.895100
O O17 0.500000 0.000000 0.500000
#
# Coordination Sequence:
#
# PCOD9050107 Si02
#       8
#     2   2   2   2   2   2   2   2
#     4   9  19  36  63  85 120 159 195 241 300 361
#     4  10  23  38  59  85 124 169 196 233 307 371
#     4  10  19  35  61  88 118 155 198 251 300 346
#     4  10  20  37  59  84 118 158 199 235 303 352
#     4  12  23  40  65  87 116 158 214 253 278 359
#     4  10  17  34  61  93 118 149 202 250 298 352
#     4  11  21  36  62  93 124 151 201 250 304 352
#     4  12  18  31  61 100 116 148 193 257 296 342
#
# _framework density 22.899373000000001
#
# number of rings (size 3 to 8) (size 9 to 14) (size 15 to 20)
#    0.750    0.750    5.000    2.250    0.000    0.500 
#    0.000    0.625    5.500    1.500    0.000    0.000 
#    0.000    0.000    0.000    0.000    0.000    0.000 
#
# Total GULP energy -89332.027120 kJ/mol
# GULP energy per Si atom -5583.251695 kJ/mol
# Density = 2.284725 g / cm^3
# Si number density = 22.899373 Si / 1000 Ang^3
#
#
#
# Elastic Constant Matrix: (Units=GPa)
#
#
# Indices 1 2 3 4 5 6 
#
# 1 157.4946 10.9703 32.2240 -4.6376 3.2415 -25.0429
# 2 10.9703 59.7722 5.0251 -6.9467 16.4949 -7.2359
# 3 32.2240 5.0251 88.4368 -6.7110 -2.1037 -0.7589
# 4 -4.6376 -6.9467 -6.7110 27.8786 -3.2155 0.9913
# 5 3.2415 16.4949 -2.1037 -3.2155 36.5376 -6.0660
# 6 -25.0429 -7.2359 -0.7589 0.9913 -6.0660 31.3109
#
#
#
# Elastic Compliance Matrix: (Units=1/GPa)
#
#
# Indices 1 2 3 4 5 6 
#
# 1 0.007949 -0.000555 -0.002774 0.000346 0.000452 0.006238
# 2 -0.000555 0.019895 -0.000829 0.003627 -0.008259 0.002419
# 3 -0.002774 -0.000829 0.012574 0.002572 0.001248 -0.001945
# 4 0.000346 0.003627 0.002572 0.037651 0.001851 0.000344
# 5 0.000452 -0.008259 0.001248 0.001851 0.032062 0.004636
# 6 0.006238 0.002419 -0.001945 0.000344 0.004636 0.038326
#
#
# Mechanical properties :
#
#
# Convention : Reuss Voigt Hill
#
# Bulk Modulus (GPa) = 31.15073 44.68249 37.91661
# Shear Modulus (GPa) = 29.85546 36.31104 33.08325
#
# Velocity S-wave (km/s) = 3.61469 3.98638 3.80507
# Velocity P-wave (km/s) = 5.57262 6.38304 5.99155
#
# Compressibility (1/GPa) = 0.03210198
#
# Stress axis : x y z
#
# Youngs Moduli (GPa) = 125.80937 50.26295 79.53193
#
# Poissons Ratio (x) = 0.02789 0.22063
# Poissons Ratio (y) = 0.06980 0.06592
# Poissons Ratio (z) = 0.34901 0.04166
#
# Static dielectric constant tensor:
#      x y z
#    x 1.890090 0.013150 0.004510 
#    y 0.013150 1.921370 0.070300 
#    z 0.004510 0.070300 1.895720 
# 
# From -- ./inp_files/267066.got.cif
#   From: 2010.05.17/outbox.cif.g08.bks.cpg/sg2_134_cif.got.tgz:267066.got - 2010.06.03 11:33:40.
