data_PCOD9050373
_publ_section_title
;
Structure prediction by ZEFSAII (Michael W. Deem and Ramdas Pophale) SiO2 
 PCOD9050373
Probable space group: P -1
;
_chemical_formula_sum "Si O2"
_cell_formula_units_Z 13
_cell_length_a 14.044739
_cell_length_b 7.642509
_cell_length_c 4.987875
_cell_angle_alpha 98.831083
_cell_angle_beta 103.517630
_cell_angle_gamma 62.300532
_cell_volume 460.269720
_symmetry_space_group_name_H-M "P -1"
_symmetry_group_IT_number 2
_symmetry_cell_setting 'triclinic'
loop_
_space_group_symop_operation_xyz
x,y,z
-x,-y,-z
loop_
_atom_site_type_symbol
_atom_site_label
_atom_site_fract_x
_atom_site_fract_y
_atom_site_fract_z
Si Si1 0.738298 0.371409 0.434746
Si Si2 0.926695 0.423575 0.752233
Si Si3 0.593961 0.004453 0.746478
Si Si4 0.420977 0.299836 0.961272
Si Si5 0.876602 0.977081 0.128829
Si Si6 0.500000 0.500000 0.500000
Si Si7 0.816473 0.834804 0.538974
O O1 0.809462 0.418486 0.717923
O O2 0.677686 0.560932 0.251376
O O3 0.634071 0.339297 0.451260
O O4 0.826020 0.199100 0.258803
O O5 0.886960 0.598375 0.544643
O O6 0.006684 0.189406 0.729335
O O7 0.000000 0.500000 0.000000
O O8 0.703215 0.910445 0.634241
O O9 0.500000 0.000000 0.500000
O O10 0.531974 0.236836 0.837612
O O11 0.601033 0.876749 0.982473
O O12 0.446476 0.395002 0.254476
O O13 0.803123 0.902246 0.241039
O O14 0.872033 0.939792 0.799196
#
# Coordination Sequence:
#
# PCOD9050373 Si02
#       7
#     2   2   2   2   2   1   2
#     4  12  27  47  76 114 158 200 255 324 393 468
#     4  10  24  53  79 110 150 208 266 322 381 461
#     4  11  25  45  72 108 147 205 263 316 386 467
#     4  11  26  44  73 109 156 203 257 316 388 476
#     4  11  27  47  77 112 153 203 257 323 391 461
#     4  12  26  46  70 114 158 196 250 310 408 462
#     4  11  25  47  76 111 150 201 264 320 387 460
#
# _framework density 28.244306999999999
#
# number of rings (size 3 to 8) (size 9 to 14) (size 15 to 20)
#    0.000    0.923    0.000    5.077   12.923    0.000 
#    5.538    3.846    0.000    0.000    0.000    0.000 
#    0.000    0.000    0.000    0.000    0.000    0.000 
#
# Total GULP energy -72429.633912 kJ/mol
# GULP energy per Si atom -5571.510301 kJ/mol
# Density = 2.818002 g / cm^3
# Si number density = 28.244307 Si / 1000 Ang^3
#
#
#
# Elastic Constant Matrix: (Units=GPa)
#
#
# Indices 1 2 3 4 5 6 
#
# 1 128.6085 46.0175 55.5507 -19.5327 27.7991 -31.5747
# 2 46.0175 165.3346 21.6083 -10.5976 13.1070 -34.9206
# 3 55.5507 21.6083 112.2411 -2.1309 8.5448 -10.2683
# 4 -19.5327 -10.5976 -2.1309 34.5443 0.7448 -9.2985
# 5 27.7991 13.1070 8.5448 0.7448 48.5831 -1.5021
# 6 -31.5747 -34.9206 -10.2683 -9.2985 -1.5021 43.4987
#
#
#
# Elastic Compliance Matrix: (Units=1/GPa)
#
#
# Indices 1 2 3 4 5 6 
#
# 1 0.018375 0.000592 -0.006866 0.014370 -0.009225 0.014946
# 2 0.000592 0.008116 -0.000890 0.004891 -0.002209 0.007704
# 3 -0.006866 -0.000890 0.011894 -0.004482 0.002029 -0.003779
# 4 0.014370 0.004891 -0.004482 0.044548 -0.008740 0.022520
# 5 -0.009225 -0.002209 0.002029 -0.008740 0.025957 -0.008962
# 6 0.014946 0.007704 -0.003779 0.022520 -0.008962 0.043636
#
#
# Mechanical properties :
#
#
# Convention : Reuss Voigt Hill
#
# Bulk Modulus (GPa) = 41.56707 72.50416 57.03561
# Shear Modulus (GPa) = 28.59240 44.19238 36.39239
#
# Velocity S-wave (km/s) = 3.18516 3.95985 3.59344
# Velocity P-wave (km/s) = 5.31751 6.82886 6.12002
#
# Compressibility (1/GPa) = 0.02405751
#
# Stress axis : x y z
#
# Youngs Moduli (GPa) = 54.42163 123.21882 84.07939
#
# Poissons Ratio (x) = -0.07296 0.57728
# Poissons Ratio (y) = -0.03223 0.07480
# Poissons Ratio (z) = 0.37365 0.10962
#
# Static dielectric constant tensor:
#      x y z
#    x 2.228110 -0.026250 0.108720 
#    y -0.026250 2.345160 0.042580 
#    z 0.108720 0.042580 1.813900 
# 
# From -- ./inp_files/89139.got.cif
#   From: 2010.05.17/outbox.cif.g08.bks.cpg/sg2_45_cif.got.tgz:89139.got - 2010.06.03 11:33:40.
