data_PCOD9050947
_publ_section_title
;
Structure prediction by ZEFSAII (Michael W. Deem and Ramdas Pophale) SiO2 
 PCOD9050947
Probable space group: P -1
;
_chemical_formula_sum "Si O2"
_cell_formula_units_Z 15
_cell_length_a 7.689515
_cell_length_b 13.365295
_cell_length_c 19.301516
_cell_angle_alpha 143.793683
_cell_angle_beta 35.505803
_cell_angle_gamma 152.608179
_cell_volume 503.098908
_symmetry_space_group_name_H-M "P -1"
_symmetry_group_IT_number 2
_symmetry_cell_setting 'triclinic'
loop_
_space_group_symop_operation_xyz
x,y,z
-x,-y,-z
loop_
_atom_site_type_symbol
_atom_site_label
_atom_site_fract_x
_atom_site_fract_y
_atom_site_fract_z
Si Si1 0.850829 0.276735 0.092698
Si Si2 0.231276 0.311788 0.373839
Si Si3 0.652112 0.522416 0.764583
Si Si4 0.499611 0.998288 0.243146
Si Si5 0.436331 0.740957 0.237171
Si Si6 0.357705 0.788045 0.029016
Si Si7 0.000000 0.500000 0.500000
Si Si8 0.805575 0.786818 0.507599
O O1 0.479366 0.266871 0.225655
O O2 0.231798 0.507957 0.132860
O O3 0.739098 0.054991 0.037538
O O4 0.890630 0.271145 0.994349
O O5 0.393311 0.574780 0.479303
O O6 0.224345 0.246155 0.417688
O O7 0.819379 0.229377 0.431201
O O8 0.439012 0.290579 0.747530
O O9 0.709530 0.489889 0.649137
O O10 0.438494 0.619081 0.904336
O O11 0.120294 0.740883 0.757105
O O12 0.660896 0.928443 0.208926
O O13 0.288818 0.820232 0.148721
O O14 0.180604 0.006042 0.386357
O O15 0.076035 0.731375 0.368779
#
# Coordination Sequence:
#
# PCOD9050947 Si02
#       8
#     2   2   2   2   2   2   1   2
#     4  10  21  40  63  93 118 161 209 248 300 362
#     4  10  17  34  66  87 116 160 198 250 304 356
#     4  12  24  43  62  92 122 164 203 249 309 362
#     4  12  23  40  65  91 125 162 203 251 301 366
#     4  11  24  40  66  90 123 161 206 250 303 362
#     4  11  23  39  66  88 124 163 204 251 302 359
#     4  12  20  36  68  90 118 162 200 252 312 352
#     4  10  18  37  60  91 117 153 207 247 298 362
#
# _framework density 29.815211999999999
#
# number of rings (size 3 to 8) (size 9 to 14) (size 15 to 20)
#    0.000    1.067    6.667    1.600    0.000    1.067 
#    0.000    0.667    2.933    0.000    0.000    0.000 
#    0.000    0.000    0.000    0.000    0.000    0.000 
#
# Total GULP energy -83851.561277 kJ/mol
# GULP energy per Si atom -5590.104085 kJ/mol
# Density = 2.974735 g / cm^3
# Si number density = 29.815212 Si / 1000 Ang^3
#
#
#
# Elastic Constant Matrix: (Units=GPa)
#
#
# Indices 1 2 3 4 5 6 
#
# 1 103.1321 32.7906 47.7186 17.3414 27.6040 -19.8881
# 2 32.7906 82.6507 56.4889 27.0577 -0.2841 -36.9619
# 3 47.7186 56.4889 242.6347 -6.3923 24.6917 -6.6025
# 4 17.3414 27.0577 -6.3923 42.9125 -2.9890 -1.4810
# 5 27.6040 -0.2841 24.6917 -2.9890 67.7309 8.0685
# 6 -19.8881 -36.9619 -6.6025 -1.4810 8.0685 68.3097
#
#
#
# Elastic Compliance Matrix: (Units=1/GPa)
#
#
# Indices 1 2 3 4 5 6 
#
# 1 0.014211 -0.000126 -0.002222 -0.006245 -0.005782 0.004402
# 2 -0.000126 0.030184 -0.007114 -0.019510 0.000103 0.015173
# 3 -0.002222 -0.007114 0.006352 0.006152 -0.000732 -0.003662
# 4 -0.006245 -0.019510 0.006152 0.038883 0.003286 -0.011325
# 5 -0.005782 0.000103 -0.000732 0.003286 0.017980 -0.003751
# 6 0.004402 0.015173 -0.003662 -0.011325 -0.003751 0.023974
#
#
# Mechanical properties :
#
#
# Convention : Reuss Voigt Hill
#
# Bulk Modulus (GPa) = 31.42439 78.04596 54.73518
# Shear Modulus (GPa) = 31.03343 55.21860 43.12601
#
# Velocity S-wave (km/s) = 3.22973 4.30819 3.80734
# Velocity P-wave (km/s) = 4.94680 7.14008 6.14213
#
# Compressibility (1/GPa) = 0.03182241
#
# Stress axis : x y z
#
# Youngs Moduli (GPa) = 70.36738 33.12967 157.44165
#
# Poissons Ratio (x) = 0.00419 0.34979
# Poissons Ratio (y) = 0.00890 1.12006
# Poissons Ratio (z) = 0.15634 0.23569
#
# Static dielectric constant tensor:
#      x y z
#    x 2.363660 0.076370 -0.012300 
#    y 0.076370 2.598300 -0.054240 
#    z -0.012300 -0.054240 2.234540 
# 
# From -- ./inp_files/172816.got.cif
#   From: 2010.05.17/outbox.cif.g08.bks.cpg/sg2_87_cif.got.tgz:172816.got - 2010.06.03 11:33:40.
