data_PCOD9050782
_publ_section_title
;
Structure prediction by ZEFSAII (Michael W. Deem and Ramdas Pophale) SiO2 
 PCOD9050782
Probable space group: P -1
;
_chemical_formula_sum "Si O2"
_cell_formula_units_Z 16
_cell_length_a 12.344823
_cell_length_b 18.649299
_cell_length_c 14.126214
_cell_angle_alpha 29.880563
_cell_angle_beta 51.330438
_cell_angle_gamma 29.590987
_cell_volume 680.953314
_symmetry_space_group_name_H-M "P -1"
_symmetry_group_IT_number 2
_symmetry_cell_setting 'triclinic'
loop_
_space_group_symop_operation_xyz
x,y,z
-x,-y,-z
loop_
_atom_site_type_symbol
_atom_site_label
_atom_site_fract_x
_atom_site_fract_y
_atom_site_fract_z
Si Si1 0.247142 0.254838 0.787476
Si Si2 0.963992 0.245204 0.641280
Si Si3 0.027378 0.086138 0.578720
Si Si4 0.739504 0.848795 0.664518
Si Si5 0.230354 0.710557 0.760794
Si Si6 0.430084 0.929960 0.880063
Si Si7 0.209453 0.428857 0.199762
Si Si8 0.510409 0.441719 0.725444
O O1 0.195512 0.468484 0.585964
O O2 0.299795 0.151257 0.772239
O O3 0.004449 0.384145 0.816412
O O4 0.500000 0.000000 0.000000
O O5 0.048984 0.123518 0.629940
O O6 0.777780 0.282402 0.737883
O O7 0.221324 0.059019 0.770240
O O8 0.743873 0.264685 0.518758
O O9 0.059906 0.201179 0.364640
O O10 0.243578 0.791816 0.756913
O O11 0.842739 0.658842 0.741610
O O12 0.651571 0.824772 0.825862
O O13 0.483611 0.152875 0.414923
O O14 0.455655 0.503598 0.796985
O O15 0.192123 0.584273 0.966204
O O16 0.000000 0.000000 0.500000
O O17 0.507154 0.706819 0.134154
#
# Coordination Sequence:
#
# PCOD9050782 Si02
#       8
#     2   2   2   2   2   2   2   2
#     4  12  28  43  74 108 140 189 237 297 361 422
#     4  12  25  48  68 100 146 186 238 291 355 433
#     4  11  25  44  71 104 138 190 238 296 359 417
#     4  11  23  45  75 102 140 186 243 302 352 418
#     4  10  25  44  67 101 141 185 234 290 357 424
#     4  12  26  47  71 106 140 189 239 294 363 419
#     4  11  23  47  71 102 145 183 246 298 352 427
#     4  11  26  45  67 103 146 187 234 295 356 427
#
# _framework density 23.496472000000001
#
# number of rings (size 3 to 8) (size 9 to 14) (size 15 to 20)
#    0.000    0.750    3.750    2.625    7.000    2.000 
#    0.000    0.000    0.000    0.000    0.000    0.000 
#    0.000    0.000    0.000    0.000    0.000    0.000 
#
# Total GULP energy -89472.663807 kJ/mol
# GULP energy per Si atom -5592.041488 kJ/mol
# Density = 2.344299 g / cm^3
# Si number density = 23.496472 Si / 1000 Ang^3
#
#
#
# Elastic Constant Matrix: (Units=GPa)
#
#
# Indices 1 2 3 4 5 6 
#
# 1 99.1604 37.8651 9.4146 -4.9422 -14.6145 22.6033
# 2 37.8651 133.9437 3.4944 11.0707 -21.9391 17.1270
# 3 9.4146 3.4944 89.3546 2.0352 -17.0127 0.7232
# 4 -4.9422 11.0707 2.0352 30.8389 -2.1919 -13.0728
# 5 -14.6145 -21.9391 -17.0127 -2.1919 36.6770 -4.5283
# 6 22.6033 17.1270 0.7232 -13.0728 -4.5283 53.6980
#
#
#
# Elastic Compliance Matrix: (Units=1/GPa)
#
#
# Indices 1 2 3 4 5 6 
#
# 1 0.012531 -0.002742 -0.000714 0.001630 0.002654 -0.003770
# 2 -0.002742 0.009705 0.000899 -0.004828 0.004502 -0.002749
# 3 -0.000714 0.000899 0.012385 -0.000760 0.005973 0.000166
# 4 0.001630 -0.004828 -0.000760 0.038969 0.001027 0.010438
# 5 0.002654 0.004502 0.005973 0.001027 0.033906 0.000476
# 6 -0.003770 -0.002749 0.000166 0.010438 0.000476 0.023665
#
#
# Mechanical properties :
#
#
# Convention : Reuss Voigt Hill
#
# Bulk Modulus (GPa) = 33.89136 47.11188 40.50162
# Shear Modulus (GPa) = 34.22033 42.35509 38.28771
#
# Velocity S-wave (km/s) = 3.82042 4.25033 4.04110
# Velocity P-wave (km/s) = 5.82376 6.64689 6.24890
#
# Compressibility (1/GPa) = 0.02950604
#
# Stress axis : x y z
#
# Youngs Moduli (GPa) = 79.80061 103.03449 80.74538
#
# Poissons Ratio (x) = 0.28251 0.05769
# Poissons Ratio (y) = 0.21880 -0.07257
# Poissons Ratio (z) = 0.05701 -0.09260
#
# Static dielectric constant tensor:
#      x y z
#    x 1.902510 0.009140 0.008880 
#    y 0.009140 1.883260 -0.017330 
#    z 0.008880 -0.017330 2.015540 
# 
# From -- ./inp_files/448166.got.cif
#   From: 2010.05.17/outbox.cif.g08.bks.cpg/sg2_225_cif.got.tgz:448166.got - 2010.06.03 11:33:40.
