data_PCOD9050217
_publ_section_title
;
Structure prediction by ZEFSAII (Michael W. Deem and Ramdas Pophale) SiO2 
 PCOD9050217
Probable space group: P -1
;
_chemical_formula_sum "Si O2"
_cell_formula_units_Z 16
_cell_length_a 8.293644
_cell_length_b 13.429387
_cell_length_c 9.723898
_cell_angle_alpha 43.646326
_cell_angle_beta 103.691972
_cell_angle_gamma 105.881771
_cell_volume 717.759649
_symmetry_space_group_name_H-M "P -1"
_symmetry_group_IT_number 2
_symmetry_cell_setting 'triclinic'
loop_
_space_group_symop_operation_xyz
x,y,z
-x,-y,-z
loop_
_atom_site_type_symbol
_atom_site_label
_atom_site_fract_x
_atom_site_fract_y
_atom_site_fract_z
Si Si1 0.537932 0.335642 0.676151
Si Si2 0.375642 0.064020 0.301700
Si Si3 0.418687 0.639610 0.893136
Si Si4 0.155737 0.647433 0.070533
Si Si5 0.338163 0.780335 0.450653
Si Si6 0.984510 0.912396 0.858384
Si Si7 0.008469 0.404894 0.460326
Si Si8 0.199919 0.170857 0.806430
O O1 0.500000 0.500000 0.500000
O O2 0.708313 0.334499 0.796538
O O3 0.558989 0.291662 0.567763
O O4 0.397076 0.209633 0.832150
O O5 0.443514 0.235341 0.135145
O O6 0.173090 0.043898 0.304562
O O7 0.500000 0.000000 0.500000
O O8 0.384080 0.953959 0.286753
O O9 0.365228 0.714120 0.670042
O O10 0.500000 0.500000 0.000000
O O11 0.261243 0.615451 0.989788
O O12 0.018360 0.510808 0.225872
O O13 0.069484 0.792820 0.911756
O O14 0.144461 0.726588 0.434263
O O15 0.124985 0.041586 0.816407
O O16 0.896056 0.848006 0.047747
O O17 0.166244 0.321570 0.579586
O O18 0.000000 0.500000 0.500000
#
# Coordination Sequence:
#
# PCOD9050217 Si02
#       8
#     2   2   2   2   2   2   2   2
#     4  12  23  40  70 105 139 190 237 284 360 429
#     4  10  24  49  72  94 140 195 234 287 362 430
#     4  11  27  48  69 102 139 186 240 296 356 424
#     4  12  26  42  72 106 141 186 240 297 349 422
#     4  11  24  45  71  95 142 192 230 292 358 423
#     4  11  24  43  68 106 141 179 238 300 351 409
#     4  12  21  43  67 103 143 183 231 284 359 419
#     4  11  23  39  68 103 145 183 226 292 361 419
#
# _framework density 22.291584
#
# number of rings (size 3 to 8) (size 9 to 14) (size 15 to 20)
#    0.000    0.750    5.000    1.500    5.250    1.000 
#    0.000    2.500    0.000    0.000    0.000    0.000 
#    0.000    0.000    0.000    0.000    0.000    0.000 
#
# Total GULP energy -89336.857646 kJ/mol
# GULP energy per Si atom -5583.553603 kJ/mol
# Density = 2.224085 g / cm^3
# Si number density = 22.291584 Si / 1000 Ang^3
#
#
#
# Elastic Constant Matrix: (Units=GPa)
#
#
# Indices 1 2 3 4 5 6 
#
# 1 94.0166 55.2153 28.2685 -8.9191 -3.1348 -2.5718
# 2 55.2153 145.7596 43.4234 -18.8974 -14.0621 -15.9532
# 3 28.2685 43.4234 75.0439 -5.8294 -1.5786 -10.6821
# 4 -8.9191 -18.8974 -5.8294 38.6602 -1.8673 0.2706
# 5 -3.1348 -14.0621 -1.5786 -1.8673 42.7974 3.1596
# 6 -2.5718 -15.9532 -10.6821 0.2706 3.1596 53.1763
#
#
#
# Elastic Compliance Matrix: (Units=1/GPa)
#
#
# Indices 1 2 3 4 5 6 
#
# 1 0.014220 -0.004661 -0.002803 0.000565 -0.000476 -0.001248
# 2 -0.004661 0.010773 -0.003832 0.003747 0.003070 0.002035
# 3 -0.002803 -0.003832 0.016883 -0.000038 -0.001003 0.002166
# 4 0.000565 0.003747 -0.000038 0.027934 0.002427 0.000857
# 5 -0.000476 0.003070 -0.001003 0.002427 0.024465 -0.000770
# 6 -0.001248 0.002035 0.002166 0.000857 -0.000770 0.019832
#
#
# Mechanical properties :
#
#
# Convention : Reuss Voigt Hill
#
# Bulk Modulus (GPa) = 51.85994 63.18162 57.52078
# Shear Modulus (GPa) = 34.93361 39.45430 37.19396
#
# Velocity S-wave (km/s) = 3.96298 4.21160 4.08918
# Velocity P-wave (km/s) = 6.65246 7.21491 6.93938
#
# Compressibility (1/GPa) = 0.01928271
#
# Stress axis : x y z
#
# Youngs Moduli (GPa) = 70.32208 92.82824 59.22958
#
# Poissons Ratio (x) = 0.43266 0.16605
# Poissons Ratio (y) = 0.32776 0.22699
# Poissons Ratio (z) = 0.19715 0.35576
#
# Static dielectric constant tensor:
#      x y z
#    x 1.856400 0.036560 0.025070 
#    y 0.036560 1.818850 0.005100 
#    z 0.025070 0.005100 1.859150 
# 
# From -- ./inp_files/184412.got.cif
#   From: 2010.05.17/outbox.cif.g08.bks.cpg/sg2_93_cif.got.tgz:184412.got - 2010.06.03 11:33:40.
