data_PCOD9050825
_publ_section_title
;
Structure prediction by ZEFSAII (Michael W. Deem and Ramdas Pophale) SiO2 
 PCOD9050825
Probable space group: P -1
;
_chemical_formula_sum "Si O2"
_cell_formula_units_Z 12
_cell_length_a 6.726575
_cell_length_b 5.166157
_cell_length_c 17.192308
_cell_angle_alpha 76.011992
_cell_angle_beta 80.887934
_cell_angle_gamma 102.486547
_cell_volume 551.847672
_symmetry_space_group_name_H-M "P -1"
_symmetry_group_IT_number 2
_symmetry_cell_setting 'triclinic'
loop_
_space_group_symop_operation_xyz
x,y,z
-x,-y,-z
loop_
_atom_site_type_symbol
_atom_site_label
_atom_site_fract_x
_atom_site_fract_y
_atom_site_fract_z
Si Si1 0.558370 0.874620 0.086357
Si Si2 0.847946 0.654796 0.354028
Si Si3 0.544877 0.724202 0.550481
Si Si4 0.880913 0.421088 0.789902
Si Si5 0.950249 0.799833 0.617741
Si Si6 0.162292 0.559740 0.913913
O O1 0.343196 0.745092 0.153930
O O2 0.690581 0.651355 0.079319
O O3 0.697469 0.129755 0.107618
O O4 0.500000 0.000000 0.000000
O O5 0.617731 0.464414 0.363260
O O6 0.988915 0.735372 0.262386
O O7 0.944580 0.428307 0.406800
O O8 0.882797 0.919944 0.387126
O O9 0.500000 0.500000 0.500000
O O10 0.768079 0.821145 0.570710
O O11 0.500000 0.000000 0.500000
O O12 0.856870 0.661885 0.715514
O O13 0.027548 0.525304 0.846587
O O14 0.000000 0.500000 0.000000
#
# Coordination Sequence:
#
# PCOD9050825 Si02
#       6
#     2   2   2   2   2   2
#     4  12  27  44  72 100 140 181 236 290 346 404
#     4  10  25  44  68  98 140 179 225 273 352 395
#     4  12  26  44  72 103 136 176 230 279 338 414
#     4  10  28  42  72  99 142 180 236 281 346 408
#     4  10  25  44  68  98 140 179 225 273 352 395
#     4  12  27  44  72 100 140 181 236 290 346 404
#
# _framework density 21.745135000000001
#
# number of rings (size 3 to 8) (size 9 to 14) (size 15 to 20)
#    1.000    0.000    1.667    3.000    7.000    4.000 
#    0.000    0.000    0.000    0.000    0.000    0.000 
#    0.000    0.000    0.000    0.000    0.000    0.000 
#
# Total GULP energy -67002.620327 kJ/mol
# GULP energy per Si atom -5583.551694 kJ/mol
# Density = 2.169564 g / cm^3
# Si number density = 21.745135 Si / 1000 Ang^3
#
#
#
# Elastic Constant Matrix: (Units=GPa)
#
#
# Indices 1 2 3 4 5 6 
#
# 1 63.2144 23.3440 26.1737 5.3880 -14.8073 12.6022
# 2 23.3440 139.2496 28.3196 0.0940 -15.8256 5.3680
# 3 26.1737 28.3196 109.7370 4.5087 -7.3881 5.2483
# 4 5.3880 0.0940 4.5087 32.4097 11.0836 -4.3149
# 5 -14.8073 -15.8256 -7.3881 11.0836 44.6352 -2.8659
# 6 12.6022 5.3680 5.2483 -4.3149 -2.8659 43.0160
#
#
#
# Elastic Compliance Matrix: (Units=1/GPa)
#
#
# Indices 1 2 3 4 5 6 
#
# 1 0.021290 -0.001816 -0.003611 -0.006184 0.006990 -0.005725
# 2 -0.001816 0.008027 -0.001482 -0.000238 0.002046 -0.000176
# 3 -0.003611 -0.001482 0.010415 -0.000936 0.000226 -0.000107
# 4 -0.006184 -0.000238 -0.000936 0.036433 -0.011025 0.004876
# 5 0.006990 0.002046 0.000226 -0.011025 0.028123 -0.001563
# 6 -0.005725 -0.000176 -0.000107 0.004876 -0.001563 0.025344
#
#
# Mechanical properties :
#
#
# Convention : Reuss Voigt Hill
#
# Bulk Modulus (GPa) = 38.58853 51.98619 45.28736
# Shear Modulus (GPa) = 32.87548 39.63644 36.25596
#
# Velocity S-wave (km/s) = 3.89248 4.27403 4.08770
# Velocity P-wave (km/s) = 6.16329 6.95092 6.56892
#
# Compressibility (1/GPa) = 0.02591444
#
# Stress axis : x y z
#
# Youngs Moduli (GPa) = 46.96947 124.58428 96.01264
#
# Poissons Ratio (x) = 0.22619 0.34670
# Poissons Ratio (y) = 0.08528 0.14233
# Poissons Ratio (z) = 0.16961 0.18468
#
# Static dielectric constant tensor:
#      x y z
#    x 1.865760 -0.005920 -0.079330 
#    y -0.005920 1.755870 -0.026070 
#    z -0.079330 -0.026070 1.830610 
# 
# From -- ./inp_files/10930.got.cif
#   From: 2010.05.17/outbox.cif.g08.bks.cpg/sg2_6_cif.got.tgz:10930.got - 2010.06.03 11:33:40.
