data_PCOD9050020
_publ_section_title
;
Structure prediction by ZEFSAII (Michael W. Deem and Ramdas Pophale) SiO2 
 PCOD9050020
Probable space group: P -1
;
_chemical_formula_sum "Si O2"
_cell_formula_units_Z 15
_cell_length_a 27.802377
_cell_length_b 27.306331
_cell_length_c 11.331603
_cell_angle_alpha 156.037332
_cell_angle_beta 156.244990
_cell_angle_gamma 10.458921
_cell_volume 617.871736
_symmetry_space_group_name_H-M "P -1"
_symmetry_group_IT_number 2
_symmetry_cell_setting 'triclinic'
loop_
_space_group_symop_operation_xyz
x,y,z
-x,-y,-z
loop_
_atom_site_type_symbol
_atom_site_label
_atom_site_fract_x
_atom_site_fract_y
_atom_site_fract_z
Si Si1 0.119578 0.962521 0.364177
Si Si2 0.289639 0.364698 0.331906
Si Si3 0.131825 0.053436 0.334253
Si Si4 0.000000 0.000000 0.500000
Si Si5 0.420789 0.168394 0.436470
Si Si6 0.861843 0.587897 0.162198
Si Si7 0.602778 0.549582 0.898249
Si Si8 0.700920 0.492289 0.721233
O O1 0.085114 0.077357 0.422854
O O2 0.964974 0.168524 0.578991
O O3 0.439895 0.667752 0.460368
O O4 0.984117 0.959954 0.018501
O O5 0.363185 0.205433 0.249553
O O6 0.036789 0.677207 0.489918
O O7 0.551606 0.211939 0.562322
O O8 0.210806 0.377100 0.058786
O O9 0.307993 0.756586 0.700477
O O10 0.147789 0.768571 0.228531
O O11 0.181521 0.317079 0.294929
O O12 0.703523 0.855053 0.421268
O O13 0.397755 0.331341 0.762347
O O14 0.756154 0.572048 0.965483
O O15 0.640451 0.560300 0.871905
#
# Coordination Sequence:
#
# PCOD9050020 Si02
#       8
#     2   2   2   1   2   2   2   2
#     4  11  22  40  62 101 132 169 204 277 321 398
#     4  12  23  42  65  96 128 178 213 272 328 389
#     4  11  22  38  66  95 134 163 218 261 336 384
#     4  10  24  48  72  94 140 160 218 254 324 388
#     4  12  27  43  66  94 134 169 230 261 321 380
#     4  12  24  44  65  93 131 176 215 282 315 376
#     4  11  26  46  71 103 126 178 208 267 316 398
#     4  12  24  42  70  93 136 169 223 259 336 372
#
# _framework density 24.276883000000002
#
# number of rings (size 3 to 8) (size 9 to 14) (size 15 to 20)
#    0.000    0.533    2.667    5.600    0.000    9.600 
#    0.000    0.000    0.000    0.000    0.000    0.000 
#    0.000    0.000    0.000    0.000    0.000    0.000 
#
# Total GULP energy -83897.880516 kJ/mol
# GULP energy per Si atom -5593.192034 kJ/mol
# Density = 2.422163 g / cm^3
# Si number density = 24.276883 Si / 1000 Ang^3
#
#
#
# Elastic Constant Matrix: (Units=GPa)
#
#
# Indices 1 2 3 4 5 6 
#
# 1 69.3367 6.7721 4.0162 -1.0095 0.0143 -13.1880
# 2 6.7721 113.1157 15.7607 11.8892 5.0875 -12.4481
# 3 4.0162 15.7607 63.7520 9.6424 6.4815 -5.6874
# 4 -1.0095 11.8892 9.6424 44.7226 -1.7172 9.7178
# 5 0.0143 5.0875 6.4815 -1.7172 26.0930 -3.6326
# 6 -13.1880 -12.4481 -5.6874 9.7178 -3.6326 29.1024
#
#
#
# Elastic Compliance Matrix: (Units=1/GPa)
#
#
# Indices 1 2 3 4 5 6 
#
# 1 0.015880 0.000011 -0.000237 -0.001225 0.001038 0.007693
# 2 0.000011 0.010006 -0.001379 -0.003502 -0.001137 0.005043
# 3 -0.000237 -0.001379 0.017416 -0.004340 -0.003831 0.003677
# 4 -0.001225 -0.003502 -0.004340 0.026795 0.001908 -0.011610
# 5 0.001038 -0.001137 -0.003831 0.001908 0.040125 0.003607
# 6 0.007693 0.005043 0.003677 -0.011610 0.003607 0.045050
#
#
# Mechanical properties :
#
#
# Convention : Reuss Voigt Hill
#
# Bulk Modulus (GPa) = 24.94310 33.25583 29.09946
# Shear Modulus (GPa) = 29.09572 34.62730 31.86151
#
# Velocity S-wave (km/s) = 3.46568 3.78080 3.62667
# Velocity P-wave (km/s) = 5.12946 5.72604 5.43594
#
# Compressibility (1/GPa) = 0.04009125
#
# Stress axis : x y z
#
# Youngs Moduli (GPa) = 62.97114 99.93830 57.42000
#
# Poissons Ratio (x) = -0.00110 0.01361
# Poissons Ratio (y) = -0.00069 0.07920
# Poissons Ratio (z) = 0.01493 0.13785
#
# Static dielectric constant tensor:
#      x y z
#    x 2.030850 -0.000820 0.023070 
#    y -0.000820 1.863480 0.031580 
#    z 0.023070 0.031580 1.898670 
# 
# From -- ./inp_files/477852.got.cif
#   From: 2010.05.17/outbox.cif.g08.bks.cpg/sg2_239_cif.got.tgz:477852.got - 2010.06.03 11:33:40.
