data_PCOD9050779
_publ_section_title
;
Structure prediction by ZEFSAII (Michael W. Deem and Ramdas Pophale) SiO2 
 PCOD9050779
Probable space group: P -1
;
_chemical_formula_sum "Si O2"
_cell_formula_units_Z 16
_cell_length_a 24.506337
_cell_length_b 18.110895
_cell_length_c 6.403529
_cell_angle_alpha 111.508508
_cell_angle_beta 78.111328
_cell_angle_gamma 161.335671
_cell_volume 744.762010
_symmetry_space_group_name_H-M "P -1"
_symmetry_group_IT_number 2
_symmetry_cell_setting 'triclinic'
loop_
_space_group_symop_operation_xyz
x,y,z
-x,-y,-z
loop_
_atom_site_type_symbol
_atom_site_label
_atom_site_fract_x
_atom_site_fract_y
_atom_site_fract_z
Si Si1 0.153203 0.099169 0.876570
Si Si2 0.719365 0.269852 0.620398
Si Si3 0.647900 0.732590 0.446273
Si Si4 0.417150 0.574194 0.379066
Si Si5 0.979724 0.772067 0.064748
Si Si6 0.151133 0.272634 0.596318
Si Si7 0.725981 0.118711 0.728599
Si Si8 0.901384 0.412874 0.295061
O O1 0.308564 0.269793 0.777064
O O2 0.240964 0.303169 0.093009
O O3 0.952861 0.831304 0.631232
O O4 0.102097 0.978474 0.994973
O O5 0.734972 0.217627 0.717144
O O6 0.795133 0.341019 0.411680
O O7 0.500000 0.000000 0.500000
O O8 0.855407 0.527735 0.844347
O O9 0.500000 0.500000 0.500000
O O10 0.560800 0.695587 0.394057
O O11 0.856855 0.029910 0.693501
O O12 0.338658 0.484246 0.581585
O O13 0.535698 0.814557 0.482111
O O14 0.843240 0.653163 0.154515
O O15 0.000000 0.000000 0.500000
O O16 0.912599 0.321088 0.723030
O O17 0.748969 0.159974 0.002990
O O18 0.000000 0.500000 0.500000
#
# Coordination Sequence:
#
# PCOD9050779 Si02
#       8
#     2   2   2   2   2   2   2   2
#     4  11  24  44  68 100 137 178 220 267 343 408
#     4  11  27  45  69  97 134 182 233 279 334 406
#     4  11  24  44  66 107 138 173 223 273 338 406
#     4  12  24  41  72 100 134 175 223 279 333 408
#     4  11  26  44  68  94 140 180 221 278 336 397
#     4  11  24  45  65  99 139 176 219 276 340 401
#     4  10  25  44  67 100 133 175 226 281 341 392
#     4   9  22  47  66  93 133 173 223 278 340 396
#
# _framework density 21.483371000000002
#
# number of rings (size 3 to 8) (size 9 to 14) (size 15 to 20)
#    0.000    1.250    2.500    1.500   10.500    1.500 
#    4.500    0.000    0.000    0.000    0.000    0.000 
#    0.000    0.000    0.000    0.000    0.000    0.000 
#
# Total GULP energy -89364.289489 kJ/mol
# GULP energy per Si atom -5585.268093 kJ/mol
# Density = 2.143447 g / cm^3
# Si number density = 21.483371 Si / 1000 Ang^3
#
#
#
# Elastic Constant Matrix: (Units=GPa)
#
#
# Indices 1 2 3 4 5 6 
#
# 1 76.6671 35.8078 45.3903 -7.2734 -28.0524 10.3065
# 2 35.8078 90.1232 55.4749 -1.4486 -42.8155 16.2380
# 3 45.3903 55.4749 129.2397 -3.2218 -33.6082 -2.7989
# 4 -7.2734 -1.4486 -3.2218 39.8780 4.2566 -14.3059
# 5 -28.0524 -42.8155 -33.6082 4.2566 48.8278 -1.0227
# 6 10.3065 16.2380 -2.7989 -14.3059 -1.0227 42.7995
#
#
#
# Elastic Compliance Matrix: (Units=1/GPa)
#
#
# Indices 1 2 3 4 5 6 
#
# 1 0.019439 -0.000545 -0.004786 0.000808 0.007235 -0.004344
# 2 -0.000545 0.026109 -0.006668 -0.005846 0.018255 -0.011728
# 3 -0.004786 -0.006668 0.012407 0.001715 -0.000100 0.005064
# 4 0.000808 -0.005846 0.001715 0.030100 -0.005853 0.012056
# 5 0.007235 0.018255 -0.000100 -0.005853 0.040883 -0.009654
# 6 -0.004344 -0.011728 0.005064 0.012056 -0.009654 0.032991
#
#
# Mechanical properties :
#
#
# Convention : Reuss Voigt Hill
#
# Bulk Modulus (GPa) = 29.44885 63.26399 46.35642
# Shear Modulus (GPa) = 25.34910 36.92487 31.13699
#
# Velocity S-wave (km/s) = 3.43875 4.15030 3.81117
# Velocity P-wave (km/s) = 5.43178 7.24420 6.40245
#
# Compressibility (1/GPa) = 0.03395719
#
# Stress axis : x y z
#
# Youngs Moduli (GPa) = 51.44226 38.30144 80.59969
#
# Poissons Ratio (x) = 0.02087 0.38575
# Poissons Ratio (y) = 0.02803 0.53745
# Poissons Ratio (z) = 0.24620 0.25540
#
# Static dielectric constant tensor:
#      x y z
#    x 1.782200 -0.031390 0.034570 
#    y -0.031390 1.704410 -0.053190 
#    z 0.034570 -0.053190 1.831400 
# 
# From -- ./inp_files/124846.got.cif
#   From: 2010.05.17/outbox.cif.g08.bks.cpg/sg2_63_cif.got.tgz:124846.got - 2010.06.03 11:33:40.
