data_PCOD9050087
_publ_section_title
;
Structure prediction by ZEFSAII (Michael W. Deem and Ramdas Pophale) SiO2 
 PCOD9050087
Probable space group: P -1
;
_chemical_formula_sum "Si O2"
_cell_formula_units_Z 12
_cell_length_a 8.632846
_cell_length_b 7.435736
_cell_length_c 11.593119
_cell_angle_alpha 58.354556
_cell_angle_beta 57.977785
_cell_angle_gamma 50.803502
_cell_volume 468.184678
_symmetry_space_group_name_H-M "P -1"
_symmetry_group_IT_number 2
_symmetry_cell_setting 'triclinic'
loop_
_space_group_symop_operation_xyz
x,y,z
-x,-y,-z
loop_
_atom_site_type_symbol
_atom_site_label
_atom_site_fract_x
_atom_site_fract_y
_atom_site_fract_z
Si Si1 0.727713 0.481878 0.822307
Si Si2 0.041340 0.874306 0.649100
Si Si3 0.275594 0.169354 0.090682
Si Si4 0.482961 0.761819 0.602421
Si Si5 0.201226 0.011705 0.959767
Si Si6 0.188431 0.360338 0.672115
O O1 0.721844 0.639642 0.884351
O O2 0.567023 0.633425 0.734081
O O3 0.964956 0.388444 0.708166
O O4 0.315431 0.736527 0.053598
O O5 0.238279 0.858333 0.643463
O O6 0.114161 0.591110 0.705197
O O7 0.810493 0.987983 0.755708
O O8 0.000000 0.000000 0.500000
O O9 0.136408 0.219168 0.013270
O O10 0.500000 0.000000 0.000000
O O11 0.654491 0.608764 0.487340
O O12 0.500000 0.000000 0.500000
O O13 0.289988 0.111450 0.789764
O O14 0.000000 0.000000 0.000000
#
# Coordination Sequence:
#
# PCOD9050087 Si02
#       6
#     2   2   2   2   2   2
#     4  10  25  49  76 116 154 203 257 317 387 459
#     4  11  27  48  78 113 154 203 260 317 390 460
#     4  11  27  48  77 111 157 199 260 322 382 453
#     4  12  26  45  80 112 155 200 258 317 391 459
#     4  10  25  46  80 110 155 199 259 310 392 450
#     4  10  24  48  75 113 154 198 259 318 381 462
#
# _framework density 25.630908999999999
#
# number of rings (size 3 to 8) (size 9 to 14) (size 15 to 20)
#    0.000    1.333    0.000    3.000   11.667    8.000 
#    0.000    0.000    0.000    0.000    0.000    0.000 
#    0.000    0.000    0.000    0.000    0.000    0.000 
#
# Total GULP energy -66925.220874 kJ/mol
# GULP energy per Si atom -5577.101740 kJ/mol
# Density = 2.557257 g / cm^3
# Si number density = 25.630909 Si / 1000 Ang^3
#
#
#
# Elastic Constant Matrix: (Units=GPa)
#
#
# Indices 1 2 3 4 5 6 
#
# 1 164.4687 64.6110 72.1763 -10.8228 -2.9010 5.1735
# 2 64.6110 114.8486 77.8265 -22.5689 8.0370 6.1064
# 3 72.1763 77.8265 171.7888 -5.0825 6.9060 -6.6218
# 4 -10.8228 -22.5689 -5.0825 61.0913 -12.3746 2.8762
# 5 -2.9010 8.0370 6.9060 -12.3746 56.1481 0.1761
# 6 5.1735 6.1064 -6.6218 2.8762 0.1761 34.0939
#
#
#
# Elastic Compliance Matrix: (Units=1/GPa)
#
#
# Indices 1 2 3 4 5 6 
#
# 1 0.008364 -0.003188 -0.002152 0.000433 0.001252 -0.001159
# 2 -0.003188 0.015525 -0.005675 0.004750 -0.000630 -0.003796
# 3 -0.002152 -0.005675 0.009401 -0.002038 -0.000915 0.003346
# 4 0.000433 0.004750 -0.002038 0.018933 0.003775 -0.002929
# 5 0.001252 -0.000630 -0.000915 0.003775 0.018912 -0.000671
# 6 -0.001159 -0.003796 0.003346 -0.002929 -0.000671 0.031087
#
#
# Mechanical properties :
#
#
# Convention : Reuss Voigt Hill
#
# Bulk Modulus (GPa) = 88.79707 97.81484 93.30596
# Shear Modulus (GPa) = 39.06075 46.03282 42.54679
#
# Velocity S-wave (km/s) = 3.90804 4.24251 4.07870
# Velocity P-wave (km/s) = 7.42182 7.88950 7.65923
#
# Compressibility (1/GPa) = 0.01126163
#
# Stress axis : x y z
#
# Youngs Moduli (GPa) = 119.55942 64.41133 106.36601
#
# Poissons Ratio (x) = 0.20534 0.22891
# Poissons Ratio (y) = 0.38115 0.60358
# Poissons Ratio (z) = 0.25730 0.36551
#
# Static dielectric constant tensor:
#      x y z
#    x 2.224230 -0.103230 -0.007790 
#    y -0.103230 2.322170 0.449950 
#    z -0.007790 0.449950 2.493140 
# 
# From -- ./inp_files/182899.got.cif
#   From: 2010.05.17/outbox.cif.g08.bks.cpg/sg2_92_cif.got.tgz:182899.got - 2010.06.03 11:33:40.
