data_PCOD9050501
_publ_section_title
;
Structure prediction by ZEFSAII (Michael W. Deem and Ramdas Pophale) SiO2 
 PCOD9050501
Probable space group: P -1
;
_chemical_formula_sum "Si O2"
_cell_formula_units_Z 12
_cell_length_a 11.823992
_cell_length_b 9.627283
_cell_length_c 7.674938
_cell_angle_alpha 64.732749
_cell_angle_beta 125.315456
_cell_angle_gamma 139.981055
_cell_volume 458.208361
_symmetry_space_group_name_H-M "P -1"
_symmetry_group_IT_number 2
_symmetry_cell_setting 'triclinic'
loop_
_space_group_symop_operation_xyz
x,y,z
-x,-y,-z
loop_
_atom_site_type_symbol
_atom_site_label
_atom_site_fract_x
_atom_site_fract_y
_atom_site_fract_z
Si Si1 0.795683 0.426667 0.250942
Si Si2 0.416655 0.036100 0.752373
Si Si3 0.053389 0.039351 0.733913
Si Si4 0.540566 0.633607 0.198452
Si Si5 0.548838 0.290439 0.420052
Si Si6 0.879356 0.129878 0.825844
O O1 0.735580 0.429758 0.389671
O O2 0.997246 0.373974 0.752828
O O3 0.750276 0.209750 0.324482
O O4 0.643850 0.416416 0.011006
O O5 0.362681 0.163207 0.699091
O O6 0.572351 0.201391 0.655856
O O7 0.500000 0.000000 0.000000
O O8 0.285482 0.256052 0.843040
O O9 0.942335 0.067221 0.752879
O O10 0.000000 0.000000 0.500000
O O11 0.039680 0.867058 0.917177
O O12 0.502348 0.433367 0.342424
O O13 0.355338 0.066217 0.277511
#
# Coordination Sequence:
#
# PCOD9050501 Si02
#       6
#     2   2   2   2   2   2
#     4  11  23  45  68  99 137 178 220 279 346 403
#     4  10  25  42  67 100 137 177 226 277 345 407
#     4  11  22  39  65 105 138 172 228 287 332 397
#     4  11  21  42  70  99 131 176 229 277 337 403
#     4  12  22  43  75  94 132 184 223 279 338 401
#     4  11  24  41  69 102 136 174 234 280 333 406
#
# _framework density 26.188956999999998
#
# number of rings (size 3 to 8) (size 9 to 14) (size 15 to 20)
#    0.000    1.000    3.333    4.500    0.000    3.333 
#    0.000    0.833    3.667    0.000    0.000    0.000 
#    0.000    0.000    0.000    0.000    0.000    0.000 
#
# Total GULP energy -67013.146227 kJ/mol
# GULP energy per Si atom -5584.428852 kJ/mol
# Density = 2.612935 g / cm^3
# Si number density = 26.188957 Si / 1000 Ang^3
#
#
#
# Elastic Constant Matrix: (Units=GPa)
#
#
# Indices 1 2 3 4 5 6 
#
# 1 71.6254 35.4623 47.2333 -13.4296 12.8714 -14.6400
# 2 35.4623 123.1345 57.9167 -58.3893 11.0626 -15.7519
# 3 47.2333 57.9167 191.1386 -29.4388 -17.9134 2.8088
# 4 -13.4296 -58.3893 -29.4388 59.8589 6.2003 7.4172
# 5 12.8714 11.0626 -17.9134 6.2003 41.6795 -3.5101
# 6 -14.6400 -15.7519 2.8088 7.4172 -3.5101 58.1397
#
#
#
# Elastic Compliance Matrix: (Units=1/GPa)
#
#
# Indices 1 2 3 4 5 6 
#
# 1 0.020840 -0.002139 -0.005257 0.000264 -0.007795 0.004418
# 2 -0.002139 0.019956 -0.003617 0.017825 -0.008653 0.002246
# 3 -0.005257 -0.003617 0.008054 -0.001099 0.006024 -0.002189
# 4 0.000264 0.017825 -0.001099 0.034709 -0.010458 -0.000110
# 5 -0.007795 -0.008653 0.006024 -0.010458 0.032733 -0.001288
# 6 0.004418 0.002246 -0.002189 -0.000110 -0.001288 0.018963
#
#
# Mechanical properties :
#
#
# Convention : Reuss Voigt Hill
#
# Bulk Modulus (GPa) = 37.27795 74.12478 55.70136
# Shear Modulus (GPa) = 30.08047 48.28804 39.18426
#
# Velocity S-wave (km/s) = 3.39277 4.29865 3.87229
# Velocity P-wave (km/s) = 5.44178 7.28032 6.42713
#
# Compressibility (1/GPa) = 0.02682551
#
# Stress axis : x y z
#
# Youngs Moduli (GPa) = 47.98430 50.11138 124.15922
#
# Poissons Ratio (x) = 0.10718 0.65266
# Poissons Ratio (y) = 0.10263 0.44906
# Poissons Ratio (z) = 0.25223 0.18124
#
# Static dielectric constant tensor:
#      x y z
#    x 2.128640 -0.027120 -0.016750 
#    y -0.027120 2.105720 0.097900 
#    z -0.016750 0.097900 2.145650 
# 
# From -- ./inp_files/300286.got.cif
#   From: 2010.05.17/outbox.cif.g08.bks.cpg/sg2_151_cif.got.tgz:300286.got - 2010.06.03 11:33:40.
