data_PCOD9050225
_publ_section_title
;
Structure prediction by ZEFSAII (Michael W. Deem and Ramdas Pophale) SiO2 
 PCOD9050225
Probable space group: P -1
;
_chemical_formula_sum "Si O2"
_cell_formula_units_Z 14
_cell_length_a 8.106611
_cell_length_b 5.282553
_cell_length_c 20.619678
_cell_angle_alpha 121.021779
_cell_angle_beta 127.983653
_cell_angle_gamma 60.559896
_cell_volume 576.221832
_symmetry_space_group_name_H-M "P -1"
_symmetry_group_IT_number 2
_symmetry_cell_setting 'triclinic'
loop_
_space_group_symop_operation_xyz
x,y,z
-x,-y,-z
loop_
_atom_site_type_symbol
_atom_site_label
_atom_site_fract_x
_atom_site_fract_y
_atom_site_fract_z
Si Si1 0.206136 0.590884 0.768085
Si Si2 0.701189 0.757147 0.122828
Si Si3 0.323630 0.795998 0.205864
Si Si4 0.658523 0.504393 0.698580
Si Si5 0.785176 0.262029 0.968250
Si Si6 0.187291 0.673916 0.561700
Si Si7 0.120242 0.673630 0.402389
O O1 0.187688 0.440908 0.814279
O O2 0.423188 0.372447 0.762249
O O3 0.003360 0.589692 0.673490
O O4 0.239840 0.924561 0.827266
O O5 0.441082 0.827200 0.082097
O O6 0.763400 0.556750 0.046873
O O7 0.248927 0.680971 0.239570
O O8 0.217226 0.687749 0.102769
O O9 0.299061 0.158726 0.246134
O O10 0.399394 0.552330 0.639154
O O11 0.746465 0.329758 0.630888
O O12 0.000000 0.000000 0.000000
O O13 0.249342 0.650869 0.497441
O O14 0.000000 0.500000 0.500000
O O15 0.072362 0.020507 0.597584
#
# Coordination Sequence:
#
# PCOD9050225 Si02
#       7
#     2   2   2   2   2   2   2
#     4  11  23  48  74 102 149 193 240 298 360 431
#     4  10  25  46  75 104 144 194 242 298 362 429
#     4  11  25  47  74 104 150 190 241 300 364 431
#     4  12  27  48  73 109 148 193 240 299 362 438
#     4  10  24  49  73 111 146 192 245 310 361 431
#     4  11  26  48  77 107 146 196 238 307 363 431
#     4  11  27  46  74 111 146 191 248 297 363 437
#
# _framework density 24.296196999999999
#
# number of rings (size 3 to 8) (size 9 to 14) (size 15 to 20)
#    0.000    1.143    1.429    3.000    8.000    6.857 
#    2.571    7.143    0.000    0.000    0.000    0.000 
#    0.000    0.000    0.000    0.000    0.000    0.000 
#
# Total GULP energy -78519.499230 kJ/mol
# GULP energy per Si atom -5608.535659 kJ/mol
# Density = 2.424090 g / cm^3
# Si number density = 24.296197 Si / 1000 Ang^3
#
#
#
# Elastic Constant Matrix: (Units=GPa)
#
#
# Indices 1 2 3 4 5 6 
#
# 1 96.8503 61.5419 45.0156 1.2702 -34.9947 8.6467
# 2 61.5419 116.7713 71.3725 5.8086 -6.1813 10.7580
# 3 45.0156 71.3725 116.6091 5.2449 -36.4347 8.5654
# 4 1.2702 5.8086 5.2449 43.3794 6.4347 7.1129
# 5 -34.9947 -6.1813 -36.4347 6.4347 54.9232 -3.0712
# 6 8.6467 10.7580 8.5654 7.1129 -3.0712 46.5610
#
#
#
# Elastic Compliance Matrix: (Units=1/GPa)
#
#
# Indices 1 2 3 4 5 6 
#
# 1 0.023171 -0.014372 0.005217 -0.001782 0.016784 -0.000563
# 2 -0.014372 0.023978 -0.014110 0.001561 -0.016089 -0.001575
# 3 0.005217 -0.014110 0.020161 -0.003005 0.015466 0.000062
# 4 -0.001782 0.001561 -0.003005 0.024758 -0.006059 -0.003659
# 5 0.016784 -0.016089 0.015466 -0.006059 0.038127 0.001196
# 6 -0.000563 -0.001575 0.000062 -0.003659 0.001196 0.022572
#
#
# Mechanical properties :
#
#
# Convention : Reuss Voigt Hill
#
# Bulk Modulus (GPa) = 48.12010 76.23231 62.17621
# Shear Modulus (GPa) = 24.24586 39.12612 31.68599
#
# Velocity S-wave (km/s) = 3.16243 4.01731 3.61523
# Velocity P-wave (km/s) = 5.76049 7.27755 6.56300
#
# Compressibility (1/GPa) = 0.02078134
#
# Stress axis : x y z
#
# Youngs Moduli (GPa) = 43.15811 41.70515 49.60159
#
# Poissons Ratio (x) = 0.59937 -0.25879
# Poissons Ratio (y) = 0.62025 0.69986
# Poissons Ratio (z) = -0.22517 0.58845
#
# Static dielectric constant tensor:
#      x y z
#    x 1.981200 0.010970 0.002630 
#    y 0.010970 1.878700 -0.003930 
#    z 0.002630 -0.003930 1.916750 
# 
# From -- ./inp_files/585958.got.cif
#   From: 2010.05.17/outbox.cif.g08.bks.cpg/sg2_293_cif.got.tgz:585958.got - 2010.06.03 11:33:40.
