data_PCOD9050743
_publ_section_title
;
Structure prediction by ZEFSAII (Michael W. Deem and Ramdas Pophale) SiO2 
 PCOD9050743
Probable space group: P -1
;
_chemical_formula_sum "Si O2"
_cell_formula_units_Z 16
_cell_length_a 20.061652
_cell_length_b 8.967456
_cell_length_c 10.511802
_cell_angle_alpha 116.243541
_cell_angle_beta 138.117313
_cell_angle_gamma 34.734846
_cell_volume 643.845031
_symmetry_space_group_name_H-M "P -1"
_symmetry_group_IT_number 2
_symmetry_cell_setting 'triclinic'
loop_
_space_group_symop_operation_xyz
x,y,z
-x,-y,-z
loop_
_atom_site_type_symbol
_atom_site_label
_atom_site_fract_x
_atom_site_fract_y
_atom_site_fract_z
Si Si1 0.053729 0.752829 0.273668
Si Si2 0.457136 0.886394 0.629099
Si Si3 0.082617 0.347469 0.199028
Si Si4 0.515728 0.169042 0.800247
Si Si5 0.301022 0.808995 0.038120
Si Si6 0.194560 0.866089 0.625000
Si Si7 0.385715 0.882364 0.796710
Si Si8 0.854344 0.342816 0.904448
O O1 0.084368 0.542392 0.319652
O O2 0.045761 0.941443 0.404575
O O3 0.180571 0.597246 0.274445
O O4 0.860645 0.002046 0.030533
O O5 0.401776 0.974967 0.732730
O O6 0.665186 0.558255 0.781633
O O7 0.289779 0.015396 0.383339
O O8 0.458132 0.068318 0.642130
O O9 0.000000 0.500000 0.000000
O O10 0.951369 0.389157 0.091105
O O11 0.359664 0.514896 0.715773
O O12 0.640731 0.080897 0.841200
O O13 0.590940 0.065622 0.012618
O O14 0.219662 0.896736 0.813998
O O15 0.456921 0.465256 0.137248
O O16 0.216850 0.993242 0.612369
O O17 0.000000 0.000000 0.000000
#
# Coordination Sequence:
#
# PCOD9050743 Si02
#       8
#     2   2   2   2   2   2   2   2
#     4  11  20  39  59  86 123 160 204 257 301 362
#     4  12  22  42  68  87 129 174 194 261 328 350
#     4  10  25  44  62  91 122 161 223 259 298 372
#     4   9  18  37  62  92 122 159 209 246 305 381
#     4   9  18  35  62  90 124 157 199 256 302 360
#     4   9  18  35  59  92 120 157 206 246 301 373
#     4   9  20  35  60  96 123 158 207 245 306 383
#     4  11  27  44  61  93 126 157 217 263 309 380
#
# _framework density 24.850698999999999
#
# number of rings (size 3 to 8) (size 9 to 14) (size 15 to 20)
#    0.000    2.000    1.250    3.750    1.750    2.500 
#    9.000    0.000    0.000    3.000    0.000    0.000 
#    0.000    0.000    0.000    0.000    0.000    0.000 
#
# Total GULP energy -89116.923378 kJ/mol
# GULP energy per Si atom -5569.807711 kJ/mol
# Density = 2.479414 g / cm^3
# Si number density = 24.850699 Si / 1000 Ang^3
#
#
#
# Elastic Constant Matrix: (Units=GPa)
#
#
# Indices 1 2 3 4 5 6 
#
# 1 85.4213 -7.8379 20.2118 -3.2360 10.4032 6.4367
# 2 -7.8379 50.1265 0.8934 -11.7473 8.6664 13.5254
# 3 20.2118 0.8934 96.5582 -3.7211 24.9691 7.1618
# 4 -3.2360 -11.7473 -3.7211 33.7049 1.9756 7.7250
# 5 10.4032 8.6664 24.9691 1.9756 37.4715 5.4835
# 6 6.4367 13.5254 7.1618 7.7250 5.4835 36.4388
#
#
#
# Elastic Compliance Matrix: (Units=1/GPa)
#
#
# Indices 1 2 3 4 5 6 
#
# 1 0.013374 0.004746 -0.001503 0.003922 -0.003409 -0.004147
# 2 0.004746 0.029359 0.002548 0.014694 -0.008522 -0.014069
# 3 -0.001503 0.002548 0.013245 0.003333 -0.008783 -0.002668
# 4 0.003922 0.014694 0.003333 0.039159 -0.006710 -0.014094
# 5 -0.003409 -0.008522 -0.008783 -0.006710 0.035583 0.001559
# 6 -0.004147 -0.014069 -0.002668 -0.014094 0.001559 0.036676
#
#
# Mechanical properties :
#
#
# Convention : Reuss Voigt Hill
#
# Bulk Modulus (GPa) = 14.80163 28.73786 21.76974
# Shear Modulus (GPa) = 28.03729 36.11226 32.07478
#
# Velocity S-wave (km/s) = 3.36256 3.81618 3.59653
# Velocity P-wave (km/s) = 4.58747 5.56839 5.10156
#
# Compressibility (1/GPa) = 0.06756014
#
# Stress axis : x y z
#
# Youngs Moduli (GPa) = 74.77184 34.06072 75.49960
#
# Poissons Ratio (x) = -0.16164 0.11349
# Poissons Ratio (y) = -0.35483 -0.19241
# Poissons Ratio (z) = 0.11239 -0.08680
#
# Static dielectric constant tensor:
#      x y z
#    x 2.020430 -0.042330 0.117000 
#    y -0.042330 2.166860 0.070340 
#    z 0.117000 0.070340 2.154060 
# 
# From -- ./inp_files/306443.got.cif
#   From: 2010.05.17/outbox.cif.g08.bks.cpg/sg2_154_cif.got.tgz:306443.got - 2010.06.03 11:33:40.
