data_PCOD9050300
_publ_section_title
;
Structure prediction by ZEFSAII (Michael W. Deem and Ramdas Pophale) SiO2 
 PCOD9050300
Probable space group: P -1
;
_chemical_formula_sum "Si O2"
_cell_formula_units_Z 13
_cell_length_a 11.712024
_cell_length_b 15.387190
_cell_length_c 12.062262
_cell_angle_alpha 147.684405
_cell_angle_beta 134.496919
_cell_angle_gamma 26.850101
_cell_volume 511.994019
_symmetry_space_group_name_H-M "P -1"
_symmetry_group_IT_number 2
_symmetry_cell_setting 'triclinic'
loop_
_space_group_symop_operation_xyz
x,y,z
-x,-y,-z
loop_
_atom_site_type_symbol
_atom_site_label
_atom_site_fract_x
_atom_site_fract_y
_atom_site_fract_z
Si Si1 0.264402 0.745416 0.465937
Si Si2 0.327966 0.606423 0.790085
Si Si3 0.974706 0.664916 0.748717
Si Si4 0.398755 0.255674 0.005770
Si Si5 0.500000 0.500000 0.000000
Si Si6 0.983947 0.103987 0.321937
Si Si7 0.016395 0.517203 0.210634
O O1 0.493783 0.643142 0.440572
O O2 0.218564 0.811619 0.636066
O O3 0.338184 0.496641 0.233485
O O4 0.000000 0.000000 0.500000
O O5 0.481970 0.604667 0.972336
O O6 0.212964 0.595250 0.804988
O O7 0.112051 0.837728 0.806736
O O8 0.002482 0.576596 0.795119
O O9 0.000000 0.500000 0.500000
O O10 0.696583 0.972915 0.883766
O O11 0.219696 0.326065 0.863759
O O12 0.279991 0.277725 0.062577
O O13 0.741199 0.194048 0.790326
O O14 0.992282 0.288026 0.549849
#
# Coordination Sequence:
#
# PCOD9050300 Si02
#       7
#     2   2   2   2   1   2   2
#     4  11  25  50  75 104 142 197 246 295 362 430
#     4  12  28  46  70 106 147 187 242 301 366 426
#     4  12  27  44  72 108 145 188 235 298 362 429
#     4  10  26  47  76 105 144 191 244 293 355 430
#     4  12  28  44  74 106 146 186 238 304 362 426
#     4  11  25  48  75 106 143 194 241 300 357 433
#     4  10  24  50  74 104 145 192 239 293 355 430
#
# _framework density 25.390920000000001
#
# number of rings (size 3 to 8) (size 9 to 14) (size 15 to 20)
#    0.000    0.923    3.077    1.385    8.615    1.846 
#    5.538    0.000    0.000    0.000    0.000    0.000 
#    0.000    0.000    0.000    0.000    0.000    0.000 
#
# Total GULP energy -72630.628191 kJ/mol
# GULP energy per Si atom -5586.971399 kJ/mol
# Density = 2.533313 g / cm^3
# Si number density = 25.390920 Si / 1000 Ang^3
#
#
#
# Elastic Constant Matrix: (Units=GPa)
#
#
# Indices 1 2 3 4 5 6 
#
# 1 147.3270 46.0403 52.4825 10.6979 -46.9285 16.5571
# 2 46.0403 149.9846 74.5127 19.9693 -21.4969 26.2222
# 3 52.4825 74.5127 142.1688 12.4209 -29.2740 5.3183
# 4 10.6979 19.9693 12.4209 57.7294 -3.0020 -17.6974
# 5 -46.9285 -21.4969 -29.2740 -3.0020 49.5877 -8.3496
# 6 16.5571 26.2222 5.3183 -17.6974 -8.3496 47.0514
#
#
#
# Elastic Compliance Matrix: (Units=1/GPa)
#
#
# Indices 1 2 3 4 5 6 
#
# 1 0.010594 -0.000603 -0.001651 -0.001695 0.008287 -0.002372
# 2 -0.000603 0.011278 -0.005014 -0.004995 -0.000194 -0.007420
# 3 -0.001651 -0.005014 0.010737 0.000825 0.003163 0.003033
# 4 -0.001695 -0.004995 0.000825 0.022839 0.000103 0.011896
# 5 0.008287 -0.000194 0.003163 0.000103 0.030174 0.002227
# 6 -0.002372 -0.007420 0.003033 0.011896 0.002227 0.030750
#
#
# Mechanical properties :
#
#
# Convention : Reuss Voigt Hill
#
# Bulk Modulus (GPa) = 55.33549 87.28350 71.30949
# Shear Modulus (GPa) = 36.51415 48.63670 42.57543
#
# Velocity S-wave (km/s) = 3.79632 4.38141 4.09931
# Velocity P-wave (km/s) = 6.40755 7.74895 7.10995
#
# Compressibility (1/GPa) = 0.01807159
#
# Stress axis : x y z
#
# Youngs Moduli (GPa) = 94.39401 88.66727 93.13388
#
# Poissons Ratio (x) = 0.05350 0.15379
# Poissons Ratio (y) = 0.05696 0.46699
# Poissons Ratio (z) = 0.15587 0.44459
#
# Static dielectric constant tensor:
#      x y z
#    x 2.175210 0.187340 -0.090810 
#    y 0.187340 1.729450 0.105430 
#    z -0.090810 0.105430 1.882330 
# 
# From -- ./inp_files/433357.got.cif
#   From: 2010.05.17/outbox.cif.g08.bks.cpg/sg2_217_cif.got.tgz:433357.got - 2010.06.03 11:33:40.
