data_PCOD9050592
_publ_section_title
;
Structure prediction by ZEFSAII (Michael W. Deem and Ramdas Pophale) SiO2 
 PCOD9050592
Probable space group: P -1
;
_chemical_formula_sum "Si O2"
_cell_formula_units_Z 14
_cell_length_a 22.716796
_cell_length_b 12.113546
_cell_length_c 8.708550
_cell_angle_alpha 44.035549
_cell_angle_beta 140.058869
_cell_angle_gamma 159.662327
_cell_volume 534.711457
_symmetry_space_group_name_H-M "P -1"
_symmetry_group_IT_number 2
_symmetry_cell_setting 'triclinic'
loop_
_space_group_symop_operation_xyz
x,y,z
-x,-y,-z
loop_
_atom_site_type_symbol
_atom_site_label
_atom_site_fract_x
_atom_site_fract_y
_atom_site_fract_z
Si Si1 0.819532 0.592033 0.653208
Si Si2 0.949994 0.994114 0.742425
Si Si3 0.227499 0.774530 0.286645
Si Si4 0.452968 0.633435 0.878679
Si Si5 0.955878 0.361751 0.386557
Si Si6 0.594127 0.644132 0.380673
Si Si7 0.500001 0.000002 0.183155
O O1 0.845981 0.492759 0.681822
O O2 0.699203 0.545184 0.370602
O O3 0.016427 0.073818 0.263708
O O4 0.698519 0.328722 0.809234
O O5 0.029860 0.290629 0.598386
O O6 0.730909 0.701047 0.590065
O O7 0.000000 0.000000 0.000000
O O8 0.369795 0.938111 0.542399
O O9 0.057390 0.598355 0.211755
O O10 0.353223 0.052425 0.136640
O O11 0.431683 0.733162 0.871123
O O12 0.459036 0.475461 0.137938
O O13 0.000000 0.500000 0.500000
O O14 0.739230 0.008320 0.299434
O O15 0.500000 0.500000 0.500000
O O16 0.500000 0.000000 0.000000
#
# Coordination Sequence:
#
# PCOD9050592 Si02
#       7
#     2   2   2   2   2   2   2
#     4   9  20  40  65 100 140 180 228 286 353 407
#     4  10  25  43  66 100 136 180 232 284 349 412
#     4   9  20  40  65 100 140 180 228 286 353 407
#     4   9  20  40  65 100 140 180 228 286 353 407
#     4  10  25  43  66 100 136 180 232 284 349 412
#     4  10  25  43  66 100 136 180 232 284 349 412
#     4   9  19  29  67 102 127 179 229 282 331 419
#
# _framework density 26.182344000000001
#
# number of rings (size 3 to 8) (size 9 to 14) (size 15 to 20)
#    0.857    1.714    0.000    1.714    6.000    5.143 
#    0.000    0.000    0.000    0.000    0.000    0.000 
#    0.000    0.000    0.000    0.000    0.000    0.000 
#
# Total GULP energy -78317.042621 kJ/mol
# GULP energy per Si atom -5594.074473 kJ/mol
# Density = 2.612275 g / cm^3
# Si number density = 26.182344 Si / 1000 Ang^3
#
#
#
# Elastic Constant Matrix: (Units=GPa)
#
#
# Indices 1 2 3 4 5 6 
#
# 1 159.4560 40.0293 54.1744 -7.5286 -56.2301 -7.0912
# 2 40.0293 78.6252 25.5049 -18.5874 -27.2710 23.2946
# 3 54.1744 25.5049 196.8967 -2.5219 -42.8661 9.9558
# 4 -7.5286 -18.5874 -2.5219 31.8267 7.6242 -16.0096
# 5 -56.2301 -27.2710 -42.8661 7.6242 50.7376 -4.9766
# 6 -7.0912 23.2946 9.9558 -16.0096 -4.9766 48.3931
#
#
#
# Elastic Compliance Matrix: (Units=1/GPa)
#
#
# Indices 1 2 3 4 5 6 
#
# 1 0.011219 -0.003023 -0.000594 0.000550 0.010666 0.004500
# 2 -0.003023 0.019811 -0.000050 0.005726 0.005660 -0.007492
# 3 -0.000594 -0.000050 0.006335 -0.001498 0.004757 -0.001372
# 4 0.000550 0.005726 -0.001498 0.040887 -0.002655 0.010886
# 5 0.010666 0.005660 0.004757 -0.002655 0.039089 0.001001
# 6 0.004500 -0.007492 -0.001372 0.010886 0.001001 0.028917
#
#
# Mechanical properties :
#
#
# Convention : Reuss Voigt Hill
#
# Bulk Modulus (GPa) = 33.29889 74.93280 54.11585
# Shear Modulus (GPa) = 30.56215 47.20943 38.88579
#
# Velocity S-wave (km/s) = 3.42026 4.25090 3.85800
# Velocity P-wave (km/s) = 5.32383 7.26466 6.36861
#
# Compressibility (1/GPa) = 0.03003103
#
# Stress axis : x y z
#
# Youngs Moduli (GPa) = 89.13231 50.47825 157.86379
#
# Poissons Ratio (x) = 0.15260 0.09372
# Poissons Ratio (y) = 0.26945 0.00788
# Poissons Ratio (z) = 0.05292 0.00252
#
# Static dielectric constant tensor:
#      x y z
#    x 2.057600 -0.017040 0.082310 
#    y -0.017040 2.128930 0.018650 
#    z 0.082310 0.018650 2.042670 
# 
# From -- ./inp_files/357485.got.cif
#   From: 2010.05.17/outbox.cif.g08.bks.cpg/sg2_179_cif.got.tgz:357485.got - 2010.06.03 11:33:40.
