data_PCOD9050949
_publ_section_title
;
Structure prediction by ZEFSAII (Michael W. Deem and Ramdas Pophale) SiO2 
 PCOD9050949
Probable space group: P -1
;
_chemical_formula_sum "Si O2"
_cell_formula_units_Z 13
_cell_length_a 8.873875
_cell_length_b 5.897463
_cell_length_c 11.122710
_cell_angle_alpha 80.967163
_cell_angle_beta 102.045370
_cell_angle_gamma 106.729119
_cell_volume 542.251396
_symmetry_space_group_name_H-M "P -1"
_symmetry_group_IT_number 2
_symmetry_cell_setting 'triclinic'
loop_
_space_group_symop_operation_xyz
x,y,z
-x,-y,-z
loop_
_atom_site_type_symbol
_atom_site_label
_atom_site_fract_x
_atom_site_fract_y
_atom_site_fract_z
Si Si1 0.073915 0.527367 0.275192
Si Si2 0.794142 0.110691 0.192731
Si Si3 0.166874 0.944525 0.064294
Si Si4 0.407847 0.287606 0.657632
Si Si5 0.333329 0.271799 0.269155
Si Si6 0.500000 0.000000 0.500000
Si Si7 0.055331 0.189109 0.601004
O O1 0.132149 0.714745 0.162697
O O2 0.193081 0.360973 0.302608
O O3 0.892536 0.370473 0.230576
O O4 0.061419 0.656811 0.388699
O O5 0.644983 0.969048 0.260025
O O6 0.917052 0.952542 0.261934
O O7 0.760301 0.101189 0.047602
O O8 0.273488 0.161699 0.139721
O O9 0.000000 0.000000 0.000000
O O10 0.515900 0.499073 0.733705
O O11 0.494222 0.235635 0.558010
O O12 0.237380 0.335306 0.594605
O O13 0.382111 0.074759 0.373898
O O14 0.000000 0.000000 0.500000
#
# Coordination Sequence:
#
# PCOD9050949 Si02
#       7
#     2   2   2   2   2   1   2
#     4  12  24  46  81 111 153 199 258 308 378 456
#     4  10  25  44  73 116 148 193 251 312 371 444
#     4  12  23  46  77 116 154 196 256 308 381 451
#     4  10  27  47  75 108 149 203 249 317 379 448
#     4  12  28  48  79 110 151 209 248 317 375 460
#     4  12  28  54  70 106 160 198 258 298 398 446
#     4  10  25  46  73 113 148 197 253 316 370 445
#
# _framework density 23.974121
#
# number of rings (size 3 to 8) (size 9 to 14) (size 15 to 20)
#    0.923    0.000    3.077    1.846    8.615    1.231 
#    0.000    3.077    0.000    0.000    0.000    0.000 
#    0.000    0.000    0.000    0.000    0.000    0.000 
#
# Total GULP energy -72447.876048 kJ/mol
# GULP energy per Si atom -5572.913542 kJ/mol
# Density = 2.391955 g / cm^3
# Si number density = 23.974121 Si / 1000 Ang^3
#
#
#
# Elastic Constant Matrix: (Units=GPa)
#
#
# Indices 1 2 3 4 5 6 
#
# 1 83.7770 59.1286 35.3404 17.6156 20.9642 3.4982
# 2 59.1286 87.9987 45.9499 20.7954 7.0179 3.1085
# 3 35.3404 45.9499 149.7531 25.4405 9.7677 2.1298
# 4 17.6156 20.7954 25.4405 51.5951 5.7206 12.8918
# 5 20.9642 7.0179 9.7677 5.7206 27.4020 11.0921
# 6 3.4982 3.1085 2.1298 12.8918 11.0921 61.0195
#
#
#
# Elastic Compliance Matrix: (Units=1/GPa)
#
#
# Indices 1 2 3 4 5 6 
#
# 1 0.029729 -0.018236 0.000022 -0.001451 -0.018986 0.002982
# 2 -0.018236 0.025485 -0.003627 -0.003032 0.009868 -0.001279
# 3 0.000022 -0.003627 0.008344 -0.002654 -0.001826 0.000785
# 4 -0.001451 -0.003032 -0.002654 0.023585 -0.000224 -0.004612
# 5 -0.018986 0.009868 -0.001826 -0.000224 0.052792 -0.008900
# 6 0.002982 -0.001279 0.000785 -0.004612 -0.008900 0.018847
#
#
# Mechanical properties :
#
#
# Convention : Reuss Voigt Hill
#
# Bulk Modulus (GPa) = 50.30719 66.92962 58.61840
# Shear Modulus (GPa) = 23.91318 40.07733 31.99525
#
# Velocity S-wave (km/s) = 3.16168 4.09307 3.65715
# Velocity P-wave (km/s) = 5.86155 7.09335 6.50667
#
# Compressibility (1/GPa) = 0.01987787
#
# Stress axis : x y z
#
# Youngs Moduli (GPa) = 33.63681 39.23831 119.84607
#
# Poissons Ratio (x) = 0.71554 -0.00264
# Poissons Ratio (y) = 0.61339 0.43465
# Poissons Ratio (z) = -0.00074 0.14231
#
# Static dielectric constant tensor:
#      x y z
#    x 1.968000 0.047980 -0.019690 
#    y 0.047980 1.929770 -0.016690 
#    z -0.019690 -0.016690 1.879010 
# 
# From -- ./inp_files/372687.got.cif
#   From: 2010.05.17/outbox.cif.g08.bks.cpg/sg2_187_cif.got.tgz:372687.got - 2010.06.03 11:33:40.
