data_PCOD9050068
_publ_section_title
;
Structure prediction by ZEFSAII (Michael W. Deem and Ramdas Pophale) SiO2 
 PCOD9050068
Probable space group: P -1
;
_chemical_formula_sum "Si O2"
_cell_formula_units_Z 14
_cell_length_a 8.376222
_cell_length_b 12.198156
_cell_length_c 7.632038
_cell_angle_alpha 132.393818
_cell_angle_beta 103.895307
_cell_angle_gamma 63.135299
_cell_volume 511.280210
_symmetry_space_group_name_H-M "P -1"
_symmetry_group_IT_number 2
_symmetry_cell_setting 'triclinic'
loop_
_space_group_symop_operation_xyz
x,y,z
-x,-y,-z
loop_
_atom_site_type_symbol
_atom_site_label
_atom_site_fract_x
_atom_site_fract_y
_atom_site_fract_z
Si Si1 0.648933 0.375560 0.536155
Si Si2 0.240799 0.981921 0.371924
Si Si3 0.466258 0.288281 0.655949
Si Si4 0.156412 0.323350 0.853654
Si Si5 0.662536 0.043671 0.017566
Si Si6 0.999362 0.197219 0.981804
Si Si7 0.191960 0.500048 0.541265
O O1 0.500000 0.500000 0.500000
O O2 0.592296 0.379324 0.726034
O O3 0.677397 0.198045 0.283853
O O4 0.794151 0.442823 0.591268
O O5 0.611629 0.105449 0.532492
O O6 0.155051 0.175228 0.572796
O O7 0.086841 0.912707 0.255286
O O8 0.351507 0.928398 0.163069
O O9 0.334205 0.341119 0.506064
O O10 0.336765 0.334144 0.838392
O O11 0.126111 0.254253 0.957276
O O12 0.000000 0.500000 0.000000
O O13 0.137975 0.096167 0.056897
O O14 0.500000 0.000000 0.000000
O O15 0.829607 0.348191 0.176179
O O16 0.000000 0.500000 0.500000
#
# Coordination Sequence:
#
# PCOD9050068 Si02
#       7
#     2   2   2   2   2   2   2
#     4  10  24  48  74 112 150 201 265 310 388 463
#     4  12  27  49  80 112 160 204 261 328 389 467
#     4  11  25  51  77 114 157 204 260 319 399 461
#     4  12  26  50  76 115 159 203 260 324 394 465
#     4  12  26  47  77 114 157 209 259 318 388 473
#     4  12  27  49  73 116 154 206 262 313 400 459
#     4  11  26  47  80 116 155 202 262 326 385 465
#
# _framework density 27.382244
#
# number of rings (size 3 to 8) (size 9 to 14) (size 15 to 20)
#    0.000    0.571    2.857    3.857    6.000    1.714 
#    0.000    0.000    0.000    0.000    0.000    0.000 
#    0.000    0.000    0.000    0.000    0.000    0.000 
#
# Total GULP energy -78301.917374 kJ/mol
# GULP energy per Si atom -5592.994098 kJ/mol
# Density = 2.731992 g / cm^3
# Si number density = 27.382244 Si / 1000 Ang^3
#
#
#
# Elastic Constant Matrix: (Units=GPa)
#
#
# Indices 1 2 3 4 5 6 
#
# 1 130.9577 87.1038 40.1465 14.9082 -3.0205 12.8567
# 2 87.1038 188.9536 38.1661 1.2584 -6.2405 23.7871
# 3 40.1465 38.1661 118.5233 21.1856 3.4154 -6.3969
# 4 14.9082 1.2584 21.1856 41.8451 8.6722 -10.5999
# 5 -3.0205 -6.2405 3.4154 8.6722 47.5093 4.6050
# 6 12.8567 23.7871 -6.3969 -10.5999 4.6050 83.9007
#
#
#
# Elastic Compliance Matrix: (Units=1/GPa)
#
#
# Indices 1 2 3 4 5 6 
#
# 1 0.012095 -0.004990 -0.001922 -0.003680 0.001031 -0.001107
# 2 -0.004990 0.008047 -0.001300 0.001692 0.000664 -0.001439
# 3 -0.001922 -0.001300 0.010316 -0.004186 -0.000362 0.000941
# 4 -0.003680 0.001692 -0.004186 0.029359 -0.005436 0.003773
# 5 0.001031 0.000664 -0.000362 -0.005436 0.022442 -0.002292
# 6 -0.001107 -0.001439 0.000941 0.003773 -0.002292 0.013170
#
#
# Mechanical properties :
#
#
# Convention : Reuss Voigt Hill
#
# Bulk Modulus (GPa) = 71.25114 85.47415 78.36264
# Shear Modulus (GPa) = 42.90674 52.85225 47.87950
#
# Velocity S-wave (km/s) = 3.96277 4.39813 4.18612
# Velocity P-wave (km/s) = 6.85679 7.55476 7.21422
#
# Compressibility (1/GPa) = 0.01403486
#
# Stress axis : x y z
#
# Youngs Moduli (GPa) = 82.67627 124.27258 96.93431
#
# Poissons Ratio (x) = 0.62007 0.18630
# Poissons Ratio (y) = 0.41252 0.12604
# Poissons Ratio (z) = 0.15889 0.16159
#
# Static dielectric constant tensor:
#      x y z
#    x 3.115400 0.478090 0.020550 
#    y 0.478090 2.260530 -0.001930 
#    z 0.020550 -0.001930 2.256800 
# 
# From -- ./inp_files/394325.got.cif
#   From: 2010.05.17/outbox.cif.g08.bks.cpg/sg2_198_cif.got.tgz:394325.got - 2010.06.03 11:33:40.
