data_PCOD9050740
_publ_section_title
;
Structure prediction by ZEFSAII (Michael W. Deem and Ramdas Pophale) SiO2 
 PCOD9050740
Probable space group: P -1
;
_chemical_formula_sum "Si O2"
_cell_formula_units_Z 16
_cell_length_a 12.572858
_cell_length_b 16.482346
_cell_length_c 11.647594
_cell_angle_alpha 47.663428
_cell_angle_beta 57.567828
_cell_angle_gamma 22.593623
_cell_volume 653.689642
_symmetry_space_group_name_H-M "P -1"
_symmetry_group_IT_number 2
_symmetry_cell_setting 'triclinic'
loop_
_space_group_symop_operation_xyz
x,y,z
-x,-y,-z
loop_
_atom_site_type_symbol
_atom_site_label
_atom_site_fract_x
_atom_site_fract_y
_atom_site_fract_z
Si Si1 0.226074 0.439404 0.618938
Si Si2 0.699136 0.275574 0.186770
Si Si3 0.358590 0.878040 0.940537
Si Si4 0.395350 0.541333 0.700194
Si Si5 0.748306 0.006489 0.868089
Si Si6 0.006854 0.841196 0.321202
Si Si7 0.134827 0.374351 0.169654
Si Si8 0.775614 0.932514 0.675039
O O1 0.453077 0.297862 0.721926
O O2 0.018228 0.701990 0.459888
O O3 0.069654 0.463024 0.754385
O O4 0.449604 0.236884 0.579711
O O5 0.615752 0.359150 0.286823
O O6 0.500000 0.500000 0.000000
O O7 0.004249 0.098446 0.168407
O O8 0.759056 0.103930 0.279893
O O9 0.594956 0.757971 0.845668
O O10 0.502631 0.652774 0.115510
O O11 0.293877 0.003189 0.970800
O O12 0.074510 0.074314 0.845400
O O13 0.673904 0.363847 0.637170
O O14 0.061127 0.782356 0.624286
O O15 0.815067 0.877021 0.843912
O O16 0.222544 0.178055 0.293793
O O17 0.000000 0.500000 0.000000
#
# Coordination Sequence:
#
# PCOD9050740 Si02
#       8
#     2   2   2   2   2   2   2   2
#     4  10  25  44  61  99 131 171 214 264 331 378
#     4  11  21  38  64  97 132 170 213 259 320 387
#     4  12  22  41  67  97 124 175 217 265 316 382
#     4  11  21  40  65  96 129 168 215 264 322 383
#     4   9  20  40  63  91 126 162 218 261 313 380
#     4  12  26  41  65  96 143 166 207 270 327 390
#     4  12  22  42  71  91 126 171 223 272 313 376
#     4   9  22  42  65  98 127 159 228 266 314 377
#
# _framework density 24.476448000000001
#
# number of rings (size 3 to 8) (size 9 to 14) (size 15 to 20)
#    0.750    0.500    5.000    1.125    0.000    4.500 
#    0.000    0.625    0.000    0.000    0.000    0.000 
#    0.000    0.000    0.000    0.000    0.000    0.000 
#
# Total GULP energy -89305.862720 kJ/mol
# GULP energy per Si atom -5581.616420 kJ/mol
# Density = 2.442074 g / cm^3
# Si number density = 24.476448 Si / 1000 Ang^3
#
#
#
# Elastic Constant Matrix: (Units=GPa)
#
#
# Indices 1 2 3 4 5 6 
#
# 1 46.7855 8.4041 0.2888 -5.8015 -1.0518 8.4177
# 2 8.4041 116.1691 18.4138 10.2768 -11.7918 2.7625
# 3 0.2888 18.4138 64.7062 -6.8058 -2.0910 6.3368
# 4 -5.8015 10.2768 -6.8058 26.1279 -5.8999 -6.3430
# 5 -1.0518 -11.7918 -2.0910 -5.8999 22.4152 -2.5161
# 6 8.4177 2.7625 6.3368 -6.3430 -2.5161 41.1290
#
#
#
# Elastic Compliance Matrix: (Units=1/GPa)
#
#
# Indices 1 2 3 4 5 6 
#
# 1 0.023201 -0.002225 0.001551 0.005745 0.001140 -0.003882
# 2 -0.002225 0.010050 -0.003184 -0.004493 0.003681 -0.000197
# 3 0.001551 -0.003184 0.017197 0.005962 0.001375 -0.001749
# 4 0.005745 -0.004493 0.005962 0.046963 0.011514 0.006155
# 5 0.001140 0.003681 0.001375 0.011514 0.050228 0.004156
# 6 -0.003882 -0.000197 -0.001749 0.006155 0.004156 0.026595
#
#
# Mechanical properties :
#
#
# Convention : Reuss Voigt Hill
#
# Bulk Modulus (GPa) = 23.40233 31.31937 27.36085
# Shear Modulus (GPa) = 25.48526 31.30468 28.39497
#
# Velocity S-wave (km/s) = 3.23029 3.58015 3.40971
# Velocity P-wave (km/s) = 4.84716 5.46932 5.16761
#
# Compressibility (1/GPa) = 0.04273079
#
# Stress axis : x y z
#
# Youngs Moduli (GPa) = 43.10216 99.50702 58.15124
#
# Poissons Ratio (x) = 0.22135 -0.09018
# Poissons Ratio (y) = 0.09588 0.18517
# Poissons Ratio (z) = -0.06684 0.31686
#
# Static dielectric constant tensor:
#      x y z
#    x 1.928430 0.066840 0.005720 
#    y 0.066840 2.044240 0.013460 
#    z 0.005720 0.013460 1.963190 
# 
# From -- ./inp_files/535273.got.cif
#   From: 2010.05.17/outbox.cif.g08.bks.cpg/sg2_268_cif.got.tgz:535273.got - 2010.06.03 11:33:40.
