data_PCOD9050724
_publ_section_title
;
Structure prediction by ZEFSAII (Michael W. Deem and Ramdas Pophale) SiO2 
 PCOD9050724
Probable space group: P -1
;
_chemical_formula_sum "Si O2"
_cell_formula_units_Z 15
_cell_length_a 12.482671
_cell_length_b 8.017336
_cell_length_c 17.879683
_cell_angle_alpha 141.665067
_cell_angle_beta 31.571457
_cell_angle_gamma 133.633308
_cell_volume 579.777701
_symmetry_space_group_name_H-M "P -1"
_symmetry_group_IT_number 2
_symmetry_cell_setting 'triclinic'
loop_
_space_group_symop_operation_xyz
x,y,z
-x,-y,-z
loop_
_atom_site_type_symbol
_atom_site_label
_atom_site_fract_x
_atom_site_fract_y
_atom_site_fract_z
Si Si1 0.839950 0.847200 0.098491
Si Si2 0.619656 0.720370 0.718428
Si Si3 0.563755 0.335585 0.478827
Si Si4 0.875359 0.907994 0.345221
Si Si5 0.305763 0.331439 0.026360
Si Si6 0.000000 0.500000 0.500000
Si Si7 0.908752 0.204846 0.682827
Si Si8 0.168829 0.793065 0.999095
O O1 0.980254 0.688989 0.018423
O O2 0.708966 0.087086 0.293358
O O3 0.703563 0.668333 0.058042
O O4 0.000000 0.000000 0.000000
O O5 0.648640 0.551880 0.565300
O O6 0.780839 0.619772 0.645865
O O7 0.699034 0.035275 0.772804
O O8 0.376438 0.667829 0.859991
O O9 0.500000 0.500000 0.500000
O O10 0.345132 0.201946 0.590452
O O11 0.949149 0.733729 0.308711
O O12 0.044115 0.915223 0.183082
O O13 0.878720 0.204826 0.480561
O O14 0.126687 0.505025 0.227430
O O15 0.275541 0.031921 0.968607
O O16 0.500000 0.500000 0.000000
O O17 0.000000 0.000000 0.500000
#
# Coordination Sequence:
#
# PCOD9050724 Si02
#       8
#     2   2   2   2   2   1   2   2
#     4  10  25  43  74 108 150 197 246 310 376 447
#     4  11  25  48  74 107 152 197 249 310 380 450
#     4  12  26  47  77 108 151 196 258 311 378 453
#     4  11  28  47  75 110 147 202 249 315 381 439
#     4  11  24  46  75 108 150 198 251 307 375 451
#     4  10  26  48  68 106 150 190 246 300 376 450
#     4  11  26  44  73 110 145 200 251 308 376 450
#     4  11  25  48  73 111 152 195 253 316 380 445
#
# _framework density 25.871986
#
# number of rings (size 3 to 8) (size 9 to 14) (size 15 to 20)
#    0.000    1.067    1.333    3.200   14.933    4.800 
#    2.400    0.000    0.000    0.000    0.000    0.000 
#    0.000    0.000    0.000    0.000    0.000    0.000 
#
# Total GULP energy -83653.841310 kJ/mol
# GULP energy per Si atom -5576.922754 kJ/mol
# Density = 2.581310 g / cm^3
# Si number density = 25.871986 Si / 1000 Ang^3
#
#
#
# Elastic Constant Matrix: (Units=GPa)
#
#
# Indices 1 2 3 4 5 6 
#
# 1 139.0040 29.7523 51.8052 -5.3976 -18.4674 29.4507
# 2 29.7523 56.6231 5.1951 -6.8707 -23.4220 33.2354
# 3 51.8052 5.1951 97.1107 -9.5056 -27.9393 4.5387
# 4 -5.3976 -6.8707 -9.5056 46.5858 4.5138 -6.1520
# 5 -18.4674 -23.4220 -27.9393 4.5138 46.8467 -0.3526
# 6 29.4507 33.2354 4.5387 -6.1520 -0.3526 51.7090
#
#
#
# Elastic Compliance Matrix: (Units=1/GPa)
#
#
# Indices 1 2 3 4 5 6 
#
# 1 0.010629 -0.003569 -0.005666 -0.000806 -0.000921 -0.003364
# 2 -0.003569 0.046539 0.008565 0.001896 0.026574 -0.028225
# 3 -0.005666 0.008565 0.016624 0.002420 0.011704 -0.003369
# 4 -0.000806 0.001896 0.002420 0.022376 -0.000070 0.001690
# 5 -0.000921 0.026574 0.011704 -0.000070 0.041126 -0.017311
# 6 -0.003364 -0.028225 -0.003369 0.001690 -0.017311 0.039775
#
#
# Mechanical properties :
#
#
# Convention : Reuss Voigt Hill
#
# Bulk Modulus (GPa) = 13.80244 51.80476 32.80360
# Shear Modulus (GPa) = 24.68412 42.76065 33.72238
#
# Velocity S-wave (km/s) = 3.09218 4.06985 3.61422
# Velocity P-wave (km/s) = 4.25385 6.49245 5.48849
#
# Compressibility (1/GPa) = 0.07245094
#
# Stress axis : x y z
#
# Youngs Moduli (GPa) = 94.08522 21.48721 60.15551
#
# Poissons Ratio (x) = 0.07669 0.34083
# Poissons Ratio (y) = 0.33579 -0.51520
# Poissons Ratio (z) = 0.53307 -0.18403
#
# Static dielectric constant tensor:
#      x y z
#    x 2.080650 -0.008600 -0.036820 
#    y -0.008600 2.112520 0.025810 
#    z -0.036820 0.025810 2.107250 
# 
# From -- ./inp_files/567018.got.cif
#   From: 2010.05.17/outbox.cif.g08.bks.cpg/sg2_284_cif.got.tgz:567018.got - 2010.06.03 11:33:40.
