data_PCOD9050232
_publ_section_title
;
Structure prediction by ZEFSAII (Michael W. Deem and Ramdas Pophale) SiO2 
 PCOD9050232
Probable space group: P -1
;
_chemical_formula_sum "Si O2"
_cell_formula_units_Z 12
_cell_length_a 11.168617
_cell_length_b 13.082734
_cell_length_c 5.700866
_cell_angle_alpha 126.996363
_cell_angle_beta 105.124371
_cell_angle_gamma 45.167075
_cell_volume 451.749450
_symmetry_space_group_name_H-M "P -1"
_symmetry_group_IT_number 2
_symmetry_cell_setting 'triclinic'
loop_
_space_group_symop_operation_xyz
x,y,z
-x,-y,-z
loop_
_atom_site_type_symbol
_atom_site_label
_atom_site_fract_x
_atom_site_fract_y
_atom_site_fract_z
Si Si1 0.354048 0.505429 0.350429
Si Si2 0.671256 0.161872 0.852217
Si Si3 0.832032 0.869269 0.884756
Si Si4 0.883164 0.209081 0.775394
Si Si5 0.326711 0.110456 0.740978
Si Si6 0.094778 0.504559 0.343190
O O1 0.500000 0.500000 0.500000
O O2 0.207345 0.676772 0.348871
O O3 0.257634 0.481504 0.448734
O O4 0.464026 0.329625 0.998185
O O5 0.741334 0.247836 0.927369
O O6 0.751951 0.057680 0.997957
O O7 0.712570 0.011336 0.501940
O O8 0.929058 0.723340 0.519565
O O9 0.682824 0.899600 0.988581
O O10 0.993217 0.780630 0.019001
O O11 0.000000 0.000000 0.500000
O O12 0.500000 0.000000 0.500000
O O13 0.186662 0.334396 0.979083
O O14 0.000000 0.500000 0.500000
#
# Coordination Sequence:
#
# PCOD9050232 Si02
#       6
#     2   2   2   2   2   2
#     4  12  26  47  77 113 152 199 254 318 381 451
#     4  12  25  46  77 111 150 200 250 312 384 450
#     4  11  25  48  76 112 151 195 253 313 377 448
#     4  12  24  47  77 108 152 196 254 315 380 451
#     4  11  24  49  73 111 155 201 250 311 377 456
#     4  10  24  49  74 113 152 203 248 313 377 451
#
# _framework density 26.563393999999999
#
# number of rings (size 3 to 8) (size 9 to 14) (size 15 to 20)
#    0.000    0.667    3.333    4.000    0.000    1.333 
#    6.000    0.000    0.000    0.000    0.000    0.000 
#    0.000    0.000    0.000    0.000    0.000    0.000 
#
# Total GULP energy -66849.756519 kJ/mol
# GULP energy per Si atom -5570.813043 kJ/mol
# Density = 2.650293 g / cm^3
# Si number density = 26.563394 Si / 1000 Ang^3
#
#
#
# Elastic Constant Matrix: (Units=GPa)
#
#
# Indices 1 2 3 4 5 6 
#
# 1 223.1236 40.7859 83.5868 -13.3707 -19.0636 17.2817
# 2 40.7859 70.7281 21.8557 14.1076 6.8719 3.7714
# 3 83.5868 21.8557 186.0115 37.4905 -17.4903 -15.3687
# 4 -13.3707 14.1076 37.4905 45.5447 -1.4819 -0.0040
# 5 -19.0636 6.8719 -17.4903 -1.4819 66.7690 -6.5870
# 6 17.2817 3.7714 -15.3687 -0.0040 -6.5870 30.6350
#
#
#
# Elastic Compliance Matrix: (Units=1/GPa)
#
#
# Indices 1 2 3 4 5 6 
#
# 1 0.008464 -0.004624 -0.005414 0.008406 0.000999 -0.006706
# 2 -0.004624 0.018304 0.001333 -0.008222 -0.003000 0.000378
# 3 -0.005414 0.001333 0.010694 -0.010748 0.001731 0.008626
# 4 0.008406 -0.008222 -0.010748 0.035829 0.000334 -0.009045
# 5 0.000999 -0.003000 0.001731 0.000334 0.016447 0.004210
# 6 -0.006706 0.000378 0.008626 -0.009045 0.004210 0.041610
#
#
# Mechanical properties :
#
#
# Convention : Reuss Voigt Hill
#
# Bulk Modulus (GPa) = 49.86813 85.81333 67.84073
# Shear Modulus (GPa) = 32.16641 50.83206 41.49924
#
# Velocity S-wave (km/s) = 3.48362 4.37923 3.95685
# Velocity P-wave (km/s) = 5.91564 7.61219 6.81690
#
# Compressibility (1/GPa) = 0.02005289
#
# Stress axis : x y z
#
# Youngs Moduli (GPa) = 118.15053 54.63183 93.51003
#
# Poissons Ratio (x) = 0.25261 0.50629
# Poissons Ratio (y) = 0.54630 -0.12469
# Poissons Ratio (z) = 0.63970 -0.07285
#
# Static dielectric constant tensor:
#      x y z
#    x 1.759720 0.048030 0.351350 
#    y 0.048030 2.092990 -0.068750 
#    z 0.351350 -0.068750 1.793860 
# 
# From -- ./inp_files/72254.got.cif
#   From: 2010.05.17/outbox.cif.g08.bks.cpg/sg2_37_cif.got.tgz:72254.got - 2010.06.03 11:33:40.
