data_PCOD9050643
_publ_section_title
;
Structure prediction by ZEFSAII (Michael W. Deem and Ramdas Pophale) SiO2 
 PCOD9050643
Probable space group: P -1
;
_chemical_formula_sum "Si O2"
_cell_formula_units_Z 14
_cell_length_a 10.399948
_cell_length_b 10.066421
_cell_length_c 9.317034
_cell_angle_alpha 99.475820
_cell_angle_beta 137.220362
_cell_angle_gamma 65.636538
_cell_volume 588.242437
_symmetry_space_group_name_H-M "P -1"
_symmetry_group_IT_number 2
_symmetry_cell_setting 'triclinic'
loop_
_space_group_symop_operation_xyz
x,y,z
-x,-y,-z
loop_
_atom_site_type_symbol
_atom_site_label
_atom_site_fract_x
_atom_site_fract_y
_atom_site_fract_z
Si Si1 0.713223 0.072400 0.301384
Si Si2 0.382723 0.568355 0.271039
Si Si3 0.740478 0.695373 0.928663
Si Si4 0.108716 0.280834 0.654896
Si Si5 0.949781 0.033275 0.213260
Si Si6 0.057177 0.173373 0.071783
Si Si7 0.671596 0.520792 0.241897
O O1 0.776184 0.895558 0.312005
O O2 0.868364 0.081999 0.553493
O O3 0.478497 0.172702 0.175150
O O4 0.767598 0.114415 0.195767
O O5 0.500000 0.500000 0.500000
O O6 0.288919 0.454747 0.120243
O O7 0.185595 0.726895 0.148154
O O8 0.552745 0.574393 0.303360
O O9 0.910241 0.690153 0.184376
O O10 0.810774 0.734535 0.840962
O O11 0.251109 0.361056 0.733915
O O12 0.882424 0.367715 0.411539
O O13 0.052404 0.123620 0.222495
O O14 0.868994 0.961399 0.007147
O O15 0.500000 0.500000 0.000000
#
# Coordination Sequence:
#
# PCOD9050643 Si02
#       7
#     2   2   2   2   2   2   2
#     4  11  25  43  76  99 142 187 243 298 356 415
#     4  12  27  44  72  99 147 194 235 292 375 426
#     4  12  25  45  71 105 145 190 241 301 356 430
#     4  11  25  44  74 109 142 179 247 302 351 424
#     4  10  25  43  69 102 139 188 246 290 360 430
#     4  11  25  44  67 102 147 186 238 294 363 432
#     4  11  26  46  74 107 143 186 244 301 355 423
#
# _framework density 23.799710000000001
#
# number of rings (size 3 to 8) (size 9 to 14) (size 15 to 20)
#    0.000    0.857    2.857    2.571    8.000    2.857 
#    0.000    0.000    0.000    0.000    0.000    0.000 
#    0.000    0.000    0.000    0.000    0.000    0.000 
#
# Total GULP energy -78405.003784 kJ/mol
# GULP energy per Si atom -5600.357413 kJ/mol
# Density = 2.374554 g / cm^3
# Si number density = 23.799710 Si / 1000 Ang^3
#
#
#
# Elastic Constant Matrix: (Units=GPa)
#
#
# Indices 1 2 3 4 5 6 
#
# 1 193.5990 19.6255 19.5961 -13.5831 -12.2514 -1.0000
# 2 19.6255 74.8734 11.5502 0.4501 5.4637 7.1297
# 3 19.5961 11.5502 104.8229 -2.1241 0.0669 -10.5339
# 4 -13.5831 0.4501 -2.1241 29.7847 -1.8818 6.5280
# 5 -12.2514 5.4637 0.0669 -1.8818 41.8911 1.6969
# 6 -1.0000 7.1297 -10.5339 6.5280 1.6969 35.2567
#
#
#
# Elastic Compliance Matrix: (Units=1/GPa)
#
#
# Indices 1 2 3 4 5 6 
#
# 1 0.005727 -0.001487 -0.000893 0.002789 0.002013 -0.000417
# 2 -0.001487 0.014477 -0.001654 -0.000436 -0.002207 -0.003277
# 3 -0.000893 -0.001654 0.010228 -0.000424 -0.000221 0.003454
# 4 0.002789 -0.000436 -0.000424 0.036501 0.002791 -0.006852
# 5 0.002013 -0.002207 -0.000221 0.002791 0.024925 -0.001279
# 6 -0.000417 -0.003277 0.003454 -0.006852 -0.001279 0.031376
#
#
# Mechanical properties :
#
#
# Convention : Reuss Voigt Hill
#
# Bulk Modulus (GPa) = 44.71764 52.75986 48.73875
# Shear Modulus (GPa) = 36.03395 42.88805 39.46100
#
# Velocity S-wave (km/s) = 3.89530 4.24965 4.07633
# Velocity P-wave (km/s) = 6.24989 6.80410 6.53287
#
# Compressibility (1/GPa) = 0.02236254
#
# Stress axis : x y z
#
# Youngs Moduli (GPa) = 174.59815 69.07713 97.77252
#
# Poissons Ratio (x) = 0.10274 0.08736
# Poissons Ratio (y) = 0.25969 0.16170
# Poissons Ratio (z) = 0.15600 0.11424
#
# Static dielectric constant tensor:
#      x y z
#    x 1.947600 0.039190 -0.046990 
#    y 0.039190 1.926160 0.053100 
#    z -0.046990 0.053100 1.973940 
# 
# From -- ./inp_files/188824.got.cif
#   From: 2010.05.17/outbox.cif.g08.bks.cpg/sg2_95_cif.got.tgz:188824.got - 2010.06.03 11:33:40.
