data_PCOD9050361
_publ_section_title
;
Structure prediction by ZEFSAII (Michael W. Deem and Ramdas Pophale) SiO2 
 PCOD9050361
Probable space group: P -1
;
_chemical_formula_sum "Si O2"
_cell_formula_units_Z 14
_cell_length_a 8.789009
_cell_length_b 4.895574
_cell_length_c 17.162316
_cell_angle_alpha 53.740636
_cell_angle_beta 109.312419
_cell_angle_gamma 117.005852
_cell_volume 528.528809
_symmetry_space_group_name_H-M "P -1"
_symmetry_group_IT_number 2
_symmetry_cell_setting 'triclinic'
loop_
_space_group_symop_operation_xyz
x,y,z
-x,-y,-z
loop_
_atom_site_type_symbol
_atom_site_label
_atom_site_fract_x
_atom_site_fract_y
_atom_site_fract_z
Si Si1 0.442325 0.113528 0.098354
Si Si2 0.327388 0.137380 0.580252
Si Si3 0.142510 0.985934 0.965571
Si Si4 0.659615 0.080414 0.716689
Si Si5 0.276473 0.894775 0.446757
Si Si6 0.193283 0.786398 0.844171
Si Si7 0.003649 0.214685 0.336123
O O1 0.606254 0.982878 0.149928
O O2 0.374469 0.124058 0.172491
O O3 0.500000 0.500000 0.000000
O O4 0.285892 0.887849 0.055336
O O5 0.488136 0.183150 0.655740
O O6 0.376038 0.063422 0.513831
O O7 0.274307 0.490540 0.508214
O O8 0.160645 0.814165 0.634585
O O9 0.203059 0.406748 0.878806
O O10 0.106480 0.765054 0.917287
O O11 0.000000 0.000000 0.000000
O O12 0.840706 0.406266 0.700765
O O13 0.673232 0.914104 0.661952
O O14 0.092442 0.932389 0.424861
O O15 0.080055 0.896064 0.744023
#
# Coordination Sequence:
#
# PCOD9050361 Si02
#       7
#     2   2   2   2   2   2   2
#     4  10  24  52  76 110 155 204 255 319 388 456
#     4  12  28  52  76 114 160 204 255 323 389 459
#     4  11  24  44  75 105 146 188 252 312 377 445
#     4  12  27  50  79 116 153 208 261 321 384 466
#     4  12  28  50  78 115 158 204 259 322 384 464
#     4  11  25  47  69 107 146 197 245 308 376 456
#     4  12  28  47  80 112 159 202 263 311 393 459
#
# _framework density 26.488621999999999
#
# number of rings (size 3 to 8) (size 9 to 14) (size 15 to 20)
#    0.000    0.571    2.857    3.429    8.000    0.000 
#    7.714    0.000    0.000    0.000    0.000    0.000 
#    0.000    0.000    0.000    0.000    0.000    0.000 
#
# Total GULP energy -78379.051343 kJ/mol
# GULP energy per Si atom -5598.503667 kJ/mol
# Density = 2.642833 g / cm^3
# Si number density = 26.488622 Si / 1000 Ang^3
#
#
#
# Elastic Constant Matrix: (Units=GPa)
#
#
# Indices 1 2 3 4 5 6 
#
# 1 122.2168 48.9512 38.5408 5.1874 -13.0114 32.3235
# 2 48.9512 94.1295 51.1656 10.4776 -11.3879 -3.9534
# 3 38.5408 51.1656 186.1090 31.9468 -18.1584 20.9907
# 4 5.1874 10.4776 31.9468 34.1837 8.0317 -5.9415
# 5 -13.0114 -11.3879 -18.1584 8.0317 57.6552 4.6693
# 6 32.3235 -3.9534 20.9907 -5.9415 4.6693 49.4243
#
#
#
# Elastic Compliance Matrix: (Units=1/GPa)
#
#
# Indices 1 2 3 4 5 6 
#
# 1 0.014549 -0.008003 0.001576 -0.004130 0.003720 -0.011672
# 2 -0.008003 0.017295 -0.004475 0.001807 -0.000765 0.008808
# 3 0.001576 -0.004475 0.009091 -0.009535 0.004213 -0.006794
# 4 -0.004130 0.001807 -0.009535 0.043006 -0.010628 0.013069
# 5 0.003720 -0.000765 0.004213 -0.010628 0.021455 -0.007588
# 6 -0.011672 0.008808 -0.006794 0.013069 -0.007588 0.033744
#
#
# Mechanical properties :
#
#
# Convention : Reuss Voigt Hill
#
# Bulk Modulus (GPa) = 52.27601 75.53007 63.90304
# Shear Modulus (GPa) = 29.88243 45.83916 37.86080
#
# Velocity S-wave (km/s) = 3.36240 4.16447 3.78474
# Velocity P-wave (km/s) = 5.90359 7.19026 6.57846
#
# Compressibility (1/GPa) = 0.01912923
#
# Stress axis : x y z
#
# Youngs Moduli (GPa) = 68.73268 57.82142 109.99515
#
# Poissons Ratio (x) = 0.46275 -0.17332
# Poissons Ratio (y) = 0.55008 0.49228
# Poissons Ratio (z) = -0.10830 0.25878
#
# Static dielectric constant tensor:
#      x y z
#    x 2.124930 0.079740 -0.012300 
#    y 0.079740 2.161000 -0.062630 
#    z -0.012300 -0.062630 2.074510 
# 
# From -- ./inp_files/340608.got.cif
#   From: 2010.05.17/outbox.cif.g08.bks.cpg/sg2_171_cif.got.tgz:340608.got - 2010.06.03 11:33:40.
