data_PCOD9050965
_publ_section_title
;
Structure prediction by ZEFSAII (Michael W. Deem and Ramdas Pophale) SiO2 
 PCOD9050965
Probable space group: P -1
;
_chemical_formula_sum "Si O2"
_cell_formula_units_Z 14
_cell_length_a 7.712569
_cell_length_b 14.126127
_cell_length_c 9.446062
_cell_angle_alpha 139.149971
_cell_angle_beta 113.116627
_cell_angle_gamma 88.730085
_cell_volume 550.714621
_symmetry_space_group_name_H-M "P -1"
_symmetry_group_IT_number 2
_symmetry_cell_setting 'triclinic'
loop_
_space_group_symop_operation_xyz
x,y,z
-x,-y,-z
loop_
_atom_site_type_symbol
_atom_site_label
_atom_site_fract_x
_atom_site_fract_y
_atom_site_fract_z
Si Si1 0.804157 0.338080 0.084008
Si Si2 0.324308 0.836207 0.883322
Si Si3 0.499944 0.646949 0.579080
Si Si4 0.226447 0.105923 0.263819
Si Si5 0.001707 0.774910 0.200905
Si Si6 0.308688 0.140761 0.659501
Si Si7 0.080710 0.639940 0.351601
O O1 0.961258 0.272300 0.996638
O O2 0.561040 0.218076 0.830230
O O3 0.804505 0.317554 0.228375
O O4 0.878273 0.508598 0.221889
O O5 0.516499 0.799718 0.854443
O O6 0.644105 0.999769 0.845632
O O7 0.181297 0.805994 0.663611
O O8 0.500000 0.500000 0.500000
O O9 0.667022 0.725534 0.596918
O O10 0.268989 0.589272 0.370401
O O11 0.232646 0.132813 0.463992
O O12 0.000000 0.000000 0.000000
O O13 0.052542 0.673760 0.220600
O O14 0.777327 0.759704 0.158126
O O15 0.184345 0.960521 0.479195
#
# Coordination Sequence:
#
# PCOD9050965 Si02
#       7
#     2   2   2   2   2   2   2
#     4  12  24  45  75 103 149 197 239 310 368 441
#     4  10  25  44  75 104 147 193 247 302 368 436
#     4  10  26  45  72 110 149 189 251 306 370 436
#     4  12  25  46  75 111 146 192 252 308 370 447
#     4  11  24  47  70 108 152 188 244 307 372 445
#     4  11  27  44  76 109 145 194 252 301 377 445
#     4  10  25  45  74 104 149 192 247 303 372 432
#
# _framework density 25.421512
#
# number of rings (size 3 to 8) (size 9 to 14) (size 15 to 20)
#    0.857    0.286    1.429    3.429    4.000    5.143 
#    0.000    0.000    0.000    0.000    0.000    0.000 
#    0.000    0.000    0.000    0.000    0.000    0.000 
#
# Total GULP energy -78315.791177 kJ/mol
# GULP energy per Si atom -5593.985084 kJ/mol
# Density = 2.536365 g / cm^3
# Si number density = 25.421512 Si / 1000 Ang^3
#
#
#
# Elastic Constant Matrix: (Units=GPa)
#
#
# Indices 1 2 3 4 5 6 
#
# 1 88.8501 32.3529 24.4594 -1.3455 -9.8875 13.3703
# 2 32.3529 184.8232 18.8362 8.9914 18.4300 15.5327
# 3 24.4594 18.8362 49.6432 -8.0402 9.2337 8.3660
# 4 -1.3455 8.9914 -8.0402 46.4033 5.8508 -1.5681
# 5 -9.8875 18.4300 9.2337 5.8508 45.2698 -0.1587
# 6 13.3703 15.5327 8.3660 -1.5681 -0.1587 44.3722
#
#
#
# Elastic Compliance Matrix: (Units=1/GPa)
#
#
# Indices 1 2 3 4 5 6 
#
# 1 0.015121 -0.002207 -0.007509 -0.001258 0.005887 -0.002392
# 2 -0.002207 0.006325 -0.000732 -0.001117 -0.002768 -0.001460
# 3 -0.007509 -0.000732 0.026799 0.005436 -0.007519 -0.002369
# 4 -0.001258 -0.001117 0.005436 0.023185 -0.003923 0.000551
# 5 0.005887 -0.002768 -0.007519 -0.003923 0.026545 0.000569
# 6 -0.002392 -0.001460 -0.002369 0.000551 0.000569 0.024237
#
#
# Mechanical properties :
#
#
# Convention : Reuss Voigt Hill
#
# Bulk Modulus (GPa) = 36.56349 52.73486 44.64918
# Shear Modulus (GPa) = 32.84625 43.72027 38.28326
#
# Velocity S-wave (km/s) = 3.59843 4.15156 3.88485
# Velocity P-wave (km/s) = 5.62841 6.61588 6.14202
#
# Compressibility (1/GPa) = 0.02734969
#
# Stress axis : x y z
#
# Youngs Moduli (GPa) = 66.13136 158.11390 37.31437
#
# Poissons Ratio (x) = 0.34888 0.28019
# Poissons Ratio (y) = 0.14592 0.02733
# Poissons Ratio (z) = 0.49657 0.11581
#
# Static dielectric constant tensor:
#      x y z
#    x 2.037290 -0.038100 -0.071750 
#    y -0.038100 1.939880 0.046470 
#    z -0.071750 0.046470 2.065110 
# 
# From -- ./inp_files/209050.got.cif
#   From: 2010.05.17/outbox.cif.g08.bks.cpg/sg2_105_cif.got.tgz:209050.got - 2010.06.03 11:33:40.
