data_PCOD9050681
_publ_section_title
;
Structure prediction by ZEFSAII (Michael W. Deem and Ramdas Pophale) SiO2 
 PCOD9050681
Probable space group: P -1
;
_chemical_formula_sum "Si O2"
_cell_formula_units_Z 14
_cell_length_a 11.996091
_cell_length_b 17.172306
_cell_length_c 8.908355
_cell_angle_alpha 118.402540
_cell_angle_beta 64.122669
_cell_angle_gamma 159.459050
_cell_volume 566.155258
_symmetry_space_group_name_H-M "P -1"
_symmetry_group_IT_number 2
_symmetry_cell_setting 'triclinic'
loop_
_space_group_symop_operation_xyz
x,y,z
-x,-y,-z
loop_
_atom_site_type_symbol
_atom_site_label
_atom_site_fract_x
_atom_site_fract_y
_atom_site_fract_z
Si Si1 0.845159 0.394606 0.734699
Si Si2 0.170770 0.197272 0.657513
Si Si3 0.186014 0.756067 0.659119
Si Si4 0.875824 0.186290 0.758625
Si Si5 0.671367 0.365252 0.092164
Si Si6 0.976399 0.970239 0.812585
Si Si7 0.122851 0.300360 0.394994
O O1 0.746211 0.253236 0.545570
O O2 0.935765 0.534318 0.699099
O O3 0.150659 0.565943 0.812109
O O4 0.606641 0.261986 0.889172
O O5 0.498911 0.441904 0.613061
O O6 0.947707 0.137043 0.738214
O O7 0.000000 0.000000 0.500000
O O8 0.234442 0.198800 0.785236
O O9 0.042134 0.754507 0.692563
O O10 0.509611 0.970717 0.760496
O O11 0.083964 0.400783 0.904181
O O12 0.014964 0.273185 0.588064
O O13 0.364560 0.212203 0.194088
O O14 0.978653 0.868205 0.685304
O O15 0.000000 0.000000 0.000000
#
# Coordination Sequence:
#
# PCOD9050681 Si02
#       7
#     2   2   2   2   2   2   2
#     4  10  25  43  71 102 144 186 241 290 361 429
#     4  12  26  45  77 103 141 193 241 294 361 426
#     4  11  26  43  75 104 141 189 243 292 358 426
#     4  12  24  45  74 106 145 190 243 296 356 429
#     4  11  24  46  69 104 149 184 238 303 356 424
#     4  12  29  46  74 106 147 191 239 301 370 419
#     4  12  26  46  72 109 145 183 248 296 347 436
#
# _framework density 24.728200000000001
#
# number of rings (size 3 to 8) (size 9 to 14) (size 15 to 20)
#    0.000    0.571    4.286    2.571    8.000    3.429 
#    0.000    0.000    0.000    0.000    0.000    0.000 
#    0.000    0.000    0.000    0.000    0.000    0.000 
#
# Total GULP energy -78434.627820 kJ/mol
# GULP energy per Si atom -5602.473416 kJ/mol
# Density = 2.467192 g / cm^3
# Si number density = 24.728200 Si / 1000 Ang^3
#
#
#
# Elastic Constant Matrix: (Units=GPa)
#
#
# Indices 1 2 3 4 5 6 
#
# 1 180.7593 33.5063 5.2195 -0.1589 3.1614 -9.9845
# 2 33.5063 65.9632 -14.9610 6.6057 2.8173 2.9722
# 3 5.2195 -14.9610 70.6189 2.4380 7.4746 -7.7692
# 4 -0.1589 6.6057 2.4380 22.1856 -3.0768 -0.2682
# 5 3.1614 2.8173 7.4746 -3.0768 31.1920 -11.8366
# 6 -9.9845 2.9722 -7.7692 -0.2682 -11.8366 41.4551
#
#
#
# Elastic Compliance Matrix: (Units=1/GPa)
#
#
# Indices 1 2 3 4 5 6 
#
# 1 0.006351 -0.003758 -0.001201 0.001431 0.000814 0.001816
# 2 -0.003758 0.019119 0.004715 -0.006844 -0.004145 -0.002620
# 3 -0.001201 0.004715 0.015934 -0.003709 -0.004040 0.001181
# 4 0.001431 -0.006844 -0.003709 0.048543 0.007091 0.002479
# 5 0.000814 -0.004145 -0.004040 0.007091 0.038060 0.010649
# 6 0.001816 -0.002620 0.001181 0.002479 0.010649 0.028026
#
#
# Mechanical properties :
#
#
# Convention : Reuss Voigt Hill
#
# Bulk Modulus (GPa) = 24.44145 40.54121 32.49133
# Shear Modulus (GPa) = 29.38402 38.53832 33.96117
#
# Velocity S-wave (km/s) = 3.45088 3.95204 3.70993
# Velocity P-wave (km/s) = 5.07776 6.10370 5.61421
#
# Compressibility (1/GPa) = 0.04091410
#
# Stress axis : x y z
#
# Youngs Moduli (GPa) = 157.45840 52.30408 62.75948
#
# Poissons Ratio (x) = 0.19658 0.07540
# Poissons Ratio (y) = 0.59179 -0.29591
# Poissons Ratio (z) = 0.18918 -0.24661
#
# Static dielectric constant tensor:
#      x y z
#    x 2.024730 -0.029600 -0.019310 
#    y -0.029600 2.186220 0.038470 
#    z -0.019310 0.038470 2.013450 
# 
# From -- ./inp_files/279609.got.cif
#   From: 2010.05.17/outbox.cif.g08.bks.cpg/sg2_140_cif.got.tgz:279609.got - 2010.06.03 11:33:40.
