data_PCOD9050237
_publ_section_title
;
Structure prediction by ZEFSAII (Michael W. Deem and Ramdas Pophale) SiO2 
 PCOD9050237
Probable space group: P -1
;
_chemical_formula_sum "Si O2"
_cell_formula_units_Z 14
_cell_length_a 17.624801
_cell_length_b 6.729336
_cell_length_c 12.497229
_cell_angle_alpha 103.747440
_cell_angle_beta 23.040584
_cell_angle_gamma 102.324890
_cell_volume 563.440438
_symmetry_space_group_name_H-M "P -1"
_symmetry_group_IT_number 2
_symmetry_cell_setting 'triclinic'
loop_
_space_group_symop_operation_xyz
x,y,z
-x,-y,-z
loop_
_atom_site_type_symbol
_atom_site_label
_atom_site_fract_x
_atom_site_fract_y
_atom_site_fract_z
Si Si1 0.415567 0.504334 0.367831
Si Si2 0.675634 0.907958 0.608250
Si Si3 0.432708 0.266372 0.043723
Si Si4 0.833333 0.652834 0.772236
Si Si5 0.101811 0.063213 0.074245
Si Si6 0.347723 0.685457 0.697427
Si Si7 0.999401 0.565074 0.883200
O O1 0.399942 0.266307 0.397248
O O2 0.367563 0.671970 0.541530
O O3 0.218403 0.526244 0.555929
O O4 0.631952 0.542899 0.052678
O O5 0.593936 0.820451 0.814758
O O6 0.905454 0.932174 0.308233
O O7 0.582140 0.133205 0.760403
O O8 0.232838 0.235139 0.236037
O O9 0.500000 0.500000 0.000000
O O10 0.901033 0.792911 0.799352
O O11 0.000000 0.500000 0.500000
O O12 0.079865 0.210823 0.017690
O O13 0.296800 0.924433 0.812039
O O14 0.500000 0.500000 0.500000
O O15 0.155920 0.585254 0.984690
O O16 0.000000 0.500000 0.000000
#
# Coordination Sequence:
#
# PCOD9050237 Si02
#       7
#     2   2   2   2   2   2   2
#     4  11  24  47  74 106 148 203 254 316 368 461
#     4  11  25  44  78 107 145 205 261 308 374 459
#     4  11  24  47  72 105 151 201 260 309 373 459
#     4  12  28  45  76 113 157 199 248 317 391 450
#     4  12  27  47  76 115 155 201 256 320 389 454
#     4  11  26  47  74 112 159 196 251 317 391 455
#     4  10  24  49  75 109 147 202 257 316 373 458
#
# _framework density 24.847346000000002
#
# number of rings (size 3 to 8) (size 9 to 14) (size 15 to 20)
#    0.000    0.857    2.857    2.571    6.000    6.286 
#    2.571    0.000    0.000    0.000    0.000    0.000 
#    0.000    0.000    0.000    0.000    0.000    0.000 
#
# Total GULP energy -78062.019313 kJ/mol
# GULP energy per Si atom -5575.858522 kJ/mol
# Density = 2.479079 g / cm^3
# Si number density = 24.847346 Si / 1000 Ang^3
#
#
#
# Elastic Constant Matrix: (Units=GPa)
#
#
# Indices 1 2 3 4 5 6 
#
# 1 47.7481 21.4589 -4.5489 19.2616 9.9222 12.0550
# 2 21.4589 144.7671 47.5923 29.6881 6.1384 3.6226
# 3 -4.5489 47.5923 136.0036 26.5543 -4.9494 2.9577
# 4 19.2616 29.6881 26.5543 69.4508 -4.6772 -1.6585
# 5 9.9222 6.1384 -4.9494 -4.6772 33.9792 12.0388
# 6 12.0550 3.6226 2.9577 -1.6585 12.0388 44.3060
#
#
#
# Elastic Compliance Matrix: (Units=1/GPa)
#
#
# Indices 1 2 3 4 5 6 
#
# 1 0.029287 -0.003366 0.003772 -0.008705 -0.006266 -0.006569
# 2 -0.003366 0.008776 -0.002906 -0.001793 -0.001535 0.000742
# 3 0.003772 -0.002906 0.009214 -0.003306 0.000942 -0.001784
# 4 -0.008705 -0.001793 -0.003306 0.019182 0.004206 0.002311
# 5 -0.006266 -0.001535 0.000942 0.004206 0.034934 -0.007567
# 6 -0.006569 0.000742 -0.001784 0.002311 -0.007567 0.026559
#
#
# Mechanical properties :
#
#
# Convention : Reuss Voigt Hill
#
# Bulk Modulus (GPa) = 23.65310 50.83593 37.24451
# Shear Modulus (GPa) = 34.00336 47.14829 40.57582
#
# Velocity S-wave (km/s) = 3.70332 4.36078 4.04543
# Velocity P-wave (km/s) = 5.27505 6.77192 6.06981
#
# Compressibility (1/GPa) = 0.04227776
#
# Stress axis : x y z
#
# Youngs Moduli (GPa) = 34.14457 113.94730 108.52699
#
# Poissons Ratio (x) = 0.38356 -0.40935
# Poissons Ratio (y) = 0.11494 0.31534
# Poissons Ratio (z) = -0.12879 0.33109
#
# Static dielectric constant tensor:
#      x y z
#    x 2.160390 -0.011210 0.010780 
#    y -0.011210 2.096440 0.017760 
#    z 0.010780 0.017760 1.985060 
# 
# From -- ./inp_files/539800.got.cif
#   From: 2010.05.17/outbox.cif.g08.bks.cpg/sg2_270_cif.got.tgz:539800.got - 2010.06.03 11:33:40.
