data_PCOD9050062
_publ_section_title
;
Structure prediction by ZEFSAII (Michael W. Deem and Ramdas Pophale) SiO2 
 PCOD9050062
Probable space group: P -1
;
_chemical_formula_sum "Si O2"
_cell_formula_units_Z 10
_cell_length_a 12.840832
_cell_length_b 11.006070
_cell_length_c 12.519813
_cell_angle_alpha 22.719017
_cell_angle_beta 139.064381
_cell_angle_gamma 148.180281
_cell_volume 356.794713
_symmetry_space_group_name_H-M "P -1"
_symmetry_group_IT_number 2
_symmetry_cell_setting 'triclinic'
loop_
_space_group_symop_operation_xyz
x,y,z
-x,-y,-z
loop_
_atom_site_type_symbol
_atom_site_label
_atom_site_fract_x
_atom_site_fract_y
_atom_site_fract_z
Si Si1 0.296547 0.447980 0.861831
Si Si2 0.221708 0.186173 0.781522
Si Si3 0.846149 0.058059 0.288216
Si Si4 0.797996 0.941309 0.687562
Si Si5 0.485863 0.933055 0.914670
O O1 0.283153 0.437956 0.731848
O O2 0.262850 0.769333 0.609047
O O3 0.500000 0.500000 0.000000
O O4 0.161616 0.082578 0.134902
O O5 0.293007 0.909268 0.084002
O O6 0.287658 0.273012 0.638646
O O7 0.997777 0.042542 0.709877
O O8 0.687410 0.013661 0.284226
O O9 0.000000 0.000000 0.500000
O O10 0.000000 0.500000 0.000000
O O11 0.626878 0.514321 0.853323
O O12 0.500000 0.000000 0.000000
#
# Coordination Sequence:
#
# PCOD9050062 Si02
#       5
#     2   2   2   2   2
#     4  12  27  48  75 108 146 194 242 298 363 428
#     4  11  25  47  77 104 148 189 243 296 363 423
#     4  11  25  47  73 104 143 187 237 297 358 423
#     4  12  26  49  74 106 150 188 244 299 359 432
#     4  10  24  48  74 110 142 194 241 298 362 432
#
# _framework density 28.027321000000001
#
# number of rings (size 3 to 8) (size 9 to 14) (size 15 to 20)
#    0.000    0.800    4.000    1.800    2.800    1.600 
#    3.600    6.000    0.000    0.000    0.000    0.000 
#    0.000    0.000    0.000    0.000    0.000    0.000 
#
# Total GULP energy -55716.232164 kJ/mol
# GULP energy per Si atom -5571.623216 kJ/mol
# Density = 2.796353 g / cm^3
# Si number density = 28.027321 Si / 1000 Ang^3
#
#
#
# Elastic Constant Matrix: (Units=GPa)
#
#
# Indices 1 2 3 4 5 6 
#
# 1 159.0151 26.9527 59.4630 10.0995 68.8042 3.4831
# 2 26.9527 124.1654 43.2969 25.8520 24.4759 -22.5835
# 3 59.4630 43.2969 232.5135 31.1153 55.5112 15.0681
# 4 10.0995 25.8520 31.1153 31.2368 10.2471 9.1647
# 5 68.8042 24.4759 55.5112 10.2471 65.3922 13.0760
# 6 3.4831 -22.5835 15.0681 9.1647 13.0760 73.8848
#
#
#
# Elastic Compliance Matrix: (Units=1/GPa)
#
#
# Indices 1 2 3 4 5 6 
#
# 1 0.011763 0.000439 -0.000109 -0.000433 -0.012764 0.001914
# 2 0.000439 0.012057 -0.000376 -0.010042 -0.004229 0.005735
# 3 -0.000109 -0.000376 0.005951 -0.004208 -0.004122 -0.000072
# 4 -0.000433 -0.010042 -0.004208 0.046383 0.002183 -0.008331
# 5 -0.012764 -0.004229 -0.004122 0.002183 0.034716 -0.006265
# 6 0.001914 0.005735 -0.000072 -0.008331 -0.006265 0.017354
#
#
# Mechanical properties :
#
#
# Convention : Reuss Voigt Hill
#
# Bulk Modulus (GPa) = 33.69314 86.12437 59.90875
# Shear Modulus (GPa) = 36.17712 59.83485 48.00599
#
# Velocity S-wave (km/s) = 3.59664 4.62548 4.14312
# Velocity P-wave (km/s) = 5.41252 7.70209 6.65649
#
# Compressibility (1/GPa) = 0.02967963
#
# Stress axis : x y z
#
# Youngs Moduli (GPa) = 85.00872 82.93930 168.04976
#
# Poissons Ratio (x) = -0.03640 0.01831
# Poissons Ratio (y) = -0.03730 0.06312
# Poissons Ratio (z) = 0.00926 0.03115
#
# Static dielectric constant tensor:
#      x y z
#    x 2.342320 0.161360 -0.280840 
#    y 0.161360 2.380000 -0.116580 
#    z -0.280840 -0.116580 2.648920 
# 
# From -- ./inp_files/92138.got.cif
#   From: 2010.05.17/outbox.cif.g08.bks.cpg/sg2_47_cif.got.tgz:92138.got - 2010.06.03 11:33:40.
