data_PCOD9050447
_publ_section_title
;
Structure prediction by ZEFSAII (Michael W. Deem and Ramdas Pophale) SiO2 
 PCOD9050447
Probable space group: P -1
;
_chemical_formula_sum "Si O2"
_cell_formula_units_Z 14
_cell_length_a 8.187826
_cell_length_b 18.793757
_cell_length_c 12.114303
_cell_angle_alpha 31.200285
_cell_angle_beta 35.008385
_cell_angle_gamma 41.105773
_cell_volume 545.164947
_symmetry_space_group_name_H-M "P -1"
_symmetry_group_IT_number 2
_symmetry_cell_setting 'triclinic'
loop_
_space_group_symop_operation_xyz
x,y,z
-x,-y,-z
loop_
_atom_site_type_symbol
_atom_site_label
_atom_site_fract_x
_atom_site_fract_y
_atom_site_fract_z
Si Si1 0.913236 0.387212 0.383022
Si Si2 0.755929 0.139975 0.423528
Si Si3 0.833475 0.160596 0.875436
Si Si4 0.321483 0.399298 0.571658
Si Si5 0.359548 0.994745 0.968351
Si Si6 0.384837 0.546863 0.877144
Si Si7 0.129077 0.810188 0.945577
O O1 0.010069 0.251232 0.584209
O O2 0.657100 0.360538 0.478688
O O3 0.805114 0.499436 0.391776
O O4 0.170822 0.441174 0.107159
O O5 0.469767 0.113353 0.679089
O O6 0.793756 0.294357 0.235757
O O7 0.000000 0.000000 0.500000
O O8 0.704213 0.165035 0.288908
O O9 0.741735 0.229285 0.952332
O O10 0.568458 0.140519 0.968609
O O11 0.000000 0.000000 0.000000
O O12 0.361660 0.457559 0.348050
O O13 0.111889 0.284503 0.826740
O O14 0.034084 0.035044 0.137507
O O15 0.500000 0.000000 0.000000
O O16 0.500000 0.500000 0.000000
#
# Coordination Sequence:
#
# PCOD9050447 Si02
#       7
#     2   2   2   2   2   2   2
#     4  11  25  45  71 104 138 184 246 281 355 427
#     4  12  26  41  75 104 135 190 239 285 351 426
#     4  10  25  41  69 102 137 182 226 290 351 415
#     4  11  24  45  74  98 140 188 234 293 347 424
#     4  11  22  44  69 100 140 179 229 287 354 413
#     4  12  27  44  70 106 144 184 235 293 361 416
#     4  11  22  44  67 101 139 179 232 290 354 414
#
# _framework density 25.680301
#
# number of rings (size 3 to 8) (size 9 to 14) (size 15 to 20)
#    0.000    0.857    4.286    2.143    4.000    1.714 
#    0.000    2.857    0.000    0.000    0.000    0.000 
#    0.000    0.000    0.000    0.000    0.000    0.000 
#
# Total GULP energy -78033.079133 kJ/mol
# GULP energy per Si atom -5573.791367 kJ/mol
# Density = 2.562185 g / cm^3
# Si number density = 25.680301 Si / 1000 Ang^3
#
#
#
# Elastic Constant Matrix: (Units=GPa)
#
#
# Indices 1 2 3 4 5 6 
#
# 1 137.9442 34.7579 43.3567 -1.0398 3.0484 48.2241
# 2 34.7579 101.0040 27.3746 -2.8138 14.4806 17.3896
# 3 43.3567 27.3746 159.5313 11.1596 22.1811 18.3391
# 4 -1.0398 -2.8138 11.1596 55.2147 10.6004 13.9539
# 5 3.0484 14.4806 22.1811 10.6004 25.1854 6.2885
# 6 48.2241 17.3896 18.3391 13.9539 6.2885 54.5318
#
#
#
# Elastic Compliance Matrix: (Units=1/GPa)
#
#
# Indices 1 2 3 4 5 6 
#
# 1 0.012053 -0.002157 -0.002376 0.002532 0.003357 -0.010207
# 2 -0.002157 0.012110 -0.000523 0.002403 -0.006852 -0.001603
# 3 -0.002376 -0.000523 0.007850 -0.000593 -0.006200 0.000494
# 4 0.002532 0.002403 -0.000593 0.021918 -0.008536 -0.007430
# 5 0.003357 -0.006852 -0.006200 -0.008536 0.052946 -0.002620
# 6 -0.010207 -0.001603 0.000494 -0.007430 -0.002620 0.029912
#
#
# Mechanical properties :
#
#
# Convention : Reuss Voigt Hill
#
# Bulk Modulus (GPa) = 45.65957 67.71755 56.68856
# Shear Modulus (GPa) = 32.42516 46.51908 39.47212
#
# Velocity S-wave (km/s) = 3.55723 4.26075 3.92479
# Velocity P-wave (km/s) = 5.88986 7.11562 6.53156
#
# Compressibility (1/GPa) = 0.02190121
#
# Stress axis : x y z
#
# Youngs Moduli (GPa) = 82.96877 82.57708 127.38116
#
# Poissons Ratio (x) = 0.17813 0.30266
# Poissons Ratio (y) = 0.17897 0.06660
# Poissons Ratio (z) = 0.19714 0.04317
#
# Static dielectric constant tensor:
#      x y z
#    x 0.635910 -0.769600 -0.457700 
#    y -0.769600 1.842140 -0.198500 
#    z -0.457700 -0.198500 1.923830 
# 
# From -- ./inp_files/255771.got.cif
#   From: 2010.05.17/outbox.cif.g08.bks.cpg/sg2_128_cif.got.tgz:255771.got - 2010.06.03 11:33:40.
