data_PCOD9050602
_publ_section_title
;
Structure prediction by ZEFSAII (Michael W. Deem and Ramdas Pophale) SiO2 
 PCOD9050602
Probable space group: P -1
;
_chemical_formula_sum "Si O2"
_cell_formula_units_Z 16
_cell_length_a 12.990169
_cell_length_b 12.445442
_cell_length_c 20.339745
_cell_angle_alpha 21.451760
_cell_angle_beta 44.321126
_cell_angle_gamma 54.695273
_cell_volume 788.882935
_symmetry_space_group_name_H-M "P -1"
_symmetry_group_IT_number 2
_symmetry_cell_setting 'triclinic'
loop_
_space_group_symop_operation_xyz
x,y,z
-x,-y,-z
loop_
_atom_site_type_symbol
_atom_site_label
_atom_site_fract_x
_atom_site_fract_y
_atom_site_fract_z
Si Si1 0.408585 0.304059 0.716474
Si Si2 0.143033 0.318024 0.751100
Si Si3 0.095097 0.295289 0.547538
Si Si4 0.425755 0.756800 0.732296
Si Si5 0.972110 0.819003 0.547873
Si Si6 0.337558 0.249723 0.572845
Si Si7 0.091192 0.286810 0.108134
Si Si8 0.320654 0.566004 0.167150
O O1 0.500000 0.500000 0.500000
O O2 0.240052 0.337433 0.763091
O O3 0.500932 0.462207 0.649826
O O4 0.391162 0.941972 0.922249
O O5 0.240215 0.263266 0.675237
O O6 0.084762 0.612683 0.603272
O O7 0.000000 0.000000 0.000000
O O8 0.223801 0.270925 0.554064
O O9 0.196763 0.450694 0.349015
O O10 0.000000 0.500000 0.500000
O O11 0.953350 0.978875 0.775331
O O12 0.547434 0.590943 0.794131
O O13 0.500000 0.000000 0.500000
O O14 0.383371 0.949745 0.701744
O O15 0.268388 0.495399 0.925309
O O16 0.793075 0.580147 0.759166
O O17 0.000000 0.000000 0.500000
O O18 0.012355 0.091164 0.319991
O O19 0.000000 0.500000 0.000000
#
# Coordination Sequence:
#
# PCOD9050602 Si02
#       8
#     2   2   2   2   2   2   2   2
#     4  10  25  43  66  96 137 179 227 281 342 409
#     4  11  24  47  69  97 137 179 236 286 339 416
#     4  11  24  43  70 100 134 178 234 287 345 411
#     4  12  25  45  68 102 144 178 227 286 348 426
#     4  11  26  45  73 104 135 183 238 285 349 416
#     4  11  24  45  67 100 136 181 230 284 355 408
#     4  11  24  47  69 100 142 178 229 291 345 412
#     4  11  24  46  65 103 140 175 228 288 344 413
#
# _framework density 20.281842999999999
#
# number of rings (size 3 to 8) (size 9 to 14) (size 15 to 20)
#    0.000    1.000    3.750    2.250    8.750    1.500 
#    0.000    3.125    0.000    0.000    0.000    0.000 
#    0.000    0.000    0.000    0.000    0.000    0.000 
#
# Total GULP energy -89258.911090 kJ/mol
# GULP energy per Si atom -5578.681943 kJ/mol
# Density = 2.023568 g / cm^3
# Si number density = 20.281843 Si / 1000 Ang^3
#
#
#
# Elastic Constant Matrix: (Units=GPa)
#
#
# Indices 1 2 3 4 5 6 
#
# 1 138.0866 55.4828 69.6379 -27.1847 -23.8999 -13.4494
# 2 55.4828 117.2643 58.6289 -35.5868 -0.2471 -17.5524
# 3 69.6379 58.6289 157.1897 -32.3211 -21.3588 -6.5353
# 4 -27.1847 -35.5868 -32.3211 36.8160 -0.4429 1.8890
# 5 -23.8999 -0.2471 -21.3588 -0.4429 52.7613 -10.4004
# 6 -13.4494 -17.5524 -6.5353 1.8890 -10.4004 38.9707
#
#
#
# Elastic Compliance Matrix: (Units=1/GPa)
#
#
# Indices 1 2 3 4 5 6 
#
# 1 0.011444 -0.002470 -0.002589 0.003667 0.004849 0.003519
# 2 -0.002470 0.014526 -0.002198 0.010041 -0.000954 0.004580
# 3 -0.002589 -0.002198 0.009634 0.004441 0.002807 0.000266
# 4 0.003667 0.010041 0.004441 0.043239 0.005007 0.005773
# 5 0.004849 -0.000954 0.002807 0.005007 0.023869 0.007842
# 6 0.003519 0.004580 0.000266 0.005773 0.007842 0.030795
#
#
# Mechanical properties :
#
#
# Convention : Reuss Voigt Hill
#
# Bulk Modulus (GPa) = 47.41829 86.67108 67.04468
# Shear Modulus (GPa) = 32.24697 40.96234 36.60465
#
# Velocity S-wave (km/s) = 3.99173 4.49893 4.25290
# Velocity P-wave (km/s) = 6.68399 8.35544 7.56601
#
# Compressibility (1/GPa) = 0.02108891
#
# Stress axis : x y z
#
# Youngs Moduli (GPa) = 87.38159 68.84041 103.79403
#
# Poissons Ratio (x) = 0.17006 0.26877
# Poissons Ratio (y) = 0.21586 0.22816
# Poissons Ratio (z) = 0.22627 0.15133
#
# Static dielectric constant tensor:
#      x y z
#    x 1.752480 0.005200 0.028790 
#    y 0.005200 1.673760 0.069360 
#    z 0.028790 0.069360 1.570480 
# 
# From -- ./inp_files/178995.got.cif
#   From: 2010.05.17/outbox.cif.g08.bks.cpg/sg2_90_cif.got.tgz:178995.got - 2010.06.03 11:33:40.
