data_PCOD9050647
_publ_section_title
;
Structure prediction by ZEFSAII (Michael W. Deem and Ramdas Pophale) SiO2 
 PCOD9050647
Probable space group: P -1
;
_chemical_formula_sum "Si O2"
_cell_formula_units_Z 16
_cell_length_a 10.943213
_cell_length_b 11.478299
_cell_length_c 5.711732
_cell_angle_alpha 92.755725
_cell_angle_beta 104.733111
_cell_angle_gamma 77.605303
_cell_volume 677.670186
_symmetry_space_group_name_H-M "P -1"
_symmetry_group_IT_number 2
_symmetry_cell_setting 'triclinic'
loop_
_space_group_symop_operation_xyz
x,y,z
-x,-y,-z
loop_
_atom_site_type_symbol
_atom_site_label
_atom_site_fract_x
_atom_site_fract_y
_atom_site_fract_z
Si Si1 0.276094 0.092764 0.948985
Si Si2 0.470116 0.412246 0.668894
Si Si3 0.013207 0.569174 0.764263
Si Si4 0.892874 0.997708 0.762828
Si Si5 0.304195 0.859622 0.608419
Si Si6 0.840144 0.795629 0.491408
Si Si7 0.421090 0.183862 0.404192
Si Si8 0.700351 0.377029 0.119130
O O1 0.175442 0.204577 0.794907
O O2 0.297495 0.970967 0.794730
O O3 0.211103 0.050728 0.139630
O O4 0.391034 0.147177 0.121765
O O5 0.500000 0.500000 0.500000
O O6 0.408943 0.320257 0.482353
O O7 0.369446 0.492444 0.803497
O O8 0.606013 0.358586 0.857411
O O9 0.150809 0.612765 0.846551
O O10 0.000000 0.500000 0.500000
O O11 0.898733 0.685094 0.671355
O O12 0.000000 0.500000 0.000000
O O13 0.928079 0.892858 0.581713
O O14 0.822883 0.115201 0.610936
O O15 0.000000 0.000000 0.000000
O O16 0.426888 0.865776 0.504209
O O17 0.311749 0.733013 0.725857
O O18 0.686447 0.845046 0.475507
#
# Coordination Sequence:
#
# PCOD9050647 Si02
#       8
#     2   2   2   2   2   2   2   2
#     4  10  25  43  69 105 145 192 242 308 376 445
#     4  11  25  46  72 105 148 195 242 319 382 442
#     4  12  31  50  79 111 151 204 258 314 375 461
#     4  10  25  44  71  99 146 192 243 305 376 453
#     4  11  25  43  71 111 140 193 241 313 372 453
#     4  10  26  45  70 104 144 196 244 313 374 449
#     4  11  24  43  73 100 147 189 248 301 377 450
#     4  11  28  46  74 110 149 192 252 314 384 454
#
# _framework density 23.610306000000001
#
# number of rings (size 3 to 8) (size 9 to 14) (size 15 to 20)
#    0.000    1.250    1.250    1.125   14.000    5.500 
#    0.000    0.000    0.000    0.000    0.000    0.000 
#    0.000    0.000    0.000    0.000    0.000    0.000 
#
# Total GULP energy -89098.164318 kJ/mol
# GULP energy per Si atom -5568.635270 kJ/mol
# Density = 2.355657 g / cm^3
# Si number density = 23.610306 Si / 1000 Ang^3
#
#
#
# Elastic Constant Matrix: (Units=GPa)
#
#
# Indices 1 2 3 4 5 6 
#
# 1 99.2306 19.7803 29.0575 -10.6457 20.7603 6.9834
# 2 19.7803 83.4917 53.0322 -8.1686 21.3979 11.8773
# 3 29.0575 53.0322 130.2198 -25.1972 28.8769 1.4745
# 4 -10.6457 -8.1686 -25.1972 58.4589 2.3710 2.2841
# 5 20.7603 21.3979 28.8769 2.3710 32.8607 2.8830
# 6 6.9834 11.8773 1.4745 2.2841 2.8830 23.4310
#
#
#
# Elastic Compliance Matrix: (Units=1/GPa)
#
#
# Indices 1 2 3 4 5 6 
#
# 1 0.012204 -0.000016 -0.000678 0.002328 -0.007013 -0.002951
# 2 -0.000016 0.018618 -0.006009 0.000584 -0.006142 -0.008356
# 3 -0.000678 -0.006009 0.012838 0.004763 -0.007539 0.002903
# 4 0.002328 0.000584 0.004763 0.020051 -0.007277 -0.002349
# 5 -0.007013 -0.006142 -0.007539 -0.007277 0.045948 0.000734
# 6 -0.002951 -0.008356 0.002903 -0.002349 0.000734 0.047750
#
#
# Mechanical properties :
#
#
# Convention : Reuss Voigt Hill
#
# Bulk Modulus (GPa) = 33.05263 57.40910 45.23086
# Shear Modulus (GPa) = 27.63989 37.02160 32.33074
#
# Velocity S-wave (km/s) = 3.42522 3.96413 3.70449
# Velocity P-wave (km/s) = 5.44724 6.73205 6.12344
#
# Compressibility (1/GPa) = 0.03025478
#
# Stress axis : x y z
#
# Youngs Moduli (GPa) = 81.94199 53.71252 77.89211
#
# Poissons Ratio (x) = 0.00086 0.05278
# Poissons Ratio (y) = 0.00131 0.46804
# Poissons Ratio (z) = 0.05553 0.32275
#
# Static dielectric constant tensor:
#      x y z
#    x 1.918330 -0.162850 -0.089540 
#    y -0.162850 1.976980 0.128870 
#    z -0.089540 0.128870 2.159180 
# 
# From -- ./inp_files/70835.got.cif
#   From: 2010.05.17/outbox.cif.g08.bks.cpg/sg2_36_cif.got.tgz:70835.got - 2010.06.03 11:33:40.
