data_PCOD9050846
_publ_section_title
;
Structure prediction by ZEFSAII (Michael W. Deem and Ramdas Pophale) SiO2 
 PCOD9050846
Probable space group: P -1
;
_chemical_formula_sum "Si O2"
_cell_formula_units_Z 15
_cell_length_a 14.837709
_cell_length_b 5.430375
_cell_length_c 17.682486
_cell_angle_alpha 115.023695
_cell_angle_beta 148.991206
_cell_angle_gamma 54.134649
_cell_volume 584.032569
_symmetry_space_group_name_H-M "P -1"
_symmetry_group_IT_number 2
_symmetry_cell_setting 'triclinic'
loop_
_space_group_symop_operation_xyz
x,y,z
-x,-y,-z
loop_
_atom_site_type_symbol
_atom_site_label
_atom_site_fract_x
_atom_site_fract_y
_atom_site_fract_z
Si Si1 0.511865 0.688242 0.365239
Si Si2 0.940041 0.142057 0.295368
Si Si3 0.500000 0.500000 0.000000
Si Si4 0.197786 0.911873 0.584287
Si Si5 0.046443 0.515549 0.801329
Si Si6 0.587320 0.910880 0.894630
Si Si7 0.209192 0.498768 0.145472
Si Si8 0.325340 0.345698 0.366387
O O1 0.675169 0.448387 0.395318
O O2 0.299474 0.702590 0.197144
O O3 0.589440 0.554511 0.488787
O O4 0.485201 0.027287 0.401358
O O5 0.958203 0.294805 0.250551
O O6 0.971750 0.792829 0.269886
O O7 0.710769 0.353459 0.181226
O O8 0.108095 0.117599 0.471222
O O9 0.599133 0.200308 0.975356
O O10 0.363299 0.971182 0.751764
O O11 0.000000 0.000000 0.500000
O O12 0.853366 0.710016 0.738255
O O13 0.253193 0.380360 0.978530
O O14 0.652081 0.821848 0.842521
O O15 0.231881 0.567753 0.258155
O O16 0.000000 0.500000 0.000000
#
# Coordination Sequence:
#
# PCOD9050846 Si02
#       8
#     2   2   1   2   2   2   2   2
#     4  10  25  44  69 112 149 204 254 315 387 481
#     4  11  27  48  78 110 161 202 274 309 404 464
#     4  10  26  46  78 108 148 212 258 324 382 476
#     4  11  26  49  75 115 159 203 261 335 392 457
#     4  11  25  49  77 116 153 218 253 326 387 491
#     4  10  25  49  74 116 156 200 270 321 397 468
#     4  11  23  44  69 109 154 194 255 318 393 448
#     4  11  23  43  76 106 154 201 254 314 393 468
#
# _framework density 25.683501
#
# number of rings (size 3 to 8) (size 9 to 14) (size 15 to 20)
#    0.000    1.333    2.667    0.400    5.600    7.467 
#    7.200    1.333    0.000    0.000    0.000    0.000 
#    0.000    0.000    0.000    0.000    0.000    0.000 
#
# Total GULP energy -83505.692201 kJ/mol
# GULP energy per Si atom -5567.046147 kJ/mol
# Density = 2.562504 g / cm^3
# Si number density = 25.683501 Si / 1000 Ang^3
#
#
#
# Elastic Constant Matrix: (Units=GPa)
#
#
# Indices 1 2 3 4 5 6 
#
# 1 117.4660 37.7658 38.7026 0.1802 10.8574 8.1396
# 2 37.7658 108.2313 -1.2251 11.1006 12.8057 -17.4770
# 3 38.7026 -1.2251 150.2603 -4.5271 32.3967 13.7494
# 4 0.1802 11.1006 -4.5271 38.3618 -9.5165 -4.2716
# 5 10.8574 12.8057 32.3967 -9.5165 46.7675 -5.4896
# 6 8.1396 -17.4770 13.7494 -4.2716 -5.4896 33.5477
#
#
#
# Elastic Compliance Matrix: (Units=1/GPa)
#
#
# Indices 1 2 3 4 5 6 
#
# 1 0.011096 -0.004610 -0.002535 0.000563 0.000091 -0.003968
# 2 -0.004610 0.012619 0.001336 -0.003613 -0.003325 0.006140
# 3 -0.002535 0.001336 0.009078 -0.001398 -0.006784 -0.003697
# 4 0.000563 -0.003613 -0.001398 0.029394 0.008236 0.003645
# 5 0.000091 -0.003325 -0.006784 0.008236 0.029457 0.006895
# 6 -0.003968 0.006140 -0.003697 0.003645 0.006895 0.037078
#
#
# Mechanical properties :
#
#
# Convention : Reuss Voigt Hill
#
# Bulk Modulus (GPa) = 47.22443 58.49381 52.85912
# Shear Modulus (GPa) = 33.92189 43.78303 38.85246
#
# Velocity S-wave (km/s) = 3.63818 4.13330 3.89362
# Velocity P-wave (km/s) = 6.00628 6.75301 6.39056
#
# Compressibility (1/GPa) = 0.02117548
#
# Stress axis : x y z
#
# Youngs Moduli (GPa) = 90.12118 79.24737 110.15695
#
# Poissons Ratio (x) = 0.36532 0.27928
# Poissons Ratio (y) = 0.41545 -0.14722
# Poissons Ratio (z) = 0.22848 -0.10591
#
# Static dielectric constant tensor:
#      x y z
#    x 2.104990 0.053090 -0.019940 
#    y 0.053090 2.038040 -0.035780 
#    z -0.019940 -0.035780 2.101940 
# 
# From -- ./inp_files/571793.got.cif
#   From: 2010.05.17/outbox.cif.g08.bks.cpg/sg2_286_cif.got.tgz:571793.got - 2010.06.03 11:33:40.
