data_PCOD9050250
_publ_section_title
;
Structure prediction by ZEFSAII (Michael W. Deem and Ramdas Pophale) SiO2 
 PCOD9050250
Probable space group: P -1
;
_chemical_formula_sum "Si O2"
_cell_formula_units_Z 12
_cell_length_a 15.135801
_cell_length_b 9.275282
_cell_length_c 14.949373
_cell_angle_alpha 142.763053
_cell_angle_beta 152.693261
_cell_angle_gamma 29.032967
_cell_volume 465.511720
_symmetry_space_group_name_H-M "P -1"
_symmetry_group_IT_number 2
_symmetry_cell_setting 'triclinic'
loop_
_space_group_symop_operation_xyz
x,y,z
-x,-y,-z
loop_
_atom_site_type_symbol
_atom_site_label
_atom_site_fract_x
_atom_site_fract_y
_atom_site_fract_z
Si Si1 0.688711 0.194092 0.466211
Si Si2 0.358478 0.013507 0.019923
Si Si3 0.548703 0.114196 0.690379
Si Si4 0.832729 0.321373 0.256779
Si Si5 0.100730 0.513467 0.261725
Si Si6 0.228274 0.551468 0.941779
O O1 0.500000 0.500000 0.500000
O O2 0.538504 0.088290 0.242187
O O3 0.803850 0.289058 0.543111
O O4 0.905381 0.934058 0.594162
O O5 0.510278 0.758896 0.955029
O O6 0.103360 0.309138 0.908913
O O7 0.303225 0.832585 0.945824
O O8 0.316334 0.399273 0.671374
O O9 0.500000 0.000000 0.500000
O O10 0.677659 0.824697 0.727047
O O11 0.728153 0.203049 0.874941
O O12 0.831489 0.414878 0.201002
O O13 0.965992 0.470271 0.196740
#
# Coordination Sequence:
#
# PCOD9050250 Si02
#       6
#     2   2   2   2   2   2
#     4  11  28  47  79 112 153 206 259 315 378 465
#     4  10  24  49  77 106 152 205 254 304 388 448
#     4  11  26  47  78 118 155 203 255 314 383 460
#     4  10  26  53  80 110 156 200 259 314 385 452
#     4  11  27  47  74 111 155 197 256 315 383 453
#     4  11  25  50  78 111 155 203 249 326 380 450
#
# _framework density 25.778084
#
# number of rings (size 3 to 8) (size 9 to 14) (size 15 to 20)
#    0.000    1.333    0.000    3.000   11.667    4.000 
#    0.000    0.000    0.000    0.000    0.000    0.000 
#    0.000    0.000    0.000    0.000    0.000    0.000 
#
# Total GULP energy -67206.136372 kJ/mol
# GULP energy per Si atom -5600.511364 kJ/mol
# Density = 2.571941 g / cm^3
# Si number density = 25.778084 Si / 1000 Ang^3
#
#
#
# Elastic Constant Matrix: (Units=GPa)
#
#
# Indices 1 2 3 4 5 6 
#
# 1 156.8171 58.8152 57.3247 26.5022 22.2289 20.0037
# 2 58.8152 208.2993 74.7354 -8.7711 -6.6094 11.0603
# 3 57.3247 74.7354 178.8625 32.5393 25.2838 12.2113
# 4 26.5022 -8.7711 32.5393 48.1360 1.8813 11.5885
# 5 22.2289 -6.6094 25.2838 1.8813 40.8211 13.3969
# 6 20.0037 11.0603 12.2113 11.5885 13.3969 40.3639
#
#
#
# Elastic Compliance Matrix: (Units=1/GPa)
#
#
# Indices 1 2 3 4 5 6 
#
# 1 0.009147 -0.002931 -0.000005 -0.005236 -0.005028 -0.000556
# 2 -0.002931 0.007736 -0.004095 0.006344 0.006175 -0.003299
# 3 -0.000005 -0.004095 0.009492 -0.007551 -0.007103 0.002778
# 4 -0.005236 0.006344 -0.007551 0.031772 0.010161 -0.009353
# 5 -0.005028 0.006175 -0.007103 0.010161 0.036087 -0.011946
# 6 -0.000556 -0.003299 0.002778 -0.009353 -0.011946 0.031764
#
#
# Mechanical properties :
#
#
# Convention : Reuss Voigt Hill
#
# Bulk Modulus (GPa) = 81.22572 102.85884 92.04228
# Shear Modulus (GPa) = 34.68282 49.40444 42.04363
#
# Velocity S-wave (km/s) = 3.67200 4.38257 4.04293
# Velocity P-wave (km/s) = 7.03961 8.09923 7.58794
#
# Compressibility (1/GPa) = 0.01231137
#
# Stress axis : x y z
#
# Youngs Moduli (GPa) = 109.32792 129.26744 105.35661
#
# Poissons Ratio (x) = 0.37891 0.00057
# Poissons Ratio (y) = 0.32047 0.43141
# Poissons Ratio (z) = 0.00059 0.52932
#
# Static dielectric constant tensor:
#      x y z
#    x 2.107830 -0.053500 -0.006520 
#    y -0.053500 2.060490 -0.024780 
#    z -0.006520 -0.024780 2.007660 
# 
# From -- ./inp_files/527978.got.cif
#   From: 2010.05.17/outbox.cif.g08.bks.cpg/sg2_264_cif.got.tgz:527978.got - 2010.06.03 11:33:40.
