data_PCOD9050051
_publ_section_title
;
Structure prediction by ZEFSAII (Michael W. Deem and Ramdas Pophale) SiO2 
 PCOD9050051
Probable space group: P -1
;
_chemical_formula_sum "Si O2"
_cell_formula_units_Z 14
_cell_length_a 9.029552
_cell_length_b 5.314070
_cell_length_c 17.125151
_cell_angle_alpha 110.656845
_cell_angle_beta 54.163371
_cell_angle_gamma 119.044332
_cell_volume 579.663056
_symmetry_space_group_name_H-M "P -1"
_symmetry_group_IT_number 2
_symmetry_cell_setting 'triclinic'
loop_
_space_group_symop_operation_xyz
x,y,z
-x,-y,-z
loop_
_atom_site_type_symbol
_atom_site_label
_atom_site_fract_x
_atom_site_fract_y
_atom_site_fract_z
Si Si1 0.447209 0.937409 0.275903
Si Si2 0.247698 0.125129 0.053332
Si Si3 0.899198 0.893842 0.309828
Si Si4 0.851584 0.499169 0.780690
Si Si5 0.481177 0.809816 0.872202
Si Si6 0.872536 0.151168 0.508100
Si Si7 0.205707 0.233754 0.833807
O O1 0.327345 0.631245 0.237769
O O2 0.328532 0.920971 0.389456
O O3 0.672969 0.977426 0.218855
O O4 0.428376 0.151842 0.238258
O O5 0.220593 0.431867 0.104973
O O6 0.362682 0.126606 0.099492
O O7 0.025293 0.899093 0.091846
O O8 0.377146 0.044855 0.941229
O O9 0.768067 0.695241 0.259486
O O10 0.037885 0.722228 0.272726
O O11 0.822826 0.993603 0.422369
O O12 0.008673 0.196972 0.264566
O O13 0.307543 0.500610 0.888806
O O14 0.000000 0.500000 0.500000
O O15 0.000000 0.000000 0.500000
#
# Coordination Sequence:
#
# PCOD9050051 Si02
#       7
#     2   2   2   2   2   2   2
#     4  12  25  42  73 107 148 186 253 302 369 431
#     4  10  24  48  74 104 149 198 247 297 374 438
#     4  11  24  46  72 105 144 194 240 298 369 429
#     4  11  22  45  73 103 140 192 241 295 357 439
#     4  11  25  48  72 107 146 199 247 303 364 445
#     4  12  25  45  78 109 142 199 247 299 369 442
#     4  11  26  44  72 106 153 187 242 311 363 438
#
# _framework density 24.151959000000002
#
# number of rings (size 3 to 8) (size 9 to 14) (size 15 to 20)
#    0.000    0.857    4.286    2.143    6.000    1.714 
#    5.143    0.714    0.000    0.000    0.000    0.000 
#    0.000    0.000    0.000    0.000    0.000    0.000 
#
# Total GULP energy -78204.182523 kJ/mol
# GULP energy per Si atom -5586.013037 kJ/mol
# Density = 2.409699 g / cm^3
# Si number density = 24.151959 Si / 1000 Ang^3
#
#
#
# Elastic Constant Matrix: (Units=GPa)
#
#
# Indices 1 2 3 4 5 6 
#
# 1 122.8401 40.6822 51.6341 -8.4663 -6.2250 6.1114
# 2 40.6822 114.5066 31.9300 4.0100 -9.8210 -0.8475
# 3 51.6341 31.9300 117.1448 13.1219 5.7870 5.5385
# 4 -8.4663 4.0100 13.1219 31.8920 -0.0359 -1.7760
# 5 -6.2250 -9.8210 5.7870 -0.0359 29.5959 1.3424
# 6 6.1114 -0.8475 5.5385 -1.7760 1.3424 37.0686
#
#
#
# Elastic Compliance Matrix: (Units=1/GPa)
#
#
# Indices 1 2 3 4 5 6 
#
# 1 0.011773 -0.002723 -0.005146 0.005529 0.002634 -0.001065
# 2 -0.002723 0.010505 -0.001713 -0.001293 0.003212 0.000767
# 3 -0.005146 -0.001713 0.012224 -0.006250 -0.003996 -0.001172
# 4 0.005529 -0.001293 -0.006250 0.035651 0.001925 0.001631
# 5 0.002634 0.003212 -0.003996 0.001925 0.036236 -0.000984
# 6 -0.001065 0.000767 -0.001172 0.001631 -0.000984 0.027459
#
#
# Mechanical properties :
#
#
# Convention : Reuss Voigt Hill
#
# Bulk Modulus (GPa) = 65.19949 66.99824 66.09886
# Shear Modulus (GPa) = 31.62038 35.06098 33.34068
#
# Velocity S-wave (km/s) = 3.62225 3.81423 3.71948
# Velocity P-wave (km/s) = 6.67446 6.87010 6.77299
#
# Compressibility (1/GPa) = 0.01533754
#
# Stress axis : x y z
#
# Youngs Moduli (GPa) = 84.93886 95.19479 81.80319
#
# Poissons Ratio (x) = 0.25926 0.42096
# Poissons Ratio (y) = 0.23133 0.14013
# Poissons Ratio (z) = 0.43710 0.16307
#
# Static dielectric constant tensor:
#      x y z
#    x 1.979380 -0.025040 0.007540 
#    y -0.025040 2.019450 0.008570 
#    z 0.007540 0.008570 1.959510 
# 
# From -- ./inp_files/553696.got.cif
#   From: 2010.05.17/outbox.cif.g08.bks.cpg/sg2_277_cif.got.tgz:553696.got - 2010.06.03 11:33:40.
