data_PCOD9050614
_publ_section_title
;
Structure prediction by ZEFSAII (Michael W. Deem and Ramdas Pophale) SiO2 
 PCOD9050614
Probable space group: P -1
;
_chemical_formula_sum "Si O2"
_cell_formula_units_Z 14
_cell_length_a 5.576229
_cell_length_b 20.097879
_cell_length_c 10.678595
_cell_angle_alpha 32.707364
_cell_angle_beta 114.486400
_cell_angle_gamma 105.907785
_cell_volume 581.679228
_symmetry_space_group_name_H-M "P -1"
_symmetry_group_IT_number 2
_symmetry_cell_setting 'triclinic'
loop_
_space_group_symop_operation_xyz
x,y,z
-x,-y,-z
loop_
_atom_site_type_symbol
_atom_site_label
_atom_site_fract_x
_atom_site_fract_y
_atom_site_fract_z
Si Si1 0.607378 0.488980 0.901211
Si Si2 0.810450 0.407391 0.554760
Si Si3 0.092708 0.157906 0.889613
Si Si4 0.790711 0.939906 0.201122
Si Si5 0.511900 0.869584 0.779306
Si Si6 0.963356 0.264975 0.040231
Si Si7 0.922749 0.689618 0.747802
O O1 0.423287 0.518869 0.694177
O O2 0.788081 0.600364 0.768180
O O3 0.500000 0.500000 0.000000
O O4 0.766153 0.349689 0.150918
O O5 0.000000 0.500000 0.500000
O O6 0.955260 0.296486 0.673360
O O7 0.754901 0.340616 0.778312
O O8 0.078837 0.131286 0.781673
O O9 0.387468 0.129958 0.055622
O O10 0.943220 0.053579 0.088087
O O11 0.798888 0.831919 0.475611
O O12 0.500000 0.000000 0.000000
O O13 0.220576 0.826627 0.788968
O O14 0.769880 0.788087 0.895967
O O15 0.500000 0.000000 0.500000
O O16 0.076200 0.342081 0.054417
#
# Coordination Sequence:
#
# PCOD9050614 Si02
#       7
#     2   2   2   2   2   2   2
#     4  11  25  46  73 102 150 192 257 320 374 457
#     4  11  25  49  77 108 151 200 258 320 385 460
#     4  10  25  43  67 109 137 194 249 300 385 449
#     4  11  24  43  72 103 150 191 245 314 378 464
#     4  11  25  45  74 103 153 193 251 311 378 461
#     4  11  27  45  73 111 146 199 255 311 386 457
#     4  11  26  43  71 108 141 197 253 308 388 447
#
# _framework density 24.068249000000002
#
# number of rings (size 3 to 8) (size 9 to 14) (size 15 to 20)
#    0.000    1.143    0.000    3.857   14.000    2.857 
#    2.571    0.000    0.000    0.000    0.000    0.000 
#    0.000    0.000    0.000    0.000    0.000    0.000 
#
# Total GULP energy -78211.028887 kJ/mol
# GULP energy per Si atom -5586.502063 kJ/mol
# Density = 2.401347 g / cm^3
# Si number density = 24.068249 Si / 1000 Ang^3
#
#
#
# Elastic Constant Matrix: (Units=GPa)
#
#
# Indices 1 2 3 4 5 6 
#
# 1 61.3988 21.0215 26.6854 -1.3534 -3.5412 6.9421
# 2 21.0215 122.0981 28.3658 10.5032 8.8275 19.0941
# 3 26.6854 28.3658 125.9686 13.2391 9.9028 15.6868
# 4 -1.3534 10.5032 13.2391 49.8077 5.1730 -0.0364
# 5 -3.5412 8.8275 9.9028 5.1730 34.6347 -0.0347
# 6 6.9421 19.0941 15.6868 -0.0364 -0.0347 44.9708
#
#
#
# Elastic Compliance Matrix: (Units=1/GPa)
#
#
# Indices 1 2 3 4 5 6 
#
# 1 0.019192 -0.002743 -0.003852 0.001760 0.003500 -0.000450
# 2 -0.002743 0.009694 -0.000824 -0.001667 -0.002270 -0.003408
# 3 -0.003852 -0.000824 0.009684 -0.002235 -0.002622 -0.002438
# 4 0.001760 -0.001667 -0.002235 0.021272 -0.001932 0.001231
# 5 0.003500 -0.002270 -0.002622 -0.001932 0.030849 0.001360
# 6 -0.000450 -0.003408 -0.002438 0.001231 0.001360 0.024606
#
#
# Mechanical properties :
#
#
# Convention : Reuss Voigt Hill
#
# Bulk Modulus (GPa) = 42.13617 51.29010 46.71314
# Shear Modulus (GPa) = 36.21976 41.44215 38.83096
#
# Velocity S-wave (km/s) = 3.88348 4.15403 4.02103
# Velocity P-wave (km/s) = 6.13625 6.66067 6.40383
#
# Compressibility (1/GPa) = 0.02373258
#
# Stress axis : x y z
#
# Youngs Moduli (GPa) = 52.10530 103.15284 103.25804
#
# Poissons Ratio (x) = 0.28299 0.39774
# Poissons Ratio (y) = 0.14295 0.08506
# Poissons Ratio (z) = 0.20071 0.08497
#
# Static dielectric constant tensor:
#      x y z
#    x 2.049540 0.013760 -0.056520 
#    y 0.013760 2.086680 0.020670 
#    z -0.056520 0.020670 1.995440 
# 
# From -- ./inp_files/370310.got.cif
#   From: 2010.05.17/outbox.cif.g08.bks.cpg/sg2_186_cif.got.tgz:370310.got - 2010.06.03 11:33:40.
