data_PCOD9050085
_publ_section_title
;
Structure prediction by ZEFSAII (Michael W. Deem and Ramdas Pophale) SiO2 
 PCOD9050085
Probable space group: P -1
;
_chemical_formula_sum "Si O2"
_cell_formula_units_Z 16
_cell_length_a 15.512262
_cell_length_b 14.572420
_cell_length_c 5.146613
_cell_angle_alpha 110.212631
_cell_angle_beta 117.040035
_cell_angle_gamma 35.792868
_cell_volume 605.439856
_symmetry_space_group_name_H-M "P -1"
_symmetry_group_IT_number 2
_symmetry_cell_setting 'triclinic'
loop_
_space_group_symop_operation_xyz
x,y,z
-x,-y,-z
loop_
_atom_site_type_symbol
_atom_site_label
_atom_site_fract_x
_atom_site_fract_y
_atom_site_fract_z
Si Si1 0.280182 0.598088 0.630750
Si Si2 0.552106 0.719752 0.651064
Si Si3 0.679996 0.972680 0.683086
Si Si4 0.631563 0.809170 0.236237
Si Si5 0.367178 0.725450 0.726769
Si Si6 0.981188 0.297853 0.901362
Si Si7 0.094217 0.517080 0.526860
Si Si8 0.819381 0.162148 0.930428
O O1 0.361410 0.430005 0.549695
O O2 0.403663 0.581865 0.686867
O O3 0.031676 0.612784 0.266584
O O4 0.124295 0.708131 0.351955
O O5 0.499778 0.696824 0.810322
O O6 0.402090 0.880268 0.457495
O O7 0.640195 0.743920 0.915400
O O8 0.697693 0.865551 0.409669
O O9 0.841410 0.865564 0.942214
O O10 0.548111 0.046985 0.784297
O O11 0.733687 0.664329 0.432505
O O12 0.260825 0.830896 0.932436
O O13 0.258823 0.808259 0.410190
O O14 0.911457 0.398574 0.168425
O O15 0.778975 0.306683 0.091601
O O16 0.000000 0.500000 0.500000
O O17 0.000000 0.000000 0.000000
#
# Coordination Sequence:
#
# PCOD9050085 Si02
#       8
#     2   2   2   2   2   2   2   2
#     4  10  26  46  81 114 159 205 270 325 396 475
#     4  12  25  49  74 118 157 216 262 330 402 478
#     4  11  28  45  76 112 167 206 266 328 396 474
#     4  11  26  47  76 112 158 209 267 323 399 466
#     4  10  26  45  79 112 156 203 264 327 391 472
#     4  12  27  48  77 119 148 211 259 324 393 470
#     4  12  26  49  82 108 158 201 272 323 393 461
#     4  10  24  48  75 110 157 198 257 332 396 460
#
# _framework density 26.427068999999999
#
# number of rings (size 3 to 8) (size 9 to 14) (size 15 to 20)
#    0.750    0.250    2.500    2.250    5.250    4.500 
#    0.000    0.000    0.000    0.000    0.000    0.000 
#    0.000    0.000    0.000    0.000    0.000    0.000 
#
# Total GULP energy -89605.039134 kJ/mol
# GULP energy per Si atom -5600.314946 kJ/mol
# Density = 2.636692 g / cm^3
# Si number density = 26.427069 Si / 1000 Ang^3
#
#
#
# Elastic Constant Matrix: (Units=GPa)
#
#
# Indices 1 2 3 4 5 6 
#
# 1 81.8849 29.8778 40.7456 -1.8652 -6.6596 13.3271
# 2 29.8778 155.7754 59.1722 -22.0798 -4.6348 2.1709
# 3 40.7456 59.1722 176.7750 -10.3575 -8.1861 12.0578
# 4 -1.8652 -22.0798 -10.3575 46.6888 -3.5919 4.9750
# 5 -6.6596 -4.6348 -8.1861 -3.5919 41.2129 -0.0812
# 6 13.3271 2.1709 12.0578 4.9750 -0.0812 36.2654
#
#
#
# Elastic Compliance Matrix: (Units=1/GPa)
#
#
# Indices 1 2 3 4 5 6 
#
# 1 0.014985 -0.001857 -0.002456 -0.000209 0.001698 -0.004547
# 2 -0.001857 0.008034 -0.002079 0.003253 0.000475 0.000448
# 3 -0.002456 -0.002079 0.007097 0.000710 0.000838 -0.001428
# 4 -0.000209 0.003253 0.000710 0.023684 0.002530 -0.003597
# 5 0.001698 0.000475 0.000838 0.002530 0.024977 -0.001222
# 6 -0.004547 0.000448 -0.001428 -0.003597 -0.001222 0.030184
#
#
# Mechanical properties :
#
#
# Convention : Reuss Voigt Hill
#
# Bulk Modulus (GPa) = 57.69711 74.89185 66.29448
# Shear Modulus (GPa) = 39.20870 43.80938 41.50904
#
# Velocity S-wave (km/s) = 3.85601 4.07596 3.96751
# Velocity P-wave (km/s) = 6.45794 7.10998 6.79179
#
# Compressibility (1/GPa) = 0.01733189
#
# Stress axis : x y z
#
# Youngs Moduli (GPa) = 66.73251 124.46337 140.90906
#
# Poissons Ratio (x) = 0.23114 0.34606
# Poissons Ratio (y) = 0.12393 0.29299
# Poissons Ratio (z) = 0.16389 0.25880
#
# Static dielectric constant tensor:
#      x y z
#    x 2.194600 -0.009190 -0.006210 
#    y -0.009190 2.066730 0.020060 
#    z -0.006210 0.020060 2.037070 
# 
# From -- ./inp_files/95611.got.cif
#   From: 2010.05.17/outbox.cif.g08.bks.cpg/sg2_48_cif.got.tgz:95611.got - 2010.06.03 11:33:40.
