data_PCOD9050138
_publ_section_title
;
Structure prediction by ZEFSAII (Michael W. Deem and Ramdas Pophale) SiO2 
 PCOD9050138
Probable space group: P -1
;
_chemical_formula_sum "Si O2"
_cell_formula_units_Z 16
_cell_length_a 28.075290
_cell_length_b 21.680971
_cell_length_c 5.077857
_cell_angle_alpha 102.632736
_cell_angle_beta 100.574142
_cell_angle_gamma 11.453134
_cell_volume 591.255046
_symmetry_space_group_name_H-M "P -1"
_symmetry_group_IT_number 2
_symmetry_cell_setting 'triclinic'
loop_
_space_group_symop_operation_xyz
x,y,z
-x,-y,-z
loop_
_atom_site_type_symbol
_atom_site_label
_atom_site_fract_x
_atom_site_fract_y
_atom_site_fract_z
Si Si1 0.722474 0.542254 0.472162
Si Si2 0.005847 0.897581 0.311813
Si Si3 0.365267 0.722649 0.771438
Si Si4 0.522842 0.698852 0.055206
Si Si5 0.468882 0.422660 0.662075
Si Si6 0.263580 0.344163 0.635327
Si Si7 0.384695 0.028412 0.011435
Si Si8 0.956343 0.639261 0.849751
O O1 0.914235 0.243527 0.479152
O O2 0.606737 0.660621 0.204083
O O3 0.810051 0.501863 0.475726
O O4 0.500321 0.834415 0.725992
O O5 0.250374 0.612538 0.175096
O O6 0.880912 0.997146 0.131742
O O7 0.799224 0.214701 0.374401
O O8 0.500000 0.500000 0.500000
O O9 0.356721 0.788844 0.608348
O O10 0.484615 0.593077 0.042866
O O11 0.508996 0.673624 0.275808
O O12 0.265985 0.033794 0.967232
O O13 0.052302 0.562483 0.645386
O O14 0.500000 0.000000 0.500000
O O15 0.379187 0.235288 0.896109
O O16 0.200783 0.312946 0.951364
O O17 0.185463 0.246954 0.203051
#
# Coordination Sequence:
#
# PCOD9050138 Si02
#       8
#     2   2   2   2   2   2   2   2
#     4  12  26  46  72 104 151 194 252 308 396 454
#     4  11  25  47  73 103 155 193 247 321 386 458
#     4  10  24  48  78 108 146 202 259 322 392 459
#     4  12  28  46  70 111 146 203 255 317 390 461
#     4  11  27  48  78 112 151 202 266 317 392 467
#     4  12  26  47  76 108 143 199 254 311 391 464
#     4  11  25  51  70 108 149 195 243 326 385 456
#     4  11  25  47  76 102 153 185 255 309 383 462
#
# _framework density 27.06108
#
# number of rings (size 3 to 8) (size 9 to 14) (size 15 to 20)
#    0.000    0.750    3.750    2.250    8.750    4.500 
#    0.000    0.000    0.000    0.000    0.000    0.000 
#    0.000    0.000    0.000    0.000    0.000    0.000 
#
# Total GULP energy -89223.764964 kJ/mol
# GULP energy per Si atom -5576.485310 kJ/mol
# Density = 2.699949 g / cm^3
# Si number density = 27.061080 Si / 1000 Ang^3
#
#
#
# Elastic Constant Matrix: (Units=GPa)
#
#
# Indices 1 2 3 4 5 6 
#
# 1 129.7121 -4.7111 11.4308 9.1103 -20.5355 4.5632
# 2 -4.7111 116.8718 20.2892 -2.7580 -11.3909 15.8406
# 3 11.4308 20.2892 105.2655 -2.3937 7.3045 1.3979
# 4 9.1103 -2.7580 -2.3937 33.0070 2.6388 -9.7843
# 5 -20.5355 -11.3909 7.3045 2.6388 51.8521 1.3921
# 6 4.5632 15.8406 1.3979 -9.7843 1.3921 41.7308
#
#
#
# Elastic Compliance Matrix: (Units=1/GPa)
#
#
# Indices 1 2 3 4 5 6 
#
# 1 0.008899 0.001284 -0.001558 -0.003506 0.004268 -0.002373
# 2 0.001284 0.009842 -0.002227 -0.001187 0.003157 -0.004185
# 3 -0.001558 -0.002227 0.010303 0.001536 -0.002666 0.001120
# 4 -0.003506 -0.001187 0.001536 0.034234 -0.003848 0.008937
# 5 0.004268 0.003157 -0.002666 -0.003848 0.022327 -0.003223
# 6 -0.002373 -0.004185 0.001120 0.008937 -0.003223 0.027977
#
#
# Mechanical properties :
#
#
# Convention : Reuss Voigt Hill
#
# Bulk Modulus (GPa) = 41.59428 45.09635 43.34532
# Shear Modulus (GPa) = 39.49536 46.97402 43.23469
#
# Velocity S-wave (km/s) = 3.82447 4.17088 4.00142
# Velocity P-wave (km/s) = 5.90813 6.31631 6.11563
#
# Compressibility (1/GPa) = 0.02404176
#
# Stress axis : x y z
#
# Youngs Moduli (GPa) = 112.37498 101.60882 97.05663
#
# Poissons Ratio (x) = -0.13047 0.15123
# Poissons Ratio (y) = -0.14430 0.21613
# Poissons Ratio (z) = 0.17510 0.22626
#
# Static dielectric constant tensor:
#      x y z
#    x 2.326470 -0.004270 0.063460 
#    y -0.004270 2.167740 -0.056700 
#    z 0.063460 -0.056700 2.257520 
# 
# From -- ./inp_files/128829.got.cif
#   From: 2010.05.17/outbox.cif.g08.bks.cpg/sg2_65_cif.got.tgz:128829.got - 2010.06.03 11:33:40.
