data_PCOD9050200
_publ_section_title
;
Structure prediction by ZEFSAII (Michael W. Deem and Ramdas Pophale) SiO2 
 PCOD9050200
Probable space group: P -1
;
_chemical_formula_sum "Si O2"
_cell_formula_units_Z 16
_cell_length_a 9.067160
_cell_length_b 12.756487
_cell_length_c 9.354791
_cell_angle_alpha 110.352758
_cell_angle_beta 54.256908
_cell_angle_gamma 122.436920
_cell_volume 740.261095
_symmetry_space_group_name_H-M "P -1"
_symmetry_group_IT_number 2
_symmetry_cell_setting 'triclinic'
loop_
_space_group_symop_operation_xyz
x,y,z
-x,-y,-z
loop_
_atom_site_type_symbol
_atom_site_label
_atom_site_fract_x
_atom_site_fract_y
_atom_site_fract_z
Si Si1 0.933270 0.460227 0.356394
Si Si2 0.071945 0.892349 0.371732
Si Si3 0.538188 0.263507 0.377177
Si Si4 0.741045 0.634275 0.535405
Si Si5 0.963304 0.114437 0.127113
Si Si6 0.321563 0.006726 0.517862
Si Si7 0.317590 0.886494 0.968252
Si Si8 0.281529 0.396372 0.124189
O O1 0.739112 0.328939 0.389423
O O2 0.854188 0.553531 0.378346
O O3 0.000000 0.500000 0.500000
O O4 0.124857 0.448123 0.180350
O O5 0.281801 0.934688 0.357846
O O6 0.126208 0.862042 0.169477
O O7 0.905779 0.772938 0.482457
O O8 0.000000 0.000000 0.500000
O O9 0.449025 0.361095 0.434887
O O10 0.380686 0.148602 0.506331
O O11 0.593569 0.211830 0.174376
O O12 0.704121 0.605627 0.711510
O O13 0.876540 0.070916 0.313943
O O14 0.161515 0.248752 0.077840
O O15 0.778984 0.105938 0.126614
O O16 0.000000 0.000000 0.000000
O O17 0.500000 0.000000 0.500000
O O18 0.500000 0.000000 0.000000
O O19 0.500000 0.500000 0.000000
#
# Coordination Sequence:
#
# PCOD9050200 Si02
#       8
#     2   2   2   2   2   2   2   2
#     4  10  24  49  71 100 141 195 252 300 356 451
#     4  12  23  44  69 103 148 188 237 305 373 445
#     4  12  24  45  73 110 151 186 250 308 375 447
#     4  11  25  45  76 100 140 194 249 293 376 442
#     4  12  26  43  72 110 151 191 252 308 378 442
#     4  12  22  42  72 103 146 191 234 297 376 440
#     4  12  24  43  68 109 151 187 236 312 379 440
#     4  11  25  50  74 103 148 196 249 313 362 448
#
# _framework density 21.613994999999999
#
# number of rings (size 3 to 8) (size 9 to 14) (size 15 to 20)
#    0.000    0.500    6.250    1.125    3.500    3.000 
#    2.250    1.250    0.000    0.000    0.000    0.000 
#    0.000    0.000    0.000    0.000    0.000    0.000 
#
# Total GULP energy -89094.999043 kJ/mol
# GULP energy per Si atom -5568.437440 kJ/mol
# Density = 2.156480 g / cm^3
# Si number density = 21.613995 Si / 1000 Ang^3
#
#
#
# Elastic Constant Matrix: (Units=GPa)
#
#
# Indices 1 2 3 4 5 6 
#
# 1 133.2298 51.9646 21.6825 -1.7504 -10.1312 6.5997
# 2 51.9646 149.6758 56.7424 -10.7161 -22.8639 8.7671
# 3 21.6825 56.7424 106.4952 -15.4925 -3.8528 -5.0736
# 4 -1.7504 -10.7161 -15.4925 40.2440 -2.0517 -6.0251
# 5 -10.1312 -22.8639 -3.8528 -2.0517 37.7478 6.0643
# 6 6.5997 8.7671 -5.0736 -6.0251 6.0643 52.4485
#
#
#
# Elastic Compliance Matrix: (Units=1/GPa)
#
#
# Indices 1 2 3 4 5 6 
#
# 1 0.008738 -0.002762 -0.000408 -0.000599 0.000732 -0.000831
# 2 -0.002762 0.010527 -0.004855 0.000732 0.005572 -0.002442
# 3 -0.000408 -0.004855 0.012685 0.003886 -0.001989 0.002766
# 4 -0.000599 0.000732 0.003886 0.027083 0.001629 0.003252
# 5 0.000732 0.005572 -0.001989 0.001629 0.030684 -0.004576
# 6 -0.000831 -0.002442 0.002766 0.003252 -0.004576 0.020749
#
#
# Mechanical properties :
#
#
# Convention : Reuss Voigt Hill
#
# Bulk Modulus (GPa) = 62.88777 72.24219 67.56498
# Shear Modulus (GPa) = 37.93182 43.35548 40.64365
#
# Velocity S-wave (km/s) = 4.19378 4.48358 4.34110
# Velocity P-wave (km/s) = 7.25323 7.76529 7.51362
#
# Compressibility (1/GPa) = 0.01590134
#
# Stress axis : x y z
#
# Youngs Moduli (GPa) = 114.43912 94.99462 78.83305
#
# Poissons Ratio (x) = 0.26233 0.03217
# Poissons Ratio (y) = 0.31603 0.38272
# Poissons Ratio (z) = 0.04670 0.46119
#
# Static dielectric constant tensor:
#      x y z
#    x 1.929950 0.018440 -0.027300 
#    y 0.018440 1.830200 -0.018080 
#    z -0.027300 -0.018080 1.778080 
# 
# From -- ./inp_files/189035.got.cif
#   From: 2010.05.17/outbox.cif.g08.bks.cpg/sg2_95_cif.got.tgz:189035.got - 2010.06.03 11:33:40.
