data_PCOD9050763
_publ_section_title
;
Structure prediction by ZEFSAII (Michael W. Deem and Ramdas Pophale) SiO2 
 PCOD9050763
Probable space group: P -1
;
_chemical_formula_sum "Si O2"
_cell_formula_units_Z 16
_cell_length_a 9.693298
_cell_length_b 13.785365
_cell_length_c 8.802112
_cell_angle_alpha 137.052591
_cell_angle_beta 79.792758
_cell_angle_gamma 115.115254
_cell_volume 708.417353
_symmetry_space_group_name_H-M "P -1"
_symmetry_group_IT_number 2
_symmetry_cell_setting 'triclinic'
loop_
_space_group_symop_operation_xyz
x,y,z
-x,-y,-z
loop_
_atom_site_type_symbol
_atom_site_label
_atom_site_fract_x
_atom_site_fract_y
_atom_site_fract_z
Si Si1 0.051171 0.432660 0.132501
Si Si2 0.782443 0.257342 0.365373
Si Si3 0.841966 0.571039 0.197874
Si Si4 0.511306 0.164300 0.119945
Si Si5 0.610342 0.997059 0.342505
Si Si6 0.972145 0.822904 0.923703
Si Si7 0.053476 0.944046 0.579359
Si Si8 0.338628 0.357121 0.425691
O O1 0.106368 0.570728 0.402086
O O2 0.017986 0.273135 0.040525
O O3 0.905525 0.447219 0.100342
O O4 0.183804 0.463989 0.015815
O O5 0.684643 0.279168 0.270577
O O6 0.674675 0.156517 0.409698
O O7 0.882879 0.166091 0.191441
O O8 0.714014 0.580392 0.343495
O O9 0.978026 0.753276 0.383062
O O10 0.389915 0.216607 0.281565
O O11 0.500000 0.000000 0.000000
O O12 0.476759 0.141755 0.922577
O O13 0.760422 0.987496 0.372890
O O14 0.500000 0.000000 0.500000
O O15 0.808646 0.717824 0.748159
O O16 0.989585 0.986684 0.180274
O O17 0.000000 0.000000 0.500000
O O18 0.500000 0.500000 0.500000
#
# Coordination Sequence:
#
# PCOD9050763 Si02
#       8
#     2   2   2   2   2   2   2   2
#     4  11  23  46  68 104 137 181 240 280 360 410
#     4  11  24  45  73 102 137 193 234 290 343 426
#     4  11  26  44  73 102 142 185 235 292 347 422
#     4  10  25  44  66 100 141 187 231 285 356 410
#     4  11  25  44  66 104 144 184 232 285 360 415
#     4  12  25  44  77 102 138 181 246 291 344 424
#     4  12  25  46  73 108 136 183 239 298 347 410
#     4  12  26  46  67 107 144 181 233 292 356 415
#
# _framework density 22.585557000000001
#
# number of rings (size 3 to 8) (size 9 to 14) (size 15 to 20)
#    0.000    0.750    5.000    1.125    7.000    3.000 
#    0.000    1.250    0.000    0.000    0.000    0.000 
#    0.000    0.000    0.000    0.000    0.000    0.000 
#
# Total GULP energy -89482.015559 kJ/mol
# GULP energy per Si atom -5592.625972 kJ/mol
# Density = 2.253415 g / cm^3
# Si number density = 22.585557 Si / 1000 Ang^3
#
#
#
# Elastic Constant Matrix: (Units=GPa)
#
#
# Indices 1 2 3 4 5 6 
#
# 1 123.1179 40.7337 37.7009 -23.0704 -19.9343 -8.9157
# 2 40.7337 82.5271 22.3302 -17.5468 -11.3440 -6.7608
# 3 37.7009 22.3302 116.0426 -23.7992 -32.4599 5.6298
# 4 -23.0704 -17.5468 -23.7992 40.6462 4.6833 -12.7903
# 5 -19.9343 -11.3440 -32.4599 4.6833 44.1417 -2.8815
# 6 -8.9157 -6.7608 5.6298 -12.7903 -2.8815 35.6522
#
#
#
# Elastic Compliance Matrix: (Units=1/GPa)
#
#
# Indices 1 2 3 4 5 6 
#
# 1 0.011487 -0.003360 -0.001349 0.005382 0.003063 0.004627
# 2 -0.003360 0.015756 -0.000434 0.005826 0.001885 0.004459
# 3 -0.001349 -0.000434 0.012460 0.005506 0.007872 0.000224
# 4 0.005382 0.005826 0.005506 0.037702 0.004989 0.015510
# 5 0.003063 0.001885 0.007872 0.004989 0.030049 0.004099
# 6 0.004627 0.004459 0.000224 0.015510 0.004099 0.035912
#
#
# Mechanical properties :
#
#
# Convention : Reuss Voigt Hill
#
# Bulk Modulus (GPa) = 33.99593 58.13525 46.06559
# Shear Modulus (GPa) = 30.58894 38.81621 34.70258
#
# Velocity S-wave (km/s) = 3.68415 4.15013 3.92407
# Velocity P-wave (km/s) = 5.76039 6.98289 6.40089
#
# Compressibility (1/GPa) = 0.02941529
#
# Stress axis : x y z
#
# Youngs Moduli (GPa) = 87.05781 63.46606 80.25888
#
# Poissons Ratio (x) = 0.21325 0.10829
# Poissons Ratio (y) = 0.29252 0.03487
# Poissons Ratio (z) = 0.11746 0.02757
#
# Static dielectric constant tensor:
#      x y z
#    x 1.681120 -0.135420 -0.250000 
#    y -0.135420 1.798460 -0.173040 
#    z -0.250000 -0.173040 1.419380 
# 
# From -- ./inp_files/209218.got.cif
#   From: 2010.05.17/outbox.cif.g08.bks.cpg/sg2_105_cif.got.tgz:209218.got - 2010.06.03 11:33:40.
