data_PCOD9050371
_publ_section_title
;
Structure prediction by ZEFSAII (Michael W. Deem and Ramdas Pophale) SiO2 
 PCOD9050371
Probable space group: P -1
;
_chemical_formula_sum "Si O2"
_cell_formula_units_Z 14
_cell_length_a 17.833886
_cell_length_b 7.004821
_cell_length_c 4.898148
_cell_angle_alpha 71.397195
_cell_angle_beta 103.168134
_cell_angle_gamma 68.375353
_cell_volume 495.959227
_symmetry_space_group_name_H-M "P -1"
_symmetry_group_IT_number 2
_symmetry_cell_setting 'triclinic'
loop_
_space_group_symop_operation_xyz
x,y,z
-x,-y,-z
loop_
_atom_site_type_symbol
_atom_site_label
_atom_site_fract_x
_atom_site_fract_y
_atom_site_fract_z
Si Si1 0.066294 0.726997 0.512389
Si Si2 0.705117 0.655191 0.256073
Si Si3 0.079223 0.319497 0.345066
Si Si4 0.750740 0.962295 0.764776
Si Si5 0.155603 0.779913 0.094771
Si Si6 0.411370 0.553490 0.745226
Si Si7 0.553825 0.849031 0.366759
O O1 0.087922 0.483044 0.504842
O O2 0.080706 0.872661 0.222190
O O3 0.966392 0.818042 0.488787
O O4 0.126721 0.702864 0.832936
O O5 0.829408 0.827107 0.671325
O O6 0.776817 0.439957 0.574197
O O7 0.643627 0.561385 0.105189
O O8 0.729508 0.794023 0.002115
O O9 0.000000 0.500000 0.000000
O O10 0.649149 0.814806 0.388624
O O11 0.500000 0.000000 0.500000
O O12 0.661082 0.185023 0.489289
O O13 0.203744 0.931500 0.039887
O O14 0.438116 0.400821 0.558374
O O15 0.500000 0.500000 0.000000
O O16 0.500000 0.000000 0.000000
#
# Coordination Sequence:
#
# PCOD9050371 Si02
#       7
#     2   2   2   2   2   2   2
#     4  11  25  50  82 125 178 232 290 368 423 530
#     4   9  24  50  87 120 181 222 299 357 454 520
#     4  11  24  50  87 128 178 239 296 353 452 518
#     4  11  25  54  87 129 176 243 292 369 443 529
#     4  11  25  53  83 122 181 227 298 366 429 521
#     4   9  23  53  88 132 175 224 302 370 436 539
#     4  10  24  52  87 114 163 223 276 358 446 512
#
# _framework density 28.228127000000001
#
# number of rings (size 3 to 8) (size 9 to 14) (size 15 to 20)
#    0.857    0.857    1.429    0.857    0.000    4.000 
#   12.857    5.000    3.143    0.000    0.000    0.000 
#    0.000    0.000    0.000    0.000    0.000    0.000 
#
# Total GULP energy -78493.883798 kJ/mol
# GULP energy per Si atom -5606.705986 kJ/mol
# Density = 2.816388 g / cm^3
# Si number density = 28.228127 Si / 1000 Ang^3
#
#
#
# Elastic Constant Matrix: (Units=GPa)
#
#
# Indices 1 2 3 4 5 6 
#
# 1 219.7786 106.6528 111.2298 -5.7026 -1.1104 1.1128
# 2 106.6528 200.5233 97.8083 11.4261 9.8564 -11.0740
# 3 111.2298 97.8083 212.6021 26.6080 16.8779 -6.4988
# 4 -5.7026 11.4261 26.6080 61.5445 -7.6875 3.3742
# 5 -1.1104 9.8564 16.8779 -7.6875 64.5044 -2.9948
# 6 1.1128 -11.0740 -6.4988 3.3742 -2.9948 91.2812
#
#
#
# Elastic Compliance Matrix: (Units=1/GPa)
#
#
# Indices 1 2 3 4 5 6 
#
# 1 0.007608 -0.002759 -0.003227 0.002864 0.001705 -0.000707
# 2 -0.002759 0.007462 -0.001773 -0.001021 -0.000807 0.000824
# 3 -0.003227 -0.001773 0.007860 -0.003675 -0.002259 0.000446
# 4 0.002864 -0.001021 -0.003675 0.018766 0.003357 -0.001004
# 5 0.001705 -0.000807 -0.002259 0.003357 0.016653 0.000143
# 6 -0.000707 0.000824 0.000446 -0.001004 0.000143 0.011137
#
#
# Mechanical properties :
#
#
# Convention : Reuss Voigt Hill
#
# Bulk Modulus (GPa) = 134.87531 140.47618 137.67575
# Shear Modulus (GPa) = 57.15873 64.61357 60.88615
#
# Velocity S-wave (km/s) = 4.50475 4.78952 4.64932
# Velocity P-wave (km/s) = 8.65686 8.96987 8.81476
#
# Compressibility (1/GPa) = 0.00741426
#
# Stress axis : x y z
#
# Youngs Moduli (GPa) = 131.43309 134.00712 127.22358
#
# Poissons Ratio (x) = 0.36971 0.41053
# Poissons Ratio (y) = 0.36260 0.22552
# Poissons Ratio (z) = 0.42411 0.23755
#
# Static dielectric constant tensor:
#      x y z
#    x 2.179840 0.065090 -0.129950 
#    y 0.065090 2.277810 -0.003320 
#    z -0.129950 -0.003320 2.139910 
# 
# From -- ./inp_files/115528.got.cif
#   From: 2010.05.17/outbox.cif.g08.bks.cpg/sg2_58_cif.got.tgz:115528.got - 2010.06.03 11:33:40.
