data_PCOD9050920
_publ_section_title
;
Structure prediction by ZEFSAII (Michael W. Deem and Ramdas Pophale) SiO2 
 PCOD9050920
Probable space group: P -1
;
_chemical_formula_sum "Si O2"
_cell_formula_units_Z 14
_cell_length_a 16.788979
_cell_length_b 9.339320
_cell_length_c 9.759116
_cell_angle_alpha 126.529541
_cell_angle_beta 123.375011
_cell_angle_gamma 27.669985
_cell_volume 569.917014
_symmetry_space_group_name_H-M "P -1"
_symmetry_group_IT_number 2
_symmetry_cell_setting 'triclinic'
loop_
_space_group_symop_operation_xyz
x,y,z
-x,-y,-z
loop_
_atom_site_type_symbol
_atom_site_label
_atom_site_fract_x
_atom_site_fract_y
_atom_site_fract_z
Si Si1 0.187399 0.708575 0.437840
Si Si2 0.846036 0.851240 0.279823
Si Si3 0.186370 0.756070 0.976227
Si Si4 0.241283 0.291714 0.365197
Si Si5 0.679722 0.129769 0.987788
Si Si6 0.390598 0.321964 0.163815
Si Si7 0.717015 0.785943 0.330594
O O1 0.292881 0.418167 0.475307
O O2 0.221101 0.564587 0.239351
O O3 0.226406 0.856936 0.550360
O O4 0.000000 0.000000 0.500000
O O5 0.835973 0.698797 0.282965
O O6 0.046771 0.571210 0.285369
O O7 0.740615 0.994254 0.121656
O O8 0.188208 0.931582 0.988055
O O9 0.322591 0.560961 0.119604
O O10 0.249605 0.477959 0.800472
O O11 0.000000 0.000000 0.000000
O O12 0.247774 0.216342 0.482539
O O13 0.343482 0.015945 0.199445
O O14 0.500000 0.500000 0.000000
O O15 0.531636 0.144919 0.311022
O O16 0.500000 0.000000 0.000000
#
# Coordination Sequence:
#
# PCOD9050920 Si02
#       7
#     2   2   2   2   2   2   2
#     4  10  25  44  75 100 142 186 244 289 361 425
#     4  11  25  46  72  99 143 186 240 292 361 429
#     4  11  26  44  74 101 142 187 242 290 363 433
#     4  11  26  44  71 100 142 182 244 290 359 430
#     4  12  28  45  70 106 141 187 240 299 364 431
#     4  10  25  44  72 103 145 183 237 296 367 416
#     4  11  25  45  71 103 139 185 235 301 359 423
#
# _framework density 24.564979000000001
#
# number of rings (size 3 to 8) (size 9 to 14) (size 15 to 20)
#    0.000    1.143    0.000    3.429   20.000    1.143 
#    0.000    0.000    0.000    0.000    0.000    0.000 
#    0.000    0.000    0.000    0.000    0.000    0.000 
#
# Total GULP energy -78161.469501 kJ/mol
# GULP energy per Si atom -5582.962107 kJ/mol
# Density = 2.450907 g / cm^3
# Si number density = 24.564979 Si / 1000 Ang^3
#
#
#
# Elastic Constant Matrix: (Units=GPa)
#
#
# Indices 1 2 3 4 5 6 
#
# 1 74.8519 -19.5185 13.3041 3.7332 -8.0581 14.2114
# 2 -19.5185 80.0719 52.6295 -7.2937 1.9898 2.8220
# 3 13.3041 52.6295 124.5208 -3.8111 -20.0567 13.7865
# 4 3.7332 -7.2937 -3.8111 46.9719 8.7104 -4.9431
# 5 -8.0581 1.9898 -20.0567 8.7104 29.7298 2.0361
# 6 14.2114 2.8220 13.7865 -4.9431 2.0361 51.7183
#
#
#
# Elastic Compliance Matrix: (Units=1/GPa)
#
#
# Indices 1 2 3 4 5 6 
#
# 1 0.016863 0.006545 -0.003774 -0.001504 0.002316 -0.004220
# 2 0.006545 0.022066 -0.011358 0.003631 -0.008478 0.000706
# 3 -0.003774 -0.011358 0.015272 -0.002592 0.011012 -0.003096
# 4 -0.001504 0.003631 -0.002592 0.023929 -0.009655 0.003573
# 5 0.002316 -0.008478 0.011012 -0.009655 0.045488 -0.005823
# 6 -0.004220 0.000706 -0.003096 0.003573 -0.005823 0.021852
#
#
# Mechanical properties :
#
#
# Convention : Reuss Voigt Hill
#
# Bulk Modulus (GPa) = 27.00755 41.36387 34.18571
# Shear Modulus (GPa) = 28.57370 41.21931 34.89651
#
# Velocity S-wave (km/s) = 3.41426 4.10075 3.77315
# Velocity P-wave (km/s) = 5.15374 6.26870 5.73836
#
# Compressibility (1/GPa) = 0.03702669
#
# Stress axis : x y z
#
# Youngs Moduli (GPa) = 59.30266 45.31783 65.48053
#
# Poissons Ratio (x) = -0.29661 0.24711
# Poissons Ratio (y) = -0.38814 0.74375
# Poissons Ratio (z) = 0.22379 0.51474
#
# Static dielectric constant tensor:
#      x y z
#    x 2.157910 0.039130 0.052850 
#    y 0.039130 2.156860 0.148890 
#    z 0.052850 0.148890 2.043680 
# 
# From -- ./inp_files/158430.got.cif
#   From: 2010.05.17/outbox.cif.g08.bks.cpg/sg2_80_cif.got.tgz:158430.got - 2010.06.03 11:33:40.
