data_PCOD9050620
_publ_section_title
;
Structure prediction by ZEFSAII (Michael W. Deem and Ramdas Pophale) SiO2 
 PCOD9050620
Probable space group: P -1
;
_chemical_formula_sum "Si O2"
_cell_formula_units_Z 14
_cell_length_a 18.213385
_cell_length_b 18.098333
_cell_length_c 5.101885
_cell_angle_alpha 74.902310
_cell_angle_beta 89.719502
_cell_angle_gamma 27.139987
_cell_volume 634.823697
_symmetry_space_group_name_H-M "P -1"
_symmetry_group_IT_number 2
_symmetry_cell_setting 'triclinic'
loop_
_space_group_symop_operation_xyz
x,y,z
-x,-y,-z
loop_
_atom_site_type_symbol
_atom_site_label
_atom_site_fract_x
_atom_site_fract_y
_atom_site_fract_z
Si Si1 0.809203 0.466162 0.607466
Si Si2 0.360728 0.062156 0.430173
Si Si3 0.100646 0.321913 0.689106
Si Si4 0.717342 0.231910 0.668729
Si Si5 0.124299 0.769866 0.055475
Si Si6 0.421732 0.299591 0.113054
Si Si7 0.519526 0.584480 0.982137
O O1 0.860706 0.327156 0.716079
O O2 0.759181 0.526127 0.857075
O O3 0.963293 0.381389 0.621888
O O4 0.639382 0.644043 0.241702
O O5 0.234928 0.188032 0.567872
O O6 0.500000 0.000000 0.500000
O O7 0.464993 0.881486 0.621092
O O8 0.227526 0.195830 0.060052
O O9 0.000000 0.500000 0.500000
O O10 0.792882 0.241089 0.758675
O O11 0.600677 0.345742 0.297385
O O12 0.574050 0.341027 0.799509
O O13 0.903900 0.002393 0.817468
O O14 0.261326 0.634949 0.918721
O O15 0.517928 0.288757 0.174812
#
# Coordination Sequence:
#
# PCOD9050620 Si02
#       7
#     2   2   2   2   2   2   2
#     4  11  24  43  66  95 136 170 222 277 339 396
#     4  12  25  43  69  97 134 171 218 270 327 403
#     4  12  25  43  70 100 132 174 215 268 332 400
#     4  11  25  42  68  98 134 184 237 284 346 419
#     4  10  25  43  67  99 138 181 232 292 346 400
#     4  11  24  43  66  97 131 176 220 278 335 397
#     4  11  24  42  68  95 139 179 235 282 351 401
#
# _framework density 22.053366
#
# number of rings (size 3 to 8) (size 9 to 14) (size 15 to 20)
#    0.000    0.857    0.000    6.857    4.000    8.000 
#    0.000    0.000    0.000    0.000    0.000    0.000 
#    0.000    0.000    0.000    0.000    0.000    0.000 
#
# Total GULP energy -78284.591354 kJ/mol
# GULP energy per Si atom -5591.756525 kJ/mol
# Density = 2.200317 g / cm^3
# Si number density = 22.053366 Si / 1000 Ang^3
#
#
#
# Elastic Constant Matrix: (Units=GPa)
#
#
# Indices 1 2 3 4 5 6 
#
# 1 149.8047 55.5333 32.8486 -12.2648 -27.2300 -5.0985
# 2 55.5333 122.3149 51.8447 -5.7125 -12.8022 -3.9457
# 3 32.8486 51.8447 141.3138 -4.2970 -12.0197 4.0624
# 4 -12.2648 -5.7125 -4.2970 48.5215 6.6851 -9.2137
# 5 -27.2300 -12.8022 -12.0197 6.6851 37.4370 -3.2227
# 6 -5.0985 -3.9457 4.0624 -9.2137 -3.2227 38.6918
#
#
#
# Elastic Compliance Matrix: (Units=1/GPa)
#
#
# Indices 1 2 3 4 5 6 
#
# 1 0.009125 -0.003265 -0.000481 0.001481 0.005249 0.001710
# 2 -0.003265 0.011166 -0.003325 0.000362 0.000412 0.001178
# 3 -0.000481 -0.003325 0.008539 -0.000154 0.001176 -0.001238
# 4 0.001481 0.000362 -0.000154 0.022361 -0.002379 0.005375
# 5 0.005249 0.000412 0.001176 -0.002379 0.031704 0.002684
# 6 0.001710 0.001178 -0.001238 0.005375 0.002684 0.027824
#
#
# Mechanical properties :
#
#
# Convention : Reuss Voigt Hill
#
# Bulk Modulus (GPa) = 68.08810 77.09852 72.59331
# Shear Modulus (GPa) = 38.53376 43.14384 40.83880
#
# Velocity S-wave (km/s) = 4.18460 4.42785 4.30794
# Velocity P-wave (km/s) = 7.36812 7.82157 7.59823
#
# Compressibility (1/GPa) = 0.01468685
#
# Stress axis : x y z
#
# Youngs Moduli (GPa) = 109.59205 89.56063 117.10926
#
# Poissons Ratio (x) = 0.29245 0.05630
# Poissons Ratio (y) = 0.35786 0.38941
# Poissons Ratio (z) = 0.05269 0.29780
#
# Static dielectric constant tensor:
#      x y z
#    x 1.773540 -0.018070 0.002330 
#    y -0.018070 1.767060 -0.004600 
#    z 0.002330 -0.004600 1.789130 
# 
# From -- ./inp_files/111381.got.cif
#   From: 2010.05.17/outbox.cif.g08.bks.cpg/sg2_56_cif.got.tgz:111381.got - 2010.06.03 11:33:40.
