data_PCOD9050802
_publ_section_title
;
Structure prediction by ZEFSAII (Michael W. Deem and Ramdas Pophale) SiO2 
 PCOD9050802
Probable space group: P -1
;
_chemical_formula_sum "Si O2"
_cell_formula_units_Z 14
_cell_length_a 15.805874
_cell_length_b 25.381403
_cell_length_c 5.185723
_cell_angle_alpha 116.186398
_cell_angle_beta 108.742912
_cell_angle_gamma 19.635207
_cell_volume 595.850380
_symmetry_space_group_name_H-M "P -1"
_symmetry_group_IT_number 2
_symmetry_cell_setting 'triclinic'
loop_
_space_group_symop_operation_xyz
x,y,z
-x,-y,-z
loop_
_atom_site_type_symbol
_atom_site_label
_atom_site_fract_x
_atom_site_fract_y
_atom_site_fract_z
Si Si1 0.734325 0.839534 0.080700
Si Si2 0.894935 0.973764 0.901313
Si Si3 0.319099 0.490278 0.887228
Si Si4 0.181583 0.381402 0.670029
Si Si5 0.662124 0.170659 0.610130
Si Si6 0.440906 0.935137 0.378630
Si Si7 0.503714 0.563734 0.550197
O O1 0.631197 0.850032 0.177466
O O2 0.750586 0.893096 0.356166
O O3 0.032187 0.642292 0.858123
O O4 0.500000 0.000000 0.000000
O O5 0.807865 0.074814 0.818264
O O6 0.724513 0.018926 0.782740
O O7 0.825984 0.037920 0.258618
O O8 0.202183 0.771617 0.725100
O O9 0.562456 0.294595 0.681701
O O10 0.382308 0.501014 0.764496
O O11 0.325090 0.505677 0.224326
O O12 0.390775 0.304028 0.685418
O O13 0.365514 0.209969 0.521568
O O14 0.000000 0.500000 0.500000
O O15 0.000000 0.500000 0.000000
O O16 0.500000 0.500000 0.500000
#
# Coordination Sequence:
#
# PCOD9050802 Si02
#       7
#     2   2   2   2   2   2   2
#     4  11  27  44  73 101 144 192 233 299 354 418
#     4  11  25  47  73 104 142 185 239 282 357 413
#     4  12  28  47  73 106 142 180 241 288 354 416
#     4  11  23  39  66  99 141 184 231 283 345 419
#     4  11  25  43  71 104 140 186 230 294 347 418
#     4  10  25  44  68 104 138 190 234 289 354 422
#     4  12  28  48  76 103 141 187 232 296 341 422
#
# _framework density 23.495832
#
# number of rings (size 3 to 8) (size 9 to 14) (size 15 to 20)
#    0.000    0.857    0.000    5.571   14.000    3.429 
#    0.000    0.000    0.000    0.000    0.000    0.000 
#    0.000    0.000    0.000    0.000    0.000    0.000 
#
# Total GULP energy -78380.074285 kJ/mol
# GULP energy per Si atom -5598.576735 kJ/mol
# Density = 2.344235 g / cm^3
# Si number density = 23.495832 Si / 1000 Ang^3
#
#
#
# Elastic Constant Matrix: (Units=GPa)
#
#
# Indices 1 2 3 4 5 6 
#
# 1 97.1173 39.8414 -1.5290 -6.2820 -12.2639 18.0716
# 2 39.8414 159.3261 18.5170 3.4932 -12.5317 4.5459
# 3 -1.5290 18.5170 65.5589 -2.5952 -16.4123 1.7919
# 4 -6.2820 3.4932 -2.5952 35.5162 2.0300 -7.5843
# 5 -12.2639 -12.5317 -16.4123 2.0300 35.6542 -2.1791
# 6 18.0716 4.5459 1.7919 -7.5843 -2.1791 37.9500
#
#
#
# Elastic Compliance Matrix: (Units=1/GPa)
#
#
# Indices 1 2 3 4 5 6 
#
# 1 0.013276 -0.003150 0.002450 0.001416 0.004168 -0.005538
# 2 -0.003150 0.007372 -0.002056 -0.001368 0.000669 0.000479
# 3 0.002450 -0.002056 0.018045 0.001257 0.008291 -0.001045
# 4 0.001416 -0.001368 0.001257 0.029819 -0.000786 0.005344
# 5 0.004168 0.000669 0.008291 -0.000786 0.033535 -0.000688
# 6 -0.005538 0.000479 -0.001045 0.005344 -0.000688 0.030008
#
#
# Mechanical properties :
#
#
# Convention : Reuss Voigt Hill
#
# Bulk Modulus (GPa) = 30.13598 48.40679 39.27138
# Shear Modulus (GPa) = 33.64123 39.50228 36.57175
#
# Velocity S-wave (km/s) = 3.78801 4.10475 3.94956
# Velocity P-wave (km/s) = 5.65562 6.56600 6.12774
#
# Compressibility (1/GPa) = 0.03318293
#
# Stress axis : x y z
#
# Youngs Moduli (GPa) = 75.32359 135.65032 55.41643
#
# Poissons Ratio (x) = 0.42727 -0.13578
# Poissons Ratio (y) = 0.23725 0.11391
# Poissons Ratio (z) = -0.18456 0.27883
#
# Static dielectric constant tensor:
#      x y z
#    x 1.887210 0.000880 0.054530 
#    y 0.000880 1.903970 -0.035680 
#    z 0.054530 -0.035680 1.921910 
# 
# From -- ./inp_files/95492.got.cif
#   From: 2010.05.17/outbox.cif.g08.bks.cpg/sg2_48_cif.got.tgz:95492.got - 2010.06.03 11:33:40.
