data_PCOD9050901
_publ_section_title
;
Structure prediction by ZEFSAII (Michael W. Deem and Ramdas Pophale) SiO2 
 PCOD9050901
Probable space group: P -1
;
_chemical_formula_sum "Si O2"
_cell_formula_units_Z 15
_cell_length_a 8.980998
_cell_length_b 11.027879
_cell_length_c 11.083416
_cell_angle_alpha 134.333902
_cell_angle_beta 108.150572
_cell_angle_gamma 99.719108
_cell_volume 613.720966
_symmetry_space_group_name_H-M "P -1"
_symmetry_group_IT_number 2
_symmetry_cell_setting 'triclinic'
loop_
_space_group_symop_operation_xyz
x,y,z
-x,-y,-z
loop_
_atom_site_type_symbol
_atom_site_label
_atom_site_fract_x
_atom_site_fract_y
_atom_site_fract_z
Si Si1 0.323944 0.218120 0.261288
Si Si2 0.500000 0.500000 0.000000
Si Si3 0.048151 0.874674 0.514623
Si Si4 0.127338 0.849751 0.111487
Si Si5 0.250228 0.242677 0.987829
Si Si6 0.861334 0.442905 0.244706
Si Si7 0.270617 0.573483 0.541312
Si Si8 0.644414 0.947843 0.459181
O O1 0.277620 0.372686 0.413225
O O2 0.535155 0.272124 0.376942
O O3 0.162250 0.989633 0.102112
O O4 0.332593 0.253422 0.145585
O O5 0.395472 0.382432 0.019233
O O6 0.442108 0.275827 0.771659
O O7 0.875716 0.642469 0.335672
O O8 0.134499 0.006292 0.748341
O O9 0.213294 0.885179 0.488456
O O10 0.000000 0.000000 0.500000
O O11 0.908922 0.710470 0.999543
O O12 0.236009 0.007305 0.357079
O O13 0.201181 0.714602 0.990484
O O14 0.739609 0.359377 0.278215
O O15 0.076009 0.517323 0.389772
O O16 0.500000 0.000000 0.500000
#
# Coordination Sequence:
#
# PCOD9050901 Si02
#       8
#     2   1   2   2   2   2   2   2
#     4  11  25  44  74 108 148 196 245 307 376 453
#     4  10  28  48  78 100 154 194 254 302 392 438
#     4  11  25  46  73  99 145 198 250 304 376 446
#     4  12  26  43  77 108 151 188 254 303 382 447
#     4  11  24  47  73 107 142 201 244 309 366 460
#     4  11  26  45  72 109 148 194 246 313 373 446
#     4  10  25  44  71 107 149 195 243 304 377 450
#     4  11  28  48  72 110 145 195 249 320 368 458
#
# _framework density 24.441074
#
# number of rings (size 3 to 8) (size 9 to 14) (size 15 to 20)
#    0.000    1.067    2.667    1.200   11.200    6.400 
#    0.000    0.000    0.000    0.000    0.000    0.000 
#    0.000    0.000    0.000    0.000    0.000    0.000 
#
# Total GULP energy -83711.292982 kJ/mol
# GULP energy per Si atom -5580.752865 kJ/mol
# Density = 2.438545 g / cm^3
# Si number density = 24.441074 Si / 1000 Ang^3
#
#
#
# Elastic Constant Matrix: (Units=GPa)
#
#
# Indices 1 2 3 4 5 6 
#
# 1 118.4923 21.4087 18.3559 -16.7897 -14.1877 8.3244
# 2 21.4087 80.7640 37.3949 2.6611 -12.6239 13.9276
# 3 18.3559 37.3949 103.2539 -5.6980 -29.0986 15.7047
# 4 -16.7897 2.6611 -5.6980 34.0829 6.2067 0.6746
# 5 -14.1877 -12.6239 -29.0986 6.2067 31.0691 -13.1983
# 6 8.3244 13.9276 15.7047 0.6746 -13.1983 33.6405
#
#
#
# Elastic Compliance Matrix: (Units=1/GPa)
#
#
# Indices 1 2 3 4 5 6 
#
# 1 0.009834 -0.002326 0.000149 0.004611 0.002484 -0.000658
# 2 -0.002326 0.016057 -0.005078 -0.003127 -0.000258 -0.003740
# 3 0.000149 -0.005078 0.014870 0.000846 0.011620 -0.000334
# 4 0.004611 -0.003127 0.000846 0.033246 -0.006480 -0.003450
# 5 0.002484 -0.000258 0.011620 -0.006480 0.051514 0.014408
# 6 -0.000658 -0.003740 -0.000334 -0.003450 0.014408 0.037315
#
#
# Mechanical properties :
#
#
# Convention : Reuss Voigt Hill
#
# Bulk Modulus (GPa) = 38.09509 50.75880 44.42695
# Shear Modulus (GPa) = 26.86776 34.78188 30.82482
#
# Velocity S-wave (km/s) = 3.31915 3.77648 3.55518
# Velocity P-wave (km/s) = 5.50539 6.31099 5.92191
#
# Compressibility (1/GPa) = 0.02625010
#
# Stress axis : x y z
#
# Youngs Moduli (GPa) = 101.69248 62.27693 67.24975
#
# Poissons Ratio (x) = 0.14484 -0.01000
# Poissons Ratio (y) = 0.23651 0.34152
# Poissons Ratio (z) = -0.01513 0.31627
#
# Static dielectric constant tensor:
#      x y z
#    x 2.044640 -0.080590 0.086550 
#    y -0.080590 1.917630 -0.056030 
#    z 0.086550 -0.056030 1.973400 
# 
# From -- ./inp_files/391689.got.cif
#   From: 2010.05.17/outbox.cif.g08.bks.cpg/sg2_196_cif.got.tgz:391689.got - 2010.06.03 11:33:40.
