data_PCOD9050319
_publ_section_title
;
Structure prediction by ZEFSAII (Michael W. Deem and Ramdas Pophale) SiO2 
 PCOD9050319
Probable space group: P -1
;
_chemical_formula_sum "Si O2"
_cell_formula_units_Z 14
_cell_length_a 14.220027
_cell_length_b 5.381400
_cell_length_c 8.915234
_cell_angle_alpha 66.257018
_cell_angle_beta 88.275180
_cell_angle_gamma 66.743820
_cell_volume 566.966024
_symmetry_space_group_name_H-M "P -1"
_symmetry_group_IT_number 2
_symmetry_cell_setting 'triclinic'
loop_
_space_group_symop_operation_xyz
x,y,z
-x,-y,-z
loop_
_atom_site_type_symbol
_atom_site_label
_atom_site_fract_x
_atom_site_fract_y
_atom_site_fract_z
Si Si1 0.017494 0.289760 0.910637
Si Si2 0.675516 0.800583 0.360522
Si Si3 0.237071 0.826395 0.917173
Si Si4 0.060497 0.296869 0.410417
Si Si5 0.507865 0.327272 0.696980
Si Si6 0.148646 0.700543 0.668884
Si Si7 0.627453 0.670432 0.738588
O O1 0.923663 0.482690 0.756521
O O2 0.138213 0.140154 0.886821
O O3 0.000000 0.500000 0.000000
O O4 0.000000 0.000000 0.000000
O O5 0.600763 0.701283 0.285411
O O6 0.789557 0.542823 0.395603
O O7 0.646851 0.776911 0.543247
O O8 0.683631 0.081352 0.206890
O O9 0.193805 0.659499 0.841453
O O10 0.284930 0.606621 0.108927
O O11 0.000000 0.500000 0.500000
O O12 0.972625 0.228177 0.342252
O O13 0.152083 0.003429 0.531634
O O14 0.500000 0.500000 0.500000
O O15 0.541690 0.531298 0.755351
O O16 0.589111 0.977986 0.761695
#
# Coordination Sequence:
#
# PCOD9050319 Si02
#       7
#     2   2   2   2   2   2   2
#     4  12  28  47  71 103 151 190 241 308 360 433
#     4  11  25  46  79 103 148 196 244 308 364 442
#     4  12  28  47  72 114 148 190 255 305 366 445
#     4  11  23  46  71  98 141 195 241 300 372 430
#     4  10  24  50  76 111 150 194 245 305 371 445
#     4  11  24  43  74 104 144 186 252 305 356 443
#     4  11  28  48  77 110 152 195 245 304 378 440
#
# _framework density 24.692838999999999
#
# number of rings (size 3 to 8) (size 9 to 14) (size 15 to 20)
#    0.000    0.857    2.857    2.571   12.000    2.286 
#    0.000    0.000    0.000    0.000    0.000    0.000 
#    0.000    0.000    0.000    0.000    0.000    0.000 
#
# Total GULP energy -78099.290290 kJ/mol
# GULP energy per Si atom -5578.520735 kJ/mol
# Density = 2.463664 g / cm^3
# Si number density = 24.692839 Si / 1000 Ang^3
#
#
#
# Elastic Constant Matrix: (Units=GPa)
#
#
# Indices 1 2 3 4 5 6 
#
# 1 119.8113 8.6374 24.6321 6.1022 -16.3529 16.9853
# 2 8.6374 105.5343 19.8777 -3.6934 -17.7260 6.3757
# 3 24.6321 19.8777 113.7285 -12.5723 -4.8278 0.3603
# 4 6.1022 -3.6934 -12.5723 38.6011 3.6302 4.4557
# 5 -16.3529 -17.7260 -4.8278 3.6302 32.6801 -4.2413
# 6 16.9853 6.3757 0.3603 4.4557 -4.2413 43.8605
#
#
#
# Elastic Compliance Matrix: (Units=1/GPa)
#
#
# Indices 1 2 3 4 5 6 
#
# 1 0.010017 0.000535 -0.002310 -0.002363 0.004804 -0.003233
# 2 0.000535 0.010794 -0.001759 -0.000022 0.005708 -0.001208
# 3 -0.002310 -0.001759 0.009940 0.003451 -0.000943 0.000627
# 4 -0.002363 -0.000022 0.003451 0.028060 -0.004108 -0.002358
# 5 0.004804 0.005708 -0.000943 -0.004108 0.036582 0.001272
# 6 -0.003233 -0.001208 0.000627 -0.002358 0.001272 0.024585
#
#
# Mechanical properties :
#
#
# Convention : Reuss Voigt Hill
#
# Bulk Modulus (GPa) = 42.22380 49.48538 45.85459
# Shear Modulus (GPa) = 37.05337 42.09014 39.57176
#
# Velocity S-wave (km/s) = 3.87792 4.13310 4.00754
# Velocity P-wave (km/s) = 6.09818 6.54680 6.32647
#
# Compressibility (1/GPa) = 0.02368332
#
# Stress axis : x y z
#
# Youngs Moduli (GPa) = 99.82682 92.64349 100.60309
#
# Poissons Ratio (x) = -0.04955 0.23241
# Poissons Ratio (y) = -0.05339 0.17693
# Poissons Ratio (z) = 0.23062 0.16294
#
# Static dielectric constant tensor:
#      x y z
#    x 2.185000 0.018860 -0.050120 
#    y 0.018860 1.967820 -0.091670 
#    z -0.050120 -0.091670 2.105940 
# 
# From -- ./inp_files/288484.got.cif
#   From: 2010.05.17/outbox.cif.g08.bks.cpg/sg2_145_cif.got.tgz:288484.got - 2010.06.03 11:33:40.
