data_PCOD9050669
_publ_section_title
;
Structure prediction by ZEFSAII (Michael W. Deem and Ramdas Pophale) SiO2 
 PCOD9050669
Probable space group: P -1
;
_chemical_formula_sum "Si O2"
_cell_formula_units_Z 15
_cell_length_a 11.432359
_cell_length_b 12.462158
_cell_length_c 6.489540
_cell_angle_alpha 120.200694
_cell_angle_beta 100.228459
_cell_angle_gamma 48.560173
_cell_volume 581.559079
_symmetry_space_group_name_H-M "P -1"
_symmetry_group_IT_number 2
_symmetry_cell_setting 'triclinic'
loop_
_space_group_symop_operation_xyz
x,y,z
-x,-y,-z
loop_
_atom_site_type_symbol
_atom_site_label
_atom_site_fract_x
_atom_site_fract_y
_atom_site_fract_z
Si Si1 0.500000 0.500000 0.500000
Si Si2 0.579199 0.214497 0.523329
Si Si3 0.783771 0.908808 0.020740
Si Si4 0.263846 0.544363 0.176407
Si Si5 0.380981 0.114577 0.387124
Si Si6 0.178319 0.333121 0.867823
Si Si7 0.775726 0.199057 0.901849
Si Si8 0.945628 0.187662 0.294339
O O1 0.515485 0.384593 0.575818
O O2 0.420737 0.454938 0.272679
O O3 0.449425 0.198774 0.424793
O O4 0.644835 0.199017 0.758733
O O5 0.734140 0.058150 0.292347
O O6 0.644656 0.969821 0.874211
O O7 0.945000 0.825863 0.862390
O O8 0.788895 0.786962 0.055944
O O9 0.235368 0.668704 0.111799
O O10 0.118625 0.676082 0.419349
O O11 0.270256 0.399251 0.962699
O O12 0.211724 0.247796 0.576863
O O13 0.500000 0.000000 0.500000
O O14 0.000000 0.500000 0.000000
O O15 0.784185 0.243533 0.185266
O O16 0.941054 0.000976 0.760273
#
# Coordination Sequence:
#
# PCOD9050669 Si02
#       8
#     1   2   2   2   2   2   2   2
#     4  10  26  42  68 102 136 186 230 288 346 414
#     4  11  25  47  74 102 147 185 236 295 348 425
#     4  12  27  45  74 105 143 187 240 293 353 422
#     4  11  25  46  69 101 149 180 232 293 357 415
#     4  12  26  48  76 105 140 194 242 286 357 425
#     4  12  28  47  73 107 145 185 237 300 352 419
#     4  10  25  43  70 108 137 186 239 285 353 424
#     4  11  25  42  74 105 141 185 233 289 360 424
#
# _framework density 25.792736999999999
#
# number of rings (size 3 to 8) (size 9 to 14) (size 15 to 20)
#    0.000    0.800    1.333    4.000   13.067    6.400 
#    0.000    2.667    0.000    0.000    0.000    0.000 
#    0.000    0.000    0.000    0.000    0.000    0.000 
#
# Total GULP energy -83787.426906 kJ/mol
# GULP energy per Si atom -5585.828460 kJ/mol
# Density = 2.573403 g / cm^3
# Si number density = 25.792737 Si / 1000 Ang^3
#
#
#
# Elastic Constant Matrix: (Units=GPa)
#
#
# Indices 1 2 3 4 5 6 
#
# 1 94.6858 15.9616 23.1144 -15.8831 11.4354 9.9588
# 2 15.9616 105.8714 16.5143 -15.8918 4.4660 8.9053
# 3 23.1144 16.5143 126.4651 4.3306 -0.2883 -1.8869
# 4 -15.8831 -15.8918 4.3306 43.9658 -11.2241 5.3153
# 5 11.4354 4.4660 -0.2883 -11.2241 47.9579 -9.3437
# 6 9.9588 8.9053 -1.8869 5.3153 -9.3437 41.6000
#
#
#
# Elastic Compliance Matrix: (Units=1/GPa)
#
#
# Indices 1 2 3 4 5 6 
#
# 1 0.012791 -0.000374 -0.002515 0.004537 -0.002807 -0.004306
# 2 -0.000374 0.010611 -0.001501 0.004064 -0.000519 -0.002886
# 3 -0.002515 -0.001501 0.008671 -0.002369 0.000578 0.001749
# 4 0.004537 0.004064 -0.002369 0.027698 0.004096 -0.004683
# 5 -0.002807 -0.000519 0.000578 0.004096 0.023621 0.005591
# 6 -0.004306 -0.002886 0.001749 -0.004683 0.005591 0.027621
#
#
# Mechanical properties :
#
#
# Convention : Reuss Voigt Hill
#
# Bulk Modulus (GPa) = 42.93054 48.68923 45.80988
# Shear Modulus (GPa) = 39.19792 44.80020 41.99906
#
# Velocity S-wave (km/s) = 3.90260 4.17217 4.03963
# Velocity P-wave (km/s) = 6.08174 6.49057 6.28948
#
# Compressibility (1/GPa) = 0.02329344
#
# Stress axis : x y z
#
# Youngs Moduli (GPa) = 78.17717 94.24527 115.32044
#
# Poissons Ratio (x) = 0.03529 0.29004
# Poissons Ratio (y) = 0.02927 0.17304
# Poissons Ratio (z) = 0.19662 0.14142
#
# Static dielectric constant tensor:
#      x y z
#    x 2.483090 -0.320130 -0.158820 
#    y -0.320130 0.856190 -0.236440 
#    z -0.158820 -0.236440 1.878010 
# 
# From -- ./inp_files/71903.got.cif
#   From: 2010.05.17/outbox.cif.g08.bks.cpg/sg2_36_cif.got.tgz:71903.got - 2010.06.03 11:33:40.
