data_PCOD9050498
_publ_section_title
;
Structure prediction by ZEFSAII (Michael W. Deem and Ramdas Pophale) SiO2 
 PCOD9050498
Probable space group: P -1
;
_chemical_formula_sum "Si O2"
_cell_formula_units_Z 16
_cell_length_a 11.980079
_cell_length_b 8.174956
_cell_length_c 28.532922
_cell_angle_alpha 144.627520
_cell_angle_beta 150.449629
_cell_angle_gamma 49.597679
_cell_volume 779.272465
_symmetry_space_group_name_H-M "P -1"
_symmetry_group_IT_number 2
_symmetry_cell_setting 'triclinic'
loop_
_space_group_symop_operation_xyz
x,y,z
-x,-y,-z
loop_
_atom_site_type_symbol
_atom_site_label
_atom_site_fract_x
_atom_site_fract_y
_atom_site_fract_z
Si Si1 0.387550 0.234084 0.985818
Si Si2 0.637859 0.068637 0.953288
Si Si3 0.517040 0.812966 0.228904
Si Si4 0.005293 0.487439 0.873271
Si Si5 0.131038 0.623624 0.528898
Si Si6 0.635933 0.569394 0.313348
Si Si7 0.984624 0.217711 0.959568
Si Si8 0.489288 0.723330 0.398247
O O1 0.487728 0.222251 0.967792
O O2 0.472925 0.531285 0.114456
O O3 0.114129 0.229409 0.875233
O O4 0.500000 0.000000 0.000000
O O5 0.783510 0.290974 0.022139
O O6 0.835616 0.968261 0.033727
O O7 0.478942 0.773994 0.805728
O O8 0.540390 0.710442 0.266587
O O9 0.282684 0.936807 0.170395
O O10 0.735732 0.044440 0.344714
O O11 0.785268 0.402574 0.739414
O O12 0.933576 0.665360 0.931885
O O13 0.335830 0.454782 0.555313
O O14 0.000000 0.500000 0.500000
O O15 0.908141 0.592933 0.407377
O O16 0.584601 0.730919 0.380313
O O17 0.000000 0.500000 0.000000
O O18 0.500000 0.000000 0.500000
#
# Coordination Sequence:
#
# PCOD9050498 Si02
#       8
#     2   2   2   2   2   2   2   2
#     4  11  24  40  64 100 133 163 208 272 325 394
#     4  12  22  38  64  98 132 167 214 266 327 379
#     4  11  22  43  68  95 131 175 211 257 339 381
#     4  11  24  39  64  94 133 166 215 268 330 384
#     4  10  25  42  66  91 130 175 224 262 310 388
#     4  11  23  42  66  91 133 170 216 263 322 384
#     4  11  20  38  65  94 129 167 207 264 324 395
#     4  11  25  44  64  92 126 174 220 272 316 374
#
# _framework density 20.531973000000001
#
# number of rings (size 3 to 8) (size 9 to 14) (size 15 to 20)
#    0.000    1.000    3.750    2.625    8.750    2.000 
#    0.000    0.625    0.000    0.000    0.000    0.000 
#    0.000    0.000    0.000    0.000    0.000    0.000 
#
# Total GULP energy -89205.327474 kJ/mol
# GULP energy per Si atom -5575.332967 kJ/mol
# Density = 2.048524 g / cm^3
# Si number density = 20.531973 Si / 1000 Ang^3
#
#
#
# Elastic Constant Matrix: (Units=GPa)
#
#
# Indices 1 2 3 4 5 6 
#
# 1 88.1547 15.3320 40.6226 11.3023 -12.0029 -13.7140
# 2 15.3320 121.5941 49.9296 -15.0337 -1.7343 -24.5032
# 3 40.6226 49.9296 137.4023 -18.1060 9.0140 -11.0672
# 4 11.3023 -15.0337 -18.1060 31.8487 -1.8192 7.0965
# 5 -12.0029 -1.7343 9.0140 -1.8192 36.5991 -1.6187
# 6 -13.7140 -24.5032 -11.0672 7.0965 -1.6187 36.8791
#
#
#
# Elastic Compliance Matrix: (Units=1/GPa)
#
#
# Indices 1 2 3 4 5 6 
#
# 1 0.018093 0.000863 -0.007022 -0.011293 0.007483 0.007696
# 2 0.000863 0.011158 -0.003729 0.001531 0.002090 0.006413
# 3 -0.007022 -0.003729 0.011822 0.007891 -0.005144 -0.003285
# 4 -0.011293 0.001531 0.007891 0.042432 -0.003870 -0.009149
# 5 0.007483 0.002090 -0.005144 -0.003870 0.031161 0.004740
# 6 0.007696 0.006413 -0.003285 -0.009149 0.004740 0.035221
#
#
# Mechanical properties :
#
#
# Convention : Reuss Voigt Hill
#
# Bulk Modulus (GPa) = 46.95275 62.10216 54.52745
# Shear Modulus (GPa) = 28.28689 37.14983 32.71836
#
# Velocity S-wave (km/s) = 3.71576 4.25828 3.99624
# Velocity P-wave (km/s) = 6.42860 7.38170 6.92158
#
# Compressibility (1/GPa) = 0.02129801
#
# Stress axis : x y z
#
# Youngs Moduli (GPa) = 55.26859 89.62475 84.59126
#
# Poissons Ratio (x) = -0.07739 0.59402
# Poissons Ratio (y) = -0.04772 0.31541
# Poissons Ratio (z) = 0.38811 0.33417
#
# Static dielectric constant tensor:
#      x y z
#    x 1.751250 0.037870 0.032560 
#    y 0.037870 1.810290 -0.043360 
#    z 0.032560 -0.043360 1.752450 
# 
# From -- ./inp_files/327630.got.cif
#   From: 2010.05.17/outbox.cif.g08.bks.cpg/sg2_164_cif.got.tgz:327630.got - 2010.06.03 11:33:40.
