data_PCOD9050196
_publ_section_title
;
Structure prediction by ZEFSAII (Michael W. Deem and Ramdas Pophale) SiO2 
 PCOD9050196
Probable space group: P -1
;
_chemical_formula_sum "Si O2"
_cell_formula_units_Z 14
_cell_length_a 14.010123
_cell_length_b 14.894559
_cell_length_c 9.057254
_cell_angle_alpha 54.242502
_cell_angle_beta 105.473140
_cell_angle_gamma 150.053632
_cell_volume 617.410292
_symmetry_space_group_name_H-M "P -1"
_symmetry_group_IT_number 2
_symmetry_cell_setting 'triclinic'
loop_
_space_group_symop_operation_xyz
x,y,z
-x,-y,-z
loop_
_atom_site_type_symbol
_atom_site_label
_atom_site_fract_x
_atom_site_fract_y
_atom_site_fract_z
Si Si1 0.410858 0.302022 0.354228
Si Si2 0.703925 0.177239 0.028681
Si Si3 0.948496 0.360280 0.480057
Si Si4 0.927421 0.170592 0.123008
Si Si5 0.070777 0.251514 0.778461
Si Si6 0.598015 0.725630 0.971237
Si Si7 0.426741 0.776073 0.846430
O O1 0.658936 0.513594 0.326057
O O2 0.415282 0.268312 0.216812
O O3 0.184450 0.027824 0.614227
O O4 0.430828 0.454994 0.206230
O O5 0.930746 0.467970 0.777536
O O6 0.749620 0.094257 0.130750
O O7 0.639642 0.177783 0.146582
O O8 0.500000 0.000000 0.000000
O O9 0.000000 0.500000 0.500000
O O10 0.057218 0.355954 0.588702
O O11 0.678573 0.064939 0.604427
O O12 0.962632 0.155290 0.990665
O O13 0.186918 0.486128 0.956550
O O14 0.872229 0.976859 0.877545
O O15 0.516859 0.756301 0.989323
#
# Coordination Sequence:
#
# PCOD9050196 Si02
#       7
#     2   2   2   2   2   2   2
#     4  11  25  47  71  98 137 176 226 289 335 394
#     4  12  23  42  66 100 134 180 223 270 335 405
#     4  11  22  42  68  94 139 182 215 275 336 395
#     4  12  26  42  66 106 134 174 231 274 337 408
#     4  11  23  45  68 101 136 172 231 274 337 409
#     4  10  24  49  70  98 134 181 227 277 347 395
#     4  11  25  42  64 100 134 174 226 275 332 403
#
# _framework density 22.675359
#
# number of rings (size 3 to 8) (size 9 to 14) (size 15 to 20)
#    0.000    0.857    4.286    2.571    4.000    1.714 
#    0.000    0.000    0.000    0.000    0.000    0.000 
#    0.000    0.000    0.000    0.000    0.000    0.000 
#
# Total GULP energy -78169.654097 kJ/mol
# GULP energy per Si atom -5583.546721 kJ/mol
# Density = 2.262375 g / cm^3
# Si number density = 22.675359 Si / 1000 Ang^3
#
#
#
# Elastic Constant Matrix: (Units=GPa)
#
#
# Indices 1 2 3 4 5 6 
#
# 1 44.2421 -11.4840 14.7038 -7.4265 -2.5011 2.9542
# 2 -11.4840 103.7008 4.1592 -29.7495 -0.5962 20.8131
# 3 14.7038 4.1592 106.1767 -20.1016 22.6837 4.2186
# 4 -7.4265 -29.7495 -20.1016 35.5187 0.3472 3.4903
# 5 -2.5011 -0.5962 22.6837 0.3472 19.4362 -9.4783
# 6 2.9542 20.8131 4.2186 3.4903 -9.4783 23.3961
#
#
#
# Elastic Compliance Matrix: (Units=1/GPa)
#
#
# Indices 1 2 3 4 5 6 
#
# 1 0.030833 0.016542 0.004541 0.025942 -0.015763 -0.029683
# 2 0.016542 0.048513 0.029125 0.070362 -0.076487 -0.091981
# 3 0.004541 0.029125 0.038088 0.054951 -0.080028 -0.073970
# 4 0.025942 0.070362 0.054951 0.139796 -0.134910 -0.151288
# 5 -0.015763 -0.076487 -0.080028 -0.134910 0.241626 0.202478
# 6 -0.029683 -0.091981 -0.073970 -0.151288 0.202478 0.246252
#
#
# Mechanical properties :
#
#
# Convention : Reuss Voigt Hill
#
# Bulk Modulus (GPa) = 4.59033 29.87531 17.23282
# Shear Modulus (GPa) = 6.97048 32.11957 19.54503
#
# Velocity S-wave (km/s) = 1.75519 3.76772 2.93908
# Velocity P-wave (km/s) = 2.47717 5.66846 4.37423
#
# Compressibility (1/GPa) = 0.21784943
#
# Stress axis : x y z
#
# Youngs Moduli (GPa) = 32.43253 20.61295 26.25486
#
# Poissons Ratio (x) = -0.34097 -0.11921
# Poissons Ratio (y) = -0.53649 -0.76468
# Poissons Ratio (z) = -0.14726 -0.60036
#
# Static dielectric constant tensor:
#      x y z
#    x 1.886760 -0.008490 -0.008880 
#    y -0.008490 1.952290 -0.016650 
#    z -0.008880 -0.016650 1.822950 
# 
# From -- ./inp_files/312803.got.cif
#   From: 2010.05.17/outbox.cif.g08.bks.cpg/sg2_157_cif.got.tgz:312803.got - 2010.06.03 11:33:40.
