data_PCOD9050986
_publ_section_title
;
Structure prediction by ZEFSAII (Michael W. Deem and Ramdas Pophale) SiO2 
 PCOD9050986
Probable space group: P -1
;
_chemical_formula_sum "Si O2"
_cell_formula_units_Z 16
_cell_length_a 16.601878
_cell_length_b 10.648316
_cell_length_c 15.621587
_cell_angle_alpha 130.490676
_cell_angle_beta 155.303293
_cell_angle_gamma 65.952656
_cell_volume 718.457752
_symmetry_space_group_name_H-M "P -1"
_symmetry_group_IT_number 2
_symmetry_cell_setting 'triclinic'
loop_
_space_group_symop_operation_xyz
x,y,z
-x,-y,-z
loop_
_atom_site_type_symbol
_atom_site_label
_atom_site_fract_x
_atom_site_fract_y
_atom_site_fract_z
Si Si1 0.109916 0.256209 0.804671
Si Si2 0.245581 0.843177 0.723133
Si Si3 0.041910 0.202184 0.225548
Si Si4 0.732135 0.854890 0.360002
Si Si5 0.235148 0.702135 0.126774
Si Si6 0.449135 0.626525 0.815772
Si Si7 0.674082 0.954088 0.533676
Si Si8 0.948061 0.280077 0.344621
O O1 0.961763 0.174491 0.536526
O O2 0.150706 0.471594 0.957542
O O3 0.357333 0.290829 0.035233
O O4 0.949849 0.079871 0.640106
O O5 0.229912 0.641924 0.598828
O O6 0.233290 0.861462 0.819848
O O7 0.500000 0.000000 0.000000
O O8 0.313464 0.390083 0.586589
O O9 0.086015 0.028131 0.198730
O O10 0.891314 0.192928 0.156679
O O11 0.937892 0.251831 0.067848
O O12 0.627259 0.880118 0.356907
O O13 0.825104 0.717322 0.410064
O O14 0.567004 0.746131 0.070318
O O15 0.464209 0.807922 0.332848
O O16 0.294207 0.833130 0.328065
O O17 0.000000 0.500000 0.500000
#
# Coordination Sequence:
#
# PCOD9050986 Si02
#       8
#     2   2   2   2   2   2   2   2
#     4  12  23  41  63  95 127 166 209 251 313 377
#     4  12  23  38  59  92 132 169 197 245 314 378
#     4  11  23  38  65  93 121 161 208 264 305 365
#     4  11  25  40  62  93 135 163 199 263 307 374
#     4  11  23  43  70  86 119 166 218 257 306 369
#     4  12  22  37  62  96 127 163 198 250 315 373
#     4  10  25  45  62  92 121 164 214 263 306 357
#     4  11  22  38  57  91 128 164 205 245 303 377
#
# _framework density 22.269926000000002
#
# number of rings (size 3 to 8) (size 9 to 14) (size 15 to 20)
#    0.000    0.750    6.250    1.500    1.750    3.500 
#    0.000    0.000    0.000    0.750    0.000    0.000 
#    0.000    0.000    0.000    0.000    0.000    0.000 
#
# Total GULP energy -89260.405901 kJ/mol
# GULP energy per Si atom -5578.775369 kJ/mol
# Density = 2.221924 g / cm^3
# Si number density = 22.269926 Si / 1000 Ang^3
#
#
#
# Elastic Constant Matrix: (Units=GPa)
#
#
# Indices 1 2 3 4 5 6 
#
# 1 125.6187 38.5585 31.4820 16.9419 8.3652 -23.4786
# 2 38.5585 117.4965 17.7983 8.0729 -7.2926 -24.5656
# 3 31.4820 17.7983 34.9097 3.9926 6.9861 -11.5424
# 4 16.9419 8.0729 3.9926 32.6874 -2.6068 0.1078
# 5 8.3652 -7.2926 6.9861 -2.6068 32.2116 5.7244
# 6 -23.4786 -24.5656 -11.5424 0.1078 5.7244 38.0380
#
#
#
# Elastic Compliance Matrix: (Units=1/GPa)
#
#
# Indices 1 2 3 4 5 6 
#
# 1 0.012098 -0.001742 -0.007246 -0.005226 -0.003212 0.004641
# 2 -0.001742 0.010706 -0.002725 -0.001220 0.002545 0.004632
# 3 -0.007246 -0.002725 0.041055 -0.001336 -0.009098 0.007598
# 4 -0.005226 -0.001220 -0.001336 0.034188 0.005076 -0.005280
# 5 -0.003212 0.002545 -0.009098 0.005076 0.036365 -0.008587
# 6 0.004641 0.004632 0.007598 -0.005280 -0.008587 0.035759
#
#
# Mechanical properties :
#
#
# Convention : Reuss Voigt Hill
#
# Bulk Modulus (GPa) = 24.73359 50.41138 37.57249
# Shear Modulus (GPa) = 24.14575 33.26648 28.70612
#
# Velocity S-wave (km/s) = 3.29634 3.86914 3.59417
# Velocity P-wave (km/s) = 5.06144 6.53039 5.84227
#
# Compressibility (1/GPa) = 0.04043085
#
# Stress axis : x y z
#
# Youngs Moduli (GPa) = 82.66014 93.40783 24.35739
#
# Poissons Ratio (x) = 0.16274 0.17650
# Poissons Ratio (y) = 0.14402 0.06638
# Poissons Ratio (z) = 0.59899 0.25456
#
# Static dielectric constant tensor:
#      x y z
#    x 1.824120 -0.030930 -0.003670 
#    y -0.030930 2.131150 0.037970 
#    z -0.003670 0.037970 1.874560 
# 
# From -- ./inp_files/458408.got.cif
#   From: 2010.05.17/outbox.cif.g08.bks.cpg/sg2_230_cif.got.tgz:458408.got - 2010.06.03 11:33:40.
