data_PCOD9050410
_publ_section_title
;
Structure prediction by ZEFSAII (Michael W. Deem and Ramdas Pophale) SiO2 
 PCOD9050410
Probable space group: P -1
;
_chemical_formula_sum "Si O2"
_cell_formula_units_Z 12
_cell_length_a 8.669973
_cell_length_b 21.690243
_cell_length_c 7.187685
_cell_angle_alpha 44.934921
_cell_angle_beta 44.014957
_cell_angle_gamma 36.404876
_cell_volume 529.387047
_symmetry_space_group_name_H-M "P -1"
_symmetry_group_IT_number 2
_symmetry_cell_setting 'triclinic'
loop_
_space_group_symop_operation_xyz
x,y,z
-x,-y,-z
loop_
_atom_site_type_symbol
_atom_site_label
_atom_site_fract_x
_atom_site_fract_y
_atom_site_fract_z
Si Si1 0.789013 0.199713 0.192315
Si Si2 0.746807 0.880338 0.763203
Si Si3 0.742065 0.456599 0.233402
Si Si4 0.124106 0.058578 0.857602
Si Si5 0.100596 0.646444 0.066470
Si Si6 0.180253 0.361626 0.340693
O O1 0.470781 0.244557 0.382276
O O2 0.031165 0.118068 0.305264
O O3 0.908405 0.148772 0.997696
O O4 0.765824 0.308686 0.021682
O O5 0.814027 0.890803 0.472782
O O6 0.422397 0.972709 0.881096
O O7 0.825477 0.761157 0.984452
O O8 0.500000 0.500000 0.500000
O O9 0.013266 0.359230 0.319053
O O10 0.776735 0.550027 0.953991
O O11 0.720328 0.417227 0.134483
O O12 0.000000 0.000000 0.000000
O O13 0.005470 0.595999 0.401622
#
# Coordination Sequence:
#
# PCOD9050410 Si02
#       6
#     2   2   2   2   2   2
#     4  10  25  40  69  96 131 171 220 268 324 384
#     4   9  25  42  65  95 131 173 216 268 327 381
#     4  11  26  45  68  96 136 173 218 274 326 387
#     4  11  24  43  67  97 131 173 218 267 327 390
#     4  10  25  43  68  94 136 171 220 269 327 387
#     4  11  25  42  68 100 128 177 219 267 328 390
#
# _framework density 22.667725000000001
#
# number of rings (size 3 to 8) (size 9 to 14) (size 15 to 20)
#    1.000    0.667    0.000    2.000    9.333    7.333 
#    0.000    0.000    0.000    0.000    0.000    0.000 
#    0.000    0.000    0.000    0.000    0.000    0.000 
#
# Total GULP energy -66939.604349 kJ/mol
# GULP energy per Si atom -5578.300362 kJ/mol
# Density = 2.261613 g / cm^3
# Si number density = 22.667725 Si / 1000 Ang^3
#
#
#
# Elastic Constant Matrix: (Units=GPa)
#
#
# Indices 1 2 3 4 5 6 
#
# 1 118.1307 61.0481 35.3792 21.7717 21.1524 -16.7873
# 2 61.0481 60.4948 49.5211 27.4488 11.8415 -9.2583
# 3 35.3792 49.5211 149.1097 22.8201 18.5386 7.8695
# 4 21.7717 27.4488 22.8201 47.9026 5.7446 10.7820
# 5 21.1524 11.8415 18.5386 5.7446 24.4256 8.8613
# 6 -16.7873 -9.2583 7.8695 10.7820 8.8613 50.3774
#
#
#
# Elastic Compliance Matrix: (Units=1/GPa)
#
#
# Indices 1 2 3 4 5 6 
#
# 1 0.021290 -0.021898 0.003240 0.001826 -0.012281 0.004334
# 2 -0.021898 0.058930 -0.011844 -0.020424 0.000693 0.009633
# 3 0.003240 -0.011844 0.010320 0.001432 -0.004421 -0.002238
# 4 0.001826 -0.020424 0.001432 0.033144 0.003455 -0.011070
# 5 -0.012281 0.000693 -0.004421 0.003455 0.059005 -0.014393
# 6 0.004334 0.009633 -0.002238 -0.011070 -0.014393 0.028315
#
#
# Mechanical properties :
#
#
# Convention : Reuss Voigt Hill
#
# Bulk Modulus (GPa) = 33.85798 68.84798 51.35298
# Shear Modulus (GPa) = 17.73969 36.66023 27.19996
#
# Velocity S-wave (km/s) = 2.80053 4.02591 3.46778
# Velocity P-wave (km/s) = 5.04245 7.21452 6.22397
#
# Compressibility (1/GPa) = 0.02953513
#
# Stress axis : x y z
#
# Youngs Moduli (GPa) = 46.97093 16.96929 96.89867
#
# Poissons Ratio (x) = 0.37159 -0.31395
# Poissons Ratio (y) = 1.02856 1.14772
# Poissons Ratio (z) = -0.15218 0.20099
#
# Static dielectric constant tensor:
#      x y z
#    x 1.905130 -0.047560 -0.008180 
#    y -0.047560 1.885800 -0.025770 
#    z -0.008180 -0.025770 1.795350 
# 
# From -- ./inp_files/55324.got.cif
#   From: 2010.05.17/outbox.cif.g08.bks.cpg/sg2_28_cif.got.tgz:55324.got - 2010.06.03 11:33:40.
