data_PCOD9050245
_publ_section_title
;
Structure prediction by ZEFSAII (Michael W. Deem and Ramdas Pophale) SiO2 
 PCOD9050245
Probable space group: P -1
;
_chemical_formula_sum "Si O2"
_cell_formula_units_Z 14
_cell_length_a 5.212038
_cell_length_b 8.595424
_cell_length_c 12.719047
_cell_angle_alpha 112.534439
_cell_angle_beta 106.845055
_cell_angle_gamma 89.376111
_cell_volume 500.477077
_symmetry_space_group_name_H-M "P -1"
_symmetry_group_IT_number 2
_symmetry_cell_setting 'triclinic'
loop_
_space_group_symop_operation_xyz
x,y,z
-x,-y,-z
loop_
_atom_site_type_symbol
_atom_site_label
_atom_site_fract_x
_atom_site_fract_y
_atom_site_fract_z
Si Si1 0.244198 0.271657 0.736217
Si Si2 0.434796 0.643952 0.808576
Si Si3 0.804460 0.722161 0.594313
Si Si4 0.119763 0.328630 0.964228
Si Si5 0.791218 0.340805 0.564670
Si Si6 0.294703 0.938867 0.754599
Si Si7 0.760544 0.115863 0.983307
O O1 0.377666 0.441341 0.735598
O O2 0.282793 0.323615 0.875901
O O3 0.930553 0.274984 0.667545
O O4 0.315056 0.077405 0.698762
O O5 0.416551 0.756284 0.730604
O O6 0.710493 0.680576 0.912741
O O7 0.245807 0.730658 0.893677
O O8 0.795658 0.545468 0.612138
O O9 0.511679 0.738657 0.516237
O O10 0.004672 0.704448 0.514384
O O11 0.975151 0.878595 0.714041
O O12 0.860952 0.192783 0.902751
O O13 0.000000 0.500000 0.000000
O O14 0.459006 0.026175 0.897448
O O15 0.000000 0.000000 0.000000
#
# Coordination Sequence:
#
# PCOD9050245 Si02
#       7
#     2   2   2   2   2   2   2
#     4  12  25  44  74 106 142 193 240 300 373 432
#     4  12  24  48  64 102 154 186 238 298 352 450
#     4  10  24  49  76 105 143 190 246 309 376 439
#     4  12  24  42  68 100 144 196 239 289 359 437
#     4  10  24  49  76 105 143 190 246 309 376 439
#     4  12  25  44  74 106 142 193 240 300 373 432
#     4  12  24  42  68 100 144 196 239 289 359 437
#
# _framework density 27.973310000000001
#
# number of rings (size 3 to 8) (size 9 to 14) (size 15 to 20)
#    0.000    0.571    5.714    2.571    0.000    5.714 
#    5.143    0.000    0.000    0.000    0.000    0.000 
#    0.000    0.000    0.000    0.000    0.000    0.000 
#
# Total GULP energy -78256.266894 kJ/mol
# GULP energy per Si atom -5589.733350 kJ/mol
# Density = 2.790964 g / cm^3
# Si number density = 27.973310 Si / 1000 Ang^3
#
#
#
# Elastic Constant Matrix: (Units=GPa)
#
#
# Indices 1 2 3 4 5 6 
#
# 1 125.9684 51.8073 53.8383 7.8113 36.2930 -21.8624
# 2 51.8073 228.6009 51.4526 -8.2669 19.5774 -16.9374
# 3 53.8383 51.4526 144.3910 -0.5245 45.3082 -3.4819
# 4 7.8113 -8.2669 -0.5245 41.9703 -11.4379 11.2768
# 5 36.2930 19.5774 45.3082 -11.4379 59.7586 3.7426
# 6 -21.8624 -16.9374 -3.4819 11.2768 3.7426 37.4880
#
#
#
# Elastic Compliance Matrix: (Units=1/GPa)
#
#
# Indices 1 2 3 4 5 6 
#
# 1 0.014424 -0.001590 -0.001657 -0.008517 -0.009304 0.011030
# 2 -0.001590 0.005103 -0.001357 0.001193 0.000498 0.000844
# 3 -0.001657 -0.001357 0.010098 -0.001773 -0.006579 0.000548
# 4 -0.008517 0.001193 -0.001773 0.033640 0.013571 -0.016067
# 5 -0.009304 0.000498 -0.006579 0.013571 0.030618 -0.012951
# 6 0.011030 0.000844 0.000548 -0.016067 -0.012951 0.039666
#
#
# Mechanical properties :
#
#
# Convention : Reuss Voigt Hill
#
# Bulk Modulus (GPa) = 48.97962 90.35074 69.66518
# Shear Modulus (GPa) = 33.43060 50.63419 42.03240
#
# Velocity S-wave (km/s) = 3.46076 4.25913 3.88053
# Velocity P-wave (km/s) = 5.78935 7.52037 6.71090
#
# Compressibility (1/GPa) = 0.02041666
#
# Stress axis : x y z
#
# Youngs Moduli (GPa) = 69.33064 195.95408 99.02493
#
# Poissons Ratio (x) = 0.31153 0.16410
# Poissons Ratio (y) = 0.11022 0.13442
# Poissons Ratio (z) = 0.11489 0.26599
#
# Static dielectric constant tensor:
#      x y z
#    x 2.203940 0.037900 0.020450 
#    y 0.037900 2.238640 0.035410 
#    z 0.020450 0.035410 2.168420 
# 
# From -- ./inp_files/40240.got.cif
#   From: 2010.05.17/outbox.cif.g08.bks.cpg/sg2_21_cif.got.tgz:40240.got - 2010.06.03 11:33:40.
