data_PCOD9050386
_publ_section_title
;
Structure prediction by ZEFSAII (Michael W. Deem and Ramdas Pophale) SiO2 
 PCOD9050386
Probable space group: P -1
;
_chemical_formula_sum "Si O2"
_cell_formula_units_Z 14
_cell_length_a 15.573867
_cell_length_b 6.896520
_cell_length_c 15.787973
_cell_angle_alpha 134.173765
_cell_angle_beta 25.933467
_cell_angle_gamma 140.670309
_cell_volume 469.996760
_symmetry_space_group_name_H-M "P -1"
_symmetry_group_IT_number 2
_symmetry_cell_setting 'triclinic'
loop_
_space_group_symop_operation_xyz
x,y,z
-x,-y,-z
loop_
_atom_site_type_symbol
_atom_site_label
_atom_site_fract_x
_atom_site_fract_y
_atom_site_fract_z
Si Si1 0.722780 0.511191 0.841760
Si Si2 0.945110 0.590114 0.417915
Si Si3 0.831057 0.138174 0.155756
Si Si4 0.479815 0.456772 0.816886
Si Si5 0.551098 0.325694 0.267558
Si Si6 0.649499 0.907703 0.450540
Si Si7 0.113419 0.836964 0.160475
O O1 0.892440 0.867709 0.781661
O O2 0.632792 0.392205 0.981393
O O3 0.500000 0.500000 0.000000
O O4 0.868672 0.337383 0.653822
O O5 0.728094 0.546415 0.648733
O O6 0.844394 0.245237 0.361790
O O7 0.038288 0.796495 0.313866
O O8 0.711746 0.894615 0.112289
O O9 0.483399 0.461477 0.289089
O O10 0.974197 0.501336 0.138839
O O11 0.000000 0.000000 0.000000
O O12 0.413955 0.868438 0.610168
O O13 0.694119 0.641501 0.290556
O O14 0.385027 0.136248 0.431289
O O15 0.648443 0.132704 0.071860
#
# Coordination Sequence:
#
# PCOD9050386 Si02
#       7
#     2   2   2   2   2   2   2
#     4  12  30  53  74 103 139 190 259 314 359 420
#     4  11  25  47  73 108 144 188 240 300 364 437
#     4  11  21  42  67 111 152 188 226 284 358 442
#     4  11  24  47  71 106 153 187 231 304 363 437
#     4  11  22  41  67 108 154 193 233 282 359 442
#     4  10  25  38  68 115 159 190 232 285 358 451
#     4  12  25  43  78 105 145 196 237 291 372 433
#
# _framework density 29.78744
#
# number of rings (size 3 to 8) (size 9 to 14) (size 15 to 20)
#    0.000    0.857    2.857    3.429    8.000    4.571 
#    0.000    0.714    0.000    0.000    0.000    0.000 
#    0.000    0.000    0.000    0.000    0.000    0.000 
#
# Total GULP energy -77952.223347 kJ/mol
# GULP energy per Si atom -5568.015953 kJ/mol
# Density = 2.971964 g / cm^3
# Si number density = 29.787440 Si / 1000 Ang^3
#
#
#
# Elastic Constant Matrix: (Units=GPa)
#
#
# Indices 1 2 3 4 5 6 
#
# 1 109.7997 24.5128 45.7584 -30.7029 -11.2272 -17.8974
# 2 24.5128 135.6045 22.6002 -14.0910 -6.5795 -0.8757
# 3 45.7584 22.6002 107.5780 -21.1158 16.9601 -0.7554
# 4 -30.7029 -14.0910 -21.1158 40.0881 -1.7537 2.7965
# 5 -11.2272 -6.5795 16.9601 -1.7537 59.9638 -10.6204
# 6 -17.8974 -0.8757 -0.7554 2.7965 -10.6204 33.9269
#
#
#
# Elastic Compliance Matrix: (Units=1/GPa)
#
#
# Indices 1 2 3 4 5 6 
#
# 1 0.016657 -0.000658 -0.006218 0.008850 0.006843 0.010045
# 2 -0.000658 0.007931 -0.001239 0.001678 0.001156 0.000053
# 3 -0.006218 -0.001239 0.013497 0.002003 -0.005952 -0.005040
# 4 0.008850 0.001678 0.002003 0.033287 0.002757 0.002876
# 5 0.006843 0.001156 -0.005952 0.002757 0.021629 0.010051
# 6 0.010045 0.000053 -0.005040 0.002876 0.010051 0.037572
#
#
# Mechanical properties :
#
#
# Convention : Reuss Voigt Hill
#
# Bulk Modulus (GPa) = 45.75709 59.85832 52.80770
# Shear Modulus (GPa) = 32.44888 44.13649 38.29268
#
# Velocity S-wave (km/s) = 3.30411 3.85348 3.58932
# Velocity P-wave (km/s) = 5.47272 6.31964 5.91137
#
# Compressibility (1/GPa) = 0.02185454
#
# Stress axis : x y z
#
# Youngs Moduli (GPa) = 60.03309 126.09415 74.09208
#
# Poissons Ratio (x) = 0.08300 0.46073
# Poissons Ratio (y) = 0.03952 0.09177
# Poissons Ratio (z) = 0.37330 0.15618
#
# Static dielectric constant tensor:
#      x y z
#    x 2.524930 0.028420 -0.094310 
#    y 0.028420 2.353790 -0.040870 
#    z -0.094310 -0.040870 2.329610 
# 
# From -- ./inp_files/575094.got.cif
#   From: 2010.05.17/outbox.cif.g08.bks.cpg/sg2_288_cif.got.tgz:575094.got - 2010.06.03 11:33:40.
