data_PCOD9050460
_publ_section_title
;
Structure prediction by ZEFSAII (Michael W. Deem and Ramdas Pophale) SiO2 
 PCOD9050460
Probable space group: P -1
;
_chemical_formula_sum "Si O2"
_cell_formula_units_Z 16
_cell_length_a 19.422793
_cell_length_b 7.384221
_cell_length_c 8.296838
_cell_angle_alpha 93.590127
_cell_angle_beta 42.737583
_cell_angle_gamma 70.407875
_cell_volume 666.105196
_symmetry_space_group_name_H-M "P -1"
_symmetry_group_IT_number 2
_symmetry_cell_setting 'triclinic'
loop_
_space_group_symop_operation_xyz
x,y,z
-x,-y,-z
loop_
_atom_site_type_symbol
_atom_site_label
_atom_site_fract_x
_atom_site_fract_y
_atom_site_fract_z
Si Si1 0.139140 0.024741 0.529687
Si Si2 0.306510 0.543044 0.972034
Si Si3 0.275950 0.529600 0.361788
Si Si4 0.394189 0.274795 0.467604
Si Si5 0.323664 0.961839 0.004664
Si Si6 0.206332 0.215435 0.892365
Si Si7 0.948292 0.361041 0.656254
Si Si8 0.007157 0.691649 0.922638
O O1 0.036534 0.137463 0.848671
O O2 0.056179 0.121853 0.515762
O O3 0.230762 0.779686 0.420896
O O4 0.236559 0.083220 0.316075
O O5 0.349974 0.414670 0.061902
O O6 0.325906 0.741023 0.951950
O O7 0.160886 0.639112 0.239724
O O8 0.361161 0.405020 0.704956
O O9 0.349292 0.428312 0.395334
O O10 0.142351 0.572351 0.615135
O O11 0.320997 0.157059 0.583380
O O12 0.539492 0.111050 0.207756
O O13 0.262253 0.113749 0.963295
O O14 0.104647 0.176363 0.005998
O O15 0.126843 0.479479 0.055923
O O16 0.000000 0.500000 0.500000
O O17 0.000000 0.500000 0.000000
#
# Coordination Sequence:
#
# PCOD9050460 Si02
#       8
#     2   2   2   2   2   2   2   2
#     4  11  25  39  65 100 130 174 209 274 335 385
#     4  10  25  41  71  96 124 180 220 268 334 379
#     4  11  25  43  67 100 133 168 220 275 326 396
#     4  11  24  48  65  92 137 178 220 273 321 380
#     4  11  25  44  65  96 129 177 229 263 318 397
#     4  11  23  39  67  94 130 174 216 271 326 388
#     4  11  20  39  64  94 134 163 208 269 332 393
#     4  12  22  40  65 100 134 164 216 270 337 393
#
# _framework density 24.020230999999999
#
# number of rings (size 3 to 8) (size 9 to 14) (size 15 to 20)
#    0.000    1.000    3.750    2.625    3.500    3.000 
#    2.250    0.625    0.000    0.000    0.000    0.000 
#    0.000    0.000    0.000    0.000    0.000    0.000 
#
# Total GULP energy -89171.246165 kJ/mol
# GULP energy per Si atom -5573.202885 kJ/mol
# Density = 2.396556 g / cm^3
# Si number density = 24.020231 Si / 1000 Ang^3
#
#
#
# Elastic Constant Matrix: (Units=GPa)
#
#
# Indices 1 2 3 4 5 6 
#
# 1 84.7611 37.9149 38.1546 -0.1601 0.9752 -37.6733
# 2 37.9149 104.6777 37.1140 -10.5377 6.5862 -39.8790
# 3 38.1546 37.1140 93.0962 2.5597 -5.6917 -24.9930
# 4 -0.1601 -10.5377 2.5597 21.3444 -10.4834 5.6503
# 5 0.9752 6.5862 -5.6917 -10.4834 40.5865 -0.9534
# 6 -37.6733 -39.8790 -24.9930 5.6503 -0.9534 42.6005
#
#
#
# Elastic Compliance Matrix: (Units=1/GPa)
#
#
# Indices 1 2 3 4 5 6 
#
# 1 0.021183 -0.000215 -0.004088 -0.004818 -0.001899 0.016729
# 2 -0.000215 0.015976 -0.003197 0.004198 -0.001663 0.012295
# 3 -0.004088 -0.003197 0.014526 -0.003029 0.001927 0.002359
# 4 -0.004818 0.004198 -0.003029 0.058625 0.013928 -0.009573
# 5 -0.001899 -0.001663 0.001927 0.013928 0.028744 -0.003309
# 6 0.016729 0.012295 0.002359 -0.009573 -0.003309 0.052358
#
#
# Mechanical properties :
#
#
# Convention : Reuss Voigt Hill
#
# Bulk Modulus (GPa) = 27.25983 56.54469 41.90226
# Shear Modulus (GPa) = 22.86862 32.19639 27.53250
#
# Velocity S-wave (km/s) = 3.08889 3.66510 3.38926
# Velocity P-wave (km/s) = 4.90866 6.44222 5.72700
#
# Compressibility (1/GPa) = 0.03668402
#
# Stress axis : x y z
#
# Youngs Moduli (GPa) = 47.20822 62.59411 68.84215
#
# Poissons Ratio (x) = 0.01347 0.28143
# Poissons Ratio (y) = 0.01016 0.22009
# Poissons Ratio (z) = 0.19299 0.20011
#
# Static dielectric constant tensor:
#      x y z
#    x 2.125390 0.061080 0.095280 
#    y 0.061080 1.928310 -0.012080 
#    z 0.095280 -0.012080 2.029220 
# 
# From -- ./inp_files/343507.got.cif
#   From: 2010.05.17/outbox.cif.g08.bks.cpg/sg2_172_cif.got.tgz:343507.got - 2010.06.03 11:33:40.
