data_PCOD9050473
_publ_section_title
;
Structure prediction by ZEFSAII (Michael W. Deem and Ramdas Pophale) SiO2 
 PCOD9050473
Probable space group: P -1
;
_chemical_formula_sum "Si O2"
_cell_formula_units_Z 14
_cell_length_a 8.955622
_cell_length_b 4.767248
_cell_length_c 15.064746
_cell_angle_alpha 101.968255
_cell_angle_beta 65.874990
_cell_angle_gamma 74.126413
_cell_volume 525.970276
_symmetry_space_group_name_H-M "P -1"
_symmetry_group_IT_number 2
_symmetry_cell_setting 'triclinic'
loop_
_space_group_symop_operation_xyz
x,y,z
-x,-y,-z
loop_
_atom_site_type_symbol
_atom_site_label
_atom_site_fract_x
_atom_site_fract_y
_atom_site_fract_z
Si Si1 0.956882 0.355292 0.874821
Si Si2 0.419994 0.422172 0.604891
Si Si3 0.257341 0.207053 0.487417
Si Si4 0.131857 0.640621 0.381927
Si Si5 0.593827 0.625212 0.060880
Si Si6 0.793940 0.273023 0.162208
Si Si7 0.780364 0.003615 0.764548
O O1 0.090859 0.520353 0.832334
O O2 0.889011 0.150789 0.810323
O O3 0.069940 0.087319 0.900115
O O4 0.771426 0.623827 0.971909
O O5 0.500000 0.500000 0.500000
O O6 0.269446 0.334683 0.590262
O O7 0.335010 0.679009 0.717683
O O8 0.566453 0.103855 0.587096
O O9 0.234382 0.457562 0.432279
O O10 0.074494 0.161813 0.532185
O O11 0.222417 0.824881 0.316196
O O12 0.130101 0.361743 0.299821
O O13 0.673640 0.405992 0.112999
O O14 0.422567 0.925808 0.152839
O O15 0.500000 0.500000 0.000000
#
# Coordination Sequence:
#
# PCOD9050473 Si02
#       7
#     2   2   2   2   2   2   2
#     4  11  25  46  73 106 140 181 237 286 354 423
#     4  11  26  42  69 100 143 185 239 284 346 413
#     4  10  25  42  63 100 139 183 241 290 336 412
#     4  11  25  42  70  99 140 190 234 285 350 410
#     4  10  25  47  74 107 141 179 233 293 355 421
#     4  12  26  46  74 101 143 186 231 290 352 415
#     4  11  24  44  69 103 142 182 233 286 355 414
#
# _framework density 26.617474000000001
#
# number of rings (size 3 to 8) (size 9 to 14) (size 15 to 20)
#    0.000    1.143    0.000    4.286   12.000    3.429 
#    0.000    7.857    0.000    0.000    0.000    0.000 
#    0.000    0.000    0.000    0.000    0.000    0.000 
#
# Total GULP energy -78423.903058 kJ/mol
# GULP energy per Si atom -5601.707361 kJ/mol
# Density = 2.655689 g / cm^3
# Si number density = 26.617474 Si / 1000 Ang^3
#
#
#
# Elastic Constant Matrix: (Units=GPa)
#
#
# Indices 1 2 3 4 5 6 
#
# 1 150.2752 33.8129 53.0439 1.1779 11.7705 -25.4003
# 2 33.8129 74.6544 4.2122 -1.5251 -19.9035 -6.0797
# 3 53.0439 4.2122 108.4643 0.3796 -14.9116 -8.9949
# 4 1.1779 -1.5251 0.3796 33.3749 -9.8830 -3.9248
# 5 11.7705 -19.9035 -14.9116 -9.8830 41.7206 3.4496
# 6 -25.4003 -6.0797 -8.9949 -3.9248 3.4496 49.3658
#
#
#
# Elastic Compliance Matrix: (Units=1/GPa)
#
#
# Indices 1 2 3 4 5 6 
#
# 1 0.012586 -0.007933 -0.006959 -0.003437 -0.011027 0.004728
# 2 -0.007933 0.020825 0.005068 0.005593 0.015411 -0.001226
# 3 -0.006959 0.005068 0.013731 0.003213 0.010125 -0.000906
# 4 -0.003437 0.005593 0.003213 0.034247 0.012788 0.001335
# 5 -0.011027 0.015411 0.010125 0.012788 0.041395 -0.003807
# 6 0.004728 -0.001226 -0.000906 0.001335 -0.003807 0.022746
#
#
# Mechanical properties :
#
#
# Convention : Reuss Voigt Hill
#
# Bulk Modulus (GPa) = 36.36966 57.28135 46.82550
# Shear Modulus (GPa) = 28.67930 41.04726 34.86328
#
# Velocity S-wave (km/s) = 3.28603 3.93124 3.62303
# Velocity P-wave (km/s) = 5.30008 6.49408 5.92722
#
# Compressibility (1/GPa) = 0.02749545
#
# Stress axis : x y z
#
# Youngs Moduli (GPa) = 79.45633 48.01875 72.82538
#
# Poissons Ratio (x) = 0.38093 0.50677
# Poissons Ratio (y) = 0.63032 -0.36910
# Poissons Ratio (z) = 0.55292 -0.24337
#
# Static dielectric constant tensor:
#      x y z
#    x 2.156500 0.074520 0.057420 
#    y 0.074520 2.022840 -0.007280 
#    z 0.057420 -0.007280 2.109530 
# 
# From -- ./inp_files/487820.got.cif
#   From: 2010.05.17/outbox.cif.g08.bks.cpg/sg2_244_cif.got.tgz:487820.got - 2010.06.03 11:33:40.
