data_PCOD9050510
_publ_section_title
;
Structure prediction by ZEFSAII (Michael W. Deem and Ramdas Pophale) SiO2 
 PCOD9050510
Probable space group: P -1
;
_chemical_formula_sum "Si O2"
_cell_formula_units_Z 15
_cell_length_a 11.463536
_cell_length_b 13.952296
_cell_length_c 12.044764
_cell_angle_alpha 131.775354
_cell_angle_beta 55.501049
_cell_angle_gamma 149.349241
_cell_volume 732.314921
_symmetry_space_group_name_H-M "P -1"
_symmetry_group_IT_number 2
_symmetry_cell_setting 'triclinic'
loop_
_space_group_symop_operation_xyz
x,y,z
-x,-y,-z
loop_
_atom_site_type_symbol
_atom_site_label
_atom_site_fract_x
_atom_site_fract_y
_atom_site_fract_z
Si Si1 0.522351 0.817518 0.401681
Si Si2 0.983047 0.040622 0.414980
Si Si3 0.313011 0.919194 0.697119
Si Si4 0.367788 0.992669 0.979715
Si Si5 0.804194 0.657446 0.811515
Si Si6 0.484712 0.364987 0.175971
Si Si7 0.500000 0.500000 0.500000
Si Si8 0.126417 0.284820 0.926879
O O1 0.365190 0.815037 0.540532
O O2 0.390606 0.588389 0.295300
O O3 0.573965 0.902001 0.313829
O O4 0.761882 0.972742 0.458744
O O5 0.226489 0.279977 0.444801
O O6 0.000000 0.000000 0.500000
O O7 0.941412 0.890600 0.239695
O O8 0.047318 0.769593 0.734726
O O9 0.406678 0.991116 0.827699
O O10 0.440685 0.191852 0.110273
O O11 0.500000 0.000000 0.000000
O O12 0.099489 0.790474 0.995370
O O13 0.741959 0.737773 0.836421
O O14 0.800059 0.691856 0.969315
O O15 0.570389 0.512563 0.344751
O O16 0.674772 0.503370 0.084275
#
# Coordination Sequence:
#
# PCOD9050510 Si02
#       8
#     2   2   2   2   2   2   1   2
#     4  11  23  44  70  99 140 176 223 277 338 398
#     4  12  24  41  68 101 139 175 223 280 336 397
#     4  10  25  42  67  99 138 181 221 270 341 404
#     4  11  27  44  64  95 139 180 225 277 335 403
#     4  11  23  42  71 105 132 173 227 283 330 403
#     4  12  24  41  70 100 133 178 228 277 337 397
#     4  12  24  40  62 104 132 172 224 272 332 396
#     4  11  24  42  70 101 133 175 223 281 338 396
#
# _framework density 20.482990000000001
#
# number of rings (size 3 to 8) (size 9 to 14) (size 15 to 20)
#    0.000    0.800    4.000    2.400    3.733    2.667 
#    0.000    5.333    0.000    0.000    0.000    0.000 
#    0.000    0.000    0.000    0.000    0.000    0.000 
#
# Total GULP energy -83626.278871 kJ/mol
# GULP energy per Si atom -5575.085258 kJ/mol
# Density = 2.043637 g / cm^3
# Si number density = 20.482990 Si / 1000 Ang^3
#
#
#
# Elastic Constant Matrix: (Units=GPa)
#
#
# Indices 1 2 3 4 5 6 
#
# 1 166.9883 42.7067 50.0933 -6.8994 10.8253 -2.9175
# 2 42.7067 88.6484 24.7481 -14.0840 2.4180 7.8008
# 3 50.0933 24.7481 75.4212 -22.1855 15.0912 4.1557
# 4 -6.8994 -14.0840 -22.1855 36.0759 -4.3465 6.3265
# 5 10.8253 2.4180 15.0912 -4.3465 27.6265 1.5317
# 6 -2.9175 7.8008 4.1557 6.3265 1.5317 24.7928
#
#
#
# Elastic Compliance Matrix: (Units=1/GPa)
#
#
# Indices 1 2 3 4 5 6 
#
# 1 0.008596 -0.003516 -0.005863 -0.004162 -0.000746 0.004209
# 2 -0.003516 0.014648 -0.000713 0.005969 0.001787 -0.006537
# 3 -0.005863 -0.000713 0.023248 0.013222 -0.007857 -0.007251
# 4 -0.004162 0.005969 0.013222 0.040118 0.001023 -0.014885
# 5 -0.000746 0.001787 -0.007857 0.001023 0.040904 -0.002121
# 6 0.004209 -0.006537 -0.007251 -0.014885 -0.002121 0.048031
#
#
# Mechanical properties :
#
#
# Convention : Reuss Voigt Hill
#
# Bulk Modulus (GPa) = 38.00875 62.90600 50.45737
# Shear Modulus (GPa) = 24.45022 31.93303 28.19162
#
# Velocity S-wave (km/s) = 3.45872 3.95270 3.71393
# Velocity P-wave (km/s) = 5.87766 7.18400 6.56341
#
# Compressibility (1/GPa) = 0.02630973
#
# Stress axis : x y z
#
# Youngs Moduli (GPa) = 116.33039 68.26809 43.01525
#
# Poissons Ratio (x) = 0.24002 0.25218
# Poissons Ratio (y) = 0.40899 0.03066
# Poissons Ratio (z) = 0.68200 0.04866
#
# Static dielectric constant tensor:
#      x y z
#    x 1.709290 0.011060 -0.004010 
#    y 0.011060 1.739000 -0.008970 
#    z -0.004010 -0.008970 1.740750 
# 
# From -- ./inp_files/433310.got.cif
#   From: 2010.05.17/outbox.cif.g08.bks.cpg/sg2_217_cif.got.tgz:433310.got - 2010.06.03 11:33:40.
