data_PCOD9050370
_publ_section_title
;
Structure prediction by ZEFSAII (Michael W. Deem and Ramdas Pophale) SiO2 
 PCOD9050370
Probable space group: P -1
;
_chemical_formula_sum "Si O2"
_cell_formula_units_Z 16
_cell_length_a 11.975852
_cell_length_b 11.715041
_cell_length_c 8.314072
_cell_angle_alpha 55.339271
_cell_angle_beta 43.372822
_cell_angle_gamma 45.814788
_cell_volume 569.840735
_symmetry_space_group_name_H-M "P -1"
_symmetry_group_IT_number 2
_symmetry_cell_setting 'triclinic'
loop_
_space_group_symop_operation_xyz
x,y,z
-x,-y,-z
loop_
_atom_site_type_symbol
_atom_site_label
_atom_site_fract_x
_atom_site_fract_y
_atom_site_fract_z
Si Si1 0.586939 0.776534 0.625993
Si Si2 0.146661 0.564566 0.262952
Si Si3 0.025341 0.347830 0.186370
Si Si4 0.363938 0.860246 0.466564
Si Si5 0.416361 0.222965 0.017080
Si Si6 0.055513 0.897959 0.254535
Si Si7 0.910195 0.808010 0.080981
Si Si8 0.687523 0.317126 0.588281
O O1 0.444920 0.823475 0.589424
O O2 0.744577 0.809361 0.357504
O O3 0.486818 0.355043 0.835440
O O4 0.669341 0.590412 0.736967
O O5 0.121085 0.726084 0.244564
O O6 0.090302 0.641898 0.083107
O O7 0.000000 0.500000 0.500000
O O8 0.188985 0.599617 0.584473
O O9 0.193170 0.296520 0.178041
O O10 0.099017 0.208835 0.086951
O O11 0.000000 0.500000 0.000000
O O12 0.493133 0.861358 0.182387
O O13 0.328440 0.718921 0.551949
O O14 0.164250 0.019372 0.547474
O O15 0.475458 0.141251 0.197320
O O16 0.916800 0.969358 0.972652
O O17 0.175498 0.851766 0.329764
#
# Coordination Sequence:
#
# PCOD9050370 Si02
#       8
#     2   2   2   2   2   2   2   2
#     4  11  24  52  84 125 171 228 283 362 436 522
#     4  10  26  47  79 120 167 221 291 350 432 526
#     4  12  25  46  84 121 172 231 284 360 441 516
#     4  10  24  52  84 121 172 221 287 362 432 510
#     4  10  25  50  80 128 167 222 290 354 429 517
#     4  12  25  51  84 122 166 231 284 363 437 517
#     4  11  23  47  79 119 163 218 292 350 433 514
#     4  10  26  50  79 122 169 220 289 358 429 510
#
# _framework density 28.078023000000002
#
# number of rings (size 3 to 8) (size 9 to 14) (size 15 to 20)
#    0.750    0.500    2.500    1.500    7.000    2.500 
#    4.500    6.250    0.000    1.500    0.000    0.000 
#    0.000    0.000    0.000    0.000    0.000    0.000 
#
# Total GULP energy -89432.871016 kJ/mol
# GULP energy per Si atom -5589.554439 kJ/mol
# Density = 2.801412 g / cm^3
# Si number density = 28.078023 Si / 1000 Ang^3
#
#
#
# Elastic Constant Matrix: (Units=GPa)
#
#
# Indices 1 2 3 4 5 6 
#
# 1 198.3878 40.0645 75.2262 -0.1819 18.1026 -10.7043
# 2 40.0645 127.9900 57.0246 -24.2276 4.4843 13.6125
# 3 75.2262 57.0246 159.6587 -15.9110 0.9770 11.7741
# 4 -0.1819 -24.2276 -15.9110 60.7358 13.2144 3.1044
# 5 18.1026 4.4843 0.9770 13.2144 60.1609 -8.9618
# 6 -10.7043 13.6125 11.7741 3.1044 -8.9618 37.1300
#
#
#
# Elastic Compliance Matrix: (Units=1/GPa)
#
#
# Indices 1 2 3 4 5 6 
#
# 1 0.006738 -0.001271 -0.003071 -0.001207 -0.001140 0.003208
# 2 -0.001271 0.010629 -0.002445 0.004239 -0.001944 -0.004311
# 3 -0.003071 -0.002445 0.008941 0.001460 0.000209 -0.002896
# 4 -0.001207 0.004239 0.001460 0.019922 -0.005137 -0.005271
# 5 -0.001140 -0.001944 0.000209 -0.005137 0.019030 0.005340
# 6 0.003208 -0.004311 -0.002896 -0.005271 0.005340 0.032086
#
#
# Mechanical properties :
#
#
# Convention : Reuss Voigt Hill
#
# Bulk Modulus (GPa) = 78.52479 92.29635 85.41057
# Shear Modulus (GPa) = 43.41609 52.52009 47.96809
#
# Velocity S-wave (km/s) = 3.93652 4.32963 4.13775
# Velocity P-wave (km/s) = 6.97775 7.61163 7.30157
#
# Compressibility (1/GPa) = 0.01273483
#
# Stress axis : x y z
#
# Youngs Moduli (GPa) = 148.42210 94.07814 111.84018
#
# Poissons Ratio (x) = 0.11955 0.34341
# Poissons Ratio (y) = 0.18860 0.27350
# Poissons Ratio (z) = 0.45574 0.23007
#
# Static dielectric constant tensor:
#      x y z
#    x 2.382320 0.106020 0.045850 
#    y 0.106020 2.225240 0.089440 
#    z 0.045850 0.089440 2.238970 
# 
# From -- ./inp_files/262298.got.cif
#   From: 2010.05.17/outbox.cif.g08.bks.cpg/sg2_132_cif.got.tgz:262298.got - 2010.06.03 11:33:40.
