data_PCOD9050430
_publ_section_title
;
Structure prediction by ZEFSAII (Michael W. Deem and Ramdas Pophale) SiO2 
 PCOD9050430
Probable space group: P -1
;
_chemical_formula_sum "Si O2"
_cell_formula_units_Z 14
_cell_length_a 13.939315
_cell_length_b 13.856281
_cell_length_c 7.113460
_cell_angle_alpha 81.805886
_cell_angle_beta 81.840474
_cell_angle_gamma 149.406553
_cell_volume 588.937951
_symmetry_space_group_name_H-M "P -1"
_symmetry_group_IT_number 2
_symmetry_cell_setting 'triclinic'
loop_
_space_group_symop_operation_xyz
x,y,z
-x,-y,-z
loop_
_atom_site_type_symbol
_atom_site_label
_atom_site_fract_x
_atom_site_fract_y
_atom_site_fract_z
Si Si1 0.377283 0.499468 0.624488
Si Si2 0.749285 0.208644 0.946863
Si Si3 0.282064 0.975782 0.262509
Si Si4 0.891207 0.304428 0.289243
Si Si5 0.465589 0.387610 0.829019
Si Si6 0.056782 0.975207 0.325044
Si Si7 0.275800 0.515569 0.009228
O O1 0.496130 0.526077 0.714074
O O2 0.526571 0.663029 0.358384
O O3 0.302722 0.513971 0.784037
O O4 0.163322 0.253382 0.663852
O O5 0.816664 0.164013 0.856661
O O6 0.935390 0.454974 0.764093
O O7 0.760042 0.220090 0.165893
O O8 0.500000 0.000000 0.000000
O O9 0.259560 0.873544 0.455305
O O10 0.161465 0.966240 0.362532
O O11 0.530920 0.231872 0.076018
O O12 0.045237 0.353691 0.168653
O O13 0.239086 0.177035 0.067061
O O14 0.657660 0.515872 0.869191
O O15 0.000000 0.000000 0.500000
#
# Coordination Sequence:
#
# PCOD9050430 Si02
#       7
#     2   2   2   2   2   2   2
#     4  11  24  41  65  96 137 194 236 285 352 398
#     4  11  24  50  73 107 139 175 232 293 352 423
#     4  11  25  45  69 105 139 185 231 288 352 416
#     4  11  25  46  77 100 141 183 226 290 358 420
#     4  10  25  41  65  95 137 186 234 293 335 408
#     4  11  26  44  67 100 143 188 238 287 345 411
#     4  11  24  43  67 103 140 181 237 286 347 421
#
# _framework density 23.771604
#
# number of rings (size 3 to 8) (size 9 to 14) (size 15 to 20)
#    0.000    1.143    1.429    3.000   12.000    4.000 
#    5.143    0.000    0.000    0.000    0.000    0.000 
#    0.000    0.000    0.000    0.000    0.000    0.000 
#
# Total GULP energy -78327.803547 kJ/mol
# GULP energy per Si atom -5594.843110 kJ/mol
# Density = 2.371750 g / cm^3
# Si number density = 23.771604 Si / 1000 Ang^3
#
#
#
# Elastic Constant Matrix: (Units=GPa)
#
#
# Indices 1 2 3 4 5 6 
#
# 1 73.1485 38.6442 30.2753 -0.2405 -7.2542 5.6057
# 2 38.6442 83.8328 42.2741 11.1363 9.5156 2.2597
# 3 30.2753 42.2741 136.0776 0.6923 -4.4388 -6.8975
# 4 -0.2405 11.1363 0.6923 32.6400 -6.8776 -10.6237
# 5 -7.2542 9.5156 -4.4388 -6.8776 43.8677 8.3843
# 6 5.6057 2.2597 -6.8975 -10.6237 8.3843 45.1450
#
#
#
# Elastic Compliance Matrix: (Units=1/GPa)
#
#
# Indices 1 2 3 4 5 6 
#
# 1 0.020308 -0.009877 -0.001385 0.004108 0.006478 -0.002475
# 2 -0.009877 0.020929 -0.004575 -0.009166 -0.007840 -0.001221
# 3 -0.001385 -0.004575 0.009225 0.002379 0.001676 0.002059
# 4 0.004108 -0.009166 0.002379 0.037848 0.007341 0.007855
# 5 0.006478 -0.007840 0.001676 0.007341 0.027566 -0.003548
# 6 -0.002475 -0.001221 0.002059 0.007855 -0.003548 0.025341
#
#
# Mechanical properties :
#
#
# Convention : Reuss Voigt Hill
#
# Bulk Modulus (GPa) = 53.22723 57.27178 55.24951
# Shear Modulus (GPa) = 27.90890 36.45489 32.18190
#
# Velocity S-wave (km/s) = 3.43015 3.92030 3.68339
# Velocity P-wave (km/s) = 6.17476 6.68106 6.43289
#
# Compressibility (1/GPa) = 0.01878738
#
# Stress axis : x y z
#
# Youngs Moduli (GPa) = 49.24255 47.78029 108.39918
#
# Poissons Ratio (x) = 0.47193 0.15011
# Poissons Ratio (y) = 0.48638 0.49596
# Poissons Ratio (z) = 0.06819 0.21861
#
# Static dielectric constant tensor:
#      x y z
#    x 1.986080 0.000420 -0.022990 
#    y 0.000420 1.904520 0.006180 
#    z -0.022990 0.006180 1.910140 
# 
# From -- ./inp_files/97953.got.cif
#   From: 2010.05.17/outbox.cif.g08.bks.cpg/sg2_49_cif.got.tgz:97953.got - 2010.06.03 11:33:40.
