data_PCOD9050416
_publ_section_title
;
Structure prediction by ZEFSAII (Michael W. Deem and Ramdas Pophale) SiO2 
 PCOD9050416
Probable space group: P -1
;
_chemical_formula_sum "Si O2"
_cell_formula_units_Z 14
_cell_length_a 10.911871
_cell_length_b 9.882755
_cell_length_c 12.311498
_cell_angle_alpha 53.409499
_cell_angle_beta 35.898903
_cell_angle_gamma 66.661311
_cell_volume 614.367704
_symmetry_space_group_name_H-M "P -1"
_symmetry_group_IT_number 2
_symmetry_cell_setting 'triclinic'
loop_
_space_group_symop_operation_xyz
x,y,z
-x,-y,-z
loop_
_atom_site_type_symbol
_atom_site_label
_atom_site_fract_x
_atom_site_fract_y
_atom_site_fract_z
Si Si1 0.962097 0.432567 0.817056
Si Si2 0.145903 0.373922 0.005788
Si Si3 0.598682 0.343313 0.952536
Si Si4 0.980913 0.902098 0.921267
Si Si5 0.383598 0.565474 0.349348
Si Si6 0.588813 0.818814 0.507649
Si Si7 0.434395 0.970683 0.754578
O O1 0.828404 0.369497 0.835603
O O2 0.010658 0.264500 0.927454
O O3 0.180661 0.562565 0.571416
O O4 0.830731 0.548256 0.927727
O O5 0.040059 0.181327 0.143522
O O6 0.385878 0.385045 0.784565
O O7 0.000000 0.500000 0.000000
O O8 0.621691 0.345237 0.805727
O O9 0.500000 0.500000 0.000000
O O10 0.477556 0.151683 0.164936
O O11 0.779499 0.984095 0.061741
O O12 0.187581 0.049548 0.709955
O O13 0.364191 0.366712 0.430034
O O14 0.476643 0.851274 0.458220
O O15 0.443416 0.851193 0.697394
#
# Coordination Sequence:
#
# PCOD9050416 Si02
#       7
#     2   2   2   2   2   2   2
#     4  11  22  41  65  95 132 169 218 267 316 387
#     4  10  25  41  62  96 136 172 211 268 322 384
#     4  12  22  41  67  95 137 170 207 273 327 379
#     4  11  23  40  65  97 133 164 215 268 327 370
#     4  12  24  42  68  99 128 170 223 259 327 386
#     4  11  22  37  67  97 124 163 216 273 315 368
#     4  11  22  38  64  95 130 162 211 269 324 368
#
# _framework density 22.787654
#
# number of rings (size 3 to 8) (size 9 to 14) (size 15 to 20)
#    0.000    0.857    5.714    1.714    6.000    3.429 
#    0.000    0.714    0.000    4.286    0.000    0.000 
#    0.000    0.000    0.000    0.000    0.000    0.000 
#
# Total GULP energy -78004.506777 kJ/mol
# GULP energy per Si atom -5571.750484 kJ/mol
# Density = 2.273579 g / cm^3
# Si number density = 22.787654 Si / 1000 Ang^3
#
#
#
# Elastic Constant Matrix: (Units=GPa)
#
#
# Indices 1 2 3 4 5 6 
#
# 1 58.8421 5.9581 19.2473 -15.8096 -5.8493 -3.4001
# 2 5.9581 93.0239 12.0333 1.6972 7.7625 3.7471
# 3 19.2473 12.0333 86.2889 1.2073 5.6627 -8.4611
# 4 -15.8096 1.6972 1.2073 36.7629 -15.6520 4.7737
# 5 -5.8493 7.7625 5.6627 -15.6520 35.0085 -7.6942
# 6 -3.4001 3.7471 -8.4611 4.7737 -7.6942 36.5348
#
#
#
# Elastic Compliance Matrix: (Units=1/GPa)
#
#
# Indices 1 2 3 4 5 6 
#
# 1 0.025227 -0.002322 -0.006252 0.016723 0.013618 0.001821
# 2 -0.002322 0.011564 -0.000955 -0.003226 -0.004723 -0.002196
# 3 -0.006252 -0.000955 0.013756 -0.005539 -0.005013 0.002370
# 4 0.016723 -0.003226 -0.005539 0.045209 0.024591 -0.000124
# 5 0.013618 -0.004723 -0.005013 0.024591 0.045208 0.006898
# 6 0.001821 -0.002196 0.002370 -0.000124 0.006898 0.029784
#
#
# Mechanical properties :
#
#
# Convention : Reuss Voigt Hill
#
# Bulk Modulus (GPa) = 31.75826 34.73690 33.24758
# Shear Modulus (GPa) = 24.96238 35.05565 30.00902
#
# Velocity S-wave (km/s) = 3.31333 3.92645 3.63285
# Velocity P-wave (km/s) = 5.34830 5.98605 5.67614
#
# Compressibility (1/GPa) = 0.03148787
#
# Stress axis : x y z
#
# Youngs Moduli (GPa) = 39.64044 86.47836 72.69763
#
# Poissons Ratio (x) = 0.20078 0.45453
# Poissons Ratio (y) = 0.09204 0.06943
# Poissons Ratio (z) = 0.24784 0.08259
#
# Static dielectric constant tensor:
#      x y z
#    x 1.983760 0.002970 -0.018440 
#    y 0.002970 1.859120 -0.004460 
#    z -0.018440 -0.004460 1.953110 
# 
# From -- ./inp_files/518636.got.cif
#   From: 2010.05.17/outbox.cif.g08.bks.cpg/sg2_260_cif.got.tgz:518636.got - 2010.06.03 11:33:40.
