data_PCOD9050209
_publ_section_title
;
Structure prediction by ZEFSAII (Michael W. Deem and Ramdas Pophale) SiO2 
 PCOD9050209
Probable space group: P -1
;
_chemical_formula_sum "Si O2"
_cell_formula_units_Z 16
_cell_length_a 7.797180
_cell_length_b 18.080280
_cell_length_c 7.654873
_cell_angle_alpha 93.755714
_cell_angle_beta 123.443076
_cell_angle_gamma 56.261711
_cell_volume 702.373563
_symmetry_space_group_name_H-M "P -1"
_symmetry_group_IT_number 2
_symmetry_cell_setting 'triclinic'
loop_
_space_group_symop_operation_xyz
x,y,z
-x,-y,-z
loop_
_atom_site_type_symbol
_atom_site_label
_atom_site_fract_x
_atom_site_fract_y
_atom_site_fract_z
Si Si1 0.898913 0.903868 0.355833
Si Si2 0.030149 0.021673 0.249457
Si Si3 0.743629 0.345109 0.909208
Si Si4 0.776689 0.498048 0.790813
Si Si5 0.201609 0.520369 0.614608
Si Si6 0.540976 0.106664 0.812600
Si Si7 0.165565 0.281028 0.372312
Si Si8 0.595922 0.296157 0.467178
O O1 0.866171 0.958005 0.522591
O O2 0.155415 0.795101 0.500110
O O3 0.642705 0.910091 0.190037
O O4 0.976127 0.947678 0.260782
O O5 0.248083 0.977763 0.214621
O O6 0.736421 0.112030 0.041737
O O7 0.811357 0.411895 0.887698
O O8 0.458071 0.429474 0.841045
O O9 0.691438 0.302247 0.712669
O O10 0.990123 0.266335 0.151671
O O11 0.760155 0.480946 0.572739
O O12 0.518231 0.607178 0.683635
O O13 0.000000 0.500000 0.000000
O O14 0.000000 0.500000 0.500000
O O15 0.056466 0.620203 0.640961
O O16 0.344686 0.199015 0.599630
O O17 0.361767 0.289999 0.372758
#
# Coordination Sequence:
#
# PCOD9050209 Si02
#       8
#     2   2   2   2   2   2   2   2
#     4  11  24  45  73 100 130 177 220 272 343 405
#     4  10  24  49  71  96 135 173 218 278 342 401
#     4  11  24  42  64  90 136 183 215 268 329 381
#     4  11  22  40  65  90 131 180 220 268 322 385
#     4  11  21  40  63  90 130 174 222 267 320 382
#     4  11  25  44  71 101 133 172 221 278 336 404
#     4  12  24  42  62  97 132 173 224 275 324 393
#     4  11  23  42  62  97 133 168 226 272 324 394
#
# _framework density 22.779900000000001
#
# number of rings (size 3 to 8) (size 9 to 14) (size 15 to 20)
#    0.000    1.000    5.000    2.625    3.500    3.000 
#    2.250    0.000    0.000    0.000    0.000    0.000 
#    0.000    0.000    0.000    0.000    0.000    0.000 
#
# Total GULP energy -89361.972585 kJ/mol
# GULP energy per Si atom -5585.123287 kJ/mol
# Density = 2.272805 g / cm^3
# Si number density = 22.779900 Si / 1000 Ang^3
#
#
#
# Elastic Constant Matrix: (Units=GPa)
#
#
# Indices 1 2 3 4 5 6 
#
# 1 88.6123 7.5088 -2.8031 -2.6815 21.4193 -6.8997
# 2 7.5088 32.3413 -8.7483 -3.0394 6.3530 -8.4798
# 3 -2.8031 -8.7483 83.5532 -3.5053 16.2906 13.6607
# 4 -2.6815 -3.0394 -3.5053 31.2891 8.4919 -1.4033
# 5 21.4193 6.3530 16.2906 8.4919 36.9474 4.1321
# 6 -6.8997 -8.4798 13.6607 -1.4033 4.1321 18.8399
#
#
#
# Elastic Compliance Matrix: (Units=1/GPa)
#
#
# Indices 1 2 3 4 5 6 
#
# 1 0.014829 0.001992 0.001953 0.005266 -0.011895 0.007913
# 2 0.001992 0.040477 0.004277 0.009361 -0.014354 0.019693
# 3 0.001953 0.004277 0.015448 0.004478 -0.009009 -0.006252
# 4 0.005266 0.009361 0.004478 0.038749 -0.016597 0.009421
# 5 -0.011895 -0.014354 -0.009009 -0.016597 0.045961 -0.015602
# 6 0.007913 0.019693 -0.006252 0.009421 -0.015602 0.073497
#
#
# Mechanical properties :
#
#
# Convention : Reuss Voigt Hill
#
# Bulk Modulus (GPa) = 11.46848 21.82462 16.64655
# Shear Modulus (GPa) = 20.69658 31.31855 26.00757
#
# Velocity S-wave (km/s) = 3.01748 3.71190 3.38255
# Velocity P-wave (km/s) = 4.14556 5.28889 4.75174
#
# Compressibility (1/GPa) = 0.08719555
#
# Stress axis : x y z
#
# Youngs Moduli (GPa) = 67.43580 24.70523 64.73255
#
# Poissons Ratio (x) = -0.04920 -0.12639
# Poissons Ratio (y) = -0.13430 -0.27683
# Poissons Ratio (z) = -0.13167 -0.10565
#
# Static dielectric constant tensor:
#      x y z
#    x 1.805120 0.023290 0.018330 
#    y 0.023290 1.806290 -0.013610 
#    z 0.018330 -0.013610 1.888020 
# 
# From -- ./inp_files/217734.got.cif
#   From: 2010.05.17/outbox.cif.g08.bks.cpg/sg2_109_cif.got.tgz:217734.got - 2010.06.03 11:33:40.
