data_PCOD9050784
_publ_section_title
;
Structure prediction by ZEFSAII (Michael W. Deem and Ramdas Pophale) SiO2 
 PCOD9050784
Probable space group: P -1
;
_chemical_formula_sum "Si O2"
_cell_formula_units_Z 16
_cell_length_a 9.443063
_cell_length_b 12.345547
_cell_length_c 15.453786
_cell_angle_alpha 153.571855
_cell_angle_beta 62.576869
_cell_angle_gamma 111.871520
_cell_volume 708.103594
_symmetry_space_group_name_H-M "P -1"
_symmetry_group_IT_number 2
_symmetry_cell_setting 'triclinic'
loop_
_space_group_symop_operation_xyz
x,y,z
-x,-y,-z
loop_
_atom_site_type_symbol
_atom_site_label
_atom_site_fract_x
_atom_site_fract_y
_atom_site_fract_z
Si Si1 0.451477 0.753551 0.048743
Si Si2 0.409259 0.757245 0.364236
Si Si3 0.649593 0.862574 0.907430
Si Si4 0.111728 0.376773 0.453902
Si Si5 0.907504 0.176591 0.878450
Si Si6 0.587302 0.756038 0.477587
Si Si7 0.127803 0.062588 0.581178
Si Si8 0.812637 0.342954 0.200312
O O1 0.275113 0.765079 0.063086
O O2 0.446030 0.988413 0.279882
O O3 0.500416 0.482355 0.877709
O O4 0.586752 0.781246 0.958331
O O5 0.438018 0.714849 0.428649
O O6 0.500000 0.000000 0.500000
O O7 0.232452 0.827890 0.426893
O O8 0.722034 0.670029 0.678518
O O9 0.500000 0.000000 0.000000
O O10 0.770814 0.069127 0.034163
O O11 0.073692 0.111120 0.307944
O O12 0.112236 0.545792 0.658092
O O13 0.000000 0.500000 0.500000
O O14 0.033025 0.206720 0.788736
O O15 0.920421 0.322016 0.068160
O O16 0.740118 0.792518 0.399370
O O17 0.652908 0.527109 0.354616
O O18 0.000000 0.000000 0.500000
#
# Coordination Sequence:
#
# PCOD9050784 Si02
#       8
#     2   2   2   2   2   2   2   2
#     4  12  22  44  69  99 137 175 233 285 336 414
#     4  10  25  44  67 102 132 175 236 287 333 410
#     4  11  22  40  67 101 130 181 230 278 342 409
#     4  11  25  44  66  96 143 181 231 291 346 412
#     4  11  23  44  67 101 137 182 234 280 344 421
#     4  11  22  44  71 101 137 182 230 288 339 402
#     4  11  23  44  71  98 138 184 219 278 358 404
#     4  11  22  44  71  96 138 182 231 284 345 406
#
# _framework density 22.595562000000001
#
# number of rings (size 3 to 8) (size 9 to 14) (size 15 to 20)
#    0.000    1.000    6.250    0.000    1.750    7.500 
#    2.250    0.000    0.000    0.000    0.000    0.000 
#    0.000    0.000    0.000    0.000    0.000    0.000 
#
# Total GULP energy -89406.192576 kJ/mol
# GULP energy per Si atom -5587.887036 kJ/mol
# Density = 2.254413 g / cm^3
# Si number density = 22.595562 Si / 1000 Ang^3
#
#
#
# Elastic Constant Matrix: (Units=GPa)
#
#
# Indices 1 2 3 4 5 6 
#
# 1 100.5154 26.0789 42.9684 -11.5076 -0.9693 -40.5762
# 2 26.0789 94.5468 59.8763 -20.3801 2.7261 0.3344
# 3 42.9684 59.8763 159.6536 -30.5725 23.6381 -5.8105
# 4 -11.5076 -20.3801 -30.5725 48.3138 -6.9402 -1.9545
# 5 -0.9693 2.7261 23.6381 -6.9402 38.1562 -6.8438
# 6 -40.5762 0.3344 -5.8105 -1.9545 -6.8438 38.1146
#
#
#
# Elastic Compliance Matrix: (Units=1/GPa)
#
#
# Indices 1 2 3 4 5 6 
#
# 1 0.024418 -0.003042 -0.005142 0.003753 0.009575 0.027149
# 2 -0.003042 0.014887 -0.004607 0.002715 0.001552 -0.003654
# 3 -0.005142 -0.004607 0.010671 0.002401 -0.006857 -0.004915
# 4 0.003753 0.002715 0.002401 0.025106 0.004122 0.006365
# 5 0.009575 0.001552 -0.006857 0.004122 0.034113 0.015471
# 6 0.027149 -0.003654 -0.004915 0.006365 0.015471 0.057526
#
#
# Mechanical properties :
#
#
# Convention : Reuss Voigt Hill
#
# Bulk Modulus (GPa) = 40.99405 68.06256 54.52831
# Shear Modulus (GPa) = 24.94573 39.96973 32.45773
#
# Velocity S-wave (km/s) = 3.32627 4.21042 3.79418
# Velocity P-wave (km/s) = 5.73882 7.33650 6.58628
#
# Compressibility (1/GPa) = 0.02439378
#
# Stress axis : x y z
#
# Youngs Moduli (GPa) = 40.95420 67.17230 93.70791
#
# Poissons Ratio (x) = 0.20434 0.48182
# Poissons Ratio (y) = 0.12459 0.43175
# Poissons Ratio (z) = 0.21057 0.30949
#
# Static dielectric constant tensor:
#      x y z
#    x 1.822460 -0.008630 0.008290 
#    y -0.008630 1.901170 0.047200 
#    z 0.008290 0.047200 1.858920 
# 
# From -- ./inp_files/501103.got.cif
#   From: 2010.05.17/outbox.cif.g08.bks.cpg/sg2_251_cif.got.tgz:501103.got - 2010.06.03 11:33:40.
