data_PCOD9050612
_publ_section_title
;
Structure prediction by ZEFSAII (Michael W. Deem and Ramdas Pophale) SiO2 
 PCOD9050612
Probable space group: P -1
;
_chemical_formula_sum "Si O2"
_cell_formula_units_Z 12
_cell_length_a 15.809105
_cell_length_b 13.101463
_cell_length_c 7.586494
_cell_angle_alpha 103.370652
_cell_angle_beta 59.595092
_cell_angle_gamma 154.270460
_cell_volume 470.636238
_symmetry_space_group_name_H-M "P -1"
_symmetry_group_IT_number 2
_symmetry_cell_setting 'triclinic'
loop_
_space_group_symop_operation_xyz
x,y,z
-x,-y,-z
loop_
_atom_site_type_symbol
_atom_site_label
_atom_site_fract_x
_atom_site_fract_y
_atom_site_fract_z
Si Si1 0.272537 0.360873 0.707326
Si Si2 0.220427 0.271846 0.134596
Si Si3 0.875693 0.437760 0.273213
Si Si4 0.511927 0.207471 0.371738
Si Si5 0.747886 0.330662 0.850518
Si Si6 0.030093 0.296239 0.485523
O O1 0.500000 0.500000 0.500000
O O2 0.384476 0.577087 0.585346
O O3 0.246954 0.348583 0.941228
O O4 0.996675 0.038510 0.788073
O O5 0.111969 0.257084 0.368559
O O6 0.500000 0.500000 0.000000
O O7 0.572478 0.177400 0.438357
O O8 0.028695 0.701273 0.269325
O O9 0.971141 0.454264 0.333368
O O10 0.000000 0.500000 0.000000
O O11 0.712291 0.373121 0.068682
O O12 0.221604 0.937026 0.477696
O O13 0.736233 0.393798 0.719276
O O14 0.500000 0.000000 0.000000
#
# Coordination Sequence:
#
# PCOD9050612 Si02
#       6
#     2   2   2   2   2   2
#     4  11  24  46  70  99 142 180 230 295 344 407
#     4  11  27  44  70 107 138 182 238 284 348 419
#     4  10  25  43  67 103 134 179 231 282 340 415
#     4  11  24  44  69  99 137 181 230 280 352 412
#     4  11  23  45  67  97 140 177 225 287 342 408
#     4  12  24  45  71  97 139 186 226 288 351 406
#
# _framework density 25.497396999999999
#
# number of rings (size 3 to 8) (size 9 to 14) (size 15 to 20)
#    0.000    1.000    5.000    0.500    2.333    4.000 
#    6.000    0.000    0.000    0.000    0.000    0.000 
#    0.000    0.000    0.000    0.000    0.000    0.000 
#
# Total GULP energy -67078.348497 kJ/mol
# GULP energy per Si atom -5589.862375 kJ/mol
# Density = 2.543936 g / cm^3
# Si number density = 25.497397 Si / 1000 Ang^3
#
#
#
# Elastic Constant Matrix: (Units=GPa)
#
#
# Indices 1 2 3 4 5 6 
#
# 1 141.8523 69.4090 40.5459 1.7107 -37.3252 3.2545
# 2 69.4090 169.0151 44.9427 6.2731 -30.4453 13.3200
# 3 40.5459 44.9427 62.7416 18.5145 -26.8435 12.7185
# 4 1.7107 6.2731 18.5145 58.4816 5.8537 -9.6826
# 5 -37.3252 -30.4453 -26.8435 5.8537 59.4724 -1.1530
# 6 3.2545 13.3200 12.7185 -9.6826 -1.1530 50.1948
#
#
#
# Elastic Compliance Matrix: (Units=1/GPa)
#
#
# Indices 1 2 3 4 5 6 
#
# 1 0.010325 -0.002767 -0.003933 0.001144 0.003202 0.001355
# 2 -0.002767 0.008231 -0.003541 0.000055 0.000852 -0.001077
# 3 -0.003933 -0.003541 0.030754 -0.011728 0.010587 -0.008617
# 4 0.001144 0.000055 -0.011728 0.022611 -0.006635 0.007092
# 5 0.003202 0.000852 0.010587 -0.006635 0.024618 -0.003831
# 6 0.001355 -0.001077 -0.008617 0.007092 -0.003831 0.023584
#
#
# Mechanical properties :
#
#
# Convention : Reuss Voigt Hill
#
# Bulk Modulus (GPa) = 34.68828 75.93377 55.31103
# Shear Modulus (GPa) = 33.28588 48.21051 40.74819
#
# Velocity S-wave (km/s) = 3.61704 4.35305 4.00200
# Velocity P-wave (km/s) = 5.57477 7.42368 6.56465
#
# Compressibility (1/GPa) = 0.02882818
#
# Stress axis : x y z
#
# Youngs Moduli (GPa) = 96.84945 121.49302 32.51658
#
# Poissons Ratio (x) = 0.33616 0.12788
# Poissons Ratio (y) = 0.26798 0.11515
# Poissons Ratio (z) = 0.38088 0.43022
#
# Static dielectric constant tensor:
#      x y z
#    x 1.139850 0.542120 -0.611110 
#    y 0.542120 1.813590 0.425410 
#    z -0.611110 0.425410 1.595700 
# 
# From -- ./inp_files/307927.got.cif
#   From: 2010.05.17/outbox.cif.g08.bks.cpg/sg2_154_cif.got.tgz:307927.got - 2010.06.03 11:33:40.
