data_PCOD9050275
_publ_section_title
;
Structure prediction by ZEFSAII (Michael W. Deem and Ramdas Pophale) SiO2 
 PCOD9050275
Probable space group: P -1
;
_chemical_formula_sum "Si O2"
_cell_formula_units_Z 16
_cell_length_a 13.240077
_cell_length_b 12.023705
_cell_length_c 6.935956
_cell_angle_alpha 80.433397
_cell_angle_beta 52.553325
_cell_angle_gamma 55.843242
_cell_volume 699.141690
_symmetry_space_group_name_H-M "P -1"
_symmetry_group_IT_number 2
_symmetry_cell_setting 'triclinic'
loop_
_space_group_symop_operation_xyz
x,y,z
-x,-y,-z
loop_
_atom_site_type_symbol
_atom_site_label
_atom_site_fract_x
_atom_site_fract_y
_atom_site_fract_z
Si Si1 0.499434 0.212581 0.945812
Si Si2 0.396270 0.990925 0.461625
Si Si3 0.811961 0.706356 0.578842
Si Si4 0.184907 0.724287 0.170485
Si Si5 0.242032 0.949394 0.982201
Si Si6 0.911029 0.410059 0.958575
Si Si7 0.569423 0.537836 0.236649
Si Si8 0.019351 0.267801 0.270785
O O1 0.508796 0.113605 0.795573
O O2 0.540337 0.311977 0.776349
O O3 0.326198 0.309800 0.213233
O O4 0.619233 0.116261 0.001802
O O5 0.310341 0.935877 0.694377
O O6 0.500000 0.000000 0.500000
O O7 0.274516 0.145815 0.474632
O O8 0.875088 0.719861 0.703524
O O9 0.960880 0.588437 0.314493
O O10 0.085207 0.712798 0.122466
O O11 0.124100 0.708617 0.446915
O O12 0.170083 0.863971 0.119929
O O13 0.359254 0.588158 0.961970
O O14 0.120103 0.111273 0.120090
O O15 0.723913 0.529441 0.131508
O O16 0.965598 0.368812 0.123673
O O17 0.500000 0.500000 0.500000
#
# Coordination Sequence:
#
# PCOD9050275 Si02
#       8
#     2   2   2   2   2   2   2   2
#     4  12  26  40  69  99 132 179 217 259 332 392
#     4  12  23  41  63 102 137 167 213 271 336 382
#     4  11  22  43  64  99 134 166 220 270 327 394
#     4   9  24  42  62  98 124 176 222 263 323 380
#     4  12  23  38  69 101 131 175 211 274 332 387
#     4   9  23  44  66  90 133 178 209 281 319 374
#     4  10  24  50  64  92 137 171 223 273 313 389
#     4  11  21  42  67  95 135 171 214 274 334 379
#
# _framework density 22.885206
#
# number of rings (size 3 to 8) (size 9 to 14) (size 15 to 20)
#    0.750    0.500    3.750    2.250    1.750    1.500 
#    2.250    0.625    0.000    0.000    0.000    0.000 
#    0.000    0.000    0.000    0.000    0.000    0.000 
#
# Total GULP energy -89470.493422 kJ/mol
# GULP energy per Si atom -5591.905839 kJ/mol
# Density = 2.283312 g / cm^3
# Si number density = 22.885206 Si / 1000 Ang^3
#
#
#
# Elastic Constant Matrix: (Units=GPa)
#
#
# Indices 1 2 3 4 5 6 
#
# 1 57.4326 9.1248 24.9654 2.9870 17.9325 -3.2134
# 2 9.1248 81.1490 16.3074 -9.1735 11.3694 -3.2920
# 3 24.9654 16.3074 133.8635 -12.4712 -10.2152 -7.6467
# 4 2.9870 -9.1735 -12.4712 31.5363 -11.6506 0.1041
# 5 17.9325 11.3694 -10.2152 -11.6506 33.7356 -7.8064
# 6 -3.2134 -3.2920 -7.6467 0.1041 -7.8064 29.4048
#
#
#
# Elastic Compliance Matrix: (Units=1/GPa)
#
#
# Indices 1 2 3 4 5 6 
#
# 1 0.030031 0.000067 -0.009407 -0.016037 -0.025746 -0.005935
# 2 0.000067 0.013511 -0.001899 0.001428 -0.004725 -0.000233
# 3 -0.009407 -0.001899 0.011783 0.010146 0.013985 0.005500
# 4 -0.016037 0.001428 0.010146 0.048702 0.029979 0.008832
# 5 -0.025746 -0.004725 0.013985 0.029979 0.063449 0.017033
# 6 -0.005935 -0.000233 0.005500 0.008832 0.017033 0.039254
#
#
# Mechanical properties :
#
#
# Convention : Reuss Voigt Hill
#
# Bulk Modulus (GPa) = 30.44450 41.47114 35.95782
# Shear Modulus (GPa) = 20.81975 33.73851 27.27913
#
# Velocity S-wave (km/s) = 3.01947 3.84376 3.45628
# Velocity P-wave (km/s) = 5.04859 6.15305 5.62798
#
# Compressibility (1/GPa) = 0.03284666
#
# Stress axis : x y z
#
# Youngs Moduli (GPa) = 33.29933 74.01319 84.87072
#
# Poissons Ratio (x) = -0.00496 0.79834
# Poissons Ratio (y) = -0.00223 0.16120
# Poissons Ratio (z) = 0.31323 0.14057
#
# Static dielectric constant tensor:
#      x y z
#    x 1.878460 -0.009140 -0.044420 
#    y -0.009140 1.828300 0.015850 
#    z -0.044420 0.015850 1.850360 
# 
# From -- ./inp_files/69170.got.cif
#   From: 2010.05.17/outbox.cif.g08.bks.cpg/sg2_35_cif.got.tgz:69170.got - 2010.06.03 11:33:40.
