data_PCOD9050354
_publ_section_title
;
Structure prediction by ZEFSAII (Michael W. Deem and Ramdas Pophale) SiO2 
 PCOD9050354
Probable space group: P -1
;
_chemical_formula_sum "Si O2"
_cell_formula_units_Z 16
_cell_length_a 8.037118
_cell_length_b 22.006595
_cell_length_c 6.368970
_cell_angle_alpha 50.924420
_cell_angle_beta 96.011735
_cell_angle_gamma 124.527112
_cell_volume 661.919468
_symmetry_space_group_name_H-M "P -1"
_symmetry_group_IT_number 2
_symmetry_cell_setting 'triclinic'
loop_
_space_group_symop_operation_xyz
x,y,z
-x,-y,-z
loop_
_atom_site_type_symbol
_atom_site_label
_atom_site_fract_x
_atom_site_fract_y
_atom_site_fract_z
Si Si1 0.836382 0.792477 0.487886
Si Si2 0.800022 0.208723 0.581104
Si Si3 0.397769 0.969356 0.797396
Si Si4 0.638870 0.872223 0.545060
Si Si5 0.406974 0.433501 0.928261
Si Si6 0.465585 0.270429 0.777315
Si Si7 0.906634 0.397774 0.336112
Si Si8 0.758586 0.495819 0.515788
O O1 0.790336 0.859672 0.455484
O O2 0.755886 0.774624 0.275474
O O3 0.073157 0.822775 0.454943
O O4 0.679176 0.679692 0.814091
O O5 0.598185 0.181087 0.477717
O O6 0.958162 0.329436 0.392567
O O7 0.727313 0.149816 0.924015
O O8 0.500000 0.000000 0.500000
O O9 0.265605 0.010937 0.684249
O O10 0.500000 0.000000 0.000000
O O11 0.587146 0.815535 0.883453
O O12 0.619895 0.497035 0.673254
O O13 0.222918 0.435784 0.812884
O O14 0.500000 0.500000 0.000000
O O15 0.644647 0.312158 0.524528
O O16 0.590135 0.376820 0.686679
O O17 0.008982 0.444889 0.474610
O O18 0.000000 0.500000 0.000000
#
# Coordination Sequence:
#
# PCOD9050354 Si02
#       8
#     2   2   2   2   2   2   2   2
#     4  12  25  44  71 105 151 187 246 307 376 440
#     4  11  26  47  75 108 145 196 247 304 382 454
#     4  10  24  51  84 114 150 199 250 318 387 456
#     4  11  25  49  76 104 148 188 249 311 378 452
#     4  11  22  40  59  91 144 188 240 304 351 438
#     4  12  24  44  66 101 147 188 244 312 370 439
#     4  12  25  41  68 101 145 191 252 302 369 449
#     4  11  24  37  62  95 131 199 248 284 372 434
#
# _framework density 24.172125000000001
#
# number of rings (size 3 to 8) (size 9 to 14) (size 15 to 20)
#    0.000    0.750    3.750    3.375    7.000    0.500 
#    4.500    0.625    0.000    0.000    0.000    0.000 
#    0.000    0.000    0.000    0.000    0.000    0.000 
#
# Total GULP energy -89178.446184 kJ/mol
# GULP energy per Si atom -5573.652887 kJ/mol
# Density = 2.411711 g / cm^3
# Si number density = 24.172125 Si / 1000 Ang^3
#
#
#
# Elastic Constant Matrix: (Units=GPa)
#
#
# Indices 1 2 3 4 5 6 
#
# 1 84.4193 15.2257 34.6991 5.2124 -6.1971 -10.7009
# 2 15.2257 48.0381 31.6403 -3.5388 1.1339 -11.2719
# 3 34.6991 31.6403 169.2822 -7.6633 18.8539 -8.8671
# 4 5.2124 -3.5388 -7.6633 33.0972 -10.5682 9.7153
# 5 -6.1971 1.1339 18.8539 -10.5682 44.7100 2.6584
# 6 -10.7009 -11.2719 -8.8671 9.7153 2.6584 32.3149
#
#
#
# Elastic Compliance Matrix: (Units=1/GPa)
#
#
# Indices 1 2 3 4 5 6 
#
# 1 0.014238 -0.002066 -0.002708 -0.003663 0.002053 0.004184
# 2 -0.002066 0.025825 -0.004066 0.000180 0.000392 0.007122
# 3 -0.002708 -0.004066 0.007614 0.000757 -0.003293 -0.000182
# 4 -0.003663 0.000180 0.000757 0.037615 0.008831 -0.012978
# 5 0.002053 0.000392 -0.003293 0.008831 0.026409 -0.004915
# 6 0.004184 0.007122 -0.000182 -0.012978 -0.004915 0.039071
#
#
# Mechanical properties :
#
#
# Convention : Reuss Voigt Hill
#
# Bulk Modulus (GPa) = 33.33604 51.65221 42.49412
# Shear Modulus (GPa) = 28.01896 36.70272 32.36084
#
# Velocity S-wave (km/s) = 3.40831 3.90088 3.66289
# Velocity P-wave (km/s) = 5.41386 6.45787 5.95877
#
# Compressibility (1/GPa) = 0.02999756
#
# Stress axis : x y z
#
# Youngs Moduli (GPa) = 70.23261 38.72260 131.34124
#
# Poissons Ratio (x) = 0.08000 0.35564
# Poissons Ratio (y) = 0.14510 0.53402
# Poissons Ratio (z) = 0.19017 0.15744
#
# Static dielectric constant tensor:
#      x y z
#    x 2.100470 -0.040890 -0.005730 
#    y -0.040890 2.002290 0.035760 
#    z -0.005730 0.035760 2.006720 
# 
# From -- ./inp_files/55279.got.cif
#   From: 2010.05.17/outbox.cif.g08.bks.cpg/sg2_28_cif.got.tgz:55279.got - 2010.06.03 11:33:40.
