data_PCOD9050900
_publ_section_title
;
Structure prediction by ZEFSAII (Michael W. Deem and Ramdas Pophale) SiO2 
 PCOD9050900
Probable space group: P -1
;
_chemical_formula_sum "Si O2"
_cell_formula_units_Z 16
_cell_length_a 8.542233
_cell_length_b 8.180851
_cell_length_c 14.521047
_cell_angle_alpha 115.518737
_cell_angle_beta 107.582015
_cell_angle_gamma 44.636640
_cell_volume 643.414286
_symmetry_space_group_name_H-M "P -1"
_symmetry_group_IT_number 2
_symmetry_cell_setting 'triclinic'
loop_
_space_group_symop_operation_xyz
x,y,z
-x,-y,-z
loop_
_atom_site_type_symbol
_atom_site_label
_atom_site_fract_x
_atom_site_fract_y
_atom_site_fract_z
Si Si1 0.294538 0.660117 0.070708
Si Si2 0.121213 0.245291 0.013432
Si Si3 0.653165 0.036629 0.313425
Si Si4 0.901211 0.323839 0.313833
Si Si5 0.592703 0.264734 0.168605
Si Si6 0.083181 0.895588 0.385609
Si Si7 0.480235 0.228602 0.529277
Si Si8 0.282912 0.088016 0.202301
O O1 0.368788 0.488674 0.131001
O O2 0.250777 0.897645 0.146805
O O3 0.500000 0.500000 0.000000
O O4 0.084033 0.735405 0.000963
O O5 0.236450 0.201917 0.120501
O O6 0.000000 0.500000 0.000000
O O7 0.291513 0.994384 0.923510
O O8 0.575444 0.220190 0.260239
O O9 0.922183 0.843402 0.321023
O O10 0.531701 0.198478 0.422662
O O11 0.533377 0.937997 0.244596
O O12 0.750747 0.325288 0.213889
O O13 0.003271 0.097136 0.343934
O O14 0.750883 0.550596 0.411110
O O15 0.096048 0.290010 0.290490
O O16 0.000000 0.000000 0.500000
O O17 0.344392 0.750714 0.396714
O O18 0.500000 0.000000 0.500000
#
# Coordination Sequence:
#
# PCOD9050900 Si02
#       8
#     2   2   2   2   2   2   2   2
#     4  12  25  45  77 102 149 195 244 311 361 440
#     4  12  27  47  71 109 150 190 242 306 370 446
#     4  10  25  44  71 107 147 188 251 299 360 441
#     4  11  25  45  74 103 150 190 247 303 361 441
#     4  11  25  46  71 107 145 196 244 298 378 432
#     4   9  22  46  69 100 142 187 239 299 369 420
#     4  11  25  46  75 108 144 195 248 305 366 429
#     4  12  25  47  74 111 149 195 249 299 375 438
#
# _framework density 24.867336999999999
#
# number of rings (size 3 to 8) (size 9 to 14) (size 15 to 20)
#    0.000    1.000    2.500    2.625    5.250    8.500 
#    0.000    3.750    0.000    0.000    0.000    0.000 
#    0.000    0.000    0.000    0.000    0.000    0.000 
#
# Total GULP energy -89466.277985 kJ/mol
# GULP energy per Si atom -5591.642374 kJ/mol
# Density = 2.481074 g / cm^3
# Si number density = 24.867337 Si / 1000 Ang^3
#
#
#
# Elastic Constant Matrix: (Units=GPa)
#
#
# Indices 1 2 3 4 5 6 
#
# 1 135.5948 22.2834 38.3808 -2.8100 1.9505 -21.9332
# 2 22.2834 62.8302 38.9879 -3.3356 -9.3710 6.7050
# 3 38.3808 38.9879 105.1006 -17.5481 -26.4153 -2.3658
# 4 -2.8100 -3.3356 -17.5481 38.4797 -6.8421 4.1970
# 5 1.9505 -9.3710 -26.4153 -6.8421 48.7696 -8.8147
# 6 -21.9332 6.7050 -2.3658 4.1970 -8.8147 35.9020
#
#
#
# Elastic Compliance Matrix: (Units=1/GPa)
#
#
# Indices 1 2 3 4 5 6 
#
# 1 0.009638 -0.002382 -0.003296 -0.001976 -0.001840 0.005895
# 2 -0.002382 0.022168 -0.008092 -0.001501 -0.001375 -0.006290
# 3 -0.003296 -0.008092 0.017643 0.008608 0.009709 0.002038
# 4 -0.001976 -0.001501 0.008608 0.031362 0.008503 -0.001938
# 5 -0.001840 -0.001375 0.009709 0.008503 0.027778 0.005599
# 6 0.005895 -0.006290 0.002038 -0.001938 0.005599 0.034365
#
#
# Mechanical properties :
#
#
# Convention : Reuss Voigt Hill
#
# Bulk Modulus (GPa) = 45.63793 55.86998 50.75396
# Shear Modulus (GPa) = 28.12202 38.22180 33.17191
#
# Velocity S-wave (km/s) = 3.36651 3.92475 3.65630
# Velocity P-wave (km/s) = 5.78823 6.56157 6.18699
#
# Compressibility (1/GPa) = 0.02191160
#
# Stress axis : x y z
#
# Youngs Moduli (GPa) = 103.75280 45.10991 56.67876
#
# Poissons Ratio (x) = 0.10743 0.18681
# Poissons Ratio (y) = 0.24709 0.45862
# Poissons Ratio (z) = 0.34196 0.36501
#
# Static dielectric constant tensor:
#      x y z
#    x 2.038400 -0.020210 0.017490 
#    y -0.020210 1.946810 -0.012270 
#    z 0.017490 -0.012270 1.965910 
# 
# From -- ./inp_files/495455.got.cif
#   From: 2010.05.17/outbox.cif.g08.bks.cpg/sg2_248_cif.got.tgz:495455.got - 2010.06.03 11:33:40.
