data_PCOD9050266
_publ_section_title
;
Structure prediction by ZEFSAII (Michael W. Deem and Ramdas Pophale) SiO2 
 PCOD9050266
Probable space group: P -1
;
_chemical_formula_sum "Si O2"
_cell_formula_units_Z 12
_cell_length_a 9.558748
_cell_length_b 5.034846
_cell_length_c 11.437290
_cell_angle_alpha 85.753847
_cell_angle_beta 94.697789
_cell_angle_gamma 58.136071
_cell_volume 461.427182
_symmetry_space_group_name_H-M "P -1"
_symmetry_group_IT_number 2
_symmetry_cell_setting 'triclinic'
loop_
_space_group_symop_operation_xyz
x,y,z
-x,-y,-z
loop_
_atom_site_type_symbol
_atom_site_label
_atom_site_fract_x
_atom_site_fract_y
_atom_site_fract_z
Si Si1 0.022756 0.804533 0.391869
Si Si2 0.356310 0.247183 0.401763
Si Si3 0.769350 0.854068 0.192287
Si Si4 0.586176 0.924764 0.882382
Si Si5 0.161657 0.694351 0.962308
Si Si6 0.277249 0.827611 0.256710
O O1 0.820285 0.539193 0.553692
O O2 0.874915 0.801446 0.318384
O O3 0.099894 0.905307 0.286432
O O4 0.000000 0.000000 0.500000
O O5 0.605576 0.506992 0.662020
O O6 0.500000 0.000000 0.500000
O O7 0.310455 0.082300 0.306044
O O8 0.582727 0.949570 0.207458
O O9 0.854733 0.542843 0.122931
O O10 0.758383 0.149990 0.114907
O O11 0.667637 0.132305 0.867096
O O12 0.734272 0.559016 0.917975
O O13 0.500000 0.000000 0.000000
O O14 0.000000 0.000000 0.000000
#
# Coordination Sequence:
#
# PCOD9050266 Si02
#       6
#     2   2   2   2   2   2
#     4  10  27  51  79 115 163 207 272 332 401 472
#     4  10  24  49  79 112 150 206 272 334 398 466
#     4  11  26  48  77 118 159 213 267 329 401 475
#     4  10  25  52  78 115 163 212 265 327 400 483
#     4  11  26  47  81 118 160 210 268 334 401 474
#     4  10  25  46  81 108 157 205 271 319 405 474
#
# _framework density 26.006267999999999
#
# number of rings (size 3 to 8) (size 9 to 14) (size 15 to 20)
#    1.000    0.667    0.000    1.500    4.667   10.000 
#    6.000    0.000    7.333    0.000    0.000    0.000 
#    0.000    0.000    0.000    0.000    0.000    0.000 
#
# Total GULP energy -67016.078602 kJ/mol
# GULP energy per Si atom -5584.673217 kJ/mol
# Density = 2.594708 g / cm^3
# Si number density = 26.006268 Si / 1000 Ang^3
#
#
#
# Elastic Constant Matrix: (Units=GPa)
#
#
# Indices 1 2 3 4 5 6 
#
# 1 160.9034 62.2692 63.3044 -12.8703 8.0440 -4.9554
# 2 62.2692 169.2573 59.1918 -27.0349 17.0233 4.2615
# 3 63.3044 59.1918 125.1171 -19.5391 12.6219 3.9978
# 4 -12.8703 -27.0349 -19.5391 58.6734 6.8168 0.0898
# 5 8.0440 17.0233 12.6219 6.8168 56.8869 -17.4090
# 6 -4.9554 4.2615 3.9978 0.0898 -17.4090 58.9535
#
#
#
# Elastic Compliance Matrix: (Units=1/GPa)
#
#
# Indices 1 2 3 4 5 6 
#
# 1 0.008317 -0.002010 -0.003406 -0.000308 0.000602 0.001253
# 2 -0.002010 0.008117 -0.002083 0.002891 -0.002439 -0.001339
# 3 -0.003406 -0.002083 0.011331 0.002320 -0.002160 -0.001546
# 4 -0.000308 0.002891 0.002320 0.019570 -0.004189 -0.001659
# 5 0.000602 -0.002439 -0.002160 -0.004189 0.021240 0.006652
# 6 0.001253 -0.001339 -0.001546 -0.001659 0.006652 0.019236
#
#
# Mechanical properties :
#
#
# Convention : Reuss Voigt Hill
#
# Bulk Modulus (GPa) = 78.32658 91.64539 84.98599
# Shear Modulus (GPa) = 46.70148 52.93692 49.81920
#
# Velocity S-wave (km/s) = 4.24226 4.51660 4.38157
# Velocity P-wave (km/s) = 7.36067 7.90669 7.63856
#
# Compressibility (1/GPa) = 0.01276706
#
# Stress axis : x y z
#
# Youngs Moduli (GPa) = 120.24194 123.20302 88.25605
#
# Poissons Ratio (x) = 0.24761 0.30059
# Poissons Ratio (y) = 0.24166 0.18382
# Poissons Ratio (z) = 0.40953 0.25661
#
# Static dielectric constant tensor:
#      x y z
#    x 1.968090 -0.117670 0.254900 
#    y -0.117670 2.159240 0.150250 
#    z 0.254900 0.150250 1.772960 
# 
# From -- ./inp_files/372487.got.cif
#   From: 2010.05.17/outbox.cif.g08.bks.cpg/sg2_187_cif.got.tgz:372487.got - 2010.06.03 11:33:40.
