data_PCOD9050843
_publ_section_title
;
Structure prediction by ZEFSAII (Michael W. Deem and Ramdas Pophale) SiO2 
 PCOD9050843
Probable space group: P -1
;
_chemical_formula_sum "Si O2"
_cell_formula_units_Z 14
_cell_length_a 8.746887
_cell_length_b 8.310245
_cell_length_c 12.416639
_cell_angle_alpha 50.755131
_cell_angle_beta 65.582737
_cell_angle_gamma 60.874551
_cell_volume 603.133332
_symmetry_space_group_name_H-M "P -1"
_symmetry_group_IT_number 2
_symmetry_cell_setting 'triclinic'
loop_
_space_group_symop_operation_xyz
x,y,z
-x,-y,-z
loop_
_atom_site_type_symbol
_atom_site_label
_atom_site_fract_x
_atom_site_fract_y
_atom_site_fract_z
Si Si1 0.633967 0.771958 0.083877
Si Si2 0.935820 0.791455 0.625076
Si Si3 0.590855 0.473196 0.850656
Si Si4 0.201735 0.400106 0.438412
Si Si5 0.249631 0.329533 0.687478
Si Si6 0.279179 0.834023 0.859407
Si Si7 0.043568 0.245465 0.118660
O O1 0.575560 0.611571 0.089486
O O2 0.621448 0.688076 0.242555
O O3 0.812326 0.830300 0.984139
O O4 0.500000 0.000000 0.000000
O O5 0.086808 0.550377 0.670111
O O6 0.804916 0.785312 0.567349
O O7 0.881106 0.803962 0.761421
O O8 0.000000 0.000000 0.500000
O O9 0.718234 0.449479 0.721534
O O10 0.482176 0.727509 0.802414
O O11 0.707591 0.327410 0.973624
O O12 0.309640 0.344256 0.541439
O O13 0.000000 0.500000 0.500000
O O14 0.224381 0.089602 0.797451
O O15 0.129973 0.821398 0.823247
O O16 0.000000 0.500000 0.000000
#
# Coordination Sequence:
#
# PCOD9050843 Si02
#       7
#     2   2   2   2   2   2   2
#     4  12  26  44  69 109 146 186 240 302 352 418
#     4  11  24  45  71 103 144 183 241 295 357 431
#     4  11  24  44  70 105 148 186 240 298 360 422
#     4  10  25  44  69 104 143 189 238 293 362 432
#     4  11  24  45  68 104 144 186 239 289 360 428
#     4  11  24  42  74 106 142 190 241 300 353 424
#     4  12  23  45  76 103 141 192 246 289 362 427
#
# _framework density 23.212114
#
# number of rings (size 3 to 8) (size 9 to 14) (size 15 to 20)
#    0.000    0.857    4.286    1.714    4.000    6.286 
#    0.000    1.429    0.000    0.000    0.000    0.000 
#    0.000    0.000    0.000    0.000    0.000    0.000 
#
# Total GULP energy -77992.846126 kJ/mol
# GULP energy per Si atom -5570.917580 kJ/mol
# Density = 2.315928 g / cm^3
# Si number density = 23.212114 Si / 1000 Ang^3
#
#
#
# Elastic Constant Matrix: (Units=GPa)
#
#
# Indices 1 2 3 4 5 6 
#
# 1 54.5510 19.6125 27.9879 14.0067 14.8371 10.3426
# 2 19.6125 94.6103 28.2326 -14.3654 -2.6382 2.5436
# 3 27.9879 28.2326 149.6403 30.8932 22.6787 0.4554
# 4 14.0067 -14.3654 30.8932 37.2017 10.7350 6.6763
# 5 14.8371 -2.6382 22.6787 10.7350 45.1124 9.2285
# 6 10.3426 2.5436 0.4554 6.6763 9.2285 38.7239
#
#
#
# Elastic Compliance Matrix: (Units=1/GPa)
#
#
# Indices 1 2 3 4 5 6 
#
# 1 0.025641 -0.006551 -0.000795 -0.009313 -0.005485 -0.003496
# 2 -0.006551 0.015127 -0.004436 0.011485 0.002919 -0.001867
# 3 -0.000795 -0.004436 0.010104 -0.009317 -0.003435 0.002810
# 4 -0.009313 0.011485 -0.009317 0.043800 -0.000879 -0.005499
# 5 -0.005485 0.002919 -0.003435 -0.000879 0.027099 -0.004993
# 6 -0.003496 -0.001867 0.002810 -0.005499 -0.004993 0.028985
#
#
# Mechanical properties :
#
#
# Convention : Reuss Voigt Hill
#
# Bulk Modulus (GPa) = 36.62121 50.05195 43.33658
# Shear Modulus (GPa) = 27.25947 39.07219 33.16583
#
# Velocity S-wave (km/s) = 3.43062 4.10721 3.78407
# Velocity P-wave (km/s) = 5.61277 6.64093 6.14838
#
# Compressibility (1/GPa) = 0.02730658
#
# Stress axis : x y z
#
# Youngs Moduli (GPa) = 39.00075 66.10720 98.97033
#
# Poissons Ratio (x) = 0.43307 0.07869
# Poissons Ratio (y) = 0.25549 0.43907
# Poissons Ratio (z) = 0.03101 0.29328
#
# Static dielectric constant tensor:
#      x y z
#    x 1.879460 0.025710 0.031310 
#    y 0.025710 1.928730 -0.005660 
#    z 0.031310 -0.005660 1.865020 
# 
# From -- ./inp_files/380932.got.cif
#   From: 2010.05.17/outbox.cif.g08.bks.cpg/sg2_191_cif.got.tgz:380932.got - 2010.06.03 11:33:40.
