data_PCOD9050672
_publ_section_title
;
Structure prediction by ZEFSAII (Michael W. Deem and Ramdas Pophale) SiO2 
 PCOD9050672
Probable space group: P -1
;
_chemical_formula_sum "Si O2"
_cell_formula_units_Z 16
_cell_length_a 4.921163
_cell_length_b 22.624061
_cell_length_c 9.503115
_cell_angle_alpha 56.405818
_cell_angle_beta 99.123905
_cell_angle_gamma 124.389599
_cell_volume 708.811617
_symmetry_space_group_name_H-M "P -1"
_symmetry_group_IT_number 2
_symmetry_cell_setting 'triclinic'
loop_
_space_group_symop_operation_xyz
x,y,z
-x,-y,-z
loop_
_atom_site_type_symbol
_atom_site_label
_atom_site_fract_x
_atom_site_fract_y
_atom_site_fract_z
Si Si1 0.773032 0.064415 0.551225
Si Si2 0.307816 0.631653 0.219101
Si Si3 0.792954 0.587066 0.832957
Si Si4 0.486734 0.333586 0.121883
Si Si5 0.576728 0.061898 0.053380
Si Si6 0.472934 0.160449 0.347667
Si Si7 0.426497 0.537890 0.579081
Si Si8 0.376442 0.169320 0.009013
O O1 0.747702 0.146469 0.448399
O O2 0.131275 0.090270 0.494115
O O3 0.500000 0.000000 0.500000
O O4 0.648858 0.008865 0.753606
O O5 0.404842 0.610053 0.403753
O O6 0.927484 0.545346 0.279749
O O7 0.503857 0.642933 0.073732
O O8 0.384763 0.726168 0.119271
O O9 0.779381 0.659891 0.820938
O O10 0.695751 0.578862 0.672231
O O11 0.145298 0.600353 0.866415
O O12 0.500000 0.500000 0.000000
O O13 0.465884 0.245191 0.245775
O O14 0.453574 0.124539 0.952774
O O15 0.977304 0.125897 0.034833
O O16 0.500000 0.000000 0.000000
O O17 0.462052 0.147382 0.195987
O O18 0.500000 0.500000 0.500000
#
# Coordination Sequence:
#
# PCOD9050672 Si02
#       8
#     2   2   2   2   2   2   2   2
#     4  12  21  41  69  95 125 166 218 267 326 384
#     4  10  25  43  70  97 131 178 229 273 326 403
#     4  12  24  43  68  97 137 172 220 277 336 388
#     4  11  25  44  67 100 133 174 222 279 335 381
#     4  12  26  44  65  97 135 175 213 265 335 398
#     4  11  22  41  69  99 125 166 224 275 318 385
#     4  11  25  44  68  98 135 182 227 267 331 404
#     4  11  23  44  69  96 129 173 222 269 324 391
#
# _framework density 22.572997000000001
#
# number of rings (size 3 to 8) (size 9 to 14) (size 15 to 20)
#    0.000    0.750    3.750    3.375    5.250    2.000 
#    6.750    0.000    0.000    0.000    0.000    0.000 
#    0.000    0.000    0.000    0.000    0.000    0.000 
#
# Total GULP energy -89416.284040 kJ/mol
# GULP energy per Si atom -5588.517752 kJ/mol
# Density = 2.252162 g / cm^3
# Si number density = 22.572997 Si / 1000 Ang^3
#
#
#
# Elastic Constant Matrix: (Units=GPa)
#
#
# Indices 1 2 3 4 5 6 
#
# 1 77.1589 5.7923 14.3071 -9.8121 -3.6047 -15.7108
# 2 5.7923 89.0707 53.7056 -0.6176 0.1212 -25.4678
# 3 14.3071 53.7056 113.9386 -3.7406 3.9692 -6.3812
# 4 -9.8121 -0.6176 -3.7406 38.2030 -5.4984 1.6181
# 5 -3.6047 0.1212 3.9692 -5.4984 21.9800 4.1848
# 6 -15.7108 -25.4678 -6.3812 1.6181 4.1848 40.9487
#
#
#
# Elastic Compliance Matrix: (Units=1/GPa)
#
#
# Indices 1 2 3 4 5 6 
#
# 1 0.015218 0.002550 -0.002713 0.003789 0.002667 0.006580
# 2 0.002550 0.019964 -0.009055 -0.000487 -0.000473 0.012051
# 3 -0.002713 -0.009055 0.013213 0.000374 -0.001842 -0.004440
# 4 0.003789 -0.000487 0.000374 0.028327 0.007777 -0.000705
# 5 0.002667 -0.000473 -0.001842 0.007777 0.049145 -0.004888
# 6 0.006580 0.012051 -0.004440 -0.000705 -0.004888 0.034276
#
#
# Mechanical properties :
#
#
# Convention : Reuss Voigt Hill
#
# Bulk Modulus (GPa) = 33.37807 47.53091 40.45449
# Shear Modulus (GPa) = 26.51602 33.98389 30.24995
#
# Velocity S-wave (km/s) = 3.43108 3.88430 3.66470
# Velocity P-wave (km/s) = 5.52406 6.42023 5.98893
#
# Compressibility (1/GPa) = 0.02995979
#
# Stress axis : x y z
#
# Youngs Moduli (GPa) = 65.71137 50.09006 75.68196
#
# Poissons Ratio (x) = -0.12773 0.20532
# Poissons Ratio (y) = -0.16757 0.68530
# Poissons Ratio (z) = 0.17827 0.45356
#
# Static dielectric constant tensor:
#      x y z
#    x 1.885980 -0.046220 0.033280 
#    y -0.046220 1.914860 -0.052600 
#    z 0.033280 -0.052600 1.805930 
# 
# From -- ./inp_files/141347.got.cif
#   From: 2010.05.17/outbox.cif.g08.bks.cpg/sg2_71_cif.got.tgz:141347.got - 2010.06.03 11:33:40.
