data_PCOD9050142
_publ_section_title
;
Structure prediction by ZEFSAII (Michael W. Deem and Ramdas Pophale) SiO2 
 PCOD9050142
Probable space group: P -1
;
_chemical_formula_sum "Si O2"
_cell_formula_units_Z 11
_cell_length_a 5.297560
_cell_length_b 12.215516
_cell_length_c 9.496535
_cell_angle_alpha 51.027111
_cell_angle_beta 105.588354
_cell_angle_gamma 108.987077
_cell_volume 450.058335
_symmetry_space_group_name_H-M "P -1"
_symmetry_group_IT_number 2
_symmetry_cell_setting 'triclinic'
loop_
_space_group_symop_operation_xyz
x,y,z
-x,-y,-z
loop_
_atom_site_type_symbol
_atom_site_label
_atom_site_fract_x
_atom_site_fract_y
_atom_site_fract_z
Si Si1 0.038610 0.526845 0.653526
Si Si2 0.500000 0.500000 0.000000
Si Si3 0.364685 0.006723 0.621505
Si Si4 0.081315 0.253089 0.322104
Si Si5 0.304790 0.059604 0.025408
Si Si6 0.472533 0.626794 0.131771
O O1 0.038734 0.674858 0.618077
O O2 0.773870 0.427802 0.760508
O O3 0.000000 0.500000 0.500000
O O4 0.313793 0.478014 0.782669
O O5 0.249275 0.377748 0.145902
O O6 0.387353 0.632564 0.953305
O O7 0.274456 0.157664 0.501564
O O8 0.500000 0.000000 0.500000
O O9 0.597172 0.988068 0.775034
O O10 0.112108 0.871393 0.697638
O O11 0.358721 0.230909 0.893011
O O12 0.500000 0.000000 0.000000
O O13 0.000000 0.000000 0.000000
#
# Coordination Sequence:
#
# PCOD9050142 Si02
#       6
#     2   1   2   2   2   2
#     4  11  26  46  75 110 157 199 265 328 405 478
#     4  10  24  48  78 112 154 192 272 326 408 474
#     4  11  27  49  83 117 163 210 279 335 410 486
#     4  10  26  47  83 120 155 214 266 348 401 491
#     4  12  30  50  77 112 162 217 266 331 405 486
#     4  11  26  46  75 110 146 208 258 331 393 474
#
# _framework density 24.441276999999999
#
# number of rings (size 3 to 8) (size 9 to 14) (size 15 to 20)
#    0.000    1.091    0.000    2.727   20.364    2.909 
#    0.000    0.000    0.000    0.000    0.000    0.000 
#    0.000    0.000    0.000    0.000    0.000    0.000 
#
# Total GULP energy -61320.959439 kJ/mol
# GULP energy per Si atom -5574.632676 kJ/mol
# Density = 2.438565 g / cm^3
# Si number density = 24.441277 Si / 1000 Ang^3
#
#
#
# Elastic Constant Matrix: (Units=GPa)
#
#
# Indices 1 2 3 4 5 6 
#
# 1 181.5387 76.4365 57.1651 -3.3657 -5.4869 -3.1518
# 2 76.4365 147.4988 33.3906 -5.3016 -16.5060 -4.5725
# 3 57.1651 33.3906 63.3626 17.5484 -15.5484 5.3311
# 4 -3.3657 -5.3016 17.5484 51.3797 -14.9839 -2.9392
# 5 -5.4869 -16.5060 -15.5484 -14.9839 48.3361 5.7291
# 6 -3.1518 -4.5725 5.3311 -2.9392 5.7291 65.2360
#
#
#
# Elastic Compliance Matrix: (Units=1/GPa)
#
#
# Indices 1 2 3 4 5 6 
#
# 1 0.009384 -0.003116 -0.008113 0.002562 -0.001955 0.001185
# 2 -0.003116 0.009277 -0.002073 0.002308 0.002800 0.000527
# 3 -0.008113 -0.002073 0.028282 -0.009137 0.005075 -0.003706
# 4 0.002562 0.002308 -0.009137 0.024719 0.005607 0.001654
# 5 -0.001955 0.002800 0.005075 0.005607 0.025061 -0.002261
# 6 0.001185 0.000527 -0.003706 0.001654 -0.002261 0.015999
#
#
# Mechanical properties :
#
#
# Convention : Reuss Voigt Hill
#
# Bulk Modulus (GPa) = 49.17093 80.70940 64.94017
# Shear Modulus (GPa) = 34.22119 48.01756 41.11938
#
# Velocity S-wave (km/s) = 3.74590 4.43720 4.10613
# Velocity P-wave (km/s) = 6.23464 7.70358 7.00770
#
# Compressibility (1/GPa) = 0.02033722
#
# Stress axis : x y z
#
# Youngs Moduli (GPa) = 106.55982 107.79630 35.35793
#
# Poissons Ratio (x) = 0.33594 0.28686
# Poissons Ratio (y) = 0.33209 0.07331
# Poissons Ratio (z) = 0.86454 0.22351
#
# Static dielectric constant tensor:
#      x y z
#    x 1.877750 -0.067730 -0.065450 
#    y -0.067730 1.823190 -0.263190 
#    z -0.065450 -0.263190 1.809150 
# 
# From -- ./inp_files/130506.got.cif
#   From: 2010.05.17/outbox.cif.g08.bks.cpg/sg2_66_cif.got.tgz:130506.got - 2010.06.03 11:33:40.
