data_PCOD9050422
_publ_section_title
;
Structure prediction by ZEFSAII (Michael W. Deem and Ramdas Pophale) SiO2 
 PCOD9050422
Probable space group: P -1
;
_chemical_formula_sum "Si O2"
_cell_formula_units_Z 14
_cell_length_a 8.902017
_cell_length_b 12.192039
_cell_length_c 7.970877
_cell_angle_alpha 91.662109
_cell_angle_beta 120.967360
_cell_angle_gamma 48.595595
_cell_volume 486.872014
_symmetry_space_group_name_H-M "P -1"
_symmetry_group_IT_number 2
_symmetry_cell_setting 'triclinic'
loop_
_space_group_symop_operation_xyz
x,y,z
-x,-y,-z
loop_
_atom_site_type_symbol
_atom_site_label
_atom_site_fract_x
_atom_site_fract_y
_atom_site_fract_z
Si Si1 0.480572 0.202942 0.040099
Si Si2 0.153019 0.514253 0.707337
Si Si3 0.412555 0.043494 0.740071
Si Si4 0.142403 0.907615 0.256398
Si Si5 0.944493 0.284416 0.893476
Si Si6 0.719622 0.630233 0.699864
Si Si7 0.954646 0.215457 0.268959
O O1 0.690255 0.015788 0.222273
O O2 0.363196 0.296924 0.156909
O O3 0.441247 0.331726 0.916852
O O4 0.354309 0.177237 0.826186
O O5 0.959946 0.588515 0.762035
O O6 0.180953 0.628930 0.681654
O O7 0.000000 0.500000 0.500000
O O8 0.259936 0.108912 0.481768
O O9 0.731724 0.878516 0.909475
O O10 0.138002 0.779570 0.270241
O O11 0.458382 0.779826 0.444714
O O12 0.982127 0.070342 0.288881
O O13 0.000000 0.000000 0.000000
O O14 0.823947 0.454862 0.761627
O O15 0.855808 0.295438 0.031458
#
# Coordination Sequence:
#
# PCOD9050422 Si02
#       7
#     2   2   2   2   2   2   2
#     4  11  22  39  65 101 132 164 212 275 322 382
#     4  12  24  38  67 102 134 163 215 276 328 379
#     4  11  22  38  66  98 134 168 218 267 320 377
#     4  10  25  41  64  95 133 173 220 260 325 394
#     4  11  23  41  68  95 132 179 218 263 318 389
#     4  12  23  43  68  94 131 174 215 270 326 382
#     4  11  22  37  64  99 135 168 214 265 325 375
#
# _framework density 28.754992999999999
#
# number of rings (size 3 to 8) (size 9 to 14) (size 15 to 20)
#    0.000    0.857    5.714    2.143    4.000    0.000 
#    0.000    0.714    3.143    2.571    0.000    0.000 
#    0.000    0.000    0.000    0.000    0.000    0.000 
#
# Total GULP energy -78052.938946 kJ/mol
# GULP energy per Si atom -5575.209925 kJ/mol
# Density = 2.868954 g / cm^3
# Si number density = 28.754993 Si / 1000 Ang^3
#
#
#
# Elastic Constant Matrix: (Units=GPa)
#
#
# Indices 1 2 3 4 5 6 
#
# 1 69.5464 43.9388 16.1179 -7.0908 5.5921 7.7326
# 2 43.9388 245.9552 39.5737 -3.6272 -10.5872 49.5900
# 3 16.1179 39.5737 115.0764 -27.4772 3.0623 -14.7716
# 4 -7.0908 -3.6272 -27.4772 63.2865 -9.0494 -2.5523
# 5 5.5921 -10.5872 3.0623 -9.0494 34.2997 -11.6796
# 6 7.7326 49.5900 -14.7716 -2.5523 -11.6796 63.8099
#
#
#
# Elastic Compliance Matrix: (Units=1/GPa)
#
#
# Indices 1 2 3 4 5 6 
#
# 1 0.016882 -0.002799 -0.001256 0.000638 -0.003607 -0.000796
# 2 -0.002799 0.005963 -0.002583 -0.001208 0.000561 -0.004839
# 3 -0.001256 -0.002583 0.011642 0.005205 0.001563 0.005349
# 4 0.000638 -0.001208 0.005205 0.018984 0.005363 0.003808
# 5 -0.003607 0.000561 0.001563 0.005363 0.033475 0.006704
# 6 -0.000796 -0.004839 0.005349 0.003808 0.006704 0.022146
#
#
# Mechanical properties :
#
#
# Convention : Reuss Voigt Hill
#
# Bulk Modulus (GPa) = 47.14554 69.98209 58.56381
# Shear Modulus (GPa) = 38.62826 54.34240 46.48533
#
# Velocity S-wave (km/s) = 3.66916 4.35195 4.02506
# Velocity P-wave (km/s) = 5.86358 7.04576 6.48168
#
# Compressibility (1/GPa) = 0.02121091
#
# Stress axis : x y z
#
# Youngs Moduli (GPa) = 59.23466 167.68722 85.89598
#
# Poissons Ratio (x) = 0.46940 0.10786
# Poissons Ratio (y) = 0.16581 0.22190
# Poissons Ratio (z) = 0.07438 0.43319
#
# Static dielectric constant tensor:
#      x y z
#    x 2.538870 -0.073550 0.010190 
#    y -0.073550 2.360260 0.086040 
#    z 0.010190 0.086040 2.244040 
# 
# From -- ./inp_files/259169.got.cif
#   From: 2010.05.17/outbox.cif.g08.bks.cpg/sg2_130_cif.got.tgz:259169.got - 2010.06.03 11:33:40.
