data_PCOD9050485
_publ_section_title
;
Structure prediction by ZEFSAII (Michael W. Deem and Ramdas Pophale) SiO2 
 PCOD9050485
Probable space group: P -1
;
_chemical_formula_sum "Si O2"
_cell_formula_units_Z 15
_cell_length_a 12.955143
_cell_length_b 14.445433
_cell_length_c 8.810964
_cell_angle_alpha 107.777053
_cell_angle_beta 67.679511
_cell_angle_gamma 46.449381
_cell_volume 590.039386
_symmetry_space_group_name_H-M "P -1"
_symmetry_group_IT_number 2
_symmetry_cell_setting 'triclinic'
loop_
_space_group_symop_operation_xyz
x,y,z
-x,-y,-z
loop_
_atom_site_type_symbol
_atom_site_label
_atom_site_fract_x
_atom_site_fract_y
_atom_site_fract_z
Si Si1 0.388632 0.095541 0.284715
Si Si2 0.488926 0.403126 0.764015
Si Si3 0.000000 0.500000 0.500000
Si Si4 0.906841 0.203430 0.568718
Si Si5 0.360686 0.912719 0.362424
Si Si6 0.200367 0.093340 0.865746
Si Si7 0.251138 0.508287 0.438613
Si Si8 0.691838 0.210083 0.247696
O O1 0.094597 0.375366 0.550867
O O2 0.432991 0.953420 0.255675
O O3 0.567024 0.019487 0.258410
O O4 0.500000 0.000000 0.000000
O O5 0.789757 0.202384 0.550140
O O6 0.498717 0.413794 0.584605
O O7 0.448057 0.321444 0.784536
O O8 0.278262 0.630964 0.095770
O O9 0.201909 0.435356 0.387160
O O10 0.871123 0.323539 0.536613
O O11 0.209383 0.969288 0.347542
O O12 0.183929 0.095633 0.695172
O O13 0.289856 0.917155 0.783887
O O14 0.928706 0.338173 0.230626
O O15 0.546436 0.319115 0.221326
O O16 0.000000 0.000000 0.000000
#
# Coordination Sequence:
#
# PCOD9050485 Si02
#       8
#     2   2   1   2   2   2   2   2
#     4  12  24  43  69  99 133 175 225 272 336 395
#     4  10  25  42  64  96 132 174 224 274 327 394
#     4  12  24  44  70 102 134 170 230 274 328 402
#     4  11  23  42  66  96 133 177 223 274 328 394
#     4  11  24  42  66  96 134 176 218 275 335 391
#     4  11  24  43  66  99 138 173 222 275 328 403
#     4  12  25  43  70  99 135 178 223 275 334 394
#     4  11  25  44  68  98 135 178 222 274 333 396
#
# _framework density 25.422031
#
# number of rings (size 3 to 8) (size 9 to 14) (size 15 to 20)
#    0.000    0.800    4.000    2.400    1.867    8.533 
#    0.000    0.667    0.000    0.000    0.000    0.000 
#    0.000    0.000    0.000    0.000    0.000    0.000 
#
# Total GULP energy -83600.397656 kJ/mol
# GULP energy per Si atom -5573.359844 kJ/mol
# Density = 2.536417 g / cm^3
# Si number density = 25.422031 Si / 1000 Ang^3
#
#
#
# Elastic Constant Matrix: (Units=GPa)
#
#
# Indices 1 2 3 4 5 6 
#
# 1 150.8028 36.3578 7.4137 -6.0768 -3.2588 -7.6272
# 2 36.3578 95.6401 8.0411 -12.8641 0.5792 -6.2459
# 3 7.4137 8.0411 64.3264 -20.2695 25.8781 -14.5697
# 4 -6.0768 -12.8641 -20.2695 28.6067 -11.6164 -6.0698
# 5 -3.2588 0.5792 25.8781 -11.6164 25.5237 -4.3380
# 6 -7.6272 -6.2459 -14.5697 -6.0698 -4.3380 69.0753
#
#
#
# Elastic Compliance Matrix: (Units=1/GPa)
#
#
# Indices 1 2 3 4 5 6 
#
# 1 0.007438 -0.002602 -0.001273 0.000732 0.002726 0.000553
# 2 -0.002602 0.012389 0.000173 0.006462 0.002422 0.001589
# 3 -0.001273 0.000173 0.031108 0.013090 -0.024724 0.006034
# 4 0.000732 0.006462 0.013090 0.054493 0.013011 0.009032
# 5 0.002726 0.002422 -0.024724 0.013011 0.070611 0.000883
# 6 0.000553 0.001589 0.006034 0.009032 0.000883 0.016804
#
#
# Mechanical properties :
#
#
# Convention : Reuss Voigt Hill
#
# Bulk Modulus (GPa) = 22.97227 46.04381 34.50804
# Shear Modulus (GPa) = 23.28212 41.90491 32.59352
#
# Velocity S-wave (km/s) = 3.02954 4.06442 3.58452
# Velocity P-wave (km/s) = 4.61449 6.33854 5.54394
#
# Compressibility (1/GPa) = 0.04353074
#
# Stress axis : x y z
#
# Youngs Moduli (GPa) = 134.45313 80.71788 32.14559
#
# Poissons Ratio (x) = 0.21005 0.04091
# Poissons Ratio (y) = 0.34988 -0.00555
# Poissons Ratio (z) = 0.17110 -0.01395
#
# Static dielectric constant tensor:
#      x y z
#    x 1.940480 0.013650 -0.042050 
#    y 0.013650 1.964410 0.034700 
#    z -0.042050 0.034700 2.122020 
# 
# From -- ./inp_files/273649.got.cif
#   From: 2010.05.17/outbox.cif.g08.bks.cpg/sg2_137_cif.got.tgz:273649.got - 2010.06.03 11:33:40.
