data_PCOD9050794
_publ_section_title
;
Structure prediction by ZEFSAII (Michael W. Deem and Ramdas Pophale) SiO2 
 PCOD9050794
Probable space group: P -1
;
_chemical_formula_sum "Si O2"
_cell_formula_units_Z 12
_cell_length_a 11.610508
_cell_length_b 4.809015
_cell_length_c 10.787557
_cell_angle_alpha 92.593087
_cell_angle_beta 108.979649
_cell_angle_gamma 68.151268
_cell_volume 526.690591
_symmetry_space_group_name_H-M "P -1"
_symmetry_group_IT_number 2
_symmetry_cell_setting 'triclinic'
loop_
_space_group_symop_operation_xyz
x,y,z
-x,-y,-z
loop_
_atom_site_type_symbol
_atom_site_label
_atom_site_fract_x
_atom_site_fract_y
_atom_site_fract_z
Si Si1 0.355134 0.147791 0.293811
Si Si2 0.043498 0.635744 0.896777
Si Si3 0.176201 0.595944 0.580607
Si Si4 0.919393 0.808461 0.323799
Si Si5 0.206189 0.790885 0.144866
Si Si6 0.396777 0.782465 0.543498
O O1 0.500000 0.500000 0.500000
O O2 0.316164 0.933836 0.183836
O O3 0.333871 0.036945 0.421600
O O4 0.505760 0.116373 0.336680
O O5 0.070498 0.378956 0.799704
O O6 0.921600 0.949217 0.833871
O O7 0.000000 0.500000 0.000000
O O8 0.163320 0.714546 0.994239
O O9 0.182426 0.278386 0.626816
O O10 0.059566 0.690434 0.440434
O O11 0.126816 0.833995 0.682426
O O12 0.299704 0.649750 0.570498
O O13 0.261077 0.488922 0.238923
#
# Coordination Sequence:
#
# PCOD9050794 Si02
#       6
#     2   2   2   2   2   2
#     4  11  24  40  63 102 134 168 221 288 333 385
#     4  11  25  41  70 103 131 184 226 283 332 395
#     4  10  25  44  67  98 138 179 219 277 346 408
#     4  10  25  44  67  98 138 179 219 277 346 408
#     4  11  24  40  63 102 134 168 221 288 333 385
#     4  11  25  41  70 103 131 184 226 283 332 395
#
# _framework density 22.783776
#
# number of rings (size 3 to 8) (size 9 to 14) (size 15 to 20)
#    0.000    1.333    3.333    0.000   14.000    1.333 
#    0.000    0.000    0.000    6.000    0.000    0.000 
#    0.000    0.000    0.000    0.000    0.000    0.000 
#
# Total GULP energy -67154.613011 kJ/mol
# GULP energy per Si atom -5596.217751 kJ/mol
# Density = 2.273192 g / cm^3
# Si number density = 22.783776 Si / 1000 Ang^3
#
#
#
# Elastic Constant Matrix: (Units=GPa)
#
#
# Indices 1 2 3 4 5 6 
#
# 1 107.0256 14.6653 54.0328 10.8979 19.8468 25.2829
# 2 14.6653 146.3048 32.4977 -0.6788 12.5802 2.9970
# 3 54.0328 32.4977 156.2679 37.3695 30.1217 1.6593
# 4 10.8979 -0.6788 37.3695 49.9498 4.6586 9.9367
# 5 19.8468 12.5802 30.1217 4.6586 44.1438 14.1195
# 6 25.2829 2.9970 1.6593 9.9367 14.1195 35.5359
#
#
#
# Elastic Compliance Matrix: (Units=1/GPa)
#
#
# Indices 1 2 3 4 5 6 
#
# 1 0.014467 0.000031 -0.005834 0.003381 0.000710 -0.011250
# 2 0.000031 0.007315 -0.001742 0.001609 -0.000867 -0.000663
# 3 -0.005834 -0.001742 0.012230 -0.009042 -0.007185 0.009110
# 4 0.003381 0.001609 -0.009042 0.027975 0.005062 -0.011953
# 5 0.000710 -0.000867 -0.007185 0.005062 0.031427 -0.013999
# 6 -0.011250 -0.000663 0.009110 -0.011953 -0.013999 0.044680
#
#
# Mechanical properties :
#
#
# Convention : Reuss Voigt Hill
#
# Bulk Modulus (GPa) = 52.85685 67.99886 60.42786
# Shear Modulus (GPa) = 31.34965 46.48606 38.91785
#
# Velocity S-wave (km/s) = 3.71342 4.52188 4.13745
# Velocity P-wave (km/s) = 6.45257 7.56131 7.02884
#
# Compressibility (1/GPa) = 0.01891902
#
# Stress axis : x y z
#
# Youngs Moduli (GPa) = 69.12425 136.71304 81.76880
#
# Poissons Ratio (x) = -0.00423 0.47708
# Poissons Ratio (y) = -0.00214 0.14247
# Poissons Ratio (z) = 0.40331 0.23821
#
# Static dielectric constant tensor:
#      x y z
#    x 1.898510 0.008850 -0.001120 
#    y 0.008850 1.878950 0.016800 
#    z -0.001120 0.016800 1.895570 
# 
# From -- ./inp_files/408777.got.cif
#   From: 2010.05.17/outbox.cif.g08.bks.cpg/sg2_205_cif.got.tgz:408777.got - 2010.06.03 11:33:40.
