data_PCOD9050579
_publ_section_title
;
Structure prediction by ZEFSAII (Michael W. Deem and Ramdas Pophale) SiO2 
 PCOD9050579
Probable space group: P -1
;
_chemical_formula_sum "Si O2"
_cell_formula_units_Z 14
_cell_length_a 12.872699
_cell_length_b 5.268390
_cell_length_c 10.812960
_cell_angle_alpha 96.829359
_cell_angle_beta 132.266271
_cell_angle_gamma 94.882280
_cell_volume 525.048659
_symmetry_space_group_name_H-M "P -1"
_symmetry_group_IT_number 2
_symmetry_cell_setting 'triclinic'
loop_
_space_group_symop_operation_xyz
x,y,z
-x,-y,-z
loop_
_atom_site_type_symbol
_atom_site_label
_atom_site_fract_x
_atom_site_fract_y
_atom_site_fract_z
Si Si1 0.876576 0.042925 0.583086
Si Si2 0.496988 0.833228 0.863513
Si Si3 0.425299 0.097671 0.564855
Si Si4 0.197956 0.513503 0.631655
Si Si5 0.092656 0.526515 0.820649
Si Si6 0.924091 0.711603 0.884492
Si Si7 0.667555 0.551618 0.837989
O O1 0.838743 0.270432 0.477566
O O2 0.027334 0.212396 0.766212
O O3 0.748141 0.973359 0.577885
O O4 0.863404 0.786961 0.473129
O O5 0.370903 0.576003 0.774235
O O6 0.642598 0.750596 0.935922
O O7 0.460394 0.974822 0.717200
O O8 0.500000 0.000000 0.000000
O O9 0.510253 0.398816 0.661209
O O10 0.500000 0.000000 0.500000
O O11 0.139568 0.571565 0.720913
O O12 0.967438 0.664199 0.776268
O O13 0.234093 0.618406 0.023954
O O14 0.761131 0.656155 0.798833
O O15 0.000000 0.500000 0.000000
O O16 0.000000 0.000000 0.000000
#
# Coordination Sequence:
#
# PCOD9050579 Si02
#       7
#     2   2   2   2   2   2   2
#     4  11  25  48  68 111 146 201 249 308 374 461
#     4  11  26  45  78 113 148 197 255 319 376 449
#     4  11  25  48  73 104 154 198 252 306 381 452
#     4  11  25  45  73 105 152 197 253 303 382 452
#     4  11  25  45  74 105 149 196 248 316 378 446
#     4  10  25  43  65 103 141 183 238 296 368 435
#     4  11  25  46  75 107 145 193 253 312 378 446
#
# _framework density 26.664194999999999
#
# number of rings (size 3 to 8) (size 9 to 14) (size 15 to 20)
#    0.000    1.143    1.429    2.571   10.000    5.143 
#    2.571    0.000    0.000    0.000    0.000    0.000 
#    0.000    0.000    0.000    0.000    0.000    0.000 
#
# Total GULP energy -78428.163907 kJ/mol
# GULP energy per Si atom -5602.011708 kJ/mol
# Density = 2.660351 g / cm^3
# Si number density = 26.664195 Si / 1000 Ang^3
#
#
#
# Elastic Constant Matrix: (Units=GPa)
#
#
# Indices 1 2 3 4 5 6 
#
# 1 255.4867 45.3064 49.2590 10.9009 -24.9664 9.8004
# 2 45.3064 104.7560 31.0584 27.7617 -12.5232 9.9021
# 3 49.2590 31.0584 89.1532 19.1535 -11.6396 9.6054
# 4 10.9009 27.7617 19.1535 45.7245 2.4962 -1.5680
# 5 -24.9664 -12.5232 -11.6396 2.4962 71.5668 6.4485
# 6 9.8004 9.9021 9.6054 -1.5680 6.4485 46.9359
#
#
#
# Elastic Compliance Matrix: (Units=1/GPa)
#
#
# Indices 1 2 3 4 5 6 
#
# 1 0.004645 -0.001380 -0.002011 0.000501 0.001070 -0.000398
# 2 -0.001380 0.013004 -0.001711 -0.007048 0.001997 -0.002615
# 3 -0.002011 -0.001711 0.014441 -0.004715 0.001744 -0.002572
# 4 0.000501 -0.007048 -0.004715 0.028305 -0.003148 0.003725
# 5 0.001070 0.001997 0.001744 -0.003148 0.015379 -0.003220
# 6 -0.000398 -0.002615 -0.002572 0.003725 -0.003220 0.023033
#
#
# Mechanical properties :
#
#
# Convention : Reuss Voigt Hill
#
# Bulk Modulus (GPa) = 45.68929 77.84928 61.76929
# Shear Modulus (GPa) = 42.98978 54.43025 48.71002
#
# Velocity S-wave (km/s) = 4.01966 4.52300 4.27874
# Velocity P-wave (km/s) = 6.22220 7.51906 6.90116
#
# Compressibility (1/GPa) = 0.02188697
#
# Stress axis : x y z
#
# Youngs Moduli (GPa) = 215.28736 76.89971 69.24589
#
# Poissons Ratio (x) = 0.10612 0.13923
# Poissons Ratio (y) = 0.29708 0.11848
# Poissons Ratio (z) = 0.43288 0.13158
#
# Static dielectric constant tensor:
#      x y z
#    x 2.064380 -0.011010 0.017350 
#    y -0.011010 2.213860 -0.094330 
#    z 0.017350 -0.094330 2.230810 
# 
# From -- ./inp_files/68903.got.cif
#   From: 2010.05.17/outbox.cif.g08.bks.cpg/sg2_35_cif.got.tgz:68903.got - 2010.06.03 11:33:40.
