data_PCOD9050608
_publ_section_title
;
Structure prediction by ZEFSAII (Michael W. Deem and Ramdas Pophale) SiO2 
 PCOD9050608
Probable space group: P -1
;
_chemical_formula_sum "Si O2"
_cell_formula_units_Z 14
_cell_length_a 9.227853
_cell_length_b 20.709953
_cell_length_c 11.859330
_cell_angle_alpha 150.523421
_cell_angle_beta 120.756501
_cell_angle_gamma 38.994996
_cell_volume 593.526189
_symmetry_space_group_name_H-M "P -1"
_symmetry_group_IT_number 2
_symmetry_cell_setting 'triclinic'
loop_
_space_group_symop_operation_xyz
x,y,z
-x,-y,-z
loop_
_atom_site_type_symbol
_atom_site_label
_atom_site_fract_x
_atom_site_fract_y
_atom_site_fract_z
Si Si1 0.127019 0.821593 0.093024
Si Si2 0.004930 0.088568 0.246426
Si Si3 0.239500 0.229348 0.797951
Si Si4 0.477469 0.825216 0.557063
Si Si5 0.594862 0.596452 0.479195
Si Si6 0.480221 0.106816 0.941777
Si Si7 0.321495 0.417345 0.958228
O O1 0.396565 0.680400 0.058865
O O2 0.110442 0.938610 0.165231
O O3 0.162617 0.655471 0.799967
O O4 0.845029 0.004062 0.323982
O O5 0.687714 0.312622 0.479469
O O6 0.229149 0.057281 0.255472
O O7 0.000000 0.000000 0.000000
O O8 0.264963 0.215779 0.921613
O O9 0.255622 0.366453 0.962177
O O10 0.500000 0.000000 0.500000
O O11 0.956957 0.336896 0.808441
O O12 0.585595 0.668794 0.462826
O O13 0.626722 0.704724 0.316415
O O14 0.500451 0.964304 0.806853
O O15 0.589526 0.719011 0.752477
#
# Coordination Sequence:
#
# PCOD9050608 Si02
#       7
#     2   2   2   2   2   2   2
#     4  11  24  44  67 100 137 179 220 274 333 405
#     4   9  21  42  66  97 131 174 220 274 330 390
#     4  11  24  43  69 102 130 174 225 282 334 385
#     4  11  25  44  66 100 136 179 222 272 337 397
#     4  10  25  43  67 100 134 178 222 270 345 395
#     4  11  22  45  69  95 137 170 225 286 323 396
#     4  11  25  43  68 100 132 175 228 273 334 396
#
# _framework density 23.587838999999999
#
# number of rings (size 3 to 8) (size 9 to 14) (size 15 to 20)
#    0.000    1.429    2.857    0.857    4.000    3.429 
#    7.714    0.000    0.000    0.000    0.000    0.000 
#    0.000    0.000    0.000    0.000    0.000    0.000 
#
# Total GULP energy -78334.463574 kJ/mol
# GULP energy per Si atom -5595.318827 kJ/mol
# Density = 2.353415 g / cm^3
# Si number density = 23.587839 Si / 1000 Ang^3
#
#
#
# Elastic Constant Matrix: (Units=GPa)
#
#
# Indices 1 2 3 4 5 6 
#
# 1 85.5474 8.7950 0.7958 9.9604 -5.3926 -2.4181
# 2 8.7950 75.0004 18.6698 6.4889 -9.9816 -12.9458
# 3 0.7958 18.6698 90.9002 6.2983 -11.9224 -3.5869
# 4 9.9604 6.4889 6.2983 34.1138 -3.5006 -5.4829
# 5 -5.3926 -9.9816 -11.9224 -3.5006 27.5779 -4.2883
# 6 -2.4181 -12.9458 -3.5869 -5.4829 -4.2883 24.1318
#
#
#
# Elastic Compliance Matrix: (Units=1/GPa)
#
#
# Indices 1 2 3 4 5 6 
#
# 1 0.012297 -0.000978 0.000591 -0.003248 0.001957 0.000405
# 2 -0.000978 0.016481 -0.002160 -0.000284 0.006277 0.009473
# 3 0.000591 -0.002160 0.012187 -0.001340 0.004624 0.001229
# 4 -0.003248 -0.000284 -0.001340 0.032140 0.003901 0.007319
# 5 0.001957 0.006277 0.004624 0.003901 0.043408 0.012851
# 6 0.000405 0.009473 0.001229 0.007319 0.012851 0.050691
#
#
# Mechanical properties :
#
#
# Convention : Reuss Voigt Hill
#
# Bulk Modulus (GPa) = 27.87659 34.21881 31.04770
# Shear Modulus (GPa) = 27.13642 32.04387 29.59014
#
# Velocity S-wave (km/s) = 3.39549 3.68977 3.54569
# Velocity P-wave (km/s) = 5.21693 5.71760 5.47300
#
# Compressibility (1/GPa) = 0.03587239
#
# Stress axis : x y z
#
# Youngs Moduli (GPa) = 81.31804 60.67716 82.05300
#
# Poissons Ratio (x) = 0.05933 -0.04848
# Poissons Ratio (y) = 0.07951 0.17720
# Poissons Ratio (z) = -0.04805 0.13104
#
# Static dielectric constant tensor:
#      x y z
#    x 1.874460 -0.053840 0.011320 
#    y -0.053840 1.895210 0.006310 
#    z 0.011320 0.006310 1.903310 
# 
# From -- ./inp_files/68346.got.cif
#   From: 2010.05.17/outbox.cif.g08.bks.cpg/sg2_35_cif.got.tgz:68346.got - 2010.06.03 11:33:40.
