data_PCOD9050450
_publ_section_title
;
Structure prediction by ZEFSAII (Michael W. Deem and Ramdas Pophale) SiO2 
 PCOD9050450
Probable space group: P -1
;
_chemical_formula_sum "Si O2"
_cell_formula_units_Z 14
_cell_length_a 9.476398
_cell_length_b 8.020034
_cell_length_c 14.267069
_cell_angle_alpha 110.267587
_cell_angle_beta 39.987926
_cell_angle_gamma 113.201930
_cell_volume 638.626511
_symmetry_space_group_name_H-M "P -1"
_symmetry_group_IT_number 2
_symmetry_cell_setting 'triclinic'
loop_
_space_group_symop_operation_xyz
x,y,z
-x,-y,-z
loop_
_atom_site_type_symbol
_atom_site_label
_atom_site_fract_x
_atom_site_fract_y
_atom_site_fract_z
Si Si1 0.950969 0.589550 0.409288
Si Si2 0.350469 0.871740 0.334677
Si Si3 0.198008 0.133044 0.799827
Si Si4 0.335949 0.204558 0.271024
Si Si5 0.723659 0.556366 0.336301
Si Si6 0.171141 0.680739 0.915388
Si Si7 0.075662 0.836476 0.650858
O O1 0.777118 0.663200 0.579838
O O2 0.914533 0.640947 0.330494
O O3 0.908122 0.372962 0.390822
O O4 0.195812 0.683473 0.340812
O O5 0.603714 0.862953 0.226719
O O6 0.238196 0.918170 0.497972
O O7 0.329062 0.023557 0.299729
O O8 0.283292 0.297294 0.713110
O O9 0.146725 0.950980 0.729385
O O10 0.970167 0.165844 0.969357
O O11 0.598207 0.285640 0.137222
O O12 0.177391 0.162902 0.253516
O O13 0.500000 0.500000 0.500000
O O14 0.764451 0.372373 0.231502
O O15 0.000000 0.500000 0.000000
#
# Coordination Sequence:
#
# PCOD9050450 Si02
#       7
#     2   2   2   2   2   2   2
#     4  11  23  40  69 102 128 170 224 276 324 381
#     4  11  23  40  68 100 135 170 222 274 323 387
#     4  11  25  44  64 100 138 172 216 269 331 394
#     4  11  22  42  68  94 133 173 220 275 325 385
#     4  11  21  41  72  96 128 171 228 272 320 385
#     4  10  25  41  69  94 135 175 216 267 338 386
#     4  11  24  39  68 100 134 170 222 273 325 387
#
# _framework density 21.922045000000001
#
# number of rings (size 3 to 8) (size 9 to 14) (size 15 to 20)
#    0.000    1.143    1.429    6.429    8.000    1.143 
#    0.000    0.714    0.000    0.000    0.000    0.000 
#    0.000    0.000    0.000    0.000    0.000    0.000 
#
# Total GULP energy -78354.830148 kJ/mol
# GULP energy per Si atom -5596.773582 kJ/mol
# Density = 2.187215 g / cm^3
# Si number density = 21.922045 Si / 1000 Ang^3
#
#
#
# Elastic Constant Matrix: (Units=GPa)
#
#
# Indices 1 2 3 4 5 6 
#
# 1 108.1162 22.4059 27.5857 7.7603 -28.3278 4.6337
# 2 22.4059 96.8382 20.4890 4.3825 -5.2636 -8.1320
# 3 27.5857 20.4890 88.7549 -5.8692 -18.0580 10.1062
# 4 7.7603 4.3825 -5.8692 25.1299 7.5987 1.5194
# 5 -28.3278 -5.2636 -18.0580 7.5987 39.0699 -3.4895
# 6 4.6337 -8.1320 10.1062 1.5194 -3.4895 37.5770
#
#
#
# Elastic Compliance Matrix: (Units=1/GPa)
#
#
# Indices 1 2 3 4 5 6 
#
# 1 0.013255 -0.001768 -0.002179 -0.007228 0.009750 -0.000233
# 2 -0.001768 0.011710 -0.002755 -0.002290 -0.000214 0.003566
# 3 -0.002179 -0.002755 0.013966 0.003607 0.003453 -0.003909
# 4 -0.007228 -0.002290 0.003607 0.047566 -0.013468 -0.003749
# 5 0.009750 -0.000214 0.003453 -0.013468 0.037012 0.001804
# 6 -0.000233 0.003566 -0.003909 -0.003749 0.001804 0.028783
#
#
# Mechanical properties :
#
#
# Convention : Reuss Voigt Hill
#
# Bulk Modulus (GPa) = 39.17372 48.29671 43.73522
# Shear Modulus (GPa) = 28.70153 35.23729 31.96941
#
# Velocity S-wave (km/s) = 3.62229 4.01358 3.82294
# Velocity P-wave (km/s) = 5.95004 6.59980 6.28332
#
# Compressibility (1/GPa) = 0.02552731
#
# Stress axis : x y z
#
# Youngs Moduli (GPa) = 75.44140 85.39750 71.60016
#
# Poissons Ratio (x) = 0.15101 0.15603
# Poissons Ratio (y) = 0.13341 0.19723
# Poissons Ratio (z) = 0.16440 0.23524
#
# Static dielectric constant tensor:
#      x y z
#    x 1.825410 -0.013770 -0.010690 
#    y -0.013770 1.831030 -0.005690 
#    z -0.010690 -0.005690 1.806180 
# 
# From -- ./inp_files/495380.got.cif
#   From: 2010.05.17/outbox.cif.g08.bks.cpg/sg2_248_cif.got.tgz:495380.got - 2010.06.03 11:33:40.
