data_PCOD9050827
_publ_section_title
;
Structure prediction by ZEFSAII (Michael W. Deem and Ramdas Pophale) SiO2 
 PCOD9050827
Probable space group: P -1
;
_chemical_formula_sum "Si O2"
_cell_formula_units_Z 14
_cell_length_a 8.679077
_cell_length_b 7.699291
_cell_length_c 11.500013
_cell_angle_alpha 78.171300
_cell_angle_beta 78.206809
_cell_angle_gamma 45.796981
_cell_volume 537.119675
_symmetry_space_group_name_H-M "P -1"
_symmetry_group_IT_number 2
_symmetry_cell_setting 'triclinic'
loop_
_space_group_symop_operation_xyz
x,y,z
-x,-y,-z
loop_
_atom_site_type_symbol
_atom_site_label
_atom_site_fract_x
_atom_site_fract_y
_atom_site_fract_z
Si Si1 0.873987 0.491833 0.417403
Si Si2 0.391910 0.050874 0.754055
Si Si3 0.687658 0.384378 0.083053
Si Si4 0.074755 0.907198 0.679267
Si Si5 0.467146 0.817994 0.564834
Si Si6 0.342858 0.855778 0.214738
Si Si7 0.104159 0.230213 0.991294
O O1 0.811293 0.703046 0.312838
O O2 0.944363 0.272130 0.355272
O O3 0.656676 0.581641 0.498430
O O4 0.000000 0.500000 0.500000
O O5 0.569589 0.066951 0.721181
O O6 0.297488 0.078507 0.889952
O O7 0.498315 0.808325 0.700664
O O8 0.813757 0.183683 0.196762
O O9 0.558677 0.619206 0.154153
O O10 0.500000 0.500000 0.000000
O O11 0.891446 0.283052 0.986279
O O12 0.230849 0.913120 0.578335
O O13 0.825673 0.152330 0.704124
O O14 0.500000 0.000000 0.500000
O O15 0.208227 0.068203 0.111867
O O16 0.000000 0.500000 0.000000
#
# Coordination Sequence:
#
# PCOD9050827 Si02
#       7
#     2   2   2   2   2   2   2
#     4  11  23  47  69 102 139 182 247 300 349 422
#     4  11  22  43  67 101 141 186 237 291 357 416
#     4  11  26  41  66 108 146 185 235 281 355 444
#     4  11  24  46  73 100 143 189 232 303 362 417
#     4  10  25  44  68  99 133 183 244 297 357 422
#     4  11  23  43  69 102 144 185 234 289 354 437
#     4  11  23  40  67 104 141 190 235 283 354 427
#
# _framework density 26.064955000000001
#
# number of rings (size 3 to 8) (size 9 to 14) (size 15 to 20)
#    0.000    1.143    2.857    2.571    4.000    2.286 
#    2.571    5.714    0.000    0.000    0.000    0.000 
#    0.000    0.000    0.000    0.000    0.000    0.000 
#
# Total GULP energy -78081.614005 kJ/mol
# GULP energy per Si atom -5577.258143 kJ/mol
# Density = 2.600563 g / cm^3
# Si number density = 26.064955 Si / 1000 Ang^3
#
#
#
# Elastic Constant Matrix: (Units=GPa)
#
#
# Indices 1 2 3 4 5 6 
#
# 1 121.4422 -2.5711 36.0862 2.5636 -3.0576 -33.0533
# 2 -2.5711 54.0587 11.4808 13.7214 -14.3803 -6.8747
# 3 36.0862 11.4808 108.0349 6.7721 -3.9143 -12.1281
# 4 2.5636 13.7214 6.7721 57.3439 -11.3478 6.3906
# 5 -3.0576 -14.3803 -3.9143 -11.3478 47.5801 8.6770
# 6 -33.0533 -6.8747 -12.1281 6.3906 8.6770 39.8252
#
#
#
# Elastic Compliance Matrix: (Units=1/GPa)
#
#
# Indices 1 2 3 4 5 6 
#
# 1 0.011953 0.002778 -0.003063 -0.002150 -0.000986 0.010027
# 2 0.002778 0.022226 -0.002231 -0.004853 0.004600 0.005239
# 3 -0.003063 -0.002231 0.010602 -0.000682 -0.000246 0.000465
# 4 -0.002150 -0.004853 -0.000682 0.020460 0.004513 -0.007096
# 5 -0.000986 0.004600 -0.000246 0.004513 0.024525 -0.006167
# 6 0.010027 0.005239 0.000465 -0.007096 -0.006167 0.036960
#
#
# Mechanical properties :
#
#
# Convention : Reuss Voigt Hill
#
# Bulk Modulus (GPa) = 25.15797 41.50307 33.33052
# Shear Modulus (GPa) = 34.48090 44.85249 39.66669
#
# Velocity S-wave (km/s) = 3.64109 4.15275 3.90531
# Velocity P-wave (km/s) = 5.22970 6.24110 5.75765
#
# Compressibility (1/GPa) = 0.03974883
#
# Stress axis : x y z
#
# Youngs Moduli (GPa) = 83.66137 44.99276 94.31792
#
# Poissons Ratio (x) = -0.12497 0.28890
# Poissons Ratio (y) = -0.23238 0.21040
# Poissons Ratio (z) = 0.25626 0.10037
#
# Static dielectric constant tensor:
#      x y z
#    x 2.153690 0.031530 -0.004700 
#    y 0.031530 2.065160 -0.005360 
#    z -0.004700 -0.005360 2.122980 
# 
# From -- ./inp_files/381931.got.cif
#   From: 2010.05.17/outbox.cif.g08.bks.cpg/sg2_191_cif.got.tgz:381931.got - 2010.06.03 11:33:40.
