data_PCOD9050164
_publ_section_title
;
Structure prediction by ZEFSAII (Michael W. Deem and Ramdas Pophale) SiO2 
 PCOD9050164
Probable space group: P -1
;
_chemical_formula_sum "Si O2"
_cell_formula_units_Z 16
_cell_length_a 8.986709
_cell_length_b 5.622664
_cell_length_c 24.519981
_cell_angle_alpha 104.572169
_cell_angle_beta 42.019064
_cell_angle_gamma 121.523125
_cell_volume 686.328096
_symmetry_space_group_name_H-M "P -1"
_symmetry_group_IT_number 2
_symmetry_cell_setting 'triclinic'
loop_
_space_group_symop_operation_xyz
x,y,z
-x,-y,-z
loop_
_atom_site_type_symbol
_atom_site_label
_atom_site_fract_x
_atom_site_fract_y
_atom_site_fract_z
Si Si1 0.632137 0.263271 0.321727
Si Si2 0.186017 0.512005 0.241776
Si Si3 0.415511 0.863056 0.798786
Si Si4 0.709094 0.815475 0.892478
Si Si5 0.447456 0.347186 0.564367
Si Si6 0.847020 0.450108 0.919614
Si Si7 0.201087 0.798656 0.486889
Si Si8 0.086513 0.175164 0.344839
O O1 0.631795 0.156689 0.255086
O O2 0.516199 0.462984 0.380990
O O3 0.923023 0.434652 0.277195
O O4 0.432476 0.987329 0.394504
O O5 0.254594 0.291558 0.182055
O O6 0.112816 0.447391 0.321779
O O7 0.437973 0.831521 0.192416
O O8 0.631815 0.776102 0.736611
O O9 0.123452 0.643703 0.885463
O O10 0.806237 0.657506 0.900056
O O11 0.839707 0.163158 0.881157
O O12 0.405391 0.681080 0.980759
O O13 0.500000 0.500000 0.500000
O O14 0.650663 0.244711 0.506406
O O15 0.150074 0.095260 0.635797
O O16 0.000000 0.500000 0.500000
O O17 0.017769 0.898999 0.569288
#
# Coordination Sequence:
#
# PCOD9050164 Si02
#       8
#     2   2   2   2   2   2   2   2
#     4  12  25  45  68  96 141 187 237 306 368 427
#     4  12  26  45  72 106 142 193 239 301 372 441
#     4  12  28  43  73 110 141 187 249 302 361 448
#     4  10  24  48  81 109 151 198 238 297 377 439
#     4  12  24  42  66  91 132 188 240 299 369 427
#     4  10  24  49  78 114 149 193 244 300 366 449
#     4  12  26  42  64  92 131 189 241 298 361 429
#     4  12  26  42  64 100 140 181 245 302 361 437
#
# _framework density 23.312466000000001
#
# number of rings (size 3 to 8) (size 9 to 14) (size 15 to 20)
#    0.000    0.500    5.000    2.625    7.000    2.500 
#    0.000    0.625    0.000    0.000    0.000    0.000 
#    0.000    0.000    0.000    0.000    0.000    0.000 
#
# Total GULP energy -89220.366275 kJ/mol
# GULP energy per Si atom -5576.272892 kJ/mol
# Density = 2.325941 g / cm^3
# Si number density = 23.312466 Si / 1000 Ang^3
#
#
#
# Elastic Constant Matrix: (Units=GPa)
#
#
# Indices 1 2 3 4 5 6 
#
# 1 73.2650 31.5784 32.2231 -21.0452 -34.0929 18.0332
# 2 31.5784 126.5069 29.3541 -10.8636 -22.7084 27.0283
# 3 32.2231 29.3541 100.7245 -7.7945 -31.8675 11.0419
# 4 -21.0452 -10.8636 -7.7945 48.0037 10.8541 -4.3592
# 5 -34.0929 -22.7084 -31.8675 10.8541 37.2062 -8.2847
# 6 18.0332 27.0283 11.0419 -4.3592 -8.2847 33.2786
#
#
#
# Elastic Compliance Matrix: (Units=1/GPa)
#
#
# Indices 1 2 3 4 5 6 
#
# 1 0.027792 -0.000746 -0.000734 0.006478 0.020663 -0.008218
# 2 -0.000746 0.010396 -0.001014 0.000535 0.003110 -0.006858
# 3 -0.000734 -0.001014 0.013846 -0.000778 0.010609 -0.000834
# 4 0.006478 0.000535 -0.000778 0.023942 -0.001599 -0.000949
# 5 0.020663 0.003110 0.010609 -0.001599 0.056509 -0.003384
# 6 -0.008218 -0.006858 -0.000834 -0.000949 -0.003384 0.039383
#
#
# Mechanical properties :
#
#
# Convention : Reuss Voigt Hill
#
# Bulk Modulus (GPa) = 21.25563 54.08973 37.67268
# Shear Modulus (GPa) = 25.96895 37.52042 31.74469
#
# Velocity S-wave (km/s) = 3.34121 4.01616 3.69413
# Velocity P-wave (km/s) = 4.90127 6.69018 5.86434
#
# Compressibility (1/GPa) = 0.04704636
#
# Stress axis : x y z
#
# Youngs Moduli (GPa) = 35.98114 96.19467 72.22233
#
# Poissons Ratio (x) = 0.07175 0.05302
# Poissons Ratio (y) = 0.02684 0.07322
# Poissons Ratio (z) = 0.02641 0.09753
#
# Static dielectric constant tensor:
#      x y z
#    x 1.935770 -0.102970 0.084980 
#    y -0.102970 1.655070 0.585330 
#    z 0.084980 0.585330 0.797720 
# 
# From -- ./inp_files/56407.got.cif
#   From: 2010.05.17/outbox.cif.g08.bks.cpg/sg2_29_cif.got.tgz:56407.got - 2010.06.03 11:33:40.
