data_PCOD9050492
_publ_section_title
;
Structure prediction by ZEFSAII (Michael W. Deem and Ramdas Pophale) SiO2 
 PCOD9050492
Probable space group: P -1
;
_chemical_formula_sum "Si O2"
_cell_formula_units_Z 14
_cell_length_a 12.076161
_cell_length_b 13.013114
_cell_length_c 11.582197
_cell_angle_alpha 42.057034
_cell_angle_beta 146.820669
_cell_angle_gamma 130.634355
_cell_volume 665.037932
_symmetry_space_group_name_H-M "P -1"
_symmetry_group_IT_number 2
_symmetry_cell_setting 'triclinic'
loop_
_space_group_symop_operation_xyz
x,y,z
-x,-y,-z
loop_
_atom_site_type_symbol
_atom_site_label
_atom_site_fract_x
_atom_site_fract_y
_atom_site_fract_z
Si Si1 0.840030 0.203263 0.414161
Si Si2 0.918913 0.462424 0.638407
Si Si3 0.741140 0.693038 0.812886
Si Si4 0.600376 0.351018 0.268963
Si Si5 0.379142 0.845709 0.981915
Si Si6 0.534011 0.539239 0.366971
Si Si7 0.998741 0.924863 0.691895
O O1 0.670831 0.225328 0.345616
O O2 0.965861 0.368533 0.392299
O O3 0.993281 0.066789 0.659375
O O4 0.720285 0.165146 0.222467
O O5 0.804216 0.420856 0.453502
O O6 0.732163 0.467283 0.557907
O O7 0.070124 0.339540 0.914342
O O8 0.557608 0.726650 0.710375
O O9 0.655185 0.532974 0.812512
O O10 0.813058 0.810404 0.675048
O O11 0.500000 0.500000 0.000000
O O12 0.541921 0.721081 0.219065
O O13 0.194355 0.825776 0.930389
O O14 0.500000 0.000000 0.000000
O O15 0.500000 0.500000 0.500000
O O16 0.000000 0.000000 0.500000
#
# Coordination Sequence:
#
# PCOD9050492 Si02
#       7
#     2   2   2   2   2   2   2
#     4  11  22  42  68  95 132 183 217 272 344 397
#     4  11  22  42  69 101 132 171 229 277 334 401
#     4  11  24  44  65 102 136 173 228 283 329 402
#     4  11  23  43  73 102 132 170 228 284 332 400
#     4  11  23  42  62  98 135 173 222 276 334 399
#     4  11  24  36  67  97 131 175 220 275 337 392
#     4  10  25  42  65  91 135 180 219 272 338 401
#
# _framework density 21.051431000000001
#
# number of rings (size 3 to 8) (size 9 to 14) (size 15 to 20)
#    0.000    1.143    2.857    3.000    8.000    1.714 
#    0.000    0.714    0.000    0.000    0.000    0.000 
#    0.000    0.000    0.000    0.000    0.000    0.000 
#
# Total GULP energy -77997.278290 kJ/mol
# GULP energy per Si atom -5571.234164 kJ/mol
# Density = 2.100352 g / cm^3
# Si number density = 21.051431 Si / 1000 Ang^3
#
#
#
# Elastic Constant Matrix: (Units=GPa)
#
#
# Indices 1 2 3 4 5 6 
#
# 1 159.1319 55.8248 30.2486 8.3554 22.2283 -16.7757
# 2 55.8248 100.4420 21.7063 9.3309 -3.4758 -11.0860
# 3 30.2486 21.7063 81.1626 17.8773 3.3042 -10.1264
# 4 8.3554 9.3309 17.8773 28.6570 -5.4003 3.1592
# 5 22.2283 -3.4758 3.3042 -5.4003 25.9078 -1.3448
# 6 -16.7757 -11.0860 -10.1264 3.1592 -1.3448 48.8340
#
#
#
# Elastic Compliance Matrix: (Units=1/GPa)
#
#
# Indices 1 2 3 4 5 6 
#
# 1 0.009991 -0.005189 -0.001155 -0.002513 -0.009545 0.001914
# 2 -0.005189 0.013624 -0.001636 -0.000833 0.006377 0.001201
# 3 -0.001155 -0.001636 0.015905 -0.009992 -0.003180 0.003089
# 4 -0.002513 -0.000833 -0.009992 0.045103 0.012424 -0.005700
# 5 -0.009545 0.006377 -0.003180 0.012424 0.050540 -0.001903
# 6 0.001914 0.001201 0.003089 -0.005700 -0.001903 0.022365
#
#
# Mechanical properties :
#
#
# Convention : Reuss Voigt Hill
#
# Bulk Modulus (GPa) = 42.44484 61.81067 52.12775
# Shear Modulus (GPa) = 27.57248 36.21022 31.89135
#
# Velocity S-wave (km/s) = 3.62300 4.15189 3.89643
# Velocity P-wave (km/s) = 6.14066 7.23946 6.71258
#
# Compressibility (1/GPa) = 0.02355999
#
# Stress axis : x y z
#
# Youngs Moduli (GPa) = 100.08973 73.39924 62.87464
#
# Poissons Ratio (x) = 0.38086 0.07261
# Poissons Ratio (y) = 0.51936 0.10287
# Poissons Ratio (z) = 0.11559 0.12009
#
# Static dielectric constant tensor:
#      x y z
#    x 1.841070 -0.033670 0.083090 
#    y -0.033670 1.767350 -0.059830 
#    z 0.083090 -0.059830 1.908550 
# 
# From -- ./inp_files/398085.got.cif
#   From: 2010.05.17/outbox.cif.g08.bks.cpg/sg2_200_cif.got.tgz:398085.got - 2010.06.03 11:33:40.
