data_PCOD9050503
_publ_section_title
;
Structure prediction by ZEFSAII (Michael W. Deem and Ramdas Pophale) SiO2 
 PCOD9050503
Probable space group: P -1
;
_chemical_formula_sum "Si O2"
_cell_formula_units_Z 16
_cell_length_a 9.670234
_cell_length_b 20.929980
_cell_length_c 17.864892
_cell_angle_alpha 161.071269
_cell_angle_beta 141.810253
_cell_angle_gamma 37.684464
_cell_volume 704.183393
_symmetry_space_group_name_H-M "P -1"
_symmetry_group_IT_number 2
_symmetry_cell_setting 'triclinic'
loop_
_space_group_symop_operation_xyz
x,y,z
-x,-y,-z
loop_
_atom_site_type_symbol
_atom_site_label
_atom_site_fract_x
_atom_site_fract_y
_atom_site_fract_z
Si Si1 0.666170 0.396990 0.390722
Si Si2 0.985541 0.029601 0.437249
Si Si3 0.382689 0.669947 0.198710
Si Si4 0.496996 0.964413 0.151513
Si Si5 0.815013 0.668924 0.217637
Si Si6 0.149080 0.225969 0.477880
Si Si7 0.393156 0.802313 0.085969
Si Si8 0.272343 0.427911 0.544997
O O1 0.500000 0.500000 0.500000
O O2 0.627026 0.533171 0.450299
O O3 0.930933 0.353052 0.481578
O O4 0.608391 0.183843 0.108815
O O5 0.205163 0.872676 0.320418
O O6 0.752477 0.977997 0.253634
O O7 0.000000 0.000000 0.500000
O O8 0.002789 0.254509 0.670848
O O9 0.604946 0.732303 0.395761
O O10 0.500000 0.500000 0.000000
O O11 0.216437 0.559655 0.052749
O O12 0.345592 0.193463 0.337962
O O13 0.504922 0.867786 0.130642
O O14 0.868423 0.718785 0.380573
O O15 0.565105 0.788020 0.212622
O O16 0.173442 0.986351 0.211200
O O17 0.344434 0.585353 0.807489
O O18 0.000000 0.500000 0.500000
#
# Coordination Sequence:
#
# PCOD9050503 Si02
#       8
#     2   2   2   2   2   2   2   2
#     4  11  28  49  69 104 143 187 238 294 351 422
#     4  12  25  45  68 105 147 183 234 295 357 427
#     4  10  25  42  67 101 137 186 232 285 354 427
#     4  11  26  48  70 104 145 182 236 293 351 424
#     4  11  25  41  70 105 141 184 229 285 366 415
#     4  11  23  47  71 102 147 180 236 298 348 425
#     4  11  23  43  73 106 141 175 238 293 352 424
#     4  11  26  47  76 101 135 196 244 287 354 418
#
# _framework density 22.721354000000002
#
# number of rings (size 3 to 8) (size 9 to 14) (size 15 to 20)
#    0.000    1.000    2.500    1.875   12.250    4.000 
#    2.250    0.000    0.000    0.000    0.000    0.000 
#    0.000    0.000    0.000    0.000    0.000    0.000 
#
# Total GULP energy -89477.052118 kJ/mol
# GULP energy per Si atom -5592.315757 kJ/mol
# Density = 2.266964 g / cm^3
# Si number density = 22.721354 Si / 1000 Ang^3
#
#
#
# Elastic Constant Matrix: (Units=GPa)
#
#
# Indices 1 2 3 4 5 6 
#
# 1 70.4178 7.7800 44.4052 -7.8280 6.9365 8.3264
# 2 7.7800 95.3802 35.7347 -9.6005 0.6936 -3.5370
# 3 44.4052 35.7347 139.2429 2.3097 13.5981 5.0869
# 4 -7.8280 -9.6005 2.3097 40.3675 -0.1886 4.3328
# 5 6.9365 0.6936 13.5981 -0.1886 46.7578 1.1908
# 6 8.3264 -3.5370 5.0869 4.3328 1.1908 40.2339
#
#
#
# Elastic Compliance Matrix: (Units=1/GPa)
#
#
# Indices 1 2 3 4 5 6 
#
# 1 0.019025 0.001124 -0.006214 0.004687 -0.000923 -0.003530
# 2 0.001124 0.012100 -0.003619 0.003207 0.000696 0.000923
# 3 -0.006214 -0.003619 0.010335 -0.002667 -0.002041 0.000009
# 4 0.004687 0.003207 -0.002667 0.026947 0.000225 -0.003259
# 5 -0.000923 0.000696 -0.002041 0.000225 0.022112 -0.000168
# 6 -0.003530 0.000923 0.000009 -0.003259 -0.000168 0.026021
#
#
# Mechanical properties :
#
#
# Convention : Reuss Voigt Hill
#
# Bulk Modulus (GPa) = 41.59279 53.43120 47.51200
# Shear Modulus (GPa) = 35.21789 39.94656 37.58223
#
# Velocity S-wave (km/s) = 3.94126 4.19753 4.07141
# Velocity P-wave (km/s) = 6.24954 6.85997 6.56186
#
# Compressibility (1/GPa) = 0.02404263
#
# Stress axis : x y z
#
# Youngs Moduli (GPa) = 52.56327 82.64206 96.75540
#
# Poissons Ratio (x) = -0.09288 0.60125
# Poissons Ratio (y) = -0.05907 0.35012
# Poissons Ratio (z) = 0.32664 0.29905
#
# Static dielectric constant tensor:
#      x y z
#    x 1.887920 0.025870 0.027090 
#    y 0.025870 1.819310 0.012040 
#    z 0.027090 0.012040 1.850910 
# 
# From -- ./inp_files/562994.got.cif
#   From: 2010.05.17/outbox.cif.g08.bks.cpg/sg2_282_cif.got.tgz:562994.got - 2010.06.03 11:33:40.
