data_PCOD9050413
_publ_section_title
;
Structure prediction by ZEFSAII (Michael W. Deem and Ramdas Pophale) SiO2 
 PCOD9050413
Probable space group: P -1
;
_chemical_formula_sum "Si O2"
_cell_formula_units_Z 14
_cell_length_a 12.592990
_cell_length_b 15.771522
_cell_length_c 9.319160
_cell_angle_alpha 150.915006
_cell_angle_beta 55.939380
_cell_angle_gamma 134.057466
_cell_volume 640.546077
_symmetry_space_group_name_H-M "P -1"
_symmetry_group_IT_number 2
_symmetry_cell_setting 'triclinic'
loop_
_space_group_symop_operation_xyz
x,y,z
-x,-y,-z
loop_
_atom_site_type_symbol
_atom_site_label
_atom_site_fract_x
_atom_site_fract_y
_atom_site_fract_z
Si Si1 0.463814 0.236993 0.265845
Si Si2 0.577916 0.704906 0.940145
Si Si3 0.078218 0.048582 0.857968
Si Si4 0.091215 0.413348 0.217730
Si Si5 0.433334 0.648634 0.243086
Si Si6 0.340351 0.953681 0.172808
Si Si7 0.028362 0.691890 0.169681
O O1 0.527820 0.468916 0.605245
O O2 0.424598 0.212559 0.092474
O O3 0.325567 0.068318 0.214646
O O4 0.593070 0.187003 0.123905
O O5 0.742219 0.840875 0.086086
O O6 0.452602 0.692265 0.123165
O O7 0.008739 0.843708 0.513462
O O8 0.055337 0.209211 0.024120
O O9 0.000000 0.000000 0.000000
O O10 0.269759 0.557810 0.295681
O O11 0.000000 0.500000 0.500000
O O12 0.056438 0.374904 0.017159
O O13 0.539721 0.859703 0.549409
O O14 0.500000 0.500000 0.000000
O O15 0.196763 0.825129 0.184951
O O16 0.000000 0.500000 0.000000
#
# Coordination Sequence:
#
# PCOD9050413 Si02
#       7
#     2   2   2   2   2   2   2
#     4  10  25  40  74 107 142 183 242 318 363 438
#     4  11  24  46  73 108 141 188 253 305 373 438
#     4  12  27  48  74 104 153 200 250 309 383 453
#     4  12  29  49  78 112 154 197 248 314 390 449
#     4  12  23  48  78 104 144 190 247 305 365 450
#     4  11  24  45  73 106 147 189 251 302 373 441
#     4  12  29  48  71 110 154 200 251 312 380 449
#
# _framework density 21.856352000000001
#
# number of rings (size 3 to 8) (size 9 to 14) (size 15 to 20)
#    0.000    0.571    4.286    1.286   12.000    2.857 
#    0.000    0.000    0.000    0.000    0.000    0.000 
#    0.000    0.000    0.000    0.000    0.000    0.000 
#
# Total GULP energy -78308.768301 kJ/mol
# GULP energy per Si atom -5593.483450 kJ/mol
# Density = 2.180661 g / cm^3
# Si number density = 21.856352 Si / 1000 Ang^3
#
#
#
# Elastic Constant Matrix: (Units=GPa)
#
#
# Indices 1 2 3 4 5 6 
#
# 1 90.3480 60.9571 47.1626 4.0791 11.8210 -16.8913
# 2 60.9571 195.5662 63.7055 -0.4466 -5.1189 -24.4784
# 3 47.1626 63.7055 87.0565 -5.5041 4.9314 -16.6932
# 4 4.0791 -0.4466 -5.5041 42.6854 -5.6483 1.2090
# 5 11.8210 -5.1189 4.9314 -5.6483 28.2942 -4.5470
# 6 -16.8913 -24.4784 -16.6932 1.2090 -4.5470 58.5669
#
#
#
# Elastic Compliance Matrix: (Units=1/GPa)
#
#
# Indices 1 2 3 4 5 6 
#
# 1 0.018540 -0.003541 -0.006995 -0.003768 -0.007702 0.001353
# 2 -0.003541 0.007675 -0.003610 0.000417 0.003812 0.001445
# 3 -0.006995 -0.003610 0.018428 0.002948 -0.000087 0.001658
# 4 -0.003768 0.000417 0.002948 0.024983 0.006105 -0.000114
# 5 -0.007702 0.003812 -0.000087 0.006105 0.040869 0.002394
# 6 0.001353 0.001445 0.001658 -0.000114 0.002394 0.018729
#
#
# Mechanical properties :
#
#
# Convention : Reuss Voigt Hill
#
# Bulk Modulus (GPa) = 61.16538 79.62455 70.39497
# Shear Modulus (GPa) = 30.68115 39.31899 35.00007
#
# Velocity S-wave (km/s) = 3.75075 4.24603 4.00605
# Velocity P-wave (km/s) = 6.84130 7.78128 7.32638
#
# Compressibility (1/GPa) = 0.01634912
#
# Stress axis : x y z
#
# Youngs Moduli (GPa) = 53.93829 130.29774 54.26585
#
# Poissons Ratio (x) = 0.46137 0.37960
# Poissons Ratio (y) = 0.19099 0.19592
# Poissons Ratio (z) = 0.37731 0.47044
#
# Static dielectric constant tensor:
#      x y z
#    x 1.867640 0.002390 0.006720 
#    y 0.002390 1.838960 -0.021210 
#    z 0.006720 -0.021210 1.821210 
# 
# From -- ./inp_files/157253.got.cif
#   From: 2010.05.17/outbox.cif.g08.bks.cpg/sg2_79_cif.got.tgz:157253.got - 2010.06.03 11:33:40.
