data_PCOD9050502
_publ_section_title
;
Structure prediction by ZEFSAII (Michael W. Deem and Ramdas Pophale) SiO2 
 PCOD9050502
Probable space group: P -1
;
_chemical_formula_sum "Si O2"
_cell_formula_units_Z 14
_cell_length_a 14.778547
_cell_length_b 27.255641
_cell_length_c 15.094618
_cell_angle_alpha 20.615871
_cell_angle_beta 19.465206
_cell_angle_gamma 20.398629
_cell_volume 630.724208
_symmetry_space_group_name_H-M "P -1"
_symmetry_group_IT_number 2
_symmetry_cell_setting 'triclinic'
loop_
_space_group_symop_operation_xyz
x,y,z
-x,-y,-z
loop_
_atom_site_type_symbol
_atom_site_label
_atom_site_fract_x
_atom_site_fract_y
_atom_site_fract_z
Si Si1 0.745733 0.415052 0.295622
Si Si2 0.709680 0.246901 0.780882
Si Si3 0.158157 0.112541 0.153734
Si Si4 0.843813 0.691098 0.474077
Si Si5 0.701554 0.327541 0.065150
Si Si6 0.188629 0.373668 0.803972
Si Si7 0.710920 0.944394 0.312180
O O1 0.839843 0.301819 0.485258
O O2 0.560865 0.594052 0.199029
O O3 0.512771 0.374860 0.519656
O O4 0.026053 0.401080 0.002651
O O5 0.948822 0.161025 0.784143
O O6 0.643736 0.105000 0.052591
O O7 0.963824 0.231340 0.055222
O O8 0.184744 0.219530 0.027353
O O9 0.000000 0.000000 0.500000
O O10 0.500000 0.000000 0.000000
O O11 0.556759 0.727471 0.614757
O O12 0.694163 0.824181 0.461990
O O13 0.980551 0.521739 0.682705
O O14 0.126131 0.683749 0.167951
O O15 0.500000 0.500000 0.000000
O O16 0.500000 0.000000 0.500000
#
# Coordination Sequence:
#
# PCOD9050502 Si02
#       7
#     2   2   2   2   2   2   2
#     4  11  25  44  71 103 133 190 233 284 347 426
#     4  10  25  42  67 100 143 180 234 289 349 409
#     4  12  28  48  70 105 146 180 224 305 365 410
#     4  12  26  45  78 106 137 191 245 288 356 424
#     4  12  27  48  78 105 141 186 248 296 349 436
#     4  12  25  45  74  98 141 178 240 285 355 426
#     4  11  25  44  69 101 149 183 232 296 351 412
#
# _framework density 22.196705999999999
#
# number of rings (size 3 to 8) (size 9 to 14) (size 15 to 20)
#    0.000    0.571    2.857    3.857    8.000    4.571 
#    0.000    0.000    0.000    0.000    0.000    0.000 
#    0.000    0.000    0.000    0.000    0.000    0.000 
#
# Total GULP energy -78289.026934 kJ/mol
# GULP energy per Si atom -5592.073352 kJ/mol
# Density = 2.214619 g / cm^3
# Si number density = 22.196706 Si / 1000 Ang^3
#
#
#
# Elastic Constant Matrix: (Units=GPa)
#
#
# Indices 1 2 3 4 5 6 
#
# 1 58.8602 25.0682 -2.0012 -11.8649 -10.9624 -1.1759
# 2 25.0682 114.9370 43.0768 -12.0275 4.3599 3.8614
# 3 -2.0012 43.0768 78.6216 -1.8785 1.6979 1.1657
# 4 -11.8649 -12.0275 -1.8785 42.5282 0.8156 -1.6055
# 5 -10.9624 4.3599 1.6979 0.8156 51.3684 -2.6962
# 6 -1.1759 3.8614 1.1657 -1.6055 -2.6962 40.0132
#
#
#
# Elastic Compliance Matrix: (Units=1/GPa)
#
#
# Indices 1 2 3 4 5 6 
#
# 1 0.021467 -0.005855 0.003730 0.004463 0.004968 0.001601
# 2 -0.005855 0.012961 -0.007142 0.001710 -0.002209 -0.001295
# 3 0.003730 -0.007142 0.016697 -0.000245 0.000873 0.000361
# 4 0.004463 0.001710 -0.000245 0.025261 0.000468 0.001018
# 5 0.004968 -0.002209 0.000873 0.000468 0.020771 0.001752
# 6 0.001601 -0.001295 0.000361 0.001018 0.001752 0.025312
#
#
# Mechanical properties :
#
#
# Convention : Reuss Voigt Hill
#
# Bulk Modulus (GPa) = 30.68452 42.74516 36.71484
# Shear Modulus (GPa) = 32.92360 39.20028 36.06194
#
# Velocity S-wave (km/s) = 3.85550 4.20699 4.03507
# Velocity P-wave (km/s) = 5.80291 6.54962 6.18754
#
# Compressibility (1/GPa) = 0.03258973
#
# Stress axis : x y z
#
# Youngs Moduli (GPa) = 46.58351 77.15736 59.88980
#
# Poissons Ratio (x) = 0.45177 -0.22339
# Poissons Ratio (y) = 0.27276 0.42775
# Poissons Ratio (z) = -0.17376 0.55109
#
# Static dielectric constant tensor:
#      x y z
#    x 1.826160 0.003050 -0.044210 
#    y 0.003050 1.697850 0.013410 
#    z -0.044210 0.013410 1.836580 
# 
# From -- ./inp_files/90252.got.cif
#   From: 2010.05.17/outbox.cif.g08.bks.cpg/sg2_46_cif.got.tgz:90252.got - 2010.06.03 11:33:40.
