data_PCOD9050832
_publ_section_title
;
Structure prediction by ZEFSAII (Michael W. Deem and Ramdas Pophale) SiO2 
 PCOD9050832
Probable space group: P -1
;
_chemical_formula_sum "Si O2"
_cell_formula_units_Z 14
_cell_length_a 4.867501
_cell_length_b 15.667719
_cell_length_c 20.988360
_cell_angle_alpha 19.930761
_cell_angle_beta 84.513285
_cell_angle_gamma 88.199538
_cell_volume 535.005153
_symmetry_space_group_name_H-M "P -1"
_symmetry_group_IT_number 2
_symmetry_cell_setting 'triclinic'
loop_
_space_group_symop_operation_xyz
x,y,z
-x,-y,-z
loop_
_atom_site_type_symbol
_atom_site_label
_atom_site_fract_x
_atom_site_fract_y
_atom_site_fract_z
Si Si1 0.389973 0.152059 0.705052
Si Si2 0.229545 0.255351 0.436759
Si Si3 0.307377 0.945681 0.103971
Si Si4 0.502518 0.659271 0.989022
Si Si5 0.865194 0.727237 0.813575
Si Si6 0.811738 0.550105 0.183240
Si Si7 0.974387 0.411228 0.465251
O O1 0.504281 0.129658 0.789051
O O2 0.119865 0.279535 0.611955
O O3 0.354780 0.679850 0.457153
O O4 0.342387 0.872577 0.871594
O O5 0.561324 0.335657 0.366844
O O6 0.111234 0.311606 0.469215
O O7 0.095253 0.443815 0.261447
O O8 0.100062 0.967052 0.625204
O O9 0.069404 0.710736 0.256220
O O10 0.500000 0.000000 0.000000
O O11 0.191700 0.194667 0.955325
O O12 0.317092 0.397854 0.153475
O O13 0.723510 0.604918 0.075160
O O14 0.658199 0.784291 0.834362
O O15 0.000000 0.500000 0.000000
#
# Coordination Sequence:
#
# PCOD9050832 Si02
#       7
#     2   2   2   2   2   2   2
#     4  11  25  46  70 101 136 183 228 279 336 400
#     4  12  26  46  72  99 140 178 225 282 339 406
#     4  11  25  45  70 103 141 180 228 281 335 401
#     4  10  25  44  69 100 138 176 227 282 338 406
#     4  11  25  44  74 101 131 178 229 284 336 403
#     4  11  28  47  67 102 140 184 220 277 348 400
#     4  12  24  45  70 101 137 181 233 278 331 399
#
# _framework density 26.167971999999999
#
# number of rings (size 3 to 8) (size 9 to 14) (size 15 to 20)
#    0.000    0.857    2.857    2.571    6.000    6.286 
#    0.000    0.000    0.000    0.000    0.000    0.000 
#    0.000    0.000    0.000    0.000    0.000    0.000 
#
# Total GULP energy -78721.354462 kJ/mol
# GULP energy per Si atom -5622.953890 kJ/mol
# Density = 2.610841 g / cm^3
# Si number density = 26.167972 Si / 1000 Ang^3
#
#
#
# Elastic Constant Matrix: (Units=GPa)
#
#
# Indices 1 2 3 4 5 6 
#
# 1 93.0948 17.8868 26.2485 -4.9077 -9.1433 4.6694
# 2 17.8868 132.9532 28.1892 4.5081 -14.7760 11.2078
# 3 26.2485 28.1892 142.5625 -21.7299 -28.8828 14.4542
# 4 -4.9077 4.5081 -21.7299 40.6029 8.6204 -7.6794
# 5 -9.1433 -14.7760 -28.8828 8.6204 58.4799 0.1058
# 6 4.6694 11.2078 14.4542 -7.6794 0.1058 32.7360
#
#
#
# Elastic Compliance Matrix: (Units=1/GPa)
#
#
# Indices 1 2 3 4 5 6 
#
# 1 0.011530 -0.001103 -0.001669 0.000404 0.000641 -0.000437
# 2 -0.001103 0.008452 -0.001230 -0.002634 0.001749 -0.002817
# 3 -0.001669 -0.001230 0.009049 0.003588 0.003373 -0.002506
# 4 0.000404 -0.002634 0.003588 0.028676 -0.003068 0.005997
# 5 0.000641 0.001749 0.003373 -0.003068 0.019766 -0.002963
# 6 -0.000437 -0.002817 -0.002506 0.005997 -0.002963 0.034097
#
#
# Mechanical properties :
#
#
# Convention : Reuss Voigt Hill
#
# Bulk Modulus (GPa) = 47.55537 57.02882 52.29210
# Shear Modulus (GPa) = 39.49991 46.11617 42.80804
#
# Velocity S-wave (km/s) = 3.88941 4.20255 4.04901
# Velocity P-wave (km/s) = 6.19537 6.73715 6.47193
#
# Compressibility (1/GPa) = 0.02102812
#
# Stress axis : x y z
#
# Youngs Moduli (GPa) = 86.72682 118.31953 110.50628
#
# Poissons Ratio (x) = 0.13050 0.18445
# Poissons Ratio (y) = 0.09566 0.13588
# Poissons Ratio (z) = 0.14476 0.14549
#
# Static dielectric constant tensor:
#      x y z
#    x 2.006530 -0.022010 -0.010020 
#    y -0.022010 2.062130 0.044140 
#    z -0.010020 0.044140 2.019950 
# 
# From -- ./inp_files/112656.got.cif
#   From: 2010.05.17/outbox.cif.g08.bks.cpg/sg2_57_cif.got.tgz:112656.got - 2010.06.03 11:33:40.
