data_PCOD9050395
_publ_section_title
;
Structure prediction by ZEFSAII (Michael W. Deem and Ramdas Pophale) SiO2 
 PCOD9050395
Probable space group: P -1
;
_chemical_formula_sum "Si O2"
_cell_formula_units_Z 14
_cell_length_a 14.344508
_cell_length_b 14.150835
_cell_length_c 9.026065
_cell_angle_alpha 91.936492
_cell_angle_beta 85.735381
_cell_angle_gamma 159.680849
_cell_volume 631.031423
_symmetry_space_group_name_H-M "P -1"
_symmetry_group_IT_number 2
_symmetry_cell_setting 'triclinic'
loop_
_space_group_symop_operation_xyz
x,y,z
-x,-y,-z
loop_
_atom_site_type_symbol
_atom_site_label
_atom_site_fract_x
_atom_site_fract_y
_atom_site_fract_z
Si Si1 0.379438 0.473650 0.598886
Si Si2 0.297266 0.673067 0.024239
Si Si3 0.478654 0.982429 0.756906
Si Si4 0.165997 0.753592 0.524292
Si Si5 0.233461 0.294446 0.947437
Si Si6 0.137008 0.879210 0.047571
Si Si7 0.852469 0.069815 0.598344
O O1 0.500000 0.500000 0.500000
O O2 0.327275 0.398330 0.772505
O O3 0.087242 0.217442 0.553176
O O4 0.570120 0.748253 0.583537
O O5 0.014716 0.359150 0.998231
O O6 0.366282 0.807918 0.886786
O O7 0.546543 0.833986 0.015645
O O8 0.307749 0.746625 0.173686
O O9 0.596393 0.029375 0.614916
O O10 0.273221 0.851984 0.682965
O O11 0.059689 0.755775 0.498082
O O12 0.000000 0.500000 0.500000
O O13 0.064100 0.230868 0.998467
O O14 0.500000 0.500000 0.000000
O O15 0.000000 0.000000 0.000000
O O16 0.138286 0.893196 0.226441
#
# Coordination Sequence:
#
# PCOD9050395 Si02
#       7
#     2   2   2   2   2   2   2
#     4  11  25  47  71 100 135 177 230 285 346 410
#     4  11  23  42  64  97 126 178 216 275 313 388
#     4  10  25  39  64  92 136 169 224 266 328 374
#     4  11  24  42  65  96 140 181 223 270 333 397
#     4  11  23  43  68  97 129 171 217 279 345 400
#     4  11  22  41  68  92 132 166 226 257 335 399
#     4  11  23  43  72  97 134 185 226 266 346 417
#
# _framework density 22.1859
#
# number of rings (size 3 to 8) (size 9 to 14) (size 15 to 20)
#    0.000    1.143    1.429    5.571    6.000    1.143 
#    7.714    0.000    0.000    0.000    0.000    0.000 
#    0.000    0.000    0.000    0.000    0.000    0.000 
#
# Total GULP energy -78132.329381 kJ/mol
# GULP energy per Si atom -5580.880670 kJ/mol
# Density = 2.213540 g / cm^3
# Si number density = 22.185900 Si / 1000 Ang^3
#
#
#
# Elastic Constant Matrix: (Units=GPa)
#
#
# Indices 1 2 3 4 5 6 
#
# 1 87.1337 -0.5661 25.5004 -8.6270 16.2073 9.8949
# 2 -0.5661 108.4939 13.9493 2.5655 8.0261 -11.0269
# 3 25.5004 13.9493 59.2497 3.6212 -1.0851 -0.7302
# 4 -8.6270 2.5655 3.6212 24.8468 0.5315 -5.0173
# 5 16.2073 8.0261 -1.0851 0.5315 38.2648 1.6571
# 6 9.8949 -11.0269 -0.7302 -5.0173 1.6571 50.9538
#
#
#
# Elastic Compliance Matrix: (Units=1/GPa)
#
#
# Indices 1 2 3 4 5 6 
#
# 1 0.015937 0.001247 -0.007693 0.006260 -0.007227 -0.002084
# 2 0.001247 0.010005 -0.002937 0.000292 -0.002801 0.002001
# 3 -0.007693 -0.002937 0.021304 -0.005473 0.004534 0.000477
# 4 0.006260 0.000292 -0.005473 0.043913 -0.003617 0.003211
# 5 -0.007227 -0.002801 0.004534 -0.003617 0.029981 -0.000469
# 6 -0.002084 0.002001 0.000477 0.003211 -0.000469 0.020802
#
#
# Mechanical properties :
#
#
# Convention : Reuss Voigt Hill
#
# Bulk Modulus (GPa) = 35.11283 36.96051 36.03667
# Shear Modulus (GPa) = 29.37724 37.21266 33.29495
#
# Velocity S-wave (km/s) = 3.64282 4.09994 3.87812
# Velocity P-wave (km/s) = 5.79263 6.25366 6.02756
#
# Compressibility (1/GPa) = 0.02847962
#
# Stress axis : x y z
#
# Youngs Moduli (GPa) = 62.74794 99.95182 46.94044
#
# Poissons Ratio (x) = -0.12465 0.36112
# Poissons Ratio (y) = -0.07825 0.13785
# Poissons Ratio (z) = 0.48273 0.29352
#
# Static dielectric constant tensor:
#      x y z
#    x 2.144250 0.040180 0.050780 
#    y 0.040180 1.823390 -0.007470 
#    z 0.050780 -0.007470 1.788960 
# 
# From -- ./inp_files/142175.got.cif
#   From: 2010.05.17/outbox.cif.g08.bks.cpg/sg2_72_cif.got.tgz:142175.got - 2010.06.03 11:33:40.
