data_PCOD9050693
_publ_section_title
;
Structure prediction by ZEFSAII (Michael W. Deem and Ramdas Pophale) SiO2 
 PCOD9050693
Probable space group: P -1
;
_chemical_formula_sum "Si O2"
_cell_formula_units_Z 14
_cell_length_a 5.133536
_cell_length_b 7.924208
_cell_length_c 14.759859
_cell_angle_alpha 73.696796
_cell_angle_beta 92.825208
_cell_angle_gamma 111.366573
_cell_volume 535.724122
_symmetry_space_group_name_H-M "P -1"
_symmetry_group_IT_number 2
_symmetry_cell_setting 'triclinic'
loop_
_space_group_symop_operation_xyz
x,y,z
-x,-y,-z
loop_
_atom_site_type_symbol
_atom_site_label
_atom_site_fract_x
_atom_site_fract_y
_atom_site_fract_z
Si Si1 0.288786 0.156486 0.201345
Si Si2 0.760257 0.351472 0.076940
Si Si3 0.412616 0.286800 0.561462
Si Si4 0.811963 0.160230 0.489469
Si Si5 0.034507 0.370379 0.277660
Si Si6 0.438740 0.784540 0.243642
Si Si7 0.199640 0.011952 0.918795
O O1 0.448062 0.326980 0.106607
O O2 0.247217 0.259731 0.275663
O O3 0.998619 0.046394 0.163804
O O4 0.407851 0.985897 0.236260
O O5 0.687345 0.157070 0.048736
O O6 0.876189 0.352534 0.181741
O O7 0.000000 0.500000 0.000000
O O8 0.500000 0.500000 0.500000
O O9 0.711381 0.264090 0.552370
O O10 0.361653 0.249685 0.672015
O O11 0.118861 0.162616 0.525555
O O12 0.863507 0.265837 0.377792
O O13 0.500000 0.000000 0.500000
O O14 0.172971 0.591420 0.267457
O O15 0.561722 0.801706 0.141270
O O16 0.000000 0.000000 0.000000
#
# Coordination Sequence:
#
# PCOD9050693 Si02
#       7
#     2   2   2   2   2   2   2
#     4  10  26  47  71 105 159 192 261 320 398 473
#     4  10  25  43  72 108 148 195 254 323 391 479
#     4  12  28  53  78 119 159 205 276 331 407 481
#     4  12  30  51  83 115 159 211 267 334 409 483
#     4  11  27  48  74 114 147 206 261 321 405 472
#     4  11  27  46  79 105 153 207 253 332 394 474
#     4  10  25  43  71 108 142 200 256 317 398 471
#
# _framework density 26.132854999999999
#
# number of rings (size 3 to 8) (size 9 to 14) (size 15 to 20)
#    0.000    1.143    1.429    0.857   16.000    2.286 
#    0.000    0.000    0.000    0.000    0.000    0.000 
#    0.000    0.000    0.000    0.000    0.000    0.000 
#
# Total GULP energy -78069.132590 kJ/mol
# GULP energy per Si atom -5576.366614 kJ/mol
# Density = 2.607337 g / cm^3
# Si number density = 26.132855 Si / 1000 Ang^3
#
#
#
# Elastic Constant Matrix: (Units=GPa)
#
#
# Indices 1 2 3 4 5 6 
#
# 1 109.6959 12.2744 37.9819 -5.4053 -19.0739 11.1973
# 2 12.2744 99.8734 41.9403 -14.8552 -24.8546 16.9355
# 3 37.9819 41.9403 199.7097 -22.2648 -39.0207 24.0879
# 4 -5.4053 -14.8552 -22.2648 48.0600 19.8602 -12.0890
# 5 -19.0739 -24.8546 -39.0207 19.8602 58.8928 4.0029
# 6 11.1973 16.9355 24.0879 -12.0890 4.0029 33.8580
#
#
#
# Elastic Compliance Matrix: (Units=1/GPa)
#
#
# Indices 1 2 3 4 5 6 
#
# 1 0.010399 0.000521 -0.001068 -0.001708 0.003727 -0.003990
# 2 0.000521 0.012799 -0.000941 -0.000394 0.005534 -0.006699
# 3 -0.001068 -0.000941 0.006729 -0.000094 0.004051 -0.004476
# 4 -0.001708 -0.000394 -0.000094 0.028090 -0.011081 0.012168
# 5 0.003727 0.005534 0.004051 -0.011081 0.027905 -0.014139
# 6 -0.003990 -0.006699 -0.004476 0.012168 -0.014139 0.043406
#
#
# Mechanical properties :
#
#
# Convention : Reuss Voigt Hill
#
# Bulk Modulus (GPa) = 37.10680 65.96356 51.53518
# Shear Modulus (GPa) = 35.38874 49.30099 42.34486
#
# Velocity S-wave (km/s) = 3.68392 4.34816 4.02975
# Velocity P-wave (km/s) = 5.68552 7.10669 6.43546
#
# Compressibility (1/GPa) = 0.02694924
#
# Stress axis : x y z
#
# Youngs Moduli (GPa) = 96.16429 78.13277 148.61123
#
# Poissons Ratio (x) = -0.04067 0.15871
# Poissons Ratio (y) = -0.05006 0.13989
# Poissons Ratio (z) = 0.10270 0.07355
#
# Static dielectric constant tensor:
#      x y z
#    x 2.303160 -0.161800 -0.009160 
#    y -0.161800 3.823710 0.268900 
#    z -0.009160 0.268900 2.107090 
# 
# From -- ./inp_files/480335.got.cif
#   From: 2010.05.17/outbox.cif.g08.bks.cpg/sg2_241_cif.got.tgz:480335.got - 2010.06.03 11:33:40.
