data_PCOD9050751
_publ_section_title
;
Structure prediction by ZEFSAII (Michael W. Deem and Ramdas Pophale) SiO2 
 PCOD9050751
Probable space group: P -1
;
_chemical_formula_sum "Si O2"
_cell_formula_units_Z 14
_cell_length_a 5.151630
_cell_length_b 27.633465
_cell_length_c 9.234193
_cell_angle_alpha 149.541471
_cell_angle_beta 70.959587
_cell_angle_gamma 118.013547
_cell_volume 579.142342
_symmetry_space_group_name_H-M "P -1"
_symmetry_group_IT_number 2
_symmetry_cell_setting 'triclinic'
loop_
_space_group_symop_operation_xyz
x,y,z
-x,-y,-z
loop_
_atom_site_type_symbol
_atom_site_label
_atom_site_fract_x
_atom_site_fract_y
_atom_site_fract_z
Si Si1 0.744795 0.639127 0.287146
Si Si2 0.436274 0.498235 0.752269
Si Si3 0.617892 0.122583 0.820458
Si Si4 0.278007 0.059197 0.204070
Si Si5 0.621826 0.232641 0.393786
Si Si6 0.291253 0.180181 0.784519
Si Si7 0.283011 0.593529 0.763557
O O1 0.712669 0.563691 0.235823
O O2 0.475352 0.679131 0.430030
O O3 0.055831 0.729720 0.495908
O O4 0.731249 0.584374 0.993569
O O5 0.293362 0.561030 0.843947
O O6 0.469869 0.421394 0.428002
O O7 0.391710 0.159273 0.869678
O O8 0.962357 0.183034 0.860443
O O9 0.500000 0.000000 0.500000
O O10 0.605442 0.151533 0.063233
O O11 0.396514 0.173499 0.407199
O O12 0.237757 0.081728 0.436345
O O13 0.500000 0.000000 0.000000
O O14 0.000000 0.000000 0.000000
O O15 0.582758 0.281590 0.943423
O O16 0.000000 0.500000 0.500000
#
# Coordination Sequence:
#
# PCOD9050751 Si02
#       7
#     2   2   2   2   2   2   2
#     4  11  26  43  71 100 139 186 231 295 347 417
#     4  10  25  44  65 101 141 181 240 288 345 410
#     4  12  26  47  74 104 142 182 239 298 359 425
#     4  12  26  47  72 104 142 183 234 298 361 425
#     4  12  25  45  71 102 139 181 240 283 364 422
#     4  12  27  46  75 105 143 190 235 292 361 420
#     4  11  26  43  72 100 147 189 242 287 353 427
#
# _framework density 24.173677000000001
#
# number of rings (size 3 to 8) (size 9 to 14) (size 15 to 20)
#    0.000    0.571    0.000    7.286   12.000    1.143 
#    0.000    0.000    0.000    0.000    0.000    0.000 
#    0.000    0.000    0.000    0.000    0.000    0.000 
#
# Total GULP energy -78180.723109 kJ/mol
# GULP energy per Si atom -5584.337365 kJ/mol
# Density = 2.411866 g / cm^3
# Si number density = 24.173677 Si / 1000 Ang^3
#
#
#
# Elastic Constant Matrix: (Units=GPa)
#
#
# Indices 1 2 3 4 5 6 
#
# 1 126.8677 13.7081 28.3447 -3.5220 30.4882 -13.4546
# 2 13.7081 54.8833 2.3722 3.2700 17.2678 -23.0284
# 3 28.3447 2.3722 104.2365 -12.0376 25.8478 -8.0536
# 4 -3.5220 3.2700 -12.0376 47.0014 -0.3758 7.0612
# 5 30.4882 17.2678 25.8478 -0.3758 51.1422 -1.0387
# 6 -13.4546 -23.0284 -8.0536 7.0612 -1.0387 32.0832
#
#
#
# Elastic Compliance Matrix: (Units=1/GPa)
#
#
# Indices 1 2 3 4 5 6 
#
# 1 0.009825 0.001447 -0.000944 -0.000376 -0.005773 0.004818
# 2 0.001447 0.033148 0.003566 -0.005302 -0.013367 0.026029
# 3 -0.000944 0.003566 0.011986 0.002020 -0.006592 0.004514
# 4 -0.000376 -0.005302 0.002020 0.023431 0.000991 -0.008581
# 5 -0.005773 -0.013367 -0.006592 0.000991 0.030586 -0.012899
# 6 0.004818 0.026029 0.004514 -0.008581 -0.012899 0.054476
#
#
# Mechanical properties :
#
#
# Convention : Reuss Voigt Hill
#
# Bulk Modulus (GPa) = 15.84887 41.64861 28.74874
# Shear Modulus (GPa) = 28.35339 42.14951 35.25145
#
# Velocity S-wave (km/s) = 3.42848 4.18019 3.82286
# Velocity P-wave (km/s) = 4.71626 6.36906 5.60393
#
# Compressibility (1/GPa) = 0.06309598
#
# Stress axis : x y z
#
# Youngs Moduli (GPa) = 101.78426 30.16794 83.43121
#
# Poissons Ratio (x) = -0.04366 0.07877
# Poissons Ratio (y) = -0.14732 -0.29748
# Poissons Ratio (z) = 0.09609 -0.10757
#
# Static dielectric constant tensor:
#      x y z
#    x 1.949220 0.087370 -0.031590 
#    y 0.087370 1.951550 0.066090 
#    z -0.031590 0.066090 1.977530 
# 
# From -- ./inp_files/37661.got.cif
#   From: 2010.05.17/outbox.cif.g08.bks.cpg/sg2_19_cif.got.tgz:37661.got - 2010.06.03 11:33:40.
