data_PCOD9050974
_publ_section_title
;
Structure prediction by ZEFSAII (Michael W. Deem and Ramdas Pophale) SiO2 
 PCOD9050974
Probable space group: P -1
;
_chemical_formula_sum "Si O2"
_cell_formula_units_Z 16
_cell_length_a 11.326936
_cell_length_b 10.631361
_cell_length_c 7.958561
_cell_angle_alpha 62.590006
_cell_angle_beta 78.158186
_cell_angle_gamma 110.166959
_cell_volume 718.441204
_symmetry_space_group_name_H-M "P -1"
_symmetry_group_IT_number 2
_symmetry_cell_setting 'triclinic'
loop_
_space_group_symop_operation_xyz
x,y,z
-x,-y,-z
loop_
_atom_site_type_symbol
_atom_site_label
_atom_site_fract_x
_atom_site_fract_y
_atom_site_fract_z
Si Si1 0.144938 0.020702 0.386070
Si Si2 0.069368 0.897816 0.108085
Si Si3 0.572797 0.121437 0.246498
Si Si4 0.636129 0.892190 0.229947
Si Si5 0.881188 0.583977 0.171205
Si Si6 0.589237 0.586639 0.252298
Si Si7 0.587965 0.709999 0.719907
Si Si8 0.860375 0.270860 0.243164
O O1 0.120481 0.955121 0.244997
O O2 0.179899 0.899945 0.553575
O O3 0.265236 0.206448 0.277791
O O4 0.000000 0.000000 0.500000
O O5 0.963458 0.706137 0.226031
O O6 0.204435 0.963915 0.912890
O O7 0.000000 0.000000 0.000000
O O8 0.504045 0.232704 0.184826
O O9 0.735334 0.240009 0.172987
O O10 0.500000 0.000000 0.500000
O O11 0.553076 0.990533 0.190366
O O12 0.615986 0.768450 0.162488
O O13 0.612363 0.798371 0.472912
O O14 0.733645 0.580958 0.204245
O O15 0.863191 0.403793 0.292084
O O16 0.989559 0.662644 0.933165
O O17 0.500000 0.500000 0.500000
O O18 0.493479 0.479680 0.192121
#
# Coordination Sequence:
#
# PCOD9050974 Si02
#       8
#     2   2   2   2   2   2   2   2
#     4  12  26  40  64  92 129 168 218 273 322 383
#     4  12  23  40  65  89 123 171 218 265 319 381
#     4  10  17  34  67  89 123 168 211 248 314 402
#     4  10  19  35  63  93 121 167 213 256 314 386
#     4  11  22  38  68  97 129 170 218 259 322 399
#     4  10  21  33  64 100 126 164 213 265 317 385
#     4  10  20  40  63  94 126 166 214 259 326 388
#     4  11  22  40  66  99 127 172 215 266 320 389
#
# _framework density 22.270439
#
# number of rings (size 3 to 8) (size 9 to 14) (size 15 to 20)
#    0.000    1.250    6.250    1.500    1.750    0.500 
#    0.000    1.250    2.750    0.000    0.000    0.000 
#    0.000    0.000    0.000    0.000    0.000    0.000 
#
# Total GULP energy -89311.835317 kJ/mol
# GULP energy per Si atom -5581.989707 kJ/mol
# Density = 2.221975 g / cm^3
# Si number density = 22.270439 Si / 1000 Ang^3
#
#
#
# Elastic Constant Matrix: (Units=GPa)
#
#
# Indices 1 2 3 4 5 6 
#
# 1 113.2329 73.3780 27.9431 9.3518 -26.0831 2.3633
# 2 73.3780 213.2731 16.5277 0.5832 -14.2449 6.0684
# 3 27.9431 16.5277 43.8876 7.9498 -8.9033 0.1046
# 4 9.3518 0.5832 7.9498 33.0787 2.7355 -6.4251
# 5 -26.0831 -14.2449 -8.9033 2.7355 33.6411 5.9151
# 6 2.3633 6.0684 0.1046 -6.4251 5.9151 42.3971
#
#
#
# Elastic Compliance Matrix: (Units=1/GPa)
#
#
# Indices 1 2 3 4 5 6 
#
# 1 0.015511 -0.004194 -0.005609 -0.004177 0.009494 -0.002208
# 2 -0.004194 0.006091 0.000050 0.001047 -0.000677 -0.000385
# 3 -0.005609 0.000050 0.028145 -0.005718 0.003790 -0.001159
# 4 -0.004177 0.001047 -0.005718 0.034717 -0.008277 0.006513
# 5 0.009494 -0.000677 0.003790 -0.008277 0.039750 -0.007242
# 6 -0.002208 -0.000385 -0.001159 0.006513 -0.007242 0.025765
#
#
# Mechanical properties :
#
#
# Convention : Reuss Voigt Hill
#
# Bulk Modulus (GPa) = 33.06558 67.34350 50.20454
# Shear Modulus (GPa) = 27.84531 38.65969 33.25250
#
# Velocity S-wave (km/s) = 3.53983 4.17096 3.86829
# Velocity P-wave (km/s) = 5.62021 7.31440 6.52254
#
# Compressibility (1/GPa) = 0.03024293
#
# Stress axis : x y z
#
# Youngs Moduli (GPa) = 64.46997 164.18526 35.53035
#
# Poissons Ratio (x) = 0.68854 0.19927
# Poissons Ratio (y) = 0.27037 -0.00179
# Poissons Ratio (z) = 0.36158 -0.00827
#
# Static dielectric constant tensor:
#      x y z
#    x 1.825910 0.005570 -0.034470 
#    y 0.005570 1.885020 0.017320 
#    z -0.034470 0.017320 1.883160 
# 
# From -- ./inp_files/251929.got.cif
#   From: 2010.05.17/outbox.cif.g08.bks.cpg/sg2_126_cif.got.tgz:251929.got - 2010.06.03 11:33:40.
