data_PCOD9050708
_publ_section_title
;
Structure prediction by ZEFSAII (Michael W. Deem and Ramdas Pophale) SiO2 
 PCOD9050708
Probable space group: P -1
;
_chemical_formula_sum "Si O2"
_cell_formula_units_Z 16
_cell_length_a 23.492579
_cell_length_b 9.368442
_cell_length_c 20.613821
_cell_angle_alpha 149.733390
_cell_angle_beta 158.874130
_cell_angle_gamma 41.347376
_cell_volume 785.594178
_symmetry_space_group_name_H-M "P -1"
_symmetry_group_IT_number 2
_symmetry_cell_setting 'triclinic'
loop_
_space_group_symop_operation_xyz
x,y,z
-x,-y,-z
loop_
_atom_site_type_symbol
_atom_site_label
_atom_site_fract_x
_atom_site_fract_y
_atom_site_fract_z
Si Si1 0.509771 0.289909 0.665280
Si Si2 0.060331 0.717962 0.471072
Si Si3 0.130563 0.227791 0.972925
Si Si4 0.185075 0.904739 0.334371
Si Si5 0.749082 0.250765 0.020719
Si Si6 0.472093 0.776087 0.113408
Si Si7 0.695792 0.877622 0.014181
Si Si8 0.865918 0.771806 0.721565
O O1 0.617658 0.580427 0.855512
O O2 0.322459 0.294959 0.480071
O O3 0.500000 0.000000 0.500000
O O4 0.608227 0.255074 0.821093
O O5 0.097868 0.537603 0.378385
O O6 0.916504 0.479444 0.263221
O O7 0.000000 0.000000 0.500000
O O8 0.213793 0.856345 0.736479
O O9 0.177664 0.575567 0.174734
O O10 0.181823 0.170450 0.931700
O O11 0.937126 0.105896 0.738967
O O12 0.224770 0.066414 0.059493
O O13 0.371283 0.077236 0.617993
O O14 0.126468 0.063594 0.274595
O O15 0.692269 0.342330 0.064873
O O16 0.445360 0.023284 0.133921
O O17 0.500000 0.500000 0.000000
O O18 0.000000 0.000000 0.000000
#
# Coordination Sequence:
#
# PCOD9050708 Si02
#       8
#     2   2   2   2   2   2   2   2
#     4  12  26  45  73 105 144 183 239 291 357 421
#     4  12  26  47  71 106 146 184 239 292 358 422
#     4  10  25  43  73 101 140 183 235 290 354 416
#     4  11  23  45  71 103 141 180 242 291 348 420
#     4  11  24  45  70  98 141 187 225 296 348 420
#     4  11  26  43  68 100 137 186 234 287 353 414
#     4  11  27  44  70 106 140 185 234 287 357 419
#     4  12  27  47  76 103 145 188 240 293 357 425
#
# _framework density 20.36675
#
# number of rings (size 3 to 8) (size 9 to 14) (size 15 to 20)
#    0.000    0.750    3.750    2.250    5.250    4.500 
#    0.000    0.000    0.000    0.000    0.000    0.000 
#    0.000    0.000    0.000    0.000    0.000    0.000 
#
# Total GULP energy -89426.075772 kJ/mol
# GULP energy per Si atom -5589.129736 kJ/mol
# Density = 2.032039 g / cm^3
# Si number density = 20.366750 Si / 1000 Ang^3
#
#
#
# Elastic Constant Matrix: (Units=GPa)
#
#
# Indices 1 2 3 4 5 6 
#
# 1 93.0163 44.1373 38.4222 7.9319 9.8423 -18.0383
# 2 44.1373 121.7544 22.4336 8.9366 -6.9856 -9.7259
# 3 38.4222 22.4336 105.4164 -3.0647 -1.7598 -4.5758
# 4 7.9319 8.9366 -3.0647 24.9188 0.9839 -4.6957
# 5 9.8423 -6.9856 -1.7598 0.9839 34.4787 -4.8448
# 6 -18.0383 -9.7259 -4.5758 -4.6957 -4.8448 42.8023
#
#
#
# Elastic Compliance Matrix: (Units=1/GPa)
#
#
# Indices 1 2 3 4 5 6 
#
# 1 0.016894 -0.004897 -0.005102 -0.003188 -0.005351 0.004506
# 2 -0.004897 0.010481 -0.000434 -0.002316 0.003625 0.000428
# 3 -0.005102 -0.000434 0.011536 0.003037 0.001803 -0.000478
# 4 -0.003188 -0.002316 0.003037 0.042949 -0.000188 0.003145
# 5 -0.005351 0.003625 0.001803 -0.000188 0.031690 0.002328
# 6 0.004506 0.000428 -0.000478 0.003145 0.002328 0.025917
#
#
# Mechanical properties :
#
#
# Convention : Reuss Voigt Hill
#
# Bulk Modulus (GPa) = 55.41768 58.90817 57.16292
# Shear Modulus (GPa) = 30.05775 34.78622 32.42199
#
# Velocity S-wave (km/s) = 3.84581 4.13727 3.99420
# Velocity P-wave (km/s) = 6.85488 7.19786 7.02846
#
# Compressibility (1/GPa) = 0.01804478
#
# Stress axis : x y z
#
# Youngs Moduli (GPa) = 59.19301 95.41441 86.68814
#
# Poissons Ratio (x) = 0.46727 0.44226
# Poissons Ratio (y) = 0.28988 0.03759
# Poissons Ratio (z) = 0.30199 0.04138
#
# Static dielectric constant tensor:
#      x y z
#    x 1.704860 -0.015080 -0.011900 
#    y -0.015080 1.735530 -0.036090 
#    z -0.011900 -0.036090 1.693840 
# 
# From -- ./inp_files/283476.got.cif
#   From: 2010.05.17/outbox.cif.g08.bks.cpg/sg2_142_cif.got.tgz:283476.got - 2010.06.03 11:33:40.
