data_PCOD9050943
_publ_section_title
;
Structure prediction by ZEFSAII (Michael W. Deem and Ramdas Pophale) SiO2 
 PCOD9050943
Probable space group: P -1
;
_chemical_formula_sum "Si O2"
_cell_formula_units_Z 16
_cell_length_a 10.363103
_cell_length_b 5.264071
_cell_length_c 23.961080
_cell_angle_alpha 67.695022
_cell_angle_beta 146.028061
_cell_angle_gamma 96.711964
_cell_volume 624.295244
_symmetry_space_group_name_H-M "P -1"
_symmetry_group_IT_number 2
_symmetry_cell_setting 'triclinic'
loop_
_space_group_symop_operation_xyz
x,y,z
-x,-y,-z
loop_
_atom_site_type_symbol
_atom_site_label
_atom_site_fract_x
_atom_site_fract_y
_atom_site_fract_z
Si Si1 0.727970 0.188421 0.096933
Si Si2 0.157979 0.002744 0.355569
Si Si3 0.731795 0.980150 0.895578
Si Si4 0.532813 0.669362 0.755855
Si Si5 0.973149 0.934782 0.573588
Si Si6 0.678917 0.540541 0.466236
Si Si7 0.712673 0.901563 0.019853
Si Si8 0.248435 0.436250 0.278982
O O1 0.959269 0.065816 0.230132
O O2 0.791448 0.150817 0.057268
O O3 0.500000 0.500000 0.000000
O O4 0.578221 0.979341 0.077002
O O5 0.323058 0.169542 0.373453
O O6 0.017298 0.153192 0.349745
O O7 0.279008 0.660098 0.445778
O O8 0.686223 0.783940 0.846352
O O9 0.558531 0.327132 0.799035
O O10 0.693701 0.860689 0.951479
O O11 0.000000 0.000000 0.000000
O O12 0.242194 0.852366 0.649980
O O13 0.645816 0.677008 0.734741
O O14 0.807715 0.772122 0.500343
O O15 0.829319 0.290203 0.495414
O O16 0.392535 0.642431 0.335574
O O17 0.949326 0.612573 0.150852
#
# Coordination Sequence:
#
# PCOD9050943 Si02
#       8
#     2   2   2   2   2   2   2   2
#     4  11  24  42  70 106 143 184 245 295 366 436
#     4  10  25  44  73 105 142 194 238 307 364 439
#     4  12  27  47  71 105 151 192 245 291 385 434
#     4  12  28  47  76 109 146 202 241 315 357 448
#     4  10  25  48  73 102 142 199 252 291 373 434
#     4  10  26  47  76 106 142 201 242 311 361 440
#     4  11  27  41  70 106 142 193 234 308 358 446
#     4  12  26  47  71 112 150 186 253 307 371 429
#
# _framework density 25.628900999999999
#
# number of rings (size 3 to 8) (size 9 to 14) (size 15 to 20)
#    0.750    0.250    2.500    2.250    8.750    3.500 
#    0.000    0.000    0.000    0.000    0.000    0.000 
#    0.000    0.000    0.000    0.000    0.000    0.000 
#
# Total GULP energy -89314.208617 kJ/mol
# GULP energy per Si atom -5582.138039 kJ/mol
# Density = 2.557057 g / cm^3
# Si number density = 25.628901 Si / 1000 Ang^3
#
#
#
# Elastic Constant Matrix: (Units=GPa)
#
#
# Indices 1 2 3 4 5 6 
#
# 1 116.2239 31.8481 38.6022 8.6437 -10.1504 -15.0691
# 2 31.8481 108.0891 40.7572 18.8914 -15.7189 -16.4392
# 3 38.6022 40.7572 94.1106 15.9514 6.7124 -9.0267
# 4 8.6437 18.8914 15.9514 56.5288 -0.9744 -1.0791
# 5 -10.1504 -15.7189 6.7124 -0.9744 53.7434 2.2703
# 6 -15.0691 -16.4392 -9.0267 -1.0791 2.2703 32.8585
#
#
#
# Elastic Compliance Matrix: (Units=1/GPa)
#
#
# Indices 1 2 3 4 5 6 
#
# 1 0.010740 -0.000887 -0.003829 -0.000167 0.002106 0.003279
# 2 -0.000887 0.013006 -0.004661 -0.002742 0.003981 0.004455
# 3 -0.003829 -0.004661 0.014879 -0.002120 -0.003992 0.000206
# 4 -0.000167 -0.002742 -0.002120 0.019201 -0.000162 -0.001389
# 5 0.002106 0.003981 -0.003992 -0.000162 0.020646 0.000429
# 6 0.003279 0.004455 0.000206 -0.001389 0.000429 0.034147
#
#
# Mechanical properties :
#
#
# Convention : Reuss Voigt Hill
#
# Bulk Modulus (GPa) = 50.32169 60.09319 55.20744
# Shear Modulus (GPa) = 36.23285 42.44055 39.33670
#
# Velocity S-wave (km/s) = 3.76407 4.07377 3.92198
# Velocity P-wave (km/s) = 6.21034 6.75469 6.48822
#
# Compressibility (1/GPa) = 0.01987215
#
# Stress axis : x y z
#
# Youngs Moduli (GPa) = 93.10806 76.88746 67.21061
#
# Poissons Ratio (x) = 0.06818 0.25734
# Poissons Ratio (y) = 0.08257 0.31325
# Poissons Ratio (z) = 0.35649 0.35835
#
# Static dielectric constant tensor:
#      x y z
#    x 2.053560 0.204680 0.084760 
#    y 0.204680 2.248100 -0.027930 
#    z 0.084760 -0.027930 1.945990 
# 
# From -- ./inp_files/617919.got.cif
#   From: 2010.05.17/outbox.cif.g08.bks.cpg/sg2_309_cif.got.tgz:617919.got - 2010.06.03 11:33:40.
