data_PCOD9050476
_publ_section_title
;
Structure prediction by ZEFSAII (Michael W. Deem and Ramdas Pophale) SiO2 
 PCOD9050476
Probable space group: P -1
;
_chemical_formula_sum "Si O2"
_cell_formula_units_Z 16
_cell_length_a 9.837689
_cell_length_b 15.979836
_cell_length_c 8.734560
_cell_angle_alpha 97.313229
_cell_angle_beta 72.881528
_cell_angle_gamma 144.006308
_cell_volume 756.051521
_symmetry_space_group_name_H-M "P -1"
_symmetry_group_IT_number 2
_symmetry_cell_setting 'triclinic'
loop_
_space_group_symop_operation_xyz
x,y,z
-x,-y,-z
loop_
_atom_site_type_symbol
_atom_site_label
_atom_site_fract_x
_atom_site_fract_y
_atom_site_fract_z
Si Si1 0.434657 0.374233 0.823045
Si Si2 0.140576 0.668085 0.094399
Si Si3 0.082810 0.957119 0.054592
Si Si4 0.888816 0.492460 0.679031
Si Si5 0.504589 0.063234 0.755261
Si Si6 0.442672 0.202278 0.236363
Si Si7 0.411826 0.551107 0.852557
Si Si8 0.364031 0.818964 0.604049
O O1 0.623033 0.397855 0.700479
O O2 0.469296 0.483792 0.768210
O O3 0.154716 0.212188 0.869119
O O4 0.512206 0.409922 0.985332
O O5 0.119612 0.579521 0.198755
O O6 0.274614 0.809352 0.171853
O O7 0.876104 0.568692 0.100683
O O8 0.320562 0.719577 0.916508
O O9 0.217234 0.053635 0.185440
O O10 0.272969 0.997420 0.894661
O O11 0.000000 0.000000 0.000000
O O12 0.000000 0.500000 0.500000
O O13 0.077177 0.659986 0.685904
O O14 0.577329 0.135582 0.581985
O O15 0.443092 0.936693 0.709302
O O16 0.448296 0.305605 0.244517
O O17 0.480449 0.185278 0.388565
#
# Coordination Sequence:
#
# PCOD9050476 Si02
#       8
#     2   2   2   2   2   2   2   2
#     4  11  25  40  63 101 130 168 210 267 335 370
#     4  11  21  40  66  99 127 166 227 261 311 381
#     4  11  23  41  66  89 137 169 214 262 320 387
#     4  12  23  42  71  91 125 172 216 263 321 389
#     4  10  25  42  63  96 130 172 213 262 322 385
#     4  11  22  38  67  99 125 174 217 265 312 386
#     4  11  22  38  64 100 131 158 217 274 314 372
#     4  11  24  41  67  95 130 166 220 264 320 375
#
# _framework density 21.162578
#
# number of rings (size 3 to 8) (size 9 to 14) (size 15 to 20)
#    0.000    1.000    5.000    1.875    7.000    1.000 
#    0.000    1.250    2.750    0.000    0.000    0.000 
#    0.000    0.000    0.000    0.000    0.000    0.000 
#
# Total GULP energy -89503.166856 kJ/mol
# GULP energy per Si atom -5593.947928 kJ/mol
# Density = 2.111441 g / cm^3
# Si number density = 21.162578 Si / 1000 Ang^3
#
#
#
# Elastic Constant Matrix: (Units=GPa)
#
#
# Indices 1 2 3 4 5 6 
#
# 1 86.6363 31.4040 -3.6074 -7.1283 5.2115 2.7838
# 2 31.4040 141.3805 20.4274 5.7707 -2.9114 9.7414
# 3 -3.6074 20.4274 20.9798 -8.1042 1.3478 0.3924
# 4 -7.1283 5.7707 -8.1042 22.9452 1.0960 0.5780
# 5 5.2115 -2.9114 1.3478 1.0960 22.6602 -4.3610
# 6 2.7838 9.7414 0.3924 0.5780 -4.3610 42.5203
#
#
#
# Elastic Compliance Matrix: (Units=1/GPa)
#
#
# Indices 1 2 3 4 5 6 
#
# 1 0.015501 -0.005874 0.013091 0.011204 -0.005742 -0.000531
# 2 -0.005874 0.011371 -0.016421 -0.010638 0.004012 -0.001513
# 3 0.013091 -0.016421 0.081085 0.037381 -0.011664 0.000452
# 4 0.011204 -0.010638 0.037381 0.063398 -0.009322 -0.000459
# 5 -0.005742 0.004012 -0.011664 -0.009322 0.047999 0.004614
# 6 -0.000531 -0.001513 0.000452 -0.000459 0.004614 0.024375
#
#
# Mechanical properties :
#
#
# Convention : Reuss Voigt Hill
#
# Bulk Modulus (GPa) = 11.16680 38.38272 24.77476
# Shear Modulus (GPa) = 17.12415 31.01000 24.06707
#
# Velocity S-wave (km/s) = 2.84768 3.83211 3.37597
# Velocity P-wave (km/s) = 4.01254 6.14463 5.18927
#
# Compressibility (1/GPa) = 0.08955120
#
# Stress axis : x y z
#
# Youngs Moduli (GPa) = 64.51179 87.94024 12.33279
#
# Poissons Ratio (x) = 0.51653 -0.16145
# Poissons Ratio (y) = 0.37892 0.20251
# Poissons Ratio (z) = -0.84454 1.44402
#
# Static dielectric constant tensor:
#      x y z
#    x 1.761420 -0.012810 0.010740 
#    y -0.012810 1.805000 0.015650 
#    z 0.010740 0.015650 1.749860 
# 
# From -- ./inp_files/182690.got.cif
#   From: 2010.05.17/outbox.cif.g08.bks.cpg/sg2_92_cif.got.tgz:182690.got - 2010.06.03 11:33:40.
