data_PCOD9050329
_publ_section_title
;
Structure prediction by ZEFSAII (Michael W. Deem and Ramdas Pophale) SiO2 
 PCOD9050329
Probable space group: P -1
;
_chemical_formula_sum "Si O2"
_cell_formula_units_Z 15
_cell_length_a 12.325154
_cell_length_b 10.066686
_cell_length_c 10.543026
_cell_angle_alpha 27.798161
_cell_angle_beta 123.871267
_cell_angle_gamma 119.854495
_cell_volume 506.478949
_symmetry_space_group_name_H-M "P -1"
_symmetry_group_IT_number 2
_symmetry_cell_setting 'triclinic'
loop_
_space_group_symop_operation_xyz
x,y,z
-x,-y,-z
loop_
_atom_site_type_symbol
_atom_site_label
_atom_site_fract_x
_atom_site_fract_y
_atom_site_fract_z
Si Si1 0.500000 0.500000 0.500000
Si Si2 0.464833 0.686137 0.702413
Si Si3 0.802407 0.378402 0.877611
Si Si4 0.222861 0.345562 0.836143
Si Si5 0.368404 0.011779 0.016477
Si Si6 0.091401 0.246788 0.585207
Si Si7 0.640663 0.855054 0.473080
Si Si8 0.831580 0.322417 0.241866
O O1 0.415727 0.304766 0.728376
O O2 0.516141 0.867334 0.285999
O O3 0.315937 0.615062 0.633612
O O4 0.577341 0.637891 0.713112
O O5 0.500000 0.000000 0.500000
O O6 0.500000 0.500000 0.000000
O O7 0.855539 0.331177 0.098446
O O8 0.640476 0.315717 0.785230
O O9 0.882259 0.476354 0.719063
O O10 0.760398 0.714068 0.602436
O O11 0.316260 0.095531 0.053417
O O12 0.106319 0.320876 0.680238
O O13 0.183814 0.397848 0.912576
O O14 0.201772 0.997828 0.852275
O O15 0.948722 0.152244 0.529162
O O16 0.697661 0.142628 0.319505
#
# Coordination Sequence:
#
# PCOD9050329 Si02
#       8
#     1   2   2   2   2   2   2   2
#     4  10  24  50  80 110 152 210 274 342 406 508
#     4  12  27  48  78 114 163 211 272 346 419 502
#     4  11  24  46  73 114 155 215 274 332 414 492
#     4  10  25  48  77 115 161 215 272 338 426 490
#     4   9  24  46  77 109 155 207 270 338 414 487
#     4  10  25  47  77 115 159 213 273 342 411 502
#     4  11  27  44  78 112 153 210 274 344 408 492
#     4  12  24  49  77 115 163 211 275 338 419 498
#
# _framework density 29.616233000000001
#
# number of rings (size 3 to 8) (size 9 to 14) (size 15 to 20)
#    0.800    0.533    1.333    2.400    5.600    3.200 
#    2.400    8.000    0.000    0.000    0.000    0.000 
#    0.000    0.000    0.000    0.000    0.000    0.000 
#
# Total GULP energy -83651.774632 kJ/mol
# GULP energy per Si atom -5576.784975 kJ/mol
# Density = 2.954883 g / cm^3
# Si number density = 29.616233 Si / 1000 Ang^3
#
#
#
# Elastic Constant Matrix: (Units=GPa)
#
#
# Indices 1 2 3 4 5 6 
#
# 1 106.0428 38.2031 45.7725 -4.6259 25.5590 -6.6066
# 2 38.2031 241.0956 63.8750 19.9200 17.1504 -5.0903
# 3 45.7725 63.8750 188.4981 -7.6265 5.0796 8.7851
# 4 -4.6259 19.9200 -7.6265 58.2078 1.3424 12.9920
# 5 25.5590 17.1504 5.0796 1.3424 57.6580 0.1223
# 6 -6.6066 -5.0903 8.7851 12.9920 0.1223 56.4981
#
#
#
# Elastic Compliance Matrix: (Units=1/GPa)
#
#
# Indices 1 2 3 4 5 6 
#
# 1 0.012184 -0.000929 -0.002556 0.000711 -0.004919 0.001586
# 2 -0.000929 0.004982 -0.001579 -0.002210 -0.000882 0.001096
# 3 -0.002556 -0.001579 0.006584 0.001586 0.000990 -0.001832
# 4 0.000711 -0.002210 0.001586 0.019276 -0.000236 -0.004795
# 5 -0.004919 -0.000882 0.000990 -0.000236 0.019707 -0.000797
# 6 0.001586 0.001096 -0.001832 -0.004795 -0.000797 0.019373
#
#
# Mechanical properties :
#
#
# Convention : Reuss Voigt Hill
#
# Bulk Modulus (GPa) = 73.41857 92.37086 82.89472
# Shear Modulus (GPa) = 51.66682 60.32517 55.99599
#
# Velocity S-wave (km/s) = 4.18130 4.51809 4.35296
# Velocity P-wave (km/s) = 6.93937 7.64686 7.30169
#
# Compressibility (1/GPa) = 0.01362053
#
# Stress axis : x y z
#
# Youngs Moduli (GPa) = 82.07735 200.73212 151.88502
#
# Poissons Ratio (x) = 0.18639 0.38829
# Poissons Ratio (y) = 0.07621 0.23988
# Poissons Ratio (z) = 0.20983 0.31703
#
# Static dielectric constant tensor:
#      x y z
#    x 2.412270 -0.114440 0.177330 
#    y -0.114440 2.696590 -0.160110 
#    z 0.177330 -0.160110 2.389950 
# 
# From -- ./inp_files/297330.got.cif
#   From: 2010.05.17/outbox.cif.g08.bks.cpg/sg2_149_cif.got.tgz:297330.got - 2010.06.03 11:33:40.
