data_PCOD9050337
_publ_section_title
;
Structure prediction by ZEFSAII (Michael W. Deem and Ramdas Pophale) SiO2 
 PCOD9050337
Probable space group: P -1
;
_chemical_formula_sum "Si O2"
_cell_formula_units_Z 11
_cell_length_a 11.230104
_cell_length_b 5.562885
_cell_length_c 9.138324
_cell_angle_alpha 75.750142
_cell_angle_beta 126.399578
_cell_angle_gamma 119.336352
_cell_volume 399.769055
_symmetry_space_group_name_H-M "P -1"
_symmetry_group_IT_number 2
_symmetry_cell_setting 'triclinic'
loop_
_space_group_symop_operation_xyz
x,y,z
-x,-y,-z
loop_
_atom_site_type_symbol
_atom_site_label
_atom_site_fract_x
_atom_site_fract_y
_atom_site_fract_z
Si Si1 0.500000 0.000000 0.500000
Si Si2 0.997205 0.709308 0.625286
Si Si3 0.766387 0.512048 0.218080
Si Si4 0.387211 0.365810 0.169258
Si Si5 0.337341 0.038459 0.675638
Si Si6 0.924831 0.718358 0.893803
O O1 0.580605 0.874721 0.700937
O O2 0.625304 0.975288 0.465988
O O3 0.843665 0.567621 0.427862
O O4 0.852200 0.063911 0.392663
O O5 0.950824 0.795531 0.730473
O O6 0.078693 0.500464 0.751685
O O7 0.628393 0.195408 0.178487
O O8 0.700441 0.684770 0.045273
O O9 0.553066 0.648950 0.242701
O O10 0.267441 0.428537 0.182851
O O11 0.000000 0.500000 0.000000
O O12 0.000000 0.000000 0.000000
#
# Coordination Sequence:
#
# PCOD9050337 Si02
#       6
#     1   2   2   2   2   2
#     4  12  30  48  76 126 182 226 300 350 464 508
#     4   9  22  50  87 129 173 223 299 372 461 525
#     4   9  21  47  88 126 170 225 288 371 451 528
#     4  12  27  50  87 122 176 235 294 372 437 552
#     4  10  24  50  85 123 174 229 296 376 442 541
#     4  12  28  53  90 134 179 231 304 375 458 539
#
# _framework density 27.515884
#
# number of rings (size 3 to 8) (size 9 to 14) (size 15 to 20)
#    1.091    0.364    1.818    1.091    5.091    2.182 
#    6.545    1.818    4.000    0.000    0.000    0.000 
#    0.000    0.000    0.000    0.000    0.000    0.000 
#
# Total GULP energy -61320.455127 kJ/mol
# GULP energy per Si atom -5574.586830 kJ/mol
# Density = 2.745326 g / cm^3
# Si number density = 27.515884 Si / 1000 Ang^3
#
#
#
# Elastic Constant Matrix: (Units=GPa)
#
#
# Indices 1 2 3 4 5 6 
#
# 1 211.5920 24.0146 88.7382 24.3314 -18.0596 5.3795
# 2 24.0146 101.4656 74.8431 0.5967 7.0928 1.8209
# 3 88.7382 74.8431 238.2231 -27.5288 -16.6903 -2.0495
# 4 24.3314 0.5967 -27.5288 54.0386 -14.5647 12.5564
# 5 -18.0596 7.0928 -16.6903 -14.5647 63.2516 6.2170
# 6 5.3795 1.8209 -2.0495 12.5564 6.2170 43.8264
#
#
#
# Elastic Compliance Matrix: (Units=1/GPa)
#
#
# Indices 1 2 3 4 5 6 
#
# 1 0.006516 0.000916 -0.003281 -0.004779 -0.000249 0.000413
# 2 0.000916 0.014024 -0.005557 -0.004682 -0.003949 0.000947
# 3 -0.003281 -0.005557 0.008223 0.007059 0.003631 -0.001519
# 4 -0.004779 -0.004682 0.007059 0.028481 0.008391 -0.008239
# 5 -0.000249 -0.003949 0.003631 0.008391 0.019545 -0.004812
# 6 0.000413 0.000947 -0.001519 -0.008239 -0.004812 0.025699
#
#
# Mechanical properties :
#
#
# Convention : Reuss Voigt Hill
#
# Bulk Modulus (GPa) = 77.40381 102.94139 90.17260
# Shear Modulus (GPa) = 40.77037 56.46897 48.61967
#
# Velocity S-wave (km/s) = 3.85347 4.53507 4.20809
# Velocity P-wave (km/s) = 6.92752 8.05700 7.51352
#
# Compressibility (1/GPa) = 0.01291926
#
# Stress axis : x y z
#
# Youngs Moduli (GPa) = 153.47146 71.30570 121.61246
#
# Poissons Ratio (x) = -0.06533 0.39902
# Poissons Ratio (y) = -0.14060 0.67578
# Poissons Ratio (z) = 0.50355 0.39623
#
# Static dielectric constant tensor:
#      x y z
#    x 1.900510 0.370170 0.001310 
#    y 0.370170 1.829160 0.089830 
#    z 0.001310 0.089830 2.068100 
# 
# From -- ./inp_files/228957.got.cif
#   From: 2010.05.17/outbox.cif.g08.bks.cpg/sg2_115_cif.got.tgz:228957.got - 2010.06.03 11:33:40.
