data_PCOD9050853
_publ_section_title
;
Structure prediction by ZEFSAII (Michael W. Deem and Ramdas Pophale) SiO2 
 PCOD9050853
Probable space group: P -1
;
_chemical_formula_sum "Si O2"
_cell_formula_units_Z 10
_cell_length_a 8.901287
_cell_length_b 13.404154
_cell_length_c 8.959458
_cell_angle_alpha 128.044324
_cell_angle_beta 94.228450
_cell_angle_gamma 41.854505
_cell_volume 381.968507
_symmetry_space_group_name_H-M "P -1"
_symmetry_group_IT_number 2
_symmetry_cell_setting 'triclinic'
loop_
_space_group_symop_operation_xyz
x,y,z
-x,-y,-z
loop_
_atom_site_type_symbol
_atom_site_label
_atom_site_fract_x
_atom_site_fract_y
_atom_site_fract_z
Si Si1 0.023201 0.976081 0.209005
Si Si2 0.255233 0.469070 0.057053
Si Si3 0.628419 0.942841 0.658681
Si Si4 0.955451 0.249895 0.249967
Si Si5 0.447959 0.297336 0.591016
O O1 0.409173 0.714130 0.026580
O O2 0.974826 0.901846 0.015566
O O3 0.865144 0.222230 0.353270
O O4 0.809299 0.088727 0.435255
O O5 0.247266 0.494312 0.902528
O O6 0.337843 0.258076 0.891899
O O7 0.930175 0.743257 0.380545
O O8 0.545073 0.858786 0.560623
O O9 0.752908 0.886518 0.780978
O O10 0.708417 0.532565 0.416209
#
# Coordination Sequence:
#
# PCOD9050853 Si02
#       5
#     2   2   2   2   2
#     4  10  25  44  71  99 138 180 230 282 339 403
#     4  11  27  47  70 101 142 180 224 283 344 404
#     4  11  27  47  70 101 142 180 224 283 344 404
#     4  10  25  44  69  99 140 178 230 280 343 399
#     4  12  25  43  74 101 134 181 233 280 338 408
#
# _framework density 26.180168999999999
#
# number of rings (size 3 to 8) (size 9 to 14) (size 15 to 20)
#    0.000    1.200    0.000    3.000   19.600    1.600 
#    0.000    0.000    0.000    0.000    0.000    0.000 
#    0.000    0.000    0.000    0.000    0.000    0.000 
#
# Total GULP energy -56053.934552 kJ/mol
# GULP energy per Si atom -5605.393455 kJ/mol
# Density = 2.612058 g / cm^3
# Si number density = 26.180169 Si / 1000 Ang^3
#
#
#
# Elastic Constant Matrix: (Units=GPa)
#
#
# Indices 1 2 3 4 5 6 
#
# 1 95.3107 101.1336 61.6911 -29.4638 -7.3452 -8.6787
# 2 101.1336 81.6068 9.2566 15.8179 8.9005 -19.6248
# 3 61.6911 9.2566 87.9650 6.9006 -0.7838 3.0467
# 4 -29.4638 15.8179 6.9006 24.8422 -0.9699 2.9185
# 5 -7.3452 8.9005 -0.7838 -0.9699 48.4690 -2.9722
# 6 -8.6787 -19.6248 3.0467 2.9185 -2.9722 30.2514
#
#
#
# Elastic Compliance Matrix: (Units=1/GPa)
#
#
# Indices 1 2 3 4 5 6 
#
# 1 -0.004331 0.008926 0.002864 -0.012316 -0.002175 0.005234
# 2 0.008926 -0.000030 -0.007295 0.012433 0.001626 0.002236
# 3 0.002864 -0.007295 0.009856 0.005995 0.001727 -0.005312
# 4 -0.012316 0.012433 0.005995 0.015682 -0.003612 0.002061
# 5 -0.002175 0.001626 0.001727 -0.003612 0.020118 0.002582
# 6 0.005234 0.002236 -0.005312 0.002061 0.002582 0.036599
#
#
# Mechanical properties :
#
#
# Convention : Reuss Voigt Hill
#
# Bulk Modulus (GPa) = 69.03841 67.67168 68.35504
# Shear Modulus (GPa) = 67.81361 26.89926 47.35643
#
# Velocity S-wave (km/s) = 5.09499 3.20889 4.25769
# Velocity P-wave (km/s) = 7.81278 6.29554 7.09484
#
# Compressibility (1/GPa) = 0.01448469
#
# Stress axis : x y z
#
# Youngs Moduli (GPa) = -230.87315 -33361.08091 101.45676
#
# Poissons Ratio (x) = 297.78287 -0.29056
# Poissons Ratio (y) = 2.06079 0.74014
# Poissons Ratio (z) = 0.66119 -243.37261
#
# Static dielectric constant tensor:
#      x y z
#    x 2.055050 -0.012590 -0.033990 
#    y -0.012590 2.058760 0.013170 
#    z -0.033990 0.013170 2.006060 
# 
# From -- ./inp_files/15358.got.cif
#   From: 2010.05.17/outbox.cif.g08.bks.cpg/sg2_8_cif.got.tgz:15358.got - 2010.06.03 11:33:40.
