data_PCOD9050317
_publ_section_title
;
Structure prediction by ZEFSAII (Michael W. Deem and Ramdas Pophale) SiO2 
 PCOD9050317
Probable space group: P -1
;
_chemical_formula_sum "Si O2"
_cell_formula_units_Z 12
_cell_length_a 5.982252
_cell_length_b 14.866199
_cell_length_c 15.825019
_cell_angle_alpha 154.432194
_cell_angle_beta 120.502595
_cell_angle_gamma 62.666941
_cell_volume 523.329636
_symmetry_space_group_name_H-M "P -1"
_symmetry_group_IT_number 2
_symmetry_cell_setting 'triclinic'
loop_
_space_group_symop_operation_xyz
x,y,z
-x,-y,-z
loop_
_atom_site_type_symbol
_atom_site_label
_atom_site_fract_x
_atom_site_fract_y
_atom_site_fract_z
Si Si1 0.343101 0.868184 0.241718
Si Si2 0.882362 0.853934 0.424522
Si Si3 0.940098 0.549151 0.931712
Si Si4 0.496106 0.243504 0.284503
Si Si5 0.487710 0.876980 0.094104
Si Si6 0.094708 0.715058 0.747326
O O1 0.600671 0.806454 0.290548
O O2 0.388653 0.955456 0.231978
O O3 0.178185 0.028908 0.402094
O O4 0.182210 0.659049 0.028109
O O5 0.081711 0.663962 0.304114
O O6 0.000000 0.000000 0.500000
O O7 0.707745 0.708652 0.014833
O O8 0.000000 0.500000 0.000000
O O9 0.500000 0.500000 0.500000
O O10 0.696875 0.193628 0.204040
O O11 0.184697 0.199065 0.199883
O O12 0.590200 0.079530 0.235342
O O13 0.273379 0.742071 0.887734
O O14 0.000000 0.500000 0.500000
#
# Coordination Sequence:
#
# PCOD9050317 Si02
#       6
#     2   2   2   2   2   2
#     4  11  25  44  73 109 150 205 261 307 382 458
#     4  11  23  48  71 101 160 206 249 317 371 455
#     4  12  25  47  71 112 158 199 253 314 382 466
#     4  10  24  50  76 108 154 198 261 333 398 465
#     4  12  26  44  79 111 149 208 259 318 400 468
#     4  10  24  50  76 110 151 199 259 336 396 463
#
# _framework density 22.930098999999998
#
# number of rings (size 3 to 8) (size 9 to 14) (size 15 to 20)
#    0.000    1.000    3.333    1.500    4.667    0.000 
#   18.000    0.000    0.000    0.000    0.000    0.000 
#    0.000    0.000    0.000    0.000    0.000    0.000 
#
# Total GULP energy -66839.889020 kJ/mol
# GULP energy per Si atom -5569.990752 kJ/mol
# Density = 2.287791 g / cm^3
# Si number density = 22.930099 Si / 1000 Ang^3
#
#
#
# Elastic Constant Matrix: (Units=GPa)
#
#
# Indices 1 2 3 4 5 6 
#
# 1 174.6551 61.7795 46.3062 10.2996 -15.5260 19.3473
# 2 61.7795 125.4843 55.8137 11.8721 -14.6429 7.0009
# 3 46.3062 55.8137 112.4274 7.7544 -29.2562 10.0551
# 4 10.2996 11.8721 7.7544 30.3640 -1.6268 0.6201
# 5 -15.5260 -14.6429 -29.2562 -1.6268 48.1300 -7.4050
# 6 19.3473 7.0009 10.0551 0.6201 -7.4050 40.7733
#
#
#
# Elastic Compliance Matrix: (Units=1/GPa)
#
#
# Indices 1 2 3 4 5 6 
#
# 1 0.007443 -0.002814 -0.001275 -0.001027 0.000326 -0.002659
# 2 -0.002814 0.011533 -0.004475 -0.002429 -0.000128 0.000472
# 3 -0.001275 -0.004475 0.013390 -0.000888 0.006216 -0.000786
# 4 -0.001027 -0.002429 -0.000888 0.034428 -0.000364 0.000534
# 5 0.000326 -0.000128 0.006216 -0.000364 0.025054 0.002890
# 6 -0.002659 0.000472 -0.000786 0.000534 0.002890 0.026417
#
#
# Mechanical properties :
#
#
# Convention : Reuss Voigt Hill
#
# Bulk Modulus (GPa) = 65.62008 82.26286 73.94147
# Shear Modulus (GPa) = 35.59397 40.43129 38.01263
#
# Velocity S-wave (km/s) = 3.94417 4.20365 4.07598
# Velocity P-wave (km/s) = 7.03005 7.71455 7.38024
#
# Compressibility (1/GPa) = 0.01523924
#
# Stress axis : x y z
#
# Youngs Moduli (GPa) = 134.35317 86.70665 74.68016
#
# Poissons Ratio (x) = 0.24396 0.09524
# Poissons Ratio (y) = 0.37802 0.33418
# Poissons Ratio (z) = 0.17134 0.38799
#
# Static dielectric constant tensor:
#      x y z
#    x 1.917250 -0.109320 -0.014540 
#    y -0.109320 1.926170 0.044360 
#    z -0.014540 0.044360 1.939220 
# 
# From -- ./inp_files/321179.got.cif
#   From: 2010.05.17/outbox.cif.g08.bks.cpg/sg2_161_cif.got.tgz:321179.got - 2010.06.03 11:33:40.
