data_PCOD9050893
_publ_section_title
;
Structure prediction by ZEFSAII (Michael W. Deem and Ramdas Pophale) SiO2 
 PCOD9050893
Probable space group: P -1
;
_chemical_formula_sum "Si O2"
_cell_formula_units_Z 16
_cell_length_a 7.296782
_cell_length_b 12.136296
_cell_length_c 15.476800
_cell_angle_alpha 30.813792
_cell_angle_beta 107.716219
_cell_angle_gamma 114.723058
_cell_volume 633.265073
_symmetry_space_group_name_H-M "P -1"
_symmetry_group_IT_number 2
_symmetry_cell_setting 'triclinic'
loop_
_space_group_symop_operation_xyz
x,y,z
-x,-y,-z
loop_
_atom_site_type_symbol
_atom_site_label
_atom_site_fract_x
_atom_site_fract_y
_atom_site_fract_z
Si Si1 0.510727 0.702300 0.799816
Si Si2 0.775212 0.282266 0.879285
Si Si3 0.069360 0.691255 0.728679
Si Si4 0.242335 0.582851 0.500898
Si Si5 0.203033 0.944684 0.144335
Si Si6 0.797965 0.881357 0.240956
Si Si7 0.431253 0.457069 0.772696
Si Si8 0.942362 0.972865 0.652861
O O1 0.305736 0.763579 0.736201
O O2 0.507469 0.612597 0.761826
O O3 0.719226 0.902361 0.708988
O O4 0.500000 0.500000 0.000000
O O5 0.822154 0.216629 0.834684
O O6 0.620256 0.424740 0.768750
O O7 0.974832 0.431507 0.859834
O O8 0.681739 0.045737 0.077099
O O9 0.961902 0.752179 0.755606
O O10 0.037078 0.838669 0.544003
O O11 0.321314 0.832552 0.304090
O O12 0.312755 0.385118 0.601372
O O13 0.297716 0.563927 0.621005
O O14 0.000000 0.500000 0.500000
O O15 0.988928 0.928439 0.169493
O O16 0.306478 0.204222 0.957340
O O17 0.889785 0.945852 0.304663
#
# Coordination Sequence:
#
# PCOD9050893 Si02
#       8
#     2   2   2   2   2   2   2   2
#     4  12  27  47  75 104 146 194 246 298 372 439
#     4  12  24  44  71 103 148 188 240 304 361 439
#     4  11  26  46  75 103 146 194 239 314 359 434
#     4  10  25  44  71 105 139 187 241 298 359 438
#     4  11  24  44  70 103 141 190 237 292 374 420
#     4  11  24  43  75 100 145 187 245 298 362 445
#     4  12  26  47  69 108 150 188 245 304 361 442
#     4  11  25  50  68 112 142 188 252 300 368 436
#
# _framework density 25.265882000000001
#
# number of rings (size 3 to 8) (size 9 to 14) (size 15 to 20)
#    0.000    0.750    2.500    4.125   10.500    1.500 
#    4.500    0.000    0.000    0.000    0.000    0.000 
#    0.000    0.000    0.000    0.000    0.000    0.000 
#
# Total GULP energy -89718.241391 kJ/mol
# GULP energy per Si atom -5607.390087 kJ/mol
# Density = 2.520838 g / cm^3
# Si number density = 25.265882 Si / 1000 Ang^3
#
#
#
# Elastic Constant Matrix: (Units=GPa)
#
#
# Indices 1 2 3 4 5 6 
#
# 1 86.2729 7.2815 7.9429 5.9553 3.8179 -7.2044
# 2 7.2815 111.0724 28.8068 21.6889 9.3221 -7.6083
# 3 7.9429 28.8068 133.9071 24.0344 11.2258 -1.2710
# 4 5.9553 21.6889 24.0344 47.9083 9.0568 5.3493
# 5 3.8179 9.3221 11.2258 9.0568 38.0267 2.3950
# 6 -7.2044 -7.6083 -1.2710 5.3493 2.3950 20.9145
#
#
#
# Elastic Compliance Matrix: (Units=1/GPa)
#
#
# Indices 1 2 3 4 5 6 
#
# 1 0.012176 0.000023 -0.000288 -0.001713 -0.001034 0.004741
# 2 0.000023 0.010695 -0.001326 -0.004471 -0.001491 0.005132
# 3 -0.000288 -0.001326 0.008522 -0.003486 -0.001394 0.000988
# 4 -0.001713 -0.004471 -0.003486 0.026496 -0.003459 -0.008809
# 5 -0.001034 -0.001491 -0.001394 -0.003459 0.028212 -0.003329
# 6 0.004741 0.005132 0.000988 -0.008809 -0.003329 0.054008
#
#
# Mechanical properties :
#
#
# Convention : Reuss Voigt Hill
#
# Bulk Modulus (GPa) = 35.44807 46.59054 41.01931
# Shear Modulus (GPa) = 32.74489 40.51797 36.63143
#
# Velocity S-wave (km/s) = 3.60392 4.00892 3.81180
# Velocity P-wave (km/s) = 5.60162 6.31734 5.97021
#
# Compressibility (1/GPa) = 0.02821028
#
# Stress axis : x y z
#
# Youngs Moduli (GPa) = 82.13097 93.49962 117.34188
#
# Poissons Ratio (x) = -0.00211 0.03378
# Poissons Ratio (y) = -0.00185 0.15560
# Poissons Ratio (z) = 0.02365 0.12398
#
# Static dielectric constant tensor:
#      x y z
#    x 2.035270 0.010750 0.006520 
#    y 0.010750 1.940120 -0.010750 
#    z 0.006520 -0.010750 2.004020 
# 
# From -- ./inp_files/398707.got.cif
#   From: 2010.05.17/outbox.cif.g08.bks.cpg/sg2_200_cif.got.tgz:398707.got - 2010.06.03 11:33:40.
