data_PCOD9050116
_publ_section_title
;
Structure prediction by ZEFSAII (Michael W. Deem and Ramdas Pophale) SiO2 
 PCOD9050116
Probable space group: P -1
;
_chemical_formula_sum "Si O2"
_cell_formula_units_Z 15
_cell_length_a 16.531864
_cell_length_b 7.056563
_cell_length_c 9.679173
_cell_angle_alpha 67.057474
_cell_angle_beta 54.280521
_cell_angle_gamma 37.789488
_cell_volume 555.903260
_symmetry_space_group_name_H-M "P -1"
_symmetry_group_IT_number 2
_symmetry_cell_setting 'triclinic'
loop_
_space_group_symop_operation_xyz
x,y,z
-x,-y,-z
loop_
_atom_site_type_symbol
_atom_site_label
_atom_site_fract_x
_atom_site_fract_y
_atom_site_fract_z
Si Si1 0.562771 0.079640 0.813845
Si Si2 0.017756 0.818470 0.229432
Si Si3 0.295639 0.795917 0.193252
Si Si4 0.518383 0.843503 0.709179
Si Si5 0.258576 0.783405 0.917914
Si Si6 0.744103 0.525475 0.338099
Si Si7 0.000000 0.000000 0.500000
Si Si8 0.926301 0.607387 0.196362
O O1 0.679080 0.038341 0.791534
O O2 0.604133 0.897291 0.685267
O O3 0.420486 0.442953 0.819002
O O4 0.500000 0.000000 0.000000
O O5 0.017602 0.594477 0.222149
O O6 0.135712 0.790142 0.045464
O O7 0.850472 0.181314 0.274762
O O8 0.051421 0.785383 0.366866
O O9 0.443513 0.417709 0.166568
O O10 0.256451 0.877094 0.048865
O O11 0.157788 0.883853 0.369762
O O12 0.604547 0.669956 0.529183
O O13 0.345778 0.187967 0.761584
O O14 0.221152 0.025199 0.784193
O O15 0.870431 0.461663 0.319032
O O16 0.000000 0.500000 0.000000
#
# Coordination Sequence:
#
# PCOD9050116 Si02
#       8
#     2   2   2   2   2   2   1   2
#     4  12  26  42  72 105 144 189 240 295 366 427
#     4  11  24  47  70 103 144 187 241 302 360 427
#     4  11  24  47  70 103 144 187 241 302 360 427
#     4  11  25  45  70 102 143 190 241 292 362 439
#     4  11  24  45  69 104 143 188 234 306 355 424
#     4  11  25  45  70 102 143 190 241 292 362 439
#     4  10  24  48  76  98 148 188 234 304 368 424
#     4  12  26  42  72 105 144 189 240 295 366 427
#
# _framework density 26.983111999999998
#
# number of rings (size 3 to 8) (size 9 to 14) (size 15 to 20)
#    0.000    0.800    4.000    2.400    5.600    0.000 
#    0.000    4.667    0.000    0.000    0.000    0.000 
#    0.000    0.000    0.000    0.000    0.000    0.000 
#
# Total GULP energy -83841.852058 kJ/mol
# GULP energy per Si atom -5589.456804 kJ/mol
# Density = 2.692170 g / cm^3
# Si number density = 26.983112 Si / 1000 Ang^3
#
#
#
# Elastic Constant Matrix: (Units=GPa)
#
#
# Indices 1 2 3 4 5 6 
#
# 1 195.0085 50.1359 24.5535 10.4162 -3.8938 44.6780
# 2 50.1359 102.6818 -4.2666 11.2191 -5.1866 -8.1301
# 3 24.5535 -4.2666 65.5688 17.1519 0.5358 17.1978
# 4 10.4162 11.2191 17.1519 29.2480 -1.2603 -2.2818
# 5 -3.8938 -5.1866 0.5358 -1.2603 47.0219 4.4437
# 6 44.6780 -8.1301 17.1978 -2.2818 4.4437 66.7095
#
#
#
# Elastic Compliance Matrix: (Units=1/GPa)
#
#
# Indices 1 2 3 4 5 6 
#
# 1 0.007640 -0.004116 -0.001598 -0.000587 0.000679 -0.005272
# 2 -0.004116 0.012671 0.002692 -0.004682 0.000579 0.003408
# 3 -0.001598 0.002692 0.020517 -0.012833 -0.000004 -0.004330
# 4 -0.000587 -0.004682 -0.012833 0.044096 0.000327 0.004618
# 5 0.000679 0.000579 -0.000004 0.000327 0.021566 -0.001809
# 6 -0.005272 0.003408 -0.004330 0.004618 -0.001809 0.020331
#
#
# Mechanical properties :
#
#
# Convention : Reuss Voigt Hill
#
# Bulk Modulus (GPa) = 28.74814 56.01164 42.37989
# Shear Modulus (GPa) = 34.61156 48.11832 41.36494
#
# Velocity S-wave (km/s) = 3.58538 4.22747 3.91959
# Velocity P-wave (km/s) = 5.27420 6.68070 6.01868
#
# Compressibility (1/GPa) = 0.03478486
#
# Stress axis : x y z
#
# Youngs Moduli (GPa) = 130.88888 78.92088 48.73890
#
# Poissons Ratio (x) = 0.32482 0.07789
# Poissons Ratio (y) = 0.53870 -0.13120
# Poissons Ratio (z) = 0.20917 -0.21245
#
# Static dielectric constant tensor:
#      x y z
#    x 2.457300 -0.722140 0.505770 
#    y -0.722140 3.818050 -1.302600 
#    z 0.505770 -1.302600 3.075370 
# 
# From -- ./inp_files/409084.got.cif
#   From: 2010.05.17/outbox.cif.g08.bks.cpg/sg2_205_cif.got.tgz:409084.got - 2010.06.03 11:33:40.
