data_PCOD9050638
_publ_section_title
;
Structure prediction by ZEFSAII (Michael W. Deem and Ramdas Pophale) SiO2 
 PCOD9050638
Probable space group: P -1
;
_chemical_formula_sum "Si O2"
_cell_formula_units_Z 15
_cell_length_a 13.254334
_cell_length_b 8.441272
_cell_length_c 8.571790
_cell_angle_alpha 109.752915
_cell_angle_beta 106.331280
_cell_angle_gamma 122.095759
_cell_volume 624.044585
_symmetry_space_group_name_H-M "P -1"
_symmetry_group_IT_number 2
_symmetry_cell_setting 'triclinic'
loop_
_space_group_symop_operation_xyz
x,y,z
-x,-y,-z
loop_
_atom_site_type_symbol
_atom_site_label
_atom_site_fract_x
_atom_site_fract_y
_atom_site_fract_z
Si Si1 0.648528 0.140395 0.422965
Si Si2 0.830727 0.080152 0.069227
Si Si3 0.184774 0.120389 0.297234
Si Si4 0.438689 0.256654 0.949571
Si Si5 0.649934 0.007217 0.698097
Si Si6 0.974839 0.782961 0.350972
Si Si7 0.000000 0.500000 0.500000
Si Si8 0.286750 0.544905 0.685627
O O1 0.515158 0.122400 0.383844
O O2 0.740651 0.308750 0.368395
O O3 0.578133 0.889948 0.249305
O O4 0.709956 0.179658 0.634688
O O5 0.962114 0.324894 0.282495
O O6 0.717522 0.897130 0.090115
O O7 0.855537 0.947241 0.923766
O O8 0.747087 0.120768 0.933092
O O9 0.329864 0.166171 0.395145
O O10 0.224780 0.339561 0.468302
O O11 0.055984 0.883706 0.256340
O O12 0.500000 0.500000 0.000000
O O13 0.548192 0.300070 0.140005
O O14 0.802503 0.566746 0.229968
O O15 0.033506 0.695135 0.451951
O O16 0.000000 0.000000 0.500000
#
# Coordination Sequence:
#
# PCOD9050638 Si02
#       8
#     2   2   2   2   2   2   1   2
#     4  11  22  40  67 106 139 179 236 287 367 426
#     4  10  25  44  71 101 135 188 240 284 359 429
#     4   9  22  46  65  97 142 185 234 290 350 427
#     4  12  26  41  72 105 142 188 228 296 362 431
#     4   9  22  42  66  95 141 175 228 300 342 433
#     4  10  25  43  69 100 139 188 243 291 354 427
#     4  12  26  46  74  98 142 196 240 300 358 420
#     4  11  22  41  73 103 143 184 228 306 347 434
#
# _framework density 24.036746000000001
#
# number of rings (size 3 to 8) (size 9 to 14) (size 15 to 20)
#    0.800    0.800    1.333    2.000    9.333    4.800 
#    0.000    4.000    0.000    0.000    0.000    0.000 
#    0.000    0.000    0.000    0.000    0.000    0.000 
#
# Total GULP energy -83544.082580 kJ/mol
# GULP energy per Si atom -5569.605505 kJ/mol
# Density = 2.398204 g / cm^3
# Si number density = 24.036746 Si / 1000 Ang^3
#
#
#
# Elastic Constant Matrix: (Units=GPa)
#
#
# Indices 1 2 3 4 5 6 
#
# 1 75.6657 13.3328 8.0109 4.8902 -16.0769 -2.2072
# 2 13.3328 108.2652 14.2808 0.1907 -6.7618 0.3879
# 3 8.0109 14.2808 87.1373 3.8153 -5.2739 1.7988
# 4 4.8902 0.1907 3.8153 28.4564 -4.2185 -2.7550
# 5 -16.0769 -6.7618 -5.2739 -4.2185 31.9358 -0.7399
# 6 -2.2072 0.3879 1.7988 -2.7550 -0.7399 35.8150
#
#
#
# Elastic Compliance Matrix: (Units=1/GPa)
#
#
# Indices 1 2 3 4 5 6 
#
# 1 0.015145 -0.001331 -0.000708 -0.001351 0.007071 0.001025
# 2 -0.001331 0.009661 -0.001410 0.000528 0.001211 -0.000050
# 3 -0.000708 -0.001410 0.011914 -0.001370 0.001115 -0.000709
# 4 -0.001351 0.000528 -0.001370 0.036437 0.004085 0.002867
# 5 0.007071 0.001211 0.001115 0.004085 0.035885 0.001422
# 6 0.001025 -0.000050 -0.000709 0.002867 0.001422 0.028271
#
#
# Mechanical properties :
#
#
# Convention : Reuss Voigt Hill
#
# Bulk Modulus (GPa) = 33.53202 38.03525 35.78363
# Shear Modulus (GPa) = 32.43525 34.93770 33.68647
#
# Velocity S-wave (km/s) = 3.67741 3.81663 3.74767
# Velocity P-wave (km/s) = 5.65789 5.93973 5.80052
#
# Compressibility (1/GPa) = 0.02982224
#
# Stress axis : x y z
#
# Youngs Moduli (GPa) = 66.02759 103.50484 83.93205
#
# Poissons Ratio (x) = 0.13780 0.05944
# Poissons Ratio (y) = 0.08791 0.11832
# Poissons Ratio (z) = 0.04676 0.14592
#
# Static dielectric constant tensor:
#      x y z
#    x 2.172650 0.117060 0.105930 
#    y 0.117060 1.986080 0.012740 
#    z 0.105930 0.012740 1.888400 
# 
# From -- ./inp_files/299280.got.cif
#   From: 2010.05.17/outbox.cif.g08.bks.cpg/sg2_150_cif.got.tgz:299280.got - 2010.06.03 11:33:40.
