data_PCOD9050508
_publ_section_title
;
Structure prediction by ZEFSAII (Michael W. Deem and Ramdas Pophale) SiO2 
 PCOD9050508
Probable space group: P -1
;
_chemical_formula_sum "Si O2"
_cell_formula_units_Z 16
_cell_length_a 15.457535
_cell_length_b 9.068176
_cell_length_c 9.146708
_cell_angle_alpha 63.739259
_cell_angle_beta 48.018890
_cell_angle_gamma 50.136040
_cell_volume 731.339142
_symmetry_space_group_name_H-M "P -1"
_symmetry_group_IT_number 2
_symmetry_cell_setting 'triclinic'
loop_
_space_group_symop_operation_xyz
x,y,z
-x,-y,-z
loop_
_atom_site_type_symbol
_atom_site_label
_atom_site_fract_x
_atom_site_fract_y
_atom_site_fract_z
Si Si1 0.511982 0.157062 0.327369
Si Si2 0.894986 0.469569 0.035939
Si Si3 0.352119 0.544200 0.206948
Si Si4 0.988463 0.926326 0.779551
Si Si5 0.238672 0.904418 0.398180
Si Si6 0.371646 0.683633 0.635115
Si Si7 0.264445 0.103843 0.037267
Si Si8 0.162747 0.680726 0.079083
O O1 0.378240 0.351489 0.341515
O O2 0.585572 0.227896 0.322323
O O3 0.500000 0.000000 0.500000
O O4 0.604562 0.053756 0.127592
O O5 0.768507 0.686470 0.064998
O O6 0.928072 0.394082 0.862568
O O7 0.000000 0.500000 0.000000
O O8 0.906458 0.289063 0.189240
O O9 0.300568 0.718045 0.303967
O O10 0.243123 0.600082 0.175603
O O11 0.500000 0.500000 0.000000
O O12 0.863247 0.917814 0.856387
O O13 0.078022 0.985473 0.556640
O O14 0.922116 0.090381 0.905558
O O15 0.298798 0.836798 0.521094
O O16 0.274494 0.052789 0.219300
O O17 0.500000 0.500000 0.500000
O O18 0.277808 0.621573 0.851866
#
# Coordination Sequence:
#
# PCOD9050508 Si02
#       8
#     2   2   2   2   2   2   2   2
#     4  12  27  45  68 101 142 181 223 289 351 402
#     4  10  25  42  67  98 137 175 223 282 343 400
#     4  12  22  45  69 100 138 180 229 287 336 403
#     4  11  22  43  73  99 129 184 234 275 342 412
#     4  12  23  39  74 100 133 177 233 285 331 414
#     4  12  24  41  71 103 132 177 241 273 336 414
#     4  11  24  46  64 101 144 174 222 291 350 398
#     4  12  23  44  74  99 134 184 232 279 337 415
#
# _framework density 21.877675
#
# number of rings (size 3 to 8) (size 9 to 14) (size 15 to 20)
#    0.000    0.500    7.500    0.750    3.500    1.000 
#    0.000    1.875    0.000    0.000    0.000    0.000 
#    0.000    0.000    0.000    0.000    0.000    0.000 
#
# Total GULP energy -89291.331110 kJ/mol
# GULP energy per Si atom -5580.708194 kJ/mol
# Density = 2.182788 g / cm^3
# Si number density = 21.877675 Si / 1000 Ang^3
#
#
#
# Elastic Constant Matrix: (Units=GPa)
#
#
# Indices 1 2 3 4 5 6 
#
# 1 81.4513 8.1051 -0.9905 -15.3795 31.0639 -0.2943
# 2 8.1051 116.2104 19.6917 -9.6061 6.6159 -5.3449
# 3 -0.9905 19.6917 75.3600 -1.9443 0.8373 -11.4127
# 4 -15.3795 -9.6061 -1.9443 36.9320 -7.9683 11.9564
# 5 31.0639 6.6159 0.8373 -7.9683 36.5854 -4.1968
# 6 -0.2943 -5.3449 -11.4127 11.9564 -4.1968 32.6906
#
#
#
# Elastic Compliance Matrix: (Units=1/GPa)
#
#
# Indices 1 2 3 4 5 6 
#
# 1 0.019335 -0.000158 0.000013 0.005958 -0.015553 -0.004023
# 2 -0.000158 0.009240 -0.002384 0.002051 -0.001060 -0.000209
# 3 0.000013 -0.002384 0.014655 -0.001485 0.000372 0.005317
# 4 0.005958 0.002051 -0.001485 0.034213 0.000614 -0.012564
# 5 -0.015553 -0.001060 0.000372 0.000614 0.041419 0.004909
# 6 -0.004023 -0.000209 0.005317 -0.012564 0.004909 0.037601
#
#
# Mechanical properties :
#
#
# Convention : Reuss Voigt Hill
#
# Bulk Modulus (GPa) = 26.19627 36.29270 31.24448
# Shear Modulus (GPa) = 28.69505 37.65595 33.17550
#
# Velocity S-wave (km/s) = 3.62555 4.15324 3.89833
# Velocity P-wave (km/s) = 5.43379 6.29477 5.88006
#
# Compressibility (1/GPa) = 0.03817338
#
# Stress axis : x y z
#
# Youngs Moduli (GPa) = 51.71945 108.22222 68.23386
#
# Poissons Ratio (x) = 0.01707 -0.00086
# Poissons Ratio (y) = 0.00816 0.16264
# Poissons Ratio (z) = -0.00065 0.25795
#
# Static dielectric constant tensor:
#      x y z
#    x 1.956640 0.032160 -0.015010 
#    y 0.032160 1.836860 -0.049110 
#    z -0.015010 -0.049110 1.820600 
# 
# From -- ./inp_files/328678.got.cif
#   From: 2010.05.17/outbox.cif.g08.bks.cpg/sg2_165_cif.got.tgz:328678.got - 2010.06.03 11:33:40.
