data_PCOD9050109
_publ_section_title
;
Structure prediction by ZEFSAII (Michael W. Deem and Ramdas Pophale) SiO2 
 PCOD9050109
Probable space group: P -1
;
_chemical_formula_sum "Si O2"
_cell_formula_units_Z 14
_cell_length_a 9.185968
_cell_length_b 11.182426
_cell_length_c 9.447948
_cell_angle_alpha 56.195243
_cell_angle_beta 132.009202
_cell_angle_gamma 132.157938
_cell_volume 524.348500
_symmetry_space_group_name_H-M "P -1"
_symmetry_group_IT_number 2
_symmetry_cell_setting 'triclinic'
loop_
_space_group_symop_operation_xyz
x,y,z
-x,-y,-z
loop_
_atom_site_type_symbol
_atom_site_label
_atom_site_fract_x
_atom_site_fract_y
_atom_site_fract_z
Si Si1 0.034252 0.691769 0.601551
Si Si2 0.809445 0.225941 0.819834
Si Si3 0.442872 0.812890 0.582833
Si Si4 0.546964 0.574821 0.323103
Si Si5 0.000000 0.500000 0.000000
Si Si6 0.698548 0.632850 0.946403
Si Si7 0.000000 0.000000 0.500000
Si Si8 0.676949 0.948340 0.092908
O O1 0.233638 0.713854 0.615746
O O2 0.035615 0.603665 0.805252
O O3 0.058546 0.868484 0.539973
O O4 0.788726 0.591995 0.434462
O O5 0.845708 0.327036 0.920492
O O6 0.633711 0.239556 0.594428
O O7 0.060677 0.303551 0.872040
O O8 0.727700 0.032346 0.918137
O O9 0.638261 0.774503 0.777572
O O10 0.500000 0.000000 0.500000
O O11 0.500000 0.500000 0.500000
O O12 0.329435 0.458939 0.163578
O O13 0.591629 0.758255 0.197553
O O14 0.500000 0.500000 0.000000
O O15 0.093156 0.962596 0.730639
O O16 0.500000 0.000000 0.000000
#
# Coordination Sequence:
#
# PCOD9050109 Si02
#       8
#     2   2   2   2   1   2   1   2
#     4  11  25  49  77 115 160 205 265 334 398 475
#     4  12  29  50  83 119 162 211 271 331 407 477
#     4  12  32  51  81 115 164 218 268 325 404 489
#     4  11  27  47  79 115 155 205 267 338 406 468
#     4  12  24  46  84 114 154 206 264 336 398 464
#     4  12  29  51  77 113 158 210 265 325 401 483
#     4  10  24  48  76 112 152 198 258 344 390 458
#     4  11  28  45  80 116 157 205 272 334 401 476
#
# _framework density 26.699798999999999
#
# number of rings (size 3 to 8) (size 9 to 14) (size 15 to 20)
#    0.000    0.571    1.429    3.429   16.000    2.286 
#    0.000    0.000    0.000    0.000    0.000    0.000 
#    0.000    0.000    0.000    0.000    0.000    0.000 
#
# Total GULP energy -77983.124774 kJ/mol
# GULP energy per Si atom -5570.223198 kJ/mol
# Density = 2.663903 g / cm^3
# Si number density = 26.699799 Si / 1000 Ang^3
#
#
#
# Elastic Constant Matrix: (Units=GPa)
#
#
# Indices 1 2 3 4 5 6 
#
# 1 39.8336 32.0390 8.3935 -11.2135 1.9405 13.4681
# 2 32.0390 117.4368 13.0271 -38.4360 -14.6349 -18.5437
# 3 8.3935 13.0271 101.6461 -16.6951 -17.7472 -17.7026
# 4 -11.2135 -38.4360 -16.6951 52.6910 -1.0483 6.1461
# 5 1.9405 -14.6349 -17.7472 -1.0483 40.7496 -8.3834
# 6 13.4681 -18.5437 -17.7026 6.1461 -8.3834 50.7776
#
#
#
# Elastic Compliance Matrix: (Units=1/GPa)
#
#
# Indices 1 2 3 4 5 6 
#
# 1 0.056852 -0.023934 -0.012070 -0.006015 -0.023116 -0.031117
# 2 -0.023934 0.023337 0.007203 0.012370 0.016815 0.018661
# 3 -0.012070 0.007203 0.015319 0.006334 0.012564 0.012480
# 4 -0.006015 0.012370 0.006334 0.028162 0.009547 0.006488
# 5 -0.023116 0.016815 0.012564 0.009547 0.042013 0.022433
# 6 -0.031117 0.018661 0.012480 0.006488 0.022433 0.042031
#
#
# Mechanical properties :
#
#
# Convention : Reuss Voigt Hill
#
# Bulk Modulus (GPa) = 26.38182 40.64842 33.51512
# Shear Modulus (GPa) = 17.98873 42.54076 30.26475
#
# Velocity S-wave (km/s) = 2.59847 3.99595 3.37043
# Velocity P-wave (km/s) = 4.34800 6.04544 5.26557
#
# Compressibility (1/GPa) = 0.03790488
#
# Stress axis : x y z
#
# Youngs Moduli (GPa) = 17.58940 42.85128 65.27777
#
# Poissons Ratio (x) = 1.02561 0.78793
# Poissons Ratio (y) = 0.42099 -0.47020
# Poissons Ratio (z) = 0.21231 -0.30866
#
# Static dielectric constant tensor:
#      x y z
#    x 1.650760 0.153230 -0.039700 
#    y 0.153230 2.122750 -0.002740 
#    z -0.039700 -0.002740 2.023770 
# 
# From -- ./inp_files/186209.got.cif
#   From: 2010.05.17/outbox.cif.g08.bks.cpg/sg2_94_cif.got.tgz:186209.got - 2010.06.03 11:33:40.
