data_PCOD9050621
_publ_section_title
;
Structure prediction by ZEFSAII (Michael W. Deem and Ramdas Pophale) SiO2 
 PCOD9050621
Probable space group: P -1
;
_chemical_formula_sum "Si O2"
_cell_formula_units_Z 14
_cell_length_a 8.909020
_cell_length_b 4.896071
_cell_length_c 13.659312
_cell_angle_alpha 103.297520
_cell_angle_beta 110.808211
_cell_angle_gamma 87.294825
_cell_volume 541.623907
_symmetry_space_group_name_H-M "P -1"
_symmetry_group_IT_number 2
_symmetry_cell_setting 'triclinic'
loop_
_space_group_symop_operation_xyz
x,y,z
-x,-y,-z
loop_
_atom_site_type_symbol
_atom_site_label
_atom_site_fract_x
_atom_site_fract_y
_atom_site_fract_z
Si Si1 0.917416 0.530311 0.738773
Si Si2 0.034365 0.886428 0.120976
Si Si3 0.806161 0.336931 0.332241
Si Si4 0.577454 0.251527 0.103058
Si Si5 0.737417 0.495080 0.970719
Si Si6 0.391068 0.251108 0.405783
Si Si7 0.689736 0.927890 0.419896
O O1 0.942830 0.239339 0.775046
O O2 0.736633 0.602234 0.678354
O O3 0.027095 0.572638 0.672272
O O4 0.971175 0.781349 0.846217
O O5 0.180886 0.763397 0.084101
O O6 0.870756 0.745754 0.029869
O O7 0.694277 0.176250 0.211883
O O8 0.717909 0.619761 0.361827
O O9 0.813551 0.144402 0.413562
O O10 0.423456 0.419900 0.115096
O O11 0.681195 0.431799 0.063353
O O12 0.500000 0.000000 0.000000
O O13 0.500000 0.500000 0.500000
O O14 0.304018 0.087392 0.462338
O O15 0.513344 0.044320 0.366330
#
# Coordination Sequence:
#
# PCOD9050621 Si02
#       7
#     2   2   2   2   2   2   2
#     4  12  28  45  76 103 147 180 244 292 357 418
#     4  11  26  46  69 105 140 194 238 291 346 417
#     4  12  26  47  72 108 142 189 239 291 351 426
#     4  11  25  42  69 103 148 190 237 292 347 417
#     4  10  25  43  67  99 147 189 240 287 349 407
#     4  11  27  52  74 109 141 182 235 301 360 439
#     4  11  27  48  75 101 144 182 238 291 363 426
#
# _framework density 25.848192999999998
#
# number of rings (size 3 to 8) (size 9 to 14) (size 15 to 20)
#    0.000    0.857    2.857    1.714   14.000    2.286 
#    0.000    0.000    0.000    0.000    0.000    0.000 
#    0.000    0.000    0.000    0.000    0.000    0.000 
#
# Total GULP energy -78589.130187 kJ/mol
# GULP energy per Si atom -5613.509299 kJ/mol
# Density = 2.578936 g / cm^3
# Si number density = 25.848193 Si / 1000 Ang^3
#
#
#
# Elastic Constant Matrix: (Units=GPa)
#
#
# Indices 1 2 3 4 5 6 
#
# 1 104.4094 13.5584 27.1972 -3.6373 -15.0439 -9.7664
# 2 13.5584 95.0934 23.6163 1.9932 -2.4587 6.5307
# 3 27.1972 23.6163 39.5035 0.0855 -3.5123 14.1893
# 4 -3.6373 1.9932 0.0855 53.2767 -0.1277 -15.9502
# 5 -15.0439 -2.4587 -3.5123 -0.1277 39.7778 -10.6003
# 6 -9.7664 6.5307 14.1893 -15.9502 -10.6003 31.7937
#
#
#
# Elastic Compliance Matrix: (Units=1/GPa)
#
#
# Indices 1 2 3 4 5 6 
#
# 1 0.018966 0.001039 -0.020887 0.008163 0.011513 0.022868
# 2 0.001039 0.012434 -0.008843 0.000271 0.000959 0.002167
# 3 -0.020887 -0.008843 0.059136 -0.014089 -0.014720 -0.042967
# 4 0.008163 0.000271 -0.014089 0.026875 0.008636 0.025102
# 5 0.011513 0.000959 -0.014720 0.008636 0.035204 0.025978
# 6 0.022868 0.002167 -0.042967 0.025102 0.025978 0.078463
#
#
# Mechanical properties :
#
#
# Convention : Reuss Voigt Hill
#
# Bulk Modulus (GPa) = 30.16116 40.86110 35.51113
# Shear Modulus (GPa) = 16.69397 36.61194 26.65295
#
# Velocity S-wave (km/s) = 2.54411 3.76762 3.21461
# Velocity P-wave (km/s) = 4.50820 5.89653 5.24847
#
# Compressibility (1/GPa) = 0.03315523
#
# Stress axis : x y z
#
# Youngs Moduli (GPa) = 52.72682 80.42364 16.91029
#
# Poissons Ratio (x) = -0.08357 0.35320
# Poissons Ratio (y) = -0.05479 0.14953
# Poissons Ratio (z) = 1.10128 0.71116
#
# Static dielectric constant tensor:
#      x y z
#    x 2.039830 0.021570 -0.005890 
#    y 0.021570 2.001200 -0.004220 
#    z -0.005890 -0.004220 2.032280 
# 
# From -- ./inp_files/487948.got.cif
#   From: 2010.05.17/outbox.cif.g08.bks.cpg/sg2_244_cif.got.tgz:487948.got - 2010.06.03 11:33:40.
