data_PCOD9050056
_publ_section_title
;
Structure prediction by ZEFSAII (Michael W. Deem and Ramdas Pophale) SiO2 
 PCOD9050056
Probable space group: P -1
;
_chemical_formula_sum "Si O2"
_cell_formula_units_Z 16
_cell_length_a 24.124775
_cell_length_b 20.837570
_cell_length_c 11.595494
_cell_angle_alpha 145.712920
_cell_angle_beta 28.484540
_cell_angle_gamma 162.463836
_cell_volume 834.774794
_symmetry_space_group_name_H-M "P -1"
_symmetry_group_IT_number 2
_symmetry_cell_setting 'triclinic'
loop_
_space_group_symop_operation_xyz
x,y,z
-x,-y,-z
loop_
_atom_site_type_symbol
_atom_site_label
_atom_site_fract_x
_atom_site_fract_y
_atom_site_fract_z
Si Si1 0.953094 0.765968 0.924112
Si Si2 0.755916 0.774944 0.160439
Si Si3 0.778290 0.570443 0.711027
Si Si4 0.143593 0.783873 0.220649
Si Si5 0.100443 0.687574 0.664637
Si Si6 0.004076 0.429433 0.062342
Si Si7 0.511131 0.215050 0.318832
Si Si8 0.425868 0.111183 0.579546
O O1 0.906996 0.661400 0.732054
O O2 0.942299 0.666117 0.897809
O O3 0.208430 0.009426 0.816956
O O4 0.798726 0.746372 0.162485
O O5 0.611001 0.765371 0.420359
O O6 0.667015 0.600827 0.981219
O O7 0.000000 0.000000 0.000000
O O8 0.956743 0.719199 0.504173
O O9 0.608338 0.330467 0.639922
O O10 0.067086 0.608350 0.170234
O O11 0.372173 0.020036 0.198635
O O12 0.128835 0.740302 0.049298
O O13 0.114522 0.671788 0.749313
O O14 0.327600 0.918860 0.536190
O O15 0.000000 0.500000 0.500000
O O16 0.239556 0.565561 0.846636
O O17 0.506112 0.157581 0.371810
#
# Coordination Sequence:
#
# PCOD9050056 Si02
#       8
#     2   2   2   2   2   2   2   2
#     4   8  19  35  55  82 123 139 196 239 286 324
#     4  10  17  34  61  90 118 149 197 246 287 336
#     4  10  18  35  60  90 114 151 195 246 286 337
#     4  11  21  39  58  84 130 144 189 251 291 346
#     4  10  20  42  62  80 116 161 198 240 284 354
#     4  11  25  38  58  88 119 156 192 238 301 348
#     4  12  20  39  61  92 113 159 191 243 299 340
#     4  10  19  34  62  84 118 149 196 240 290 343
#
# _framework density 19.166846
#
# number of rings (size 3 to 8) (size 9 to 14) (size 15 to 20)
#    1.500    0.250    5.000    1.875    0.000    0.500 
#    4.500    1.875    0.000    1.500    0.000    0.000 
#    0.000    0.000    0.000    0.000    0.000    0.000 
#
# Total GULP energy -89109.477124 kJ/mol
# GULP energy per Si atom -5569.342320 kJ/mol
# Density = 1.912322 g / cm^3
# Si number density = 19.166846 Si / 1000 Ang^3
#
#
#
# Elastic Constant Matrix: (Units=GPa)
#
#
# Indices 1 2 3 4 5 6 
#
# 1 85.4583 24.7729 26.8678 7.8620 13.3425 -3.0859
# 2 24.7729 77.9352 10.2923 11.7527 3.9574 9.5186
# 3 26.8678 10.2923 53.3436 6.4269 -4.6266 3.7814
# 4 7.8620 11.7527 6.4269 24.7239 4.9942 1.8748
# 5 13.3425 3.9574 -4.6266 4.9942 32.1577 -2.0798
# 6 -3.0859 9.5186 3.7814 1.8748 -2.0798 26.9659
#
#
#
# Elastic Compliance Matrix: (Units=1/GPa)
#
#
# Indices 1 2 3 4 5 6 
#
# 1 0.017021 -0.004408 -0.008686 0.000148 -0.007525 0.004131
# 2 -0.004408 0.015735 0.000330 -0.005831 0.000479 -0.005663
# 3 -0.008686 0.000330 0.024587 -0.005058 0.007652 -0.003616
# 4 0.000148 -0.005831 -0.005058 0.046032 -0.007283 -0.000978
# 5 -0.007525 0.000479 0.007652 -0.007283 0.036471 0.001216
# 6 0.004131 -0.005663 -0.003616 -0.000978 0.001216 0.040224
#
#
# Mechanical properties :
#
#
# Convention : Reuss Voigt Hill
#
# Bulk Modulus (GPa) = 31.43158 37.84481 34.63819
# Shear Modulus (GPa) = 23.12648 27.08977 25.10812
#
# Velocity S-wave (km/s) = 3.47737 3.76355 3.62329
# Velocity P-wave (km/s) = 5.70590 6.21881 5.96787
#
# Compressibility (1/GPa) = 0.03181513
#
# Stress axis : x y z
#
# Youngs Moduli (GPa) = 58.75252 63.55096 40.67211
#
# Poissons Ratio (x) = 0.28013 0.35326
# Poissons Ratio (y) = 0.25897 -0.01341
# Poissons Ratio (z) = 0.51030 -0.02095
#
# Static dielectric constant tensor:
#      x y z
#    x 1.712280 -0.000320 -0.047390 
#    y -0.000320 1.662080 -0.001650 
#    z -0.047390 -0.001650 1.696440 
# 
# From -- ./inp_files/477109.got.cif
#   From: 2010.05.17/outbox.cif.g08.bks.cpg/sg2_239_cif.got.tgz:477109.got - 2010.06.03 11:33:40.
