data_PCOD9050618
_publ_section_title
;
Structure prediction by ZEFSAII (Michael W. Deem and Ramdas Pophale) SiO2 
 PCOD9050618
Probable space group: P -1
;
_chemical_formula_sum "Si O2"
_cell_formula_units_Z 14
_cell_length_a 8.603046
_cell_length_b 16.762856
_cell_length_c 7.098124
_cell_angle_alpha 98.006732
_cell_angle_beta 54.594883
_cell_angle_gamma 125.669980
_cell_volume 646.621103
_symmetry_space_group_name_H-M "P -1"
_symmetry_group_IT_number 2
_symmetry_cell_setting 'triclinic'
loop_
_space_group_symop_operation_xyz
x,y,z
-x,-y,-z
loop_
_atom_site_type_symbol
_atom_site_label
_atom_site_fract_x
_atom_site_fract_y
_atom_site_fract_z
Si Si1 0.221230 0.588384 0.003960
Si Si2 0.841434 0.859694 0.162326
Si Si3 0.281692 0.484248 0.262061
Si Si4 0.961819 0.299092 0.677715
Si Si5 0.745220 0.012507 0.356966
Si Si6 0.225575 0.928406 0.242627
Si Si7 0.431787 0.358245 0.556230
O O1 0.202220 0.533818 0.193336
O O2 0.205719 0.677849 0.099302
O O3 0.454425 0.631456 0.724191
O O4 0.000000 0.500000 0.000000
O O5 0.729725 0.919486 0.247643
O O6 0.639924 0.740907 0.312597
O O7 0.035461 0.906710 0.212271
O O8 0.012462 0.885538 0.872348
O O9 0.073039 0.367110 0.432085
O O10 0.387664 0.545519 0.404570
O O11 0.500000 0.500000 0.000000
O O12 0.184550 0.341190 0.680340
O O13 0.840982 0.180972 0.691289
O O14 0.500000 0.000000 0.500000
O O15 0.787306 0.018404 0.550648
O O16 0.500000 0.000000 0.000000
#
# Coordination Sequence:
#
# PCOD9050618 Si02
#       7
#     2   2   2   2   2   2   2
#     4  12  25  44  67  97 135 174 222 269 326 398
#     4  10  25  43  67  98 129 178 219 274 336 389
#     4  12  24  44  67  97 136 172 218 273 326 395
#     4  11  25  45  67  98 132 176 221 270 337 390
#     4  11  23  44  66  95 133 172 227 273 326 394
#     4  11  24  45  67  98 134 171 220 277 332 391
#     4  11  25  44  67  98 134 173 221 272 331 395
#
# _framework density 21.651011
#
# number of rings (size 3 to 8) (size 9 to 14) (size 15 to 20)
#    0.000    0.857    4.286    2.143    4.000    1.143 
#    0.000    0.000    0.000    0.000    0.000    0.000 
#    0.000    0.000    0.000    0.000    0.000    0.000 
#
# Total GULP energy -78319.648592 kJ/mol
# GULP energy per Si atom -5594.260614 kJ/mol
# Density = 2.160173 g / cm^3
# Si number density = 21.651011 Si / 1000 Ang^3
#
#
#
# Elastic Constant Matrix: (Units=GPa)
#
#
# Indices 1 2 3 4 5 6 
#
# 1 66.5864 14.3501 11.5443 0.3385 -13.3741 -19.6614
# 2 14.3501 69.8818 23.7291 -26.8630 -10.4914 -18.2416
# 3 11.5443 23.7291 132.1005 -5.9139 -4.5048 -11.7671
# 4 0.3385 -26.8630 -5.9139 37.6365 -7.6693 4.9706
# 5 -13.3741 -10.4914 -4.5048 -7.6693 29.2375 2.7966
# 6 -19.6614 -18.2416 -11.7671 4.9706 2.7966 31.6638
#
#
#
# Elastic Compliance Matrix: (Units=1/GPa)
#
#
# Indices 1 2 3 4 5 6 
#
# 1 0.020150 0.000391 -0.000494 0.000129 0.008186 0.011811
# 2 0.000391 0.028391 -0.002708 0.021342 0.014499 0.010962
# 3 -0.000494 -0.002708 0.008169 -0.000881 -0.000298 0.001334
# 4 0.000129 0.021342 -0.000881 0.045123 0.019104 0.003277
# 5 0.008186 0.014499 -0.000298 0.019104 0.047529 0.006128
# 6 0.011811 0.010962 0.001334 0.003277 0.006128 0.044671
#
#
# Mechanical properties :
#
#
# Convention : Reuss Voigt Hill
#
# Bulk Modulus (GPa) = 19.57365 40.86840 30.22102
# Shear Modulus (GPa) = 23.07502 34.30389 28.68946
#
# Velocity S-wave (km/s) = 3.26816 3.98477 3.64412
# Velocity P-wave (km/s) = 4.82714 6.33152 5.62981
#
# Compressibility (1/GPa) = 0.05108909
#
# Stress axis : x y z
#
# Youngs Moduli (GPa) = 49.62693 35.22215 122.41773
#
# Poissons Ratio (x) = -0.01379 0.06051
# Poissons Ratio (y) = -0.01942 0.33148
# Poissons Ratio (z) = 0.02453 0.09537
#
# Static dielectric constant tensor:
#      x y z
#    x 1.817400 -0.011360 -0.009950 
#    y -0.011360 1.790950 -0.022500 
#    z -0.009950 -0.022500 1.776850 
# 
# From -- ./inp_files/48172.got.cif
#   From: 2010.05.17/outbox.cif.g08.bks.cpg/sg2_25_cif.got.tgz:48172.got - 2010.06.03 11:33:40.
