data_PCOD9050404
_publ_section_title
;
Structure prediction by ZEFSAII (Michael W. Deem and Ramdas Pophale) SiO2 
 PCOD9050404
Probable space group: P -1
;
_chemical_formula_sum "Si O2"
_cell_formula_units_Z 14
_cell_length_a 12.766972
_cell_length_b 8.768399
_cell_length_c 8.009416
_cell_angle_alpha 118.401465
_cell_angle_beta 51.828561
_cell_angle_gamma 98.188142
_cell_volume 604.979826
_symmetry_space_group_name_H-M "P -1"
_symmetry_group_IT_number 2
_symmetry_cell_setting 'triclinic'
loop_
_space_group_symop_operation_xyz
x,y,z
-x,-y,-z
loop_
_atom_site_type_symbol
_atom_site_label
_atom_site_fract_x
_atom_site_fract_y
_atom_site_fract_z
Si Si1 0.703796 0.950204 0.545877
Si Si2 0.503494 0.700559 0.657785
Si Si3 0.994477 0.791296 0.164018
Si Si4 0.054928 0.516936 0.716725
Si Si5 0.511391 0.697388 0.051136
Si Si6 0.777371 0.034397 0.890303
Si Si7 0.192468 0.322125 0.163256
O O1 0.620682 0.794856 0.517235
O O2 0.855522 0.918830 0.304644
O O3 0.729067 0.962493 0.727298
O O4 0.611007 0.141402 0.691541
O O5 0.500000 0.500000 0.500000
O O6 0.523747 0.705108 0.841526
O O7 0.355997 0.830992 0.837698
O O8 0.938043 0.645873 0.250720
O O9 0.098050 0.871211 0.213820
O O10 0.084479 0.684608 0.871768
O O11 0.146561 0.452625 0.433900
O O12 0.897687 0.581612 0.847487
O O13 0.646274 0.719333 0.025372
O O14 0.500000 0.500000 0.000000
O O15 0.839075 0.867374 0.859392
#
# Coordination Sequence:
#
# PCOD9050404 Si02
#       7
#     2   2   2   2   2   2   2
#     4  11  22  45  66  98 132 174 215 267 322 399
#     4  11  24  42  68  95 130 179 216 265 326 390
#     4  11  24  41  67 100 126 170 222 270 312 388
#     4  10  25  40  66  92 135 165 219 266 324 380
#     4  11  24  42  67  95 129 171 221 266 326 384
#     4  11  22  39  68  94 131 173 219 257 332 387
#     4  11  22  44  63  93 133 174 209 269 329 386
#
# _framework density 23.141266999999999
#
# number of rings (size 3 to 8) (size 9 to 14) (size 15 to 20)
#    0.000    1.143    4.286    1.286   10.000    1.714 
#    2.571    1.429    0.000    0.000    0.000    0.000 
#    0.000    0.000    0.000    0.000    0.000    0.000 
#
# Total GULP energy -78264.243128 kJ/mol
# GULP energy per Si atom -5590.303081 kJ/mol
# Density = 2.308860 g / cm^3
# Si number density = 23.141267 Si / 1000 Ang^3
#
#
#
# Elastic Constant Matrix: (Units=GPa)
#
#
# Indices 1 2 3 4 5 6 
#
# 1 94.4226 13.7471 43.7819 14.5080 -25.1793 6.6664
# 2 13.7471 53.3290 19.8147 24.7881 -8.0652 6.8087
# 3 43.7819 19.8147 93.8377 31.8561 -8.3635 3.9081
# 4 14.5080 24.7881 31.8561 30.0740 -5.4089 -0.7102
# 5 -25.1793 -8.0652 -8.3635 -5.4089 39.3670 7.4896
# 6 6.6664 6.8087 3.9081 -0.7102 7.4896 43.8035
#
#
#
# Elastic Compliance Matrix: (Units=1/GPa)
#
#
# Indices 1 2 3 4 5 6 
#
# 1 0.016626 -0.000446 -0.007205 0.001678 0.009906 -0.003485
# 2 -0.000446 0.033321 0.004506 -0.031376 0.004479 -0.006788
# 3 -0.007205 0.004506 0.020548 -0.022421 -0.002127 -0.001437
# 4 0.001678 -0.031376 -0.022421 0.082179 -0.000352 0.008015
# 5 0.009906 0.004479 -0.002127 -0.000352 0.033633 -0.007770
# 6 -0.003485 -0.006788 -0.001437 0.008015 -0.007770 0.026001
#
#
# Mechanical properties :
#
#
# Convention : Reuss Voigt Hill
#
# Bulk Modulus (GPa) = 15.57502 44.03072 29.80287
# Shear Modulus (GPa) = 20.83338 33.59860 27.21599
#
# Velocity S-wave (km/s) = 3.00370 3.81450 3.43312
# Velocity P-wave (km/s) = 4.33298 6.20232 5.34993
#
# Compressibility (1/GPa) = 0.06420538
#
# Stress axis : x y z
#
# Youngs Moduli (GPa) = 60.14701 30.01154 48.66558
#
# Poissons Ratio (x) = 0.01338 0.35062
# Poissons Ratio (y) = 0.02681 -0.21927
# Poissons Ratio (z) = 0.43333 -0.13522
#
# Static dielectric constant tensor:
#      x y z
#    x 1.801590 -0.076800 0.007920 
#    y -0.076800 1.580490 -0.025560 
#    z 0.007920 -0.025560 1.914430 
# 
# From -- ./inp_files/156921.got.cif
#   From: 2010.05.17/outbox.cif.g08.bks.cpg/sg2_79_cif.got.tgz:156921.got - 2010.06.03 11:33:40.
