data_PCOD9050442
_publ_section_title
;
Structure prediction by ZEFSAII (Michael W. Deem and Ramdas Pophale) SiO2 
 PCOD9050442
Probable space group: P -1
;
_chemical_formula_sum "Si O2"
_cell_formula_units_Z 14
_cell_length_a 8.117086
_cell_length_b 7.410968
_cell_length_c 13.878297
_cell_angle_alpha 131.760934
_cell_angle_beta 103.546694
_cell_angle_gamma 102.533175
_cell_volume 519.186498
_symmetry_space_group_name_H-M "P -1"
_symmetry_group_IT_number 2
_symmetry_cell_setting 'triclinic'
loop_
_space_group_symop_operation_xyz
x,y,z
-x,-y,-z
loop_
_atom_site_type_symbol
_atom_site_label
_atom_site_fract_x
_atom_site_fract_y
_atom_site_fract_z
Si Si1 0.013334 0.747845 0.816290
Si Si2 0.766189 0.837804 0.382623
Si Si3 0.091348 0.348455 0.020118
Si Si4 0.360994 0.777757 0.788368
Si Si5 0.237838 0.466392 0.458652
Si Si6 0.371309 0.103085 0.426323
Si Si7 0.477042 0.778547 0.171955
O O1 0.916854 0.591579 0.845971
O O2 0.241002 0.847321 0.873936
O O3 0.978788 0.007892 0.888707
O O4 0.931792 0.561739 0.642792
O O5 0.651243 0.501538 0.270148
O O6 0.674108 0.960096 0.490635
O O7 0.687995 0.849073 0.269658
O O8 0.000000 0.000000 0.500000
O O9 0.306786 0.452258 0.040495
O O10 0.000000 0.500000 0.000000
O O11 0.279528 0.656367 0.625149
O O12 0.528362 0.083122 0.880273
O O13 0.208871 0.175417 0.391388
O O14 0.423826 0.602156 0.458933
O O15 0.389480 0.897774 0.283099
#
# Coordination Sequence:
#
# PCOD9050442 Si02
#       7
#     2   2   2   2   2   2   2
#     4  11  24  43  70  98 137 179 230 290 337 402
#     4  11  25  37  64 108 142 177 223 276 354 416
#     4  11  27  47  70  97 129 191 247 278 326 401
#     4  10  25  41  68 105 141 172 216 291 356 414
#     4   9  18  37  67  99 134 172 217 275 354 410
#     4   9  19  35  62  98 134 176 214 274 339 418
#     4  11  24  43  68  95 139 181 229 281 343 404
#
# _framework density 26.965261000000002
#
# number of rings (size 3 to 8) (size 9 to 14) (size 15 to 20)
#    0.000    1.714    0.000    3.429   10.000    4.000 
#    0.000    1.429    0.000    0.000    0.000    0.000 
#    0.000    0.000    0.000    0.000    0.000    0.000 
#
# Total GULP energy -78148.080061 kJ/mol
# GULP energy per Si atom -5582.005719 kJ/mol
# Density = 2.690389 g / cm^3
# Si number density = 26.965261 Si / 1000 Ang^3
#
#
#
# Elastic Constant Matrix: (Units=GPa)
#
#
# Indices 1 2 3 4 5 6 
#
# 1 86.7526 30.9524 1.7556 1.6838 4.2650 9.9317
# 2 30.9524 173.4580 37.2965 16.1614 9.4192 -18.3825
# 3 1.7556 37.2965 35.1579 -2.1669 -2.6420 -10.4275
# 4 1.6838 16.1614 -2.1669 47.6513 -2.7117 -0.4705
# 5 4.2650 9.4192 -2.6420 -2.7117 38.8765 1.5352
# 6 9.9317 -18.3825 -10.4275 -0.4705 1.5352 38.9340
#
#
#
# Elastic Compliance Matrix: (Units=1/GPa)
#
#
# Indices 1 2 3 4 5 6 
#
# 1 0.013138 -0.003147 0.001372 0.000601 -0.000368 -0.004448
# 2 -0.003147 0.009040 -0.009055 -0.003500 -0.002812 0.002714
# 3 0.001372 -0.009055 0.040475 0.005203 0.004916 0.006084
# 4 0.000601 -0.003500 0.005203 0.022540 0.002718 -0.000247
# 5 -0.000368 -0.002812 0.004916 0.002718 0.027005 -0.000949
# 6 -0.004448 0.002714 0.006084 -0.000247 -0.000949 0.029764
#
#
# Mechanical properties :
#
#
# Convention : Reuss Voigt Hill
#
# Bulk Modulus (GPa) = 24.39375 48.37527 36.38451
# Shear Modulus (GPa) = 28.20322 40.11664 34.15993
#
# Velocity S-wave (km/s) = 3.23756 3.86128 3.56309
# Velocity P-wave (km/s) = 4.80018 6.15289 5.51814
#
# Compressibility (1/GPa) = 0.04099411
#
# Stress axis : x y z
#
# Youngs Moduli (GPa) = 76.11746 110.62064 24.70687
#
# Poissons Ratio (x) = 0.34809 -0.03391
# Poissons Ratio (y) = 0.23952 0.22371
# Poissons Ratio (z) = -0.10446 1.00163
#
# Static dielectric constant tensor:
#      x y z
#    x 2.218880 -0.042030 0.161780 
#    y -0.042030 2.069610 0.046580 
#    z 0.161780 0.046580 2.371260 
# 
# From -- ./inp_files/586387.got.cif
#   From: 2010.05.17/outbox.cif.g08.bks.cpg/sg2_294_cif.got.tgz:586387.got - 2010.06.03 11:33:40.
