data_PCOD9050426
_publ_section_title
;
Structure prediction by ZEFSAII (Michael W. Deem and Ramdas Pophale) SiO2 
 PCOD9050426
Probable space group: P -1
;
_chemical_formula_sum "Si O2"
_cell_formula_units_Z 16
_cell_length_a 11.249256
_cell_length_b 14.753131
_cell_length_c 9.058043
_cell_angle_alpha 147.401494
_cell_angle_beta 64.345861
_cell_angle_gamma 105.996693
_cell_volume 717.651237
_symmetry_space_group_name_H-M "P -1"
_symmetry_group_IT_number 2
_symmetry_cell_setting 'triclinic'
loop_
_space_group_symop_operation_xyz
x,y,z
-x,-y,-z
loop_
_atom_site_type_symbol
_atom_site_label
_atom_site_fract_x
_atom_site_fract_y
_atom_site_fract_z
Si Si1 0.969341 0.988010 0.749402
Si Si2 0.119404 0.512495 0.341931
Si Si3 0.178439 0.866758 0.708576
Si Si4 0.382222 0.462912 0.337306
Si Si5 0.529794 0.309346 0.793298
Si Si6 0.545834 0.744812 0.712634
Si Si7 0.629497 0.909170 0.605608
Si Si8 0.077191 0.202863 0.749672
O O1 0.977040 0.817430 0.413360
O O2 0.095567 0.975783 0.774088
O O3 0.980442 0.136236 0.828764
O O4 0.841211 0.031551 0.986218
O O5 0.109408 0.702434 0.546564
O O6 0.256495 0.475066 0.312818
O O7 0.000000 0.500000 0.500000
O O8 0.111068 0.379896 0.032328
O O9 0.327757 0.791970 0.475283
O O10 0.429937 0.642900 0.581268
O O11 0.364320 0.377632 0.386607
O O12 0.507869 0.343142 0.024317
O O13 0.425413 0.195962 0.637976
O O14 0.500000 0.500000 0.000000
O O15 0.626322 0.794496 0.597290
O O16 0.471998 0.917001 0.067110
O O17 0.779644 0.927326 0.511313
#
# Coordination Sequence:
#
# PCOD9050426 Si02
#       8
#     2   2   2   2   2   2   2   2
#     4  10  26  45  66  93 133 172 217 268 321 390
#     4  12  24  43  67  92 131 174 215 265 323 386
#     4  11  24  45  67  95 130 176 213 263 335 381
#     4  11  24  45  63  96 131 171 216 264 329 393
#     4  12  22  41  70  94 134 171 210 267 328 388
#     4  10  25  41  64  98 130 170 211 272 328 379
#     4  11  23  41  67  98 127 166 216 272 321 381
#     4  11  24  44  66  96 127 169 219 268 317 385
#
# _framework density 22.294951999999999
#
# number of rings (size 3 to 8) (size 9 to 14) (size 15 to 20)
#    0.000    1.000    5.000    0.000    7.000    3.000 
#    2.250    0.000    0.000    0.000    0.000    0.000 
#    0.000    0.000    0.000    0.000    0.000    0.000 
#
# Total GULP energy -89473.086516 kJ/mol
# GULP energy per Si atom -5592.067907 kJ/mol
# Density = 2.224421 g / cm^3
# Si number density = 22.294952 Si / 1000 Ang^3
#
#
#
# Elastic Constant Matrix: (Units=GPa)
#
#
# Indices 1 2 3 4 5 6 
#
# 1 57.8157 11.6171 26.7751 -1.4162 8.7143 4.0757
# 2 11.6171 59.1020 15.4551 0.2369 9.8631 -5.2357
# 3 26.7751 15.4551 104.7143 -10.7778 24.7668 -10.3509
# 4 -1.4162 0.2369 -10.7778 19.3181 6.2475 1.7492
# 5 8.7143 9.8631 24.7668 6.2475 48.1620 -6.7404
# 6 4.0757 -5.2357 -10.3509 1.7492 -6.7404 25.1647
#
#
#
# Elastic Compliance Matrix: (Units=1/GPa)
#
#
# Indices 1 2 3 4 5 6 
#
# 1 0.021023 -0.003108 -0.005289 -0.000351 -0.001320 -0.006556
# 2 -0.003108 0.018485 -0.001199 -0.000769 -0.002036 0.003365
# 3 -0.005289 -0.001199 0.013987 0.009219 -0.006634 0.003942
# 4 -0.000351 -0.000769 0.009219 0.061488 -0.013068 -0.004086
# 5 -0.001320 -0.002036 -0.006634 -0.013068 0.027264 0.005272
# 6 -0.006556 0.003365 0.003942 -0.004086 0.005272 0.044818
#
#
# Mechanical properties :
#
#
# Convention : Reuss Voigt Hill
#
# Bulk Modulus (GPa) = 29.15169 36.59183 32.87176
# Shear Modulus (GPa) = 22.96850 29.71460 26.34155
#
# Velocity S-wave (km/s) = 3.21317 3.65471 3.44103
# Velocity P-wave (km/s) = 5.18361 5.85298 5.52844
#
# Compressibility (1/GPa) = 0.03430332
#
# Stress axis : x y z
#
# Youngs Moduli (GPa) = 47.56784 54.09719 71.49663
#
# Poissons Ratio (x) = 0.16815 0.37813
# Poissons Ratio (y) = 0.14786 0.08569
# Poissons Ratio (z) = 0.25157 0.06484
#
# Static dielectric constant tensor:
#      x y z
#    x 1.828460 -0.010990 0.001270 
#    y -0.010990 1.824930 -0.014780 
#    z 0.001270 -0.014780 1.820640 
# 
# From -- ./inp_files/216405.got.cif
#   From: 2010.05.17/outbox.cif.g08.bks.cpg/sg2_109_cif.got.tgz:216405.got - 2010.06.03 11:33:40.
