data_PCOD9050792
_publ_section_title
;
Structure prediction by ZEFSAII (Michael W. Deem and Ramdas Pophale) SiO2 
 PCOD9050792
Probable space group: P -1
;
_chemical_formula_sum "Si O2"
_cell_formula_units_Z 16
_cell_length_a 16.239366
_cell_length_b 8.907256
_cell_length_c 11.060467
_cell_angle_alpha 118.633399
_cell_angle_beta 31.988589
_cell_angle_gamma 107.060577
_cell_volume 721.560008
_symmetry_space_group_name_H-M "P -1"
_symmetry_group_IT_number 2
_symmetry_cell_setting 'triclinic'
loop_
_space_group_symop_operation_xyz
x,y,z
-x,-y,-z
loop_
_atom_site_type_symbol
_atom_site_label
_atom_site_fract_x
_atom_site_fract_y
_atom_site_fract_z
Si Si1 0.708666 0.930119 0.969962
Si Si2 0.123575 0.699297 0.751768
Si Si3 0.131042 0.778472 0.052212
Si Si4 0.445227 0.780965 0.378819
Si Si5 0.834046 0.688927 0.494175
Si Si6 0.238145 0.121760 0.717200
Si Si7 0.425404 0.115244 0.253559
Si Si8 0.630784 0.539198 0.261981
O O1 0.794087 0.794687 0.708737
O O2 0.828830 0.030700 0.922058
O O3 0.594092 0.824782 0.138902
O O4 0.580016 0.097171 0.136319
O O5 0.288278 0.725978 0.497782
O O6 0.094889 0.517881 0.666622
O O7 0.158539 0.697063 0.851858
O O8 0.950835 0.838396 0.009328
O O9 0.950569 0.783905 0.314174
O O10 0.231330 0.641015 0.972916
O O11 0.531716 0.627252 0.302349
O O12 0.344704 0.978648 0.620741
O O13 0.675545 0.709828 0.616187
O O14 0.303239 0.054633 0.475835
O O15 0.288718 0.305689 0.734274
O O16 0.500000 0.000000 0.000000
O O17 0.500000 0.500000 0.500000
#
# Coordination Sequence:
#
# PCOD9050792 Si02
#       8
#     2   2   2   2   2   2   2   2
#     4  10  25  44  67  95 137 179 220 269 335 399
#     4  12  24  39  71  99 138 168 222 277 329 387
#     4  12  23  40  70 104 129 171 224 280 329 388
#     4  11  26  42  64  99 136 178 219 274 332 399
#     4  11  22  44  67 100 134 175 223 274 330 396
#     4  11  22  42  63  97 135 173 220 272 338 389
#     4   9  19  36  63  92 128 170 215 264 319 391
#     4  12  23  38  66  99 133 171 222 277 331 389
#
# _framework density 22.174177
#
# number of rings (size 3 to 8) (size 9 to 14) (size 15 to 20)
#    0.000    1.000    3.750    3.750    3.500    0.500 
#    0.000    0.625    0.000    0.000    0.000    0.000 
#    0.000    0.000    0.000    0.000    0.000    0.000 
#
# Total GULP energy -89095.509418 kJ/mol
# GULP energy per Si atom -5568.469339 kJ/mol
# Density = 2.212371 g / cm^3
# Si number density = 22.174177 Si / 1000 Ang^3
#
#
#
# Elastic Constant Matrix: (Units=GPa)
#
#
# Indices 1 2 3 4 5 6 
#
# 1 49.1682 26.0275 24.3571 3.3893 -12.9498 9.7766
# 2 26.0275 99.3417 37.1199 -19.8486 3.5829 30.7565
# 3 24.3571 37.1199 98.9020 -2.2895 -0.5668 21.4782
# 4 3.3893 -19.8486 -2.2895 34.3972 0.1921 -16.1937
# 5 -12.9498 3.5829 -0.5668 0.1921 30.0930 4.4438
# 6 9.7766 30.7565 21.4782 -16.1937 4.4438 30.5344
#
#
#
# Elastic Compliance Matrix: (Units=1/GPa)
#
#
# Indices 1 2 3 4 5 6 
#
# 1 0.033176 -0.007499 -0.003448 -0.012474 0.016613 -0.009676
# 2 -0.007499 0.017224 -0.002458 0.006111 -0.003975 -0.009400
# 3 -0.003448 -0.002458 0.013555 -0.004000 0.000289 -0.008118
# 4 -0.012474 0.006111 -0.004000 0.046165 -0.010401 0.026649
# 5 0.016613 -0.003975 0.000289 -0.010401 0.042885 -0.013275
# 6 -0.009676 -0.009400 -0.008118 0.026649 -0.013275 0.067092
#
#
# Mechanical properties :
#
#
# Convention : Reuss Voigt Hill
#
# Bulk Modulus (GPa) = 26.92175 46.93565 36.92870
# Shear Modulus (GPa) = 19.28361 29.66542 24.47451
#
# Velocity S-wave (km/s) = 2.95217 3.66161 3.32586
# Velocity P-wave (km/s) = 4.87727 6.25214 5.60701
#
# Compressibility (1/GPa) = 0.03714468
#
# Stress axis : x y z
#
# Youngs Moduli (GPa) = 30.14269 58.05840 73.77567
#
# Poissons Ratio (x) = 0.43540 0.25437
# Poissons Ratio (y) = 0.22605 0.18131
# Poissons Ratio (z) = 0.10393 0.14268
#
# Static dielectric constant tensor:
#      x y z
#    x 1.905120 -0.022230 -0.019360 
#    y -0.022230 1.843690 -0.008680 
#    z -0.019360 -0.008680 1.823600 
# 
# From -- ./inp_files/461513.got.cif
#   From: 2010.05.17/outbox.cif.g08.bks.cpg/sg2_231_cif.got.tgz:461513.got - 2010.06.03 11:33:40.
