data_PCOD9050496
_publ_section_title
;
Structure prediction by ZEFSAII (Michael W. Deem and Ramdas Pophale) SiO2 
 PCOD9050496
Probable space group: P -1
;
_chemical_formula_sum "Si O2"
_cell_formula_units_Z 16
_cell_length_a 14.837310
_cell_length_b 15.076758
_cell_length_c 11.173002
_cell_angle_alpha 122.491578
_cell_angle_beta 31.864496
_cell_angle_gamma 142.554152
_cell_volume 725.371317
_symmetry_space_group_name_H-M "P -1"
_symmetry_group_IT_number 2
_symmetry_cell_setting 'triclinic'
loop_
_space_group_symop_operation_xyz
x,y,z
-x,-y,-z
loop_
_atom_site_type_symbol
_atom_site_label
_atom_site_fract_x
_atom_site_fract_y
_atom_site_fract_z
Si Si1 0.920824 0.203865 0.720630
Si Si2 0.786153 0.808274 0.236932
Si Si3 0.570622 0.140977 0.861994
Si Si4 0.363203 0.835621 0.474848
Si Si5 0.184827 0.409249 0.960886
Si Si6 0.615768 0.703147 0.838259
Si Si7 0.234196 0.165919 0.990469
Si Si8 0.771209 0.475487 0.251172
O O1 0.786204 0.205830 0.763993
O O2 0.105397 0.195854 0.460354
O O3 0.109622 0.370329 0.700811
O O4 0.686831 0.047638 0.951856
O O5 0.484610 0.688504 0.515360
O O6 0.849122 0.722537 0.151339
O O7 0.837152 0.819554 0.045707
O O8 0.975422 0.986146 0.200571
O O9 0.665043 0.162316 0.635156
O O10 0.489020 0.226951 0.019627
O O11 0.090150 0.686215 0.741040
O O12 0.500000 0.000000 0.500000
O O13 0.556845 0.828010 0.266276
O O14 0.403702 0.522241 0.897063
O O15 0.294578 0.527129 0.812665
O O16 0.651021 0.709288 0.945302
O O17 0.000000 0.500000 0.000000
#
# Coordination Sequence:
#
# PCOD9050496 Si02
#       8
#     2   2   2   2   2   2   2   2
#     4  11  24  44  68  99 135 185 223 281 347 398
#     4  11  24  44  67 100 134 173 234 269 336 412
#     4  10  25  42  66 102 137 177 232 277 338 414
#     4  11  22  42  68  94 136 176 222 279 335 401
#     4  12  25  42  70  99 132 179 225 278 338 404
#     4  11  25  43  69  99 138 179 222 288 339 401
#     4  10  25  43  68 101 132 182 222 280 336 407
#     4  12  26  44  70  98 136 178 227 284 338 406
#
# _framework density 22.057668
#
# number of rings (size 3 to 8) (size 9 to 14) (size 15 to 20)
#    0.000    1.000    2.500    3.000    3.500    6.500 
#    0.000    0.000    0.000    0.000    0.000    0.000 
#    0.000    0.000    0.000    0.000    0.000    0.000 
#
# Total GULP energy -89493.844012 kJ/mol
# GULP energy per Si atom -5593.365251 kJ/mol
# Density = 2.200746 g / cm^3
# Si number density = 22.057668 Si / 1000 Ang^3
#
#
#
# Elastic Constant Matrix: (Units=GPa)
#
#
# Indices 1 2 3 4 5 6 
#
# 1 70.5658 15.9021 0.3506 1.7171 5.5233 16.4044
# 2 15.9021 48.9485 30.6657 0.0595 3.8949 16.7364
# 3 0.3506 30.6657 115.4145 -10.4467 -1.1379 10.7991
# 4 1.7171 0.0595 -10.4467 36.9739 3.5719 -1.6881
# 5 5.5233 3.8949 -1.1379 3.5719 26.6999 0.6473
# 6 16.4044 16.7364 10.7991 -1.6881 0.6473 34.4615
#
#
#
# Elastic Compliance Matrix: (Units=1/GPa)
#
#
# Indices 1 2 3 4 5 6 
#
# 1 0.016792 -0.003999 0.001561 -0.000377 -0.002616 -0.006510
# 2 -0.003999 0.030113 -0.007226 -0.002061 -0.003343 -0.010495
# 3 0.001561 -0.007226 0.010901 0.002916 0.000818 -0.000522
# 4 -0.000377 -0.002061 0.002916 0.028290 -0.003323 0.001715
# 5 -0.002616 -0.003343 0.000818 -0.003323 0.038920 0.001718
# 6 -0.006510 -0.010495 -0.000522 0.001715 0.001718 0.037429
#
#
# Mechanical properties :
#
#
# Convention : Reuss Voigt Hill
#
# Bulk Modulus (GPa) = 25.98995 36.52950 31.25972
# Shear Modulus (GPa) = 25.69405 32.16111 28.92758
#
# Velocity S-wave (km/s) = 3.41670 3.82258 3.62533
# Velocity P-wave (km/s) = 5.23197 6.00664 5.63263
#
# Compressibility (1/GPa) = 0.03847641
#
# Stress axis : x y z
#
# Youngs Moduli (GPa) = 59.55338 33.20858 91.73836
#
# Poissons Ratio (x) = 0.13278 -0.14317
# Poissons Ratio (y) = 0.23812 0.66293
# Poissons Ratio (z) = -0.09294 0.23998
#
# Static dielectric constant tensor:
#      x y z
#    x 1.830090 0.009680 0.005690 
#    y 0.009680 1.722910 0.005830 
#    z 0.005690 0.005830 1.778460 
# 
# From -- ./inp_files/455783.got.cif
#   From: 2010.05.17/outbox.cif.g08.bks.cpg/sg2_228_cif.got.tgz:455783.got - 2010.06.03 11:33:40.
