data_PCOD9050783
_publ_section_title
;
Structure prediction by ZEFSAII (Michael W. Deem and Ramdas Pophale) SiO2 
 PCOD9050783
Probable space group: P -1
;
_chemical_formula_sum "Si O2"
_cell_formula_units_Z 13
_cell_length_a 8.967474
_cell_length_b 8.929831
_cell_length_c 12.147000
_cell_angle_alpha 35.462366
_cell_angle_beta 70.737495
_cell_angle_gamma 75.837653
_cell_volume 532.227934
_symmetry_space_group_name_H-M "P -1"
_symmetry_group_IT_number 2
_symmetry_cell_setting 'triclinic'
loop_
_space_group_symop_operation_xyz
x,y,z
-x,-y,-z
loop_
_atom_site_type_symbol
_atom_site_label
_atom_site_fract_x
_atom_site_fract_y
_atom_site_fract_z
Si Si1 0.575368 0.068237 0.183910
Si Si2 0.500000 0.500000 0.500000
Si Si3 0.651595 0.392532 0.773075
Si Si4 0.612022 0.249039 0.297950
Si Si5 0.206107 0.449285 0.774558
Si Si6 0.254724 0.987749 0.205672
Si Si7 0.980336 0.620851 0.553908
O O1 0.639478 0.234220 0.170488
O O2 0.579244 0.764281 0.384736
O O3 0.386739 0.096098 0.192585
O O4 0.664664 0.158196 0.997094
O O5 0.349824 0.485148 0.632422
O O6 0.494882 0.516935 0.779268
O O7 0.653403 0.253347 0.734237
O O8 0.793324 0.604296 0.623861
O O9 0.770260 0.305421 0.295401
O O10 0.500000 0.000000 0.500000
O O11 0.051393 0.454472 0.734264
O O12 0.213631 0.194543 0.000165
O O13 0.095136 0.875420 0.367106
O O14 0.000000 0.500000 0.500000
#
# Coordination Sequence:
#
# PCOD9050783 Si02
#       7
#     2   1   2   2   2   2   2
#     4  12  23  41  71 102 132 182 226 287 336 406
#     4  12  22  40  76 100 132 170 242 276 334 396
#     4  11  24  43  67 100 134 183 223 286 344 392
#     4  12  25  41  67  99 139 177 231 280 337 410
#     4  12  24  43  69 103 134 181 229 284 337 408
#     4  11  22  43  73  97 137 178 231 284 334 406
#     4  10  25  44  67 101 142 174 228 287 345 398
#
# _framework density 24.425622000000001
#
# number of rings (size 3 to 8) (size 9 to 14) (size 15 to 20)
#    0.000    0.615    6.154    1.846    2.154    2.462 
#    2.769    3.846    0.000    0.000    0.000    0.000 
#    0.000    0.000    0.000    0.000    0.000    0.000 
#
# Total GULP energy -72487.844898 kJ/mol
# GULP energy per Si atom -5575.988069 kJ/mol
# Density = 2.437003 g / cm^3
# Si number density = 24.425622 Si / 1000 Ang^3
#
#
#
# Elastic Constant Matrix: (Units=GPa)
#
#
# Indices 1 2 3 4 5 6 
#
# 1 98.5994 20.5808 7.7126 5.0045 -3.6299 30.7545
# 2 20.5808 84.2451 -3.1939 3.0338 15.2456 28.5178
# 3 7.7126 -3.1939 92.9351 -8.4376 -3.4675 -2.3671
# 4 5.0045 3.0338 -8.4376 31.7559 0.6129 3.3827
# 5 -3.6299 15.2456 -3.4675 0.6129 45.4994 8.1402
# 6 30.7545 28.5178 -2.3671 3.3827 8.1402 32.2260
#
#
#
# Elastic Compliance Matrix: (Units=1/GPa)
#
#
# Indices 1 2 3 4 5 6 
#
# 1 0.015436 0.001200 -0.001643 -0.001275 0.003712 -0.016717
# 2 0.001200 0.017480 -0.000023 -0.000119 -0.002923 -0.015864
# 3 -0.001643 -0.000023 0.011234 0.003025 0.000332 0.002012
# 4 -0.001275 -0.000119 0.003025 0.032708 0.000069 -0.001907
# 5 0.003712 -0.002923 0.000332 0.000069 0.024556 -0.007142
# 6 -0.016717 -0.015864 0.002012 -0.001907 -0.007142 0.063175
#
#
# Mechanical properties :
#
#
# Convention : Reuss Voigt Hill
#
# Bulk Modulus (GPa) = 23.13844 36.21985 29.67915
# Shear Modulus (GPa) = 27.78915 38.60827 33.19871
#
# Velocity S-wave (km/s) = 3.37665 3.98005 3.69070
# Velocity P-wave (km/s) = 4.96950 5.99849 5.50807
#
# Compressibility (1/GPa) = 0.04321812
#
# Stress axis : x y z
#
# Youngs Moduli (GPa) = 64.78429 57.20966 89.01522
#
# Poissons Ratio (x) = -0.06865 0.14623
# Poissons Ratio (y) = -0.07773 0.00203
# Poissons Ratio (z) = 0.10643 0.00130
#
# Static dielectric constant tensor:
#      x y z
#    x 2.006610 0.031360 -0.028260 
#    y 0.031360 1.953670 -0.000030 
#    z -0.028260 -0.000030 1.841180 
# 
# From -- ./inp_files/375306.got.cif
#   From: 2010.05.17/outbox.cif.g08.bks.cpg/sg2_188_cif.got.tgz:375306.got - 2010.06.03 11:33:40.
