data_PCOD9050119
_publ_section_title
;
Structure prediction by ZEFSAII (Michael W. Deem and Ramdas Pophale) SiO2 
 PCOD9050119
Probable space group: P -1
;
_chemical_formula_sum "Si O2"
_cell_formula_units_Z 12
_cell_length_a 9.722023
_cell_length_b 11.889364
_cell_length_c 8.595124
_cell_angle_alpha 65.301622
_cell_angle_beta 94.924491
_cell_angle_gamma 143.078909
_cell_volume 482.894647
_symmetry_space_group_name_H-M "P -1"
_symmetry_group_IT_number 2
_symmetry_cell_setting 'triclinic'
loop_
_space_group_symop_operation_xyz
x,y,z
-x,-y,-z
loop_
_atom_site_type_symbol
_atom_site_label
_atom_site_fract_x
_atom_site_fract_y
_atom_site_fract_z
Si Si1 0.385728 0.570034 0.876277
Si Si2 0.312365 0.323660 0.439816
Si Si3 0.792631 0.944399 0.956149
Si Si4 0.976824 0.680119 0.469361
Si Si5 0.364357 0.759506 0.518243
Si Si6 0.160848 0.951199 0.772514
O O1 0.523262 0.592606 0.741553
O O2 0.422628 0.271747 0.052557
O O3 0.352448 0.677983 0.727177
O O4 0.114449 0.310697 0.055005
O O5 0.500000 0.500000 0.500000
O O6 0.151289 0.080787 0.618379
O O7 0.139107 0.315155 0.415224
O O8 0.692418 0.922154 0.121136
O O9 0.928105 0.154425 0.750465
O O10 0.000000 0.000000 0.000000
O O11 0.205654 0.764952 0.496366
O O12 0.771692 0.436267 0.506077
O O13 0.654126 0.989246 0.352052
#
# Coordination Sequence:
#
# PCOD9050119 Si02
#       6
#     2   2   2   2   2   2
#     4  11  26  48  78 111 149 193 249 305 378 442
#     4  11  21  46  75 111 150 196 244 308 373 437
#     4  12  26  47  77 112 151 191 250 315 365 442
#     4  11  22  47  76 106 152 194 250 304 372 443
#     4  10  24  48  77 104 149 204 243 304 374 443
#     4  11  23  48  74 111 151 189 249 309 374 437
#
# _framework density 24.85014
#
# number of rings (size 3 to 8) (size 9 to 14) (size 15 to 20)
#    0.000    1.000    6.667    0.000    0.000    2.667 
#    6.000    0.833    3.667    0.000    0.000    0.000 
#    0.000    0.000    0.000    0.000    0.000    0.000 
#
# Total GULP energy -67354.149796 kJ/mol
# GULP energy per Si atom -5612.845816 kJ/mol
# Density = 2.479358 g / cm^3
# Si number density = 24.850140 Si / 1000 Ang^3
#
#
#
# Elastic Constant Matrix: (Units=GPa)
#
#
# Indices 1 2 3 4 5 6 
#
# 1 180.5338 91.2156 91.1867 -5.1749 11.6778 29.3956
# 2 91.2156 193.4912 92.9802 2.8140 -15.1884 0.7020
# 3 91.1867 92.9802 226.7514 -14.1450 -2.1146 7.4585
# 4 -5.1749 2.8140 -14.1450 39.3595 10.2461 4.8977
# 5 11.6778 -15.1884 -2.1146 10.2461 21.0405 9.4987
# 6 29.3956 0.7020 7.4585 4.8977 9.4987 57.2503
#
#
#
# Elastic Compliance Matrix: (Units=1/GPa)
#
#
# Indices 1 2 3 4 5 6 
#
# 1 0.010186 -0.004673 -0.001903 0.003911 -0.009457 -0.003691
# 2 -0.004673 0.009381 -0.002222 -0.005121 0.011108 0.001169
# 3 -0.001903 -0.002222 0.006221 0.002431 -0.001189 0.000183
# 4 0.003911 -0.005121 0.002431 0.032793 -0.020867 -0.001605
# 5 -0.009457 0.011108 -0.001189 -0.020867 0.073322 -0.005506
# 6 -0.003691 0.001169 0.000183 -0.001605 -0.005506 0.020375
#
#
# Mechanical properties :
#
#
# Convention : Reuss Voigt Hill
#
# Bulk Modulus (GPa) = 122.06442 127.94903 125.00673
# Shear Modulus (GPa) = 28.96794 45.22299 37.09547
#
# Velocity S-wave (km/s) = 3.41795 4.27057 3.86783
# Velocity P-wave (km/s) = 8.05005 8.71304 8.38810
#
# Compressibility (1/GPa) = 0.00819240
#
# Stress axis : x y z
#
# Youngs Moduli (GPa) = 98.17207 106.59694 160.74886
#
# Poissons Ratio (x) = 0.49817 0.30588
# Poissons Ratio (y) = 0.45880 0.35714
# Poissons Ratio (z) = 0.18681 0.23683
#
# Static dielectric constant tensor:
#      x y z
#    x 1.964980 -0.016060 0.003440 
#    y -0.016060 2.037650 -0.021440 
#    z 0.003440 -0.021440 1.937640 
# 
# From -- ./inp_files/506172.got.cif
#   From: 2010.05.17/outbox.cif.g08.bks.cpg/sg2_254_cif.got.tgz:506172.got - 2010.06.03 11:33:40.
