data_PCOD9050283
_publ_section_title
;
Structure prediction by ZEFSAII (Michael W. Deem and Ramdas Pophale) SiO2 
 PCOD9050283
Probable space group: P -1
;
_chemical_formula_sum "Si O2"
_cell_formula_units_Z 15
_cell_length_a 19.625130
_cell_length_b 16.953230
_cell_length_c 11.100488
_cell_angle_alpha 31.346945
_cell_angle_beta 29.154155
_cell_angle_gamma 19.785426
_cell_volume 597.248080
_symmetry_space_group_name_H-M "P -1"
_symmetry_group_IT_number 2
_symmetry_cell_setting 'triclinic'
loop_
_space_group_symop_operation_xyz
x,y,z
-x,-y,-z
loop_
_atom_site_type_symbol
_atom_site_label
_atom_site_fract_x
_atom_site_fract_y
_atom_site_fract_z
Si Si1 0.500000 0.000000 0.500000
Si Si2 0.258829 0.877295 0.394607
Si Si3 0.281924 0.350725 0.594193
Si Si4 0.926590 0.820154 0.121761
Si Si5 0.498343 0.836231 0.267631
Si Si6 0.319962 0.654794 0.181346
Si Si7 0.968180 0.332119 0.120092
Si Si8 0.392666 0.483613 0.852100
O O1 0.356312 0.239115 0.493366
O O2 0.273537 0.126549 0.616303
O O3 0.295413 0.930727 0.393558
O O4 0.303959 0.671611 0.639871
O O5 0.440959 0.763049 0.158073
O O6 0.039177 0.121614 0.356505
O O7 0.488236 0.174121 0.597412
O O8 0.204552 0.587699 0.425708
O O9 0.114879 0.359049 0.887607
O O10 0.976728 0.745851 0.000877
O O11 0.165869 0.604630 0.094743
O O12 0.835292 0.068538 0.952465
O O13 0.717972 0.574543 0.218638
O O14 0.500000 0.000000 0.000000
O O15 0.459774 0.563681 0.209127
O O16 0.500000 0.500000 0.000000
#
# Coordination Sequence:
#
# PCOD9050283 Si02
#       8
#     1   2   2   2   2   2   2   2
#     4  10  24  50  70  94 136 194 236 298 340 426
#     4  11  23  41  67 105 149 179 230 288 360 429
#     4  11  24  44  69  98 141 183 235 288 354 411
#     4  11  24  45  75  98 141 186 245 287 362 421
#     4  12  24  41  69 108 142 179 235 292 351 427
#     4  12  25  46  69 100 142 186 241 303 343 412
#     4  11  24  43  71 105 143 192 229 283 369 427
#     4  11  25  42  70 107 140 189 232 294 357 426
#
# _framework density 25.115190999999999
#
# number of rings (size 3 to 8) (size 9 to 14) (size 15 to 20)
#    0.000    0.800    6.667    0.400    1.867    1.067 
#    0.000    0.667    0.000    0.000    0.000    0.000 
#    0.000    0.000    0.000    0.000    0.000    0.000 
#
# Total GULP energy -83551.375985 kJ/mol
# GULP energy per Si atom -5570.091732 kJ/mol
# Density = 2.505803 g / cm^3
# Si number density = 25.115191 Si / 1000 Ang^3
#
#
#
# Elastic Constant Matrix: (Units=GPa)
#
#
# Indices 1 2 3 4 5 6 
#
# 1 135.6210 54.0667 21.3924 -2.1017 -18.7964 22.5809
# 2 54.0667 155.5013 29.9484 -1.8891 10.2458 7.8796
# 3 21.3924 29.9484 45.9863 -7.9337 -22.5130 0.3045
# 4 -2.1017 -1.8891 -7.9337 39.6066 -3.0405 -5.2152
# 5 -18.7964 10.2458 -22.5130 -3.0405 42.1569 2.1407
# 6 22.5809 7.8796 0.3045 -5.2152 2.1407 46.3339
#
#
#
# Elastic Compliance Matrix: (Units=1/GPa)
#
#
# Indices 1 2 3 4 5 6 
#
# 1 0.010506 -0.004033 0.001020 0.000449 0.006480 -0.004690
# 2 -0.004033 0.010407 -0.010219 -0.002473 -0.009986 0.000446
# 3 0.001020 -0.010219 0.042604 0.010244 0.026384 0.000895
# 4 0.000449 -0.002473 0.010244 0.028219 0.008158 0.002933
# 5 0.006480 -0.009986 0.026384 0.008158 0.043854 -0.002741
# 6 -0.004690 0.000446 0.000895 0.002933 -0.002741 0.024243
#
#
# Mechanical properties :
#
#
# Convention : Reuss Voigt Hill
#
# Bulk Modulus (GPa) = 26.98877 60.88039 43.93458
# Shear Modulus (GPa) = 25.16998 41.06622 33.11810
#
# Velocity S-wave (km/s) = 3.16916 4.04804 3.63526
# Velocity P-wave (km/s) = 4.91536 6.79279 5.92886
#
# Compressibility (1/GPa) = 0.03705244
#
# Stress axis : x y z
#
# Youngs Moduli (GPa) = 95.17950 96.09246 23.47192
#
# Poissons Ratio (x) = 0.38758 -0.02395
# Poissons Ratio (y) = 0.38389 0.23986
# Poissons Ratio (z) = -0.09710 0.98199
#
# Static dielectric constant tensor:
#      x y z
#    x 1.946990 -0.009010 -0.010420 
#    y -0.009010 1.974690 0.042380 
#    z -0.010420 0.042380 2.152770 
# 
# From -- ./inp_files/472325.got.cif
#   From: 2010.05.17/outbox.cif.g08.bks.cpg/sg2_237_cif.got.tgz:472325.got - 2010.06.03 11:33:40.
