data_PCOD9050219
_publ_section_title
;
Structure prediction by ZEFSAII (Michael W. Deem and Ramdas Pophale) SiO2 
 PCOD9050219
Probable space group: P -1
;
_chemical_formula_sum "Si O2"
_cell_formula_units_Z 16
_cell_length_a 17.494663
_cell_length_b 20.048161
_cell_length_c 8.602818
_cell_angle_alpha 58.278457
_cell_angle_beta 47.744815
_cell_angle_gamma 22.667446
_cell_volume 811.850264
_symmetry_space_group_name_H-M "P -1"
_symmetry_group_IT_number 2
_symmetry_cell_setting 'triclinic'
loop_
_space_group_symop_operation_xyz
x,y,z
-x,-y,-z
loop_
_atom_site_type_symbol
_atom_site_label
_atom_site_fract_x
_atom_site_fract_y
_atom_site_fract_z
Si Si1 0.091844 0.723428 0.185752
Si Si2 0.505794 0.439848 0.714521
Si Si3 0.372680 0.267922 0.180150
Si Si4 0.010783 0.951210 0.375793
Si Si5 0.471390 0.305588 0.731624
Si Si6 0.056699 0.344546 0.540908
Si Si7 0.742180 0.092595 0.123501
Si Si8 0.279765 0.477999 0.460412
O O1 0.942506 0.747992 0.305819
O O2 0.216288 0.606168 0.316607
O O3 0.297372 0.599805 0.928134
O O4 0.912891 0.918709 0.202197
O O5 0.500000 0.500000 0.500000
O O6 0.770366 0.259705 0.649911
O O7 0.472551 0.373865 0.776054
O O8 0.141466 0.476575 0.300284
O O9 0.602093 0.138060 0.126825
O O10 0.299300 0.228073 0.352535
O O11 0.406514 0.271100 0.952744
O O12 0.091355 0.958482 0.128235
O O13 0.000000 0.000000 0.500000
O O14 0.737976 0.111306 0.533885
O O15 0.304311 0.450024 0.643346
O O16 0.932188 0.430295 0.435198
O O17 0.530192 0.279899 0.279742
#
# Coordination Sequence:
#
# PCOD9050219 Si02
#       8
#     2   2   2   2   2   2   2   2
#     4  10  19  38  57  80 111 146 185 231 271 323
#     4  11  20  36  57  85 111 141 191 239 267 321
#     4  10  17  34  62  84 104 147 191 228 277 319
#     4  10  18  34  52  81 106 143 180 229 272 316
#     4  11  20  35  58  81 115 148 183 224 285 330
#     4   8  18  36  57  83 110 143 187 231 274 324
#     4  11  19  37  60  78 114 146 187 232 270 327
#     4   9  21  39  52  81 120 148 180 223 277 342
#
# _framework density 19.708067
#
# number of rings (size 3 to 8) (size 9 to 14) (size 15 to 20)
#    0.750    1.250    5.000    1.500    0.000    1.500 
#    2.250    1.250    0.000    0.750    0.000    0.000 
#    0.000    0.000    0.000    0.000    0.000    0.000 
#
# Total GULP energy -89208.809352 kJ/mol
# GULP energy per Si atom -5575.550585 kJ/mol
# Density = 1.966321 g / cm^3
# Si number density = 19.708067 Si / 1000 Ang^3
#
#
#
# Elastic Constant Matrix: (Units=GPa)
#
#
# Indices 1 2 3 4 5 6 
#
# 1 42.9963 14.3998 25.6141 2.8717 4.1615 -2.9328
# 2 14.3998 115.3573 28.3599 -17.2244 -2.5566 -3.1575
# 3 25.6141 28.3599 69.2155 -6.7094 -12.5257 -12.8645
# 4 2.8717 -17.2244 -6.7094 25.6828 -3.4527 3.4654
# 5 4.1615 -2.5566 -12.5257 -3.4527 24.6421 -6.2896
# 6 -2.9328 -3.1575 -12.8645 3.4654 -6.2896 27.5042
#
#
#
# Elastic Compliance Matrix: (Units=1/GPa)
#
#
# Indices 1 2 3 4 5 6 
#
# 1 0.038014 -0.002515 -0.019566 -0.012667 -0.020569 -0.008495
# 2 -0.002515 0.010709 -0.002833 0.006974 0.000803 -0.001059
# 3 -0.019566 -0.002833 0.031294 0.009512 0.024494 0.016629
# 4 -0.012667 0.006974 0.009512 0.049371 0.014892 0.001084
# 5 -0.020569 0.000803 0.024494 0.014892 0.064339 0.022192
# 6 -0.008495 -0.001059 0.016629 0.001084 0.022192 0.048047
#
#
# Mechanical properties :
#
#
# Convention : Reuss Voigt Hill
#
# Bulk Modulus (GPa) = 33.12364 40.47964 36.80164
# Shear Modulus (GPa) = 16.57469 26.17884 21.37677
#
# Velocity S-wave (km/s) = 2.90316 3.64858 3.29701
# Velocity P-wave (km/s) = 5.29919 6.19143 5.76260
#
# Compressibility (1/GPa) = 0.03018991
#
# Stress axis : x y z
#
# Youngs Moduli (GPa) = 26.30640 93.37760 31.95468
#
# Poissons Ratio (x) = 0.23482 0.62523
# Poissons Ratio (y) = 0.06615 0.09052
# Poissons Ratio (z) = 0.51471 0.26452
#
# Static dielectric constant tensor:
#      x y z
#    x 1.751740 -0.012510 -0.000300 
#    y -0.012510 1.694040 -0.010000 
#    z -0.000300 -0.010000 1.671800 
# 
# From -- ./inp_files/349878.got.cif
#   From: 2010.05.17/outbox.cif.g08.bks.cpg/sg2_175_cif.got.tgz:349878.got - 2010.06.03 11:33:40.
