data_PCOD9050526
_publ_section_title
;
Structure prediction by ZEFSAII (Michael W. Deem and Ramdas Pophale) SiO2 
 PCOD9050526
Probable space group: P -1
;
_chemical_formula_sum "Si O2"
_cell_formula_units_Z 12
_cell_length_a 19.730273
_cell_length_b 8.839767
_cell_length_c 4.998350
_cell_angle_alpha 78.315408
_cell_angle_beta 65.102912
_cell_angle_gamma 36.592409
_cell_volume 456.343074
_symmetry_space_group_name_H-M "P -1"
_symmetry_group_IT_number 2
_symmetry_cell_setting 'triclinic'
loop_
_space_group_symop_operation_xyz
x,y,z
-x,-y,-z
loop_
_atom_site_type_symbol
_atom_site_label
_atom_site_fract_x
_atom_site_fract_y
_atom_site_fract_z
Si Si1 0.759845 0.560608 0.271806
Si Si2 0.654021 0.850031 0.842320
Si Si3 0.915754 0.491399 0.687539
Si Si4 0.856055 0.080523 0.508403
Si Si5 0.289028 0.790182 0.778316
Si Si6 0.524457 0.313891 0.220888
O O1 0.648871 0.796683 0.573363
O O2 0.829252 0.295639 0.366179
O O3 0.695429 0.649067 0.056741
O O4 0.863558 0.521997 0.052730
O O5 0.783375 0.734183 0.669822
O O6 0.548560 0.129736 0.054499
O O7 0.000000 0.500000 0.500000
O O8 0.000207 0.203862 0.559495
O O9 0.814717 0.038769 0.344529
O O10 0.770340 0.186145 0.868385
O O11 0.406454 0.503208 0.548648
O O12 0.352571 0.844374 0.751480
O O13 0.500000 0.500000 0.000000
#
# Coordination Sequence:
#
# PCOD9050526 Si02
#       6
#     2   2   2   2   2   2
#     4  10  25  44  66 100 143 180 215 277 340 410
#     4  10  25  42  69  98 134 181 225 276 334 399
#     4  10  25  42  71 102 136 177 224 284 329 404
#     4  12  24  45  69 103 138 179 223 270 351 403
#     4  11  26  40  74  98 130 180 231 274 336 402
#     4  11  24  46  70 100 136 178 227 290 336 386
#
# _framework density 26.296006999999999
#
# number of rings (size 3 to 8) (size 9 to 14) (size 15 to 20)
#    1.000    0.333    1.667    2.500    7.000    1.333 
#    0.000    5.000    0.000    0.000    0.000    0.000 
#    0.000    0.000    0.000    0.000    0.000    0.000 
#
# Total GULP energy -67135.079807 kJ/mol
# GULP energy per Si atom -5594.589984 kJ/mol
# Density = 2.623616 g / cm^3
# Si number density = 26.296007 Si / 1000 Ang^3
#
#
#
# Elastic Constant Matrix: (Units=GPa)
#
#
# Indices 1 2 3 4 5 6 
#
# 1 78.9090 3.7942 34.5312 -10.0500 -13.3405 -4.2704
# 2 3.7942 117.0318 48.8891 -1.7690 -16.4651 18.0512
# 3 34.5312 48.8891 202.4091 -5.8900 -2.8067 12.5481
# 4 -10.0500 -1.7690 -5.8900 46.3663 -1.7541 2.2405
# 5 -13.3405 -16.4651 -2.8067 -1.7541 36.2492 -5.1226
# 6 -4.2704 18.0512 12.5481 2.2405 -5.1226 28.8779
#
#
#
# Elastic Compliance Matrix: (Units=1/GPa)
#
#
# Indices 1 2 3 4 5 6 
#
# 1 0.015685 0.001151 -0.003008 0.003130 0.006759 0.003864
# 2 0.001151 0.010931 -0.002451 0.000762 0.004550 -0.004850
# 3 -0.003008 -0.002451 0.006140 0.000052 -0.002017 -0.001943
# 4 0.003130 0.000762 0.000052 0.022438 0.002397 -0.001351
# 5 0.006759 0.004550 -0.002017 0.002397 0.032759 0.004657
# 6 0.003864 -0.004850 -0.001943 -0.001351 0.004657 0.040006
#
#
# Mechanical properties :
#
#
# Convention : Reuss Voigt Hill
#
# Bulk Modulus (GPa) = 41.42811 63.64211 52.53511
# Shear Modulus (GPa) = 34.57320 43.04105 38.80712
#
# Velocity S-wave (km/s) = 3.62991 4.05012 3.84576
# Velocity P-wave (km/s) = 5.77556 6.79161 6.30409
#
# Compressibility (1/GPa) = 0.02413820
#
# Stress axis : x y z
#
# Youngs Moduli (GPa) = 63.75705 91.48477 162.87694
#
# Poissons Ratio (x) = -0.10526 0.49000
# Poissons Ratio (y) = -0.07336 0.39914
# Poissons Ratio (z) = 0.19181 0.22419
#
# Static dielectric constant tensor:
#      x y z
#    x 2.175270 -0.009720 0.007720 
#    y -0.009720 2.050220 0.009920 
#    z 0.007720 0.009920 2.000990 
# 
# From -- ./inp_files/58874.got.cif
#   From: 2010.05.17/outbox.cif.g08.bks.cpg/sg2_30_cif.got.tgz:58874.got - 2010.06.03 11:33:40.
