data_PCOD9050992
_publ_section_title
;
Structure prediction by ZEFSAII (Michael W. Deem and Ramdas Pophale) SiO2 
 PCOD9050992
Probable space group: P -1
;
_chemical_formula_sum "Si O2"
_cell_formula_units_Z 16
_cell_length_a 19.511802
_cell_length_b 16.613251
_cell_length_c 9.012175
_cell_angle_alpha 42.856302
_cell_angle_beta 136.273204
_cell_angle_gamma 158.507297
_cell_volume 718.290373
_symmetry_space_group_name_H-M "P -1"
_symmetry_group_IT_number 2
_symmetry_cell_setting 'triclinic'
loop_
_space_group_symop_operation_xyz
x,y,z
-x,-y,-z
loop_
_atom_site_type_symbol
_atom_site_label
_atom_site_fract_x
_atom_site_fract_y
_atom_site_fract_z
Si Si1 0.291374 0.535432 0.460129
Si Si2 0.953871 0.585077 0.355865
Si Si3 0.621130 0.169515 0.602389
Si Si4 0.428651 0.393871 0.193367
Si Si5 0.293678 0.989960 0.886277
Si Si6 0.919964 0.683888 0.865190
Si Si7 0.393825 0.503771 0.260497
Si Si8 0.109812 0.887287 0.438820
O O1 0.420166 0.766034 0.432037
O O2 0.417518 0.550094 0.596544
O O3 0.196752 0.487608 0.224857
O O4 0.104103 0.307033 0.571731
O O5 0.790536 0.403616 0.464142
O O6 0.000000 0.500000 0.500000
O O7 0.107990 0.813724 0.381214
O O8 0.901563 0.594354 0.109565
O O9 0.500000 0.000000 0.500000
O O10 0.681587 0.116026 0.865099
O O11 0.409482 0.493115 0.125499
O O12 0.227901 0.125255 0.268318
O O13 0.500000 0.500000 0.000000
O O14 0.214128 0.919734 0.689425
O O15 0.137228 0.900631 0.861457
O O16 0.489536 0.259704 0.840406
O O17 0.816782 0.700779 0.725687
O O18 0.500000 0.500000 0.500000
#
# Coordination Sequence:
#
# PCOD9050992 Si02
#       8
#     2   2   2   2   2   2   2   2
#     4  10  25  46  69 103 137 184 231 279 357 412
#     4  11  24  41  67 102 140 177 229 284 341 414
#     4  11  25  43  70 102 142 178 230 287 345 422
#     4  12  28  45  72  97 141 183 233 294 340 407
#     4  11  24  45  72 100 138 187 223 287 348 411
#     4  11  24  44  71 101 140 181 230 283 348 406
#     4  12  25  48  69 102 136 180 242 283 341 416
#     4  10  25  45  65 101 137 174 236 274 345 412
#
# _framework density 22.275113000000001
#
# number of rings (size 3 to 8) (size 9 to 14) (size 15 to 20)
#    0.000    1.000    3.750    0.750   10.500    3.500 
#    0.000    1.875    0.000    0.000    0.000    0.000 
#    0.000    0.000    0.000    0.000    0.000    0.000 
#
# Total GULP energy -89263.669100 kJ/mol
# GULP energy per Si atom -5578.979319 kJ/mol
# Density = 2.222441 g / cm^3
# Si number density = 22.275113 Si / 1000 Ang^3
#
#
#
# Elastic Constant Matrix: (Units=GPa)
#
#
# Indices 1 2 3 4 5 6 
#
# 1 92.9233 16.1569 6.1914 1.3223 14.5331 5.9121
# 2 16.1569 76.1622 8.3207 -10.2357 22.8855 3.6226
# 3 6.1914 8.3207 91.0732 -16.0310 5.5224 1.8553
# 4 1.3223 -10.2357 -16.0310 12.3076 28.3786 -8.7589
# 5 14.5331 22.8855 5.5224 28.3786 -25.3655 6.9754
# 6 5.9121 3.6226 1.8553 -8.7589 6.9754 33.6226
#
#
#
# Elastic Compliance Matrix: (Units=1/GPa)
#
#
# Indices 1 2 3 4 5 6 
#
# 1 0.011659 -0.002447 -0.001175 -0.004117 -0.001096 -0.002567
# 2 -0.002447 0.012182 -0.001810 -0.003735 0.004289 -0.002645
# 3 -0.001175 -0.001810 0.011618 0.003695 0.004310 -0.000171
# 4 -0.004117 -0.003735 0.003695 0.026525 0.025453 0.002552
# 5 -0.001096 0.004289 0.004310 0.025453 -0.004809 0.007121
# 6 -0.002567 -0.002645 -0.000171 0.002552 0.007121 0.029675
#
#
# Mechanical properties :
#
#
# Convention : Reuss Voigt Hill
#
# Bulk Modulus (GPa) = 40.65990 35.72187 38.19088
# Shear Modulus (GPa) = 47.20880 19.41227 33.31054
#
# Velocity S-wave (km/s) = 4.60864 2.95528 3.87125
# Velocity P-wave (km/s) = 6.82734 5.26464 6.09627
#
# Compressibility (1/GPa) = 0.02459426
#
# Stress axis : x y z
#
# Youngs Moduli (GPa) = 85.77356 82.08922 86.07339
#
# Poissons Ratio (x) = 0.20085 0.10114
# Poissons Ratio (y) = 0.20987 0.15582
# Poissons Ratio (z) = 0.10079 0.14860
#
# Static dielectric constant tensor:
#      x y z
#    x 1.981020 -0.052040 -0.017800 
#    y -0.052040 1.830120 0.026820 
#    z -0.017800 0.026820 1.748020 
# 
# From -- ./inp_files/348837.got.cif
#   From: 2010.05.17/outbox.cif.g08.bks.cpg/sg2_175_cif.got.tgz:348837.got - 2010.06.03 11:33:40.
