data_PCOD9050624
_publ_section_title
;
Structure prediction by ZEFSAII (Michael W. Deem and Ramdas Pophale) SiO2 
 PCOD9050624
Probable space group: P -1
;
_chemical_formula_sum "Si O2"
_cell_formula_units_Z 12
_cell_length_a 8.011193
_cell_length_b 14.824073
_cell_length_c 14.671450
_cell_angle_alpha 160.644613
_cell_angle_beta 101.510675
_cell_angle_gamma 88.019349
_cell_volume 498.457285
_symmetry_space_group_name_H-M "P -1"
_symmetry_group_IT_number 2
_symmetry_cell_setting 'triclinic'
loop_
_space_group_symop_operation_xyz
x,y,z
-x,-y,-z
loop_
_atom_site_type_symbol
_atom_site_label
_atom_site_fract_x
_atom_site_fract_y
_atom_site_fract_z
Si Si1 0.265268 0.430548 0.310730
Si Si2 0.383494 0.643040 0.171891
Si Si3 0.099217 0.452663 0.616350
Si Si4 0.808732 0.780829 0.098584
Si Si5 0.719875 0.877361 0.795584
Si Si6 0.050179 0.452208 0.815890
O O1 0.488958 0.686588 0.577842
O O2 0.233531 0.217167 0.191511
O O3 0.115849 0.572330 0.432745
O O4 0.233655 0.240102 0.032538
O O5 0.500000 0.000000 0.500000
O O6 0.500000 0.500000 0.000000
O O7 0.353594 0.516056 0.150132
O O8 0.176719 0.490076 0.953628
O O9 0.159074 0.211847 0.348861
O O10 0.151831 0.482429 0.757870
O O11 0.220071 0.766699 0.872235
O O12 0.864250 0.109853 0.463458
O O13 0.994229 0.725106 0.073020
#
# Coordination Sequence:
#
# PCOD9050624 Si02
#       6
#     2   2   2   2   2   2
#     4  10  25  43  68 101 137 183 233 275 351 392
#     4  12  26  42  69 101 131 168 219 279 337 404
#     4  11  24  42  69  97 140 180 230 276 344 403
#     4  11  24  44  68  93 135 176 221 275 333 410
#     4  11  25  42  68 100 139 182 229 288 328 412
#     4  11  24  44  68  97 131 178 220 269 343 402
#
# _framework density 24.074282
#
# number of rings (size 3 to 8) (size 9 to 14) (size 15 to 20)
#    0.000    1.000    0.000    6.000    4.667    9.333 
#    0.000    0.000    0.000    0.000    0.000    0.000 
#    0.000    0.000    0.000    0.000    0.000    0.000 
#
# Total GULP energy -67189.285402 kJ/mol
# GULP energy per Si atom -5599.107117 kJ/mol
# Density = 2.401949 g / cm^3
# Si number density = 24.074282 Si / 1000 Ang^3
#
#
#
# Elastic Constant Matrix: (Units=GPa)
#
#
# Indices 1 2 3 4 5 6 
#
# 1 55.1464 0.7867 17.4329 -1.7900 11.1870 10.9957
# 2 0.7867 118.2733 17.5782 12.4863 10.6598 23.7470
# 3 17.4329 17.5782 94.1080 20.4507 -1.2364 -0.3376
# 4 -1.7900 12.4863 20.4507 35.5372 -0.3961 2.7105
# 5 11.1870 10.6598 -1.2364 -0.3961 35.6676 3.7019
# 6 10.9957 23.7470 -0.3376 2.7105 3.7019 35.1869
#
#
#
# Elastic Compliance Matrix: (Units=1/GPa)
#
#
# Indices 1 2 3 4 5 6 
#
# 1 0.023312 0.002685 -0.005857 0.004183 -0.007368 -0.008700
# 2 0.002685 0.010797 -0.002182 -0.001857 -0.003371 -0.007649
# 3 -0.005857 -0.002182 0.013851 -0.007759 0.002492 0.003771
# 4 0.004183 -0.001857 -0.007759 0.033668 -0.000374 -0.002683
# 5 -0.007368 -0.003371 0.002492 -0.000374 0.031298 0.001337
# 6 -0.008700 -0.007649 0.003771 -0.002683 0.001337 0.036403
#
#
# Mechanical properties :
#
#
# Convention : Reuss Voigt Hill
#
# Bulk Modulus (GPa) = 26.84499 37.68036 32.26268
# Shear Modulus (GPa) = 28.99311 36.72700 32.86005
#
# Velocity S-wave (km/s) = 3.47409 3.91009 3.69852
# Velocity P-wave (km/s) = 5.22183 6.00590 5.62754
#
# Compressibility (1/GPa) = 0.03725090
#
# Stress axis : x y z
#
# Youngs Moduli (GPa) = 42.89689 92.61755 72.19692
#
# Poissons Ratio (x) = -0.24864 0.42284
# Poissons Ratio (y) = -0.11516 0.15755
# Poissons Ratio (z) = 0.25124 0.20212
#
# Static dielectric constant tensor:
#      x y z
#    x 1.895690 0.044190 0.051610 
#    y 0.044190 1.958200 0.014510 
#    z 0.051610 0.014510 1.910060 
# 
# From -- ./inp_files/48099.got.cif
#   From: 2010.05.17/outbox.cif.g08.bks.cpg/sg2_25_cif.got.tgz:48099.got - 2010.06.03 11:33:40.
