data_PCOD9050656
_publ_section_title
;
Structure prediction by ZEFSAII (Michael W. Deem and Ramdas Pophale) SiO2 
 PCOD9050656
Probable space group: P -1
;
_chemical_formula_sum "Si O2"
_cell_formula_units_Z 12
_cell_length_a 7.248039
_cell_length_b 5.655173
_cell_length_c 18.073768
_cell_angle_alpha 101.961670
_cell_angle_beta 43.738144
_cell_angle_gamma 99.346048
_cell_volume 500.969928
_symmetry_space_group_name_H-M "P -1"
_symmetry_group_IT_number 2
_symmetry_cell_setting 'triclinic'
loop_
_space_group_symop_operation_xyz
x,y,z
-x,-y,-z
loop_
_atom_site_type_symbol
_atom_site_label
_atom_site_fract_x
_atom_site_fract_y
_atom_site_fract_z
Si Si1 0.254838 0.489920 0.372617
Si Si2 0.547336 0.835192 0.543791
Si Si3 0.025410 0.989890 0.904148
Si Si4 0.780887 0.528468 0.332268
Si Si5 0.188463 0.558221 0.097359
Si Si6 0.639974 0.026681 0.685224
O O1 0.522427 0.541543 0.350636
O O2 0.259048 0.217432 0.321364
O O3 0.000000 0.500000 0.500000
O O4 0.260745 0.698236 0.323166
O O5 0.719084 0.639080 0.437811
O O6 0.258187 0.752287 0.653717
O O7 0.687676 0.957720 0.580396
O O8 0.500000 0.000000 0.500000
O O9 0.869926 0.213737 0.925090
O O10 0.944856 0.709477 0.893531
O O11 0.330347 0.032732 0.795269
O O12 0.000000 0.000000 0.000000
O O13 0.041062 0.623208 0.221547
O O14 0.500000 0.500000 0.000000
#
# Coordination Sequence:
#
# PCOD9050656 Si02
#       6
#     2   2   2   2   2   2
#     4  11  21  37  62  91 128 171 213 262 337 408
#     4  10  17  34  64  89 121 165 207 260 337 398
#     4  12  24  47  73  98 137 191 232 286 351 412
#     4  10  21  37  63  94 130 170 213 275 344 398
#     4  12  25  47  74 103 138 182 238 295 342 407
#     4  11  21  41  64  89 130 173 212 275 336 400
#
# _framework density 23.953533
#
# number of rings (size 3 to 8) (size 9 to 14) (size 15 to 20)
#    0.000    1.000    6.667    1.500    0.000    0.000 
#    0.000   11.667    0.000    0.000    0.000    0.000 
#    0.000    0.000    0.000    0.000    0.000    0.000 
#
# Total GULP energy -66874.176386 kJ/mol
# GULP energy per Si atom -5572.848032 kJ/mol
# Density = 2.389901 g / cm^3
# Si number density = 23.953533 Si / 1000 Ang^3
#
#
#
# Elastic Constant Matrix: (Units=GPa)
#
#
# Indices 1 2 3 4 5 6 
#
# 1 67.7053 23.8322 50.1591 -7.8765 5.5913 -15.4860
# 2 23.8322 200.6100 37.1231 -14.9126 -1.8820 -29.5760
# 3 50.1591 37.1231 158.6414 -11.7006 -7.2454 -15.6091
# 4 -7.8765 -14.9126 -11.7006 40.1966 -6.0234 -4.3429
# 5 5.5913 -1.8820 -7.2454 -6.0234 49.9176 0.6933
# 6 -15.4860 -29.5760 -15.6091 -4.3429 0.6933 12.7434
#
#
#
# Elastic Compliance Matrix: (Units=1/GPa)
#
#
# Indices 1 2 3 4 5 6 
#
# 1 0.027862 0.004390 -0.005238 0.009528 -0.003136 0.041048
# 2 0.004390 0.009417 -0.000101 0.007578 0.000352 0.029630
# 3 -0.005238 -0.000101 0.008713 0.002293 0.002058 0.004741
# 4 0.009528 0.007578 0.002293 0.035447 0.003219 0.043881
# 5 -0.003136 0.000352 0.002058 0.003219 0.021092 -0.000524
# 6 0.041048 0.029630 0.004741 0.043881 -0.000524 0.217913
#
#
# Mechanical properties :
#
#
# Convention : Reuss Voigt Hill
#
# Bulk Modulus (GPa) = 22.67938 72.13173 47.40556
# Shear Modulus (GPa) = 14.83500 41.62767 28.23134
#
# Velocity S-wave (km/s) = 2.49132 4.17328 3.43678
# Velocity P-wave (km/s) = 4.21476 7.30754 5.96508
#
# Compressibility (1/GPa) = 0.04409291
#
# Stress axis : x y z
#
# Youngs Moduli (GPa) = 35.89174 106.19028 114.77018
#
# Poissons Ratio (x) = -0.46618 0.60118
# Poissons Ratio (y) = -0.15757 0.01163
# Poissons Ratio (z) = 0.18801 0.01076
#
# Static dielectric constant tensor:
#      x y z
#    x 1.985080 -0.096380 -0.093630 
#    y -0.096380 1.817150 -0.011400 
#    z -0.093630 -0.011400 1.978240 
# 
# From -- ./inp_files/119418.got.cif
#   From: 2010.05.17/outbox.cif.g08.bks.cpg/sg2_60_cif.got.tgz:119418.got - 2010.06.03 11:33:40.
