data_PCOD9050234
_publ_section_title
;
Structure prediction by ZEFSAII (Michael W. Deem and Ramdas Pophale) SiO2 
 PCOD9050234
Probable space group: P -1
;
_chemical_formula_sum "Si O2"
_cell_formula_units_Z 16
_cell_length_a 12.010007
_cell_length_b 22.529086
_cell_length_c 8.761349
_cell_angle_alpha 39.739786
_cell_angle_beta 77.792973
_cell_angle_gamma 46.704347
_cell_volume 809.917995
_symmetry_space_group_name_H-M "P -1"
_symmetry_group_IT_number 2
_symmetry_cell_setting 'triclinic'
loop_
_space_group_symop_operation_xyz
x,y,z
-x,-y,-z
loop_
_atom_site_type_symbol
_atom_site_label
_atom_site_fract_x
_atom_site_fract_y
_atom_site_fract_z
Si Si1 0.539290 0.580670 0.369519
Si Si2 0.432946 0.984115 0.410121
Si Si3 0.157975 0.596760 0.618929
Si Si4 0.754393 0.649508 0.768162
Si Si5 0.285140 0.180331 0.777411
Si Si6 0.901322 0.070138 0.641902
Si Si7 0.730251 0.271280 0.584515
Si Si8 0.217956 0.942711 0.590162
O O1 0.500000 0.500000 0.500000
O O2 0.757423 0.458722 0.470798
O O3 0.480787 0.620072 0.486942
O O4 0.376466 0.758456 0.977172
O O5 0.621957 0.806068 0.611631
O O6 0.299196 0.989562 0.498790
O O7 0.500000 0.000000 0.500000
O O8 0.301594 0.139080 0.028325
O O9 0.221711 0.652010 0.563354
O O10 0.913723 0.736982 0.402514
O O11 0.271749 0.437592 0.995758
O O12 0.711172 0.713866 0.481183
O O13 0.000000 0.500000 0.000000
O O14 0.500000 0.000000 0.000000
O O15 0.749295 0.223593 0.500714
O O16 0.806099 0.057475 0.583680
O O17 0.003544 0.071053 0.488681
O O18 0.084896 0.901453 0.025741
#
# Coordination Sequence:
#
# PCOD9050234 Si02
#       8
#     2   2   2   2   2   2   2   2
#     4   9  18  33  57  81 116 158 188 231 295 360
#     4  11  22  38  62  86 116 155 206 254 294 357
#     4  10  17  34  62  84 120 161 192 237 315 352
#     4   9  19  37  60  81 115 158 193 245 300 358
#     4   9  20  36  58  85 111 151 205 245 294 355
#     4   9  19  34  56  88 122 149 195 244 291 357
#     4   9  18  33  57  90 118 149 197 241 285 366
#     4  10  19  35  58  81 117 159 189 239 305 348
#
# _framework density 19.755087
#
# number of rings (size 3 to 8) (size 9 to 14) (size 15 to 20)
#    0.000    2.500    1.250    0.750    0.000    4.000 
#    0.000   10.000    5.500    0.000    0.000    0.000 
#    0.000    0.000    0.000    0.000    0.000    0.000 
#
# Total GULP energy -89085.508627 kJ/mol
# GULP energy per Si atom -5567.844289 kJ/mol
# Density = 1.971012 g / cm^3
# Si number density = 19.755087 Si / 1000 Ang^3
#
#
#
# Elastic Constant Matrix: (Units=GPa)
#
#
# Indices 1 2 3 4 5 6 
#
# 1 85.3262 34.7999 23.8444 9.2967 -19.5221 -3.2555
# 2 34.7999 88.0750 22.0306 -1.5862 -17.6806 -1.1980
# 3 23.8444 22.0306 72.0921 18.7332 -22.2322 -1.8656
# 4 9.2967 -1.5862 18.7332 25.2654 -10.8823 7.0593
# 5 -19.5221 -17.6806 -22.2322 -10.8823 28.6865 0.6090
# 6 -3.2555 -1.1980 -1.8656 7.0593 0.6090 34.5046
#
#
#
# Elastic Compliance Matrix: (Units=1/GPa)
#
#
# Indices 1 2 3 4 5 6 
#
# 1 0.015713 -0.004870 -0.001063 -0.003441 0.005522 0.001862
# 2 -0.004870 0.015691 -0.003336 0.008924 0.007200 -0.002048
# 3 -0.001063 -0.003336 0.021395 -0.012813 0.008869 0.003405
# 4 -0.003441 0.008924 -0.012813 0.062092 0.017074 -0.013712
# 5 0.005522 0.007200 0.008869 0.017074 0.056474 -0.003239
# 6 0.001862 -0.002048 0.003405 -0.013712 -0.003239 0.032133
#
#
# Mechanical properties :
#
#
# Convention : Reuss Voigt Hill
#
# Bulk Modulus (GPa) = 29.18882 45.20481 37.19681
# Shear Modulus (GPa) = 21.41734 28.67920 25.04827
#
# Velocity S-wave (km/s) = 3.29620 3.81430 3.56468
# Velocity P-wave (km/s) = 5.41240 6.50621 5.98435
#
# Compressibility (1/GPa) = 0.03425969
#
# Stress axis : x y z
#
# Youngs Moduli (GPa) = 63.64292 63.73108 46.74060
#
# Poissons Ratio (x) = 0.31040 0.04970
# Poissons Ratio (y) = 0.30997 0.15590
# Poissons Ratio (z) = 0.06767 0.21258
#
# Static dielectric constant tensor:
#      x y z
#    x 1.679900 -0.053480 -0.004170 
#    y -0.053480 1.748110 0.004170 
#    z -0.004170 0.004170 1.772260 
# 
# From -- ./inp_files/204110.got.cif
#   From: 2010.05.17/outbox.cif.g08.bks.cpg/sg2_103_cif.got.tgz:204110.got - 2010.06.03 11:33:40.
