data_PCOD9050254
_publ_section_title
;
Structure prediction by ZEFSAII (Michael W. Deem and Ramdas Pophale) SiO2 
 PCOD9050254
Probable space group: P -1
;
_chemical_formula_sum "Si O2"
_cell_formula_units_Z 14
_cell_length_a 12.122120
_cell_length_b 10.291647
_cell_length_c 9.281258
_cell_angle_alpha 110.665804
_cell_angle_beta 72.017676
_cell_angle_gamma 51.364456
_cell_volume 583.855546
_symmetry_space_group_name_H-M "P -1"
_symmetry_group_IT_number 2
_symmetry_cell_setting 'triclinic'
loop_
_space_group_symop_operation_xyz
x,y,z
-x,-y,-z
loop_
_atom_site_type_symbol
_atom_site_label
_atom_site_fract_x
_atom_site_fract_y
_atom_site_fract_z
Si Si1 0.290696 0.600183 0.009646
Si Si2 0.475721 0.081099 0.880787
Si Si3 0.793079 0.337164 0.591300
Si Si4 0.564071 0.172921 0.260464
Si Si5 0.705764 0.121356 0.491721
Si Si6 0.947847 0.418193 0.893106
Si Si7 0.787038 0.995337 0.824688
O O1 0.738021 0.391530 0.803405
O O2 0.510420 0.342944 0.756329
O O3 0.140052 0.633948 0.012273
O O4 0.263519 0.790423 0.068325
O O5 0.243490 0.351396 0.040802
O O6 0.633367 0.052423 0.815264
O O7 0.516180 0.903234 0.701060
O O8 0.500000 0.000000 0.000000
O O9 0.606666 0.576920 0.663953
O O10 0.836156 0.133426 0.459589
O O11 0.989195 0.232204 0.424189
O O12 0.626571 0.184792 0.385771
O O13 0.756055 0.975934 0.994785
O O14 0.843927 0.850280 0.361660
O O15 0.000000 0.500000 0.000000
#
# Coordination Sequence:
#
# PCOD9050254 Si02
#       7
#     2   2   2   2   2   2   2
#     4  12  27  48  76 114 156 198 261 315 377 456
#     4  10  24  49  77 112 156 198 255 318 378 462
#     4  12  26  47  80 114 150 206 263 311 379 456
#     4  11  25  49  75 113 157 200 254 319 386 451
#     4  12  27  48  76 115 157 197 254 322 384 448
#     4  12  27  50  77 109 153 200 258 309 390 458
#     4  11  25  46  81 108 155 201 262 317 375 454
#
# _framework density 23.978532999999999
#
# number of rings (size 3 to 8) (size 9 to 14) (size 15 to 20)
#    0.000    0.571    4.286    3.000    2.000    2.857 
#    2.571    0.000    0.000    0.857    0.000    0.000 
#    0.000    0.000    0.000    0.000    0.000    0.000 
#
# Total GULP energy -78272.291893 kJ/mol
# GULP energy per Si atom -5590.877992 kJ/mol
# Density = 2.392396 g / cm^3
# Si number density = 23.978533 Si / 1000 Ang^3
#
#
#
# Elastic Constant Matrix: (Units=GPa)
#
#
# Indices 1 2 3 4 5 6 
#
# 1 209.3822 46.9056 64.0150 -9.7048 7.7718 -2.3591
# 2 46.9056 93.3749 44.9569 0.7996 0.5134 -14.7572
# 3 64.0150 44.9569 141.5444 1.1600 -14.0179 -7.2142
# 4 -9.7048 0.7996 1.1600 37.0554 7.7947 2.8136
# 5 7.7718 0.5134 -14.0179 7.7947 44.4569 7.2510
# 6 -2.3591 -14.7572 -7.2142 2.8136 7.2510 40.3959
#
#
#
# Elastic Compliance Matrix: (Units=1/GPa)
#
#
# Indices 1 2 3 4 5 6 
#
# 1 0.006134 -0.002034 -0.002383 0.002210 -0.002092 -0.000589
# 2 -0.002034 0.014180 -0.003488 -0.000765 -0.001552 0.004770
# 3 -0.002383 -0.003488 0.009629 -0.001634 0.003823 -0.000266
# 4 0.002210 -0.000765 -0.001634 0.028948 -0.005735 -0.001429
# 5 -0.002092 -0.001552 0.003823 -0.005735 0.025779 -0.004234
# 6 -0.000589 0.004770 -0.000266 -0.001429 -0.004234 0.027275
#
#
# Mechanical properties :
#
#
# Convention : Reuss Voigt Hill
#
# Bulk Modulus (GPa) = 70.76349 84.00629 77.38489
# Shear Modulus (GPa) = 37.74558 43.60991 40.67774
#
# Velocity S-wave (km/s) = 3.97185 4.26926 4.12323
# Velocity P-wave (km/s) = 7.11403 7.70792 7.41692
#
# Compressibility (1/GPa) = 0.01413158
#
# Stress axis : x y z
#
# Youngs Moduli (GPa) = 163.03383 70.52319 103.85264
#
# Poissons Ratio (x) = 0.14346 0.24750
# Poissons Ratio (y) = 0.33165 0.36224
# Poissons Ratio (z) = 0.38854 0.24598
#
# Static dielectric constant tensor:
#      x y z
#    x 2.038520 0.012010 -0.029130 
#    y 0.012010 1.931830 0.036380 
#    z -0.029130 0.036380 1.966640 
# 
# From -- ./inp_files/421990.got.cif
#   From: 2010.05.17/outbox.cif.g08.bks.cpg/sg2_211_cif.got.tgz:421990.got - 2010.06.03 11:33:40.
