data_PCOD9050154
_publ_section_title
;
Structure prediction by ZEFSAII (Michael W. Deem and Ramdas Pophale) SiO2 
 PCOD9050154
Probable space group: P -1
;
_chemical_formula_sum "Si O2"
_cell_formula_units_Z 13
_cell_length_a 12.785846
_cell_length_b 9.183646
_cell_length_c 5.094831
_cell_angle_alpha 67.780889
_cell_angle_beta 84.223033
_cell_angle_gamma 69.140289
_cell_volume 517.116452
_symmetry_space_group_name_H-M "P -1"
_symmetry_group_IT_number 2
_symmetry_cell_setting 'triclinic'
loop_
_space_group_symop_operation_xyz
x,y,z
-x,-y,-z
loop_
_atom_site_type_symbol
_atom_site_label
_atom_site_fract_x
_atom_site_fract_y
_atom_site_fract_z
Si Si1 0.017804 0.657673 0.516835
Si Si2 0.397699 0.041469 0.295661
Si Si3 0.536761 0.722707 0.185287
Si Si4 0.204267 0.696945 0.756064
Si Si5 0.155615 0.043936 0.392142
Si Si6 0.000000 0.000000 0.000000
Si Si7 0.646330 0.427545 0.696995
O O1 0.911907 0.769521 0.632351
O O2 0.000000 0.500000 0.500000
O O3 0.122390 0.608867 0.721917
O O4 0.031707 0.799135 0.221733
O O5 0.283305 0.022887 0.427029
O O6 0.500000 0.000000 0.500000
O O7 0.442866 0.898096 0.162737
O O8 0.381196 0.223641 0.058522
O O9 0.604356 0.619635 0.484078
O O10 0.464165 0.615239 0.173153
O O11 0.293867 0.674563 0.510518
O O12 0.131883 0.898050 0.676753
O O13 0.270175 0.619776 0.050813
O O14 0.107992 0.014126 0.146058
#
# Coordination Sequence:
#
# PCOD9050154 Si02
#       7
#     2   2   2   2   2   1   2
#     4  11  28  49  76 115 155 203 266 331 401 477
#     4  11  24  44  72 107 152 199 255 312 398 463
#     4  10  25  43  70 111 150 198 256 320 385 467
#     4  11  25  46  81 112 150 212 257 325 402 473
#     4  11  25  46  81 107 155 210 256 331 391 478
#     4  10  24  48  80 106 152 198 262 318 406 454
#     4  11  25  46  78 109 154 201 262 321 393 469
#
# _framework density 25.139406999999999
#
# number of rings (size 3 to 8) (size 9 to 14) (size 15 to 20)
#    0.000    1.231    1.538    2.769   10.769    6.769 
#    0.000    0.000    0.000    0.000    0.000    0.000 
#    0.000    0.000    0.000    0.000    0.000    0.000 
#
# Total GULP energy -72580.868559 kJ/mol
# GULP energy per Si atom -5583.143735 kJ/mol
# Density = 2.508219 g / cm^3
# Si number density = 25.139407 Si / 1000 Ang^3
#
#
#
# Elastic Constant Matrix: (Units=GPa)
#
#
# Indices 1 2 3 4 5 6 
#
# 1 135.0956 40.1023 43.7149 -1.7355 30.7052 33.1635
# 2 40.1023 153.5520 46.1974 -4.7921 4.0060 29.7080
# 3 43.7149 46.1974 163.4689 -6.6652 42.8432 37.2706
# 4 -1.7355 -4.7921 -6.6652 33.2966 7.6388 -0.3007
# 5 30.7052 4.0060 42.8432 7.6388 43.7033 0.3233
# 6 33.1635 29.7080 37.2706 -0.3007 0.3233 37.2724
#
#
#
# Elastic Compliance Matrix: (Units=1/GPa)
#
#
# Indices 1 2 3 4 5 6 
#
# 1 0.013237 -0.001342 0.003868 0.004263 -0.013608 -0.014424
# 2 -0.001342 0.007993 -0.001448 0.000392 0.001589 -0.003739
# 3 0.003868 -0.001448 0.013951 0.006610 -0.017298 -0.016035
# 4 0.004263 0.000392 0.006610 0.035114 -0.015572 -0.010297
# 5 -0.013608 0.001589 -0.017298 -0.015572 0.051772 0.027564
# 6 -0.014424 -0.003739 -0.016035 -0.010297 0.027564 0.058356
#
#
# Mechanical properties :
#
#
# Convention : Reuss Voigt Hill
#
# Bulk Modulus (GPa) = 26.78236 79.12730 52.95483
# Shear Modulus (GPa) = 26.21735 44.32793 35.27264
#
# Velocity S-wave (km/s) = 3.23287 4.20370 3.74984
# Velocity P-wave (km/s) = 4.96104 7.42329 6.31336
#
# Compressibility (1/GPa) = 0.03733801
#
# Stress axis : x y z
#
# Youngs Moduli (GPa) = 75.54431 125.11244 71.67812
#
# Poissons Ratio (x) = 0.16793 -0.27727
# Poissons Ratio (y) = 0.10140 0.10377
# Poissons Ratio (z) = -0.29222 0.18112
#
# Static dielectric constant tensor:
#      x y z
#    x 1.997300 -0.073800 -0.079210 
#    y -0.073800 2.035350 0.012620 
#    z -0.079210 0.012620 2.017900 
# 
# From -- ./inp_files/60168.got.cif
#   From: 2010.05.17/outbox.cif.g08.bks.cpg/sg2_31_cif.got.tgz:60168.got - 2010.06.03 11:33:40.
