data_PCOD9050226
_publ_section_title
;
Structure prediction by ZEFSAII (Michael W. Deem and Ramdas Pophale) SiO2 
 PCOD9050226
Probable space group: P -1
;
_chemical_formula_sum "Si O2"
_cell_formula_units_Z 16
_cell_length_a 11.797737
_cell_length_b 10.866392
_cell_length_c 8.452169
_cell_angle_alpha 105.249124
_cell_angle_beta 38.711387
_cell_angle_gamma 117.610098
_cell_volume 590.900407
_symmetry_space_group_name_H-M "P -1"
_symmetry_group_IT_number 2
_symmetry_cell_setting 'triclinic'
loop_
_space_group_symop_operation_xyz
x,y,z
-x,-y,-z
loop_
_atom_site_type_symbol
_atom_site_label
_atom_site_fract_x
_atom_site_fract_y
_atom_site_fract_z
Si Si1 0.275665 0.785582 0.499257
Si Si2 0.408179 0.988177 0.917597
Si Si3 0.588704 0.787728 0.552544
Si Si4 0.077870 0.283966 0.970126
Si Si5 0.817919 0.471463 0.807694
Si Si6 0.272095 0.535672 0.620792
Si Si7 0.919681 0.230350 0.634687
Si Si8 0.379411 0.345455 0.224049
O O1 0.227479 0.633637 0.577928
O O2 0.176620 0.798804 0.445201
O O3 0.147749 0.827262 0.781597
O O4 0.509503 0.867305 0.223852
O O5 0.505542 0.904827 0.676609
O O6 0.174538 0.900162 0.184657
O O7 0.500000 0.000000 0.000000
O O8 0.412950 0.641946 0.633309
O O9 0.632709 0.777806 0.686189
O O10 0.780733 0.792493 0.250632
O O11 0.155401 0.394635 0.070795
O O12 0.102972 0.396130 0.839440
O O13 0.838260 0.341219 0.830370
O O14 0.841277 0.708143 0.626336
O O15 0.602849 0.408500 0.931632
O O16 0.394423 0.469095 0.367568
O O17 0.000000 0.500000 0.500000
#
# Coordination Sequence:
#
# PCOD9050226 Si02
#       8
#     2   2   2   2   2   2   2   2
#     4  11  25  44  67 105 146 196 249 295 352 431
#     4  10  24  49  73  95 142 196 253 300 350 427
#     4  11  22  44  72  99 145 193 238 295 367 431
#     4  11  21  41  67 107 143 181 237 291 371 435
#     4  12  22  42  71 109 148 181 233 293 368 436
#     4  11  22  42  73 103 149 190 225 301 370 447
#     4  11  24  45  73 105 145 195 240 300 364 417
#     4  11  23  43  77 108 146 185 235 304 368 434
#
# _framework density 27.077321999999999
#
# number of rings (size 3 to 8) (size 9 to 14) (size 15 to 20)
#    0.000    1.000    5.000    1.875    0.000    4.500 
#    2.250    3.750    0.000    0.000    0.000    0.000 
#    0.000    0.000    0.000    0.000    0.000    0.000 
#
# Total GULP energy -89331.212205 kJ/mol
# GULP energy per Si atom -5583.200763 kJ/mol
# Density = 2.701569 g / cm^3
# Si number density = 27.077322 Si / 1000 Ang^3
#
#
#
# Elastic Constant Matrix: (Units=GPa)
#
#
# Indices 1 2 3 4 5 6 
#
# 1 120.5064 9.4362 50.8734 -4.9387 -13.8520 -4.9486
# 2 9.4362 62.1507 36.1622 -1.6225 -0.6549 -4.9159
# 3 50.8734 36.1622 241.0600 -27.0623 -19.5371 -5.0694
# 4 -4.9387 -1.6225 -27.0623 49.1177 3.1944 -0.2933
# 5 -13.8520 -0.6549 -19.5371 3.1944 39.4362 -3.2342
# 6 -4.9486 -4.9159 -5.0694 -0.2933 -3.2342 20.2827
#
#
#
# Elastic Compliance Matrix: (Units=1/GPa)
#
#
# Indices 1 2 3 4 5 6 
#
# 1 0.009430 -0.000236 -0.001710 -0.000161 0.002657 0.002237
# 2 -0.000236 0.017959 -0.002732 -0.000864 -0.000783 0.003475
# 3 -0.001710 -0.002732 0.005372 0.002580 0.001855 0.000596
# 4 -0.000161 -0.000864 0.002580 0.021773 -0.000505 0.000631
# 5 0.002657 -0.000783 0.001855 -0.000505 0.027675 0.005328
# 6 0.002237 0.003475 0.000596 0.000631 0.005328 0.051699
#
#
# Mechanical properties :
#
#
# Convention : Reuss Voigt Hill
#
# Bulk Modulus (GPa) = 42.72626 68.51784 55.62205
# Shear Modulus (GPa) = 33.09856 43.58369 38.34113
#
# Velocity S-wave (km/s) = 3.50004 4.01634 3.76704
# Velocity P-wave (km/s) = 5.66986 6.84598 6.28549
#
# Compressibility (1/GPa) = 0.02340481
#
# Stress axis : x y z
#
# Youngs Moduli (GPa) = 106.04955 55.68165 186.16273
#
# Poissons Ratio (x) = 0.01313 0.31840
# Poissons Ratio (y) = 0.02500 0.50855
# Poissons Ratio (z) = 0.18138 0.15211
#
# Static dielectric constant tensor:
#      x y z
#    x 2.211570 0.022900 -0.013220 
#    y 0.022900 2.287160 -0.119390 
#    z -0.013220 -0.119390 2.207960 
# 
# From -- ./inp_files/282878.got.cif
#   From: 2010.05.17/outbox.cif.g08.bks.cpg/sg2_142_cif.got.tgz:282878.got - 2010.06.03 11:33:40.
