data_PCOD9050078
_publ_section_title
;
Structure prediction by ZEFSAII (Michael W. Deem and Ramdas Pophale) SiO2 
 PCOD9050078
Probable space group: P -1
;
_chemical_formula_sum "Si O2"
_cell_formula_units_Z 15
_cell_length_a 15.550977
_cell_length_b 15.649907
_cell_length_c 9.465079
_cell_angle_alpha 47.570263
_cell_angle_beta 109.831367
_cell_angle_gamma 150.194763
_cell_volume 626.593961
_symmetry_space_group_name_H-M "P -1"
_symmetry_group_IT_number 2
_symmetry_cell_setting 'triclinic'
loop_
_space_group_symop_operation_xyz
x,y,z
-x,-y,-z
loop_
_atom_site_type_symbol
_atom_site_label
_atom_site_fract_x
_atom_site_fract_y
_atom_site_fract_z
Si Si1 0.241004 0.714083 0.371299
Si Si2 0.388227 0.073844 0.844275
Si Si3 0.818465 0.956134 0.118339
Si Si4 0.500000 0.000000 0.500000
Si Si5 0.129570 0.330435 0.629177
Si Si6 0.782655 0.165971 0.284814
Si Si7 0.670395 0.616132 0.666993
Si Si8 0.085257 0.945040 0.471501
O O1 0.363813 0.837214 0.452009
O O2 0.169598 0.514610 0.468389
O O3 0.000000 0.500000 0.500000
O O4 0.398913 0.984736 0.063009
O O5 0.178647 0.915039 0.948951
O O6 0.622012 0.422970 0.567044
O O7 0.357969 0.990194 0.765085
O O8 0.776279 0.817596 0.374359
O O9 0.598734 0.711203 0.160947
O O10 0.042003 0.186188 0.892794
O O11 0.346646 0.935432 0.537966
O O12 0.945294 0.084998 0.679948
O O13 0.858374 0.121603 0.390078
O O14 0.000000 0.500000 0.000000
O O15 0.833805 0.692475 0.677746
O O16 0.723961 0.749732 0.690488
#
# Coordination Sequence:
#
# PCOD9050078 Si02
#       8
#     2   2   2   1   2   2   2   2
#     4  12  25  47  73 110 152 195 245 306 376 453
#     4  12  24  47  71 105 153 190 239 305 378 446
#     4  11  24  47  75 103 143 197 251 304 376 447
#     4  12  28  44  72 112 146 198 246 298 362 456
#     4  12  25  44  72 106 143 196 243 305 376 443
#     4  12  27  46  75 107 148 194 245 307 377 453
#     4  10  24  48  75 104 149 195 251 313 368 442
#     4  11  24  46  73 111 145 194 249 309 378 441
#
# _framework density 23.938949999999998
#
# number of rings (size 3 to 8) (size 9 to 14) (size 15 to 20)
#    0.000    0.533    5.333    2.800    1.867    1.067 
#    0.000    1.333    0.000    0.000    0.000    0.000 
#    0.000    0.000    0.000    0.000    0.000    0.000 
#
# Total GULP energy -83669.523529 kJ/mol
# GULP energy per Si atom -5577.968235 kJ/mol
# Density = 2.388446 g / cm^3
# Si number density = 23.938950 Si / 1000 Ang^3
#
#
#
# Elastic Constant Matrix: (Units=GPa)
#
#
# Indices 1 2 3 4 5 6 
#
# 1 170.0644 38.2071 19.9598 12.5616 0.5511 -16.6714
# 2 38.2071 111.7587 2.5922 14.3080 -13.0616 -29.9097
# 3 19.9598 2.5922 60.5987 7.9727 -19.0651 -7.5046
# 4 12.5616 14.3080 7.9727 17.8033 -3.1073 -5.7426
# 5 0.5511 -13.0616 -19.0651 -3.1073 24.6048 3.9671
# 6 -16.6714 -29.9097 -7.5046 -5.7426 3.9671 51.3372
#
#
#
# Elastic Compliance Matrix: (Units=1/GPa)
#
#
# Indices 1 2 3 4 5 6 
#
# 1 0.007022 -0.002418 -0.003211 -0.002162 -0.004281 0.000491
# 2 -0.002418 0.013317 0.004781 -0.007609 0.008878 0.006135
# 3 -0.003211 0.004781 0.025333 -0.008368 0.020714 0.002909
# 4 -0.002162 -0.007609 -0.008368 0.067624 -0.002156 0.001373
# 5 -0.004281 0.008878 0.020714 -0.002156 0.060929 0.001861
# 6 0.000491 0.006135 0.002909 0.001373 0.001861 0.023648
#
#
# Mechanical properties :
#
#
# Convention : Reuss Voigt Hill
#
# Bulk Modulus (GPa) = 22.74001 51.54887 37.14444
# Shear Modulus (GPa) = 23.33950 37.52658 30.43304
#
# Velocity S-wave (km/s) = 3.12582 3.96358 3.56937
# Velocity P-wave (km/s) = 4.74842 6.52126 5.70414
#
# Compressibility (1/GPa) = 0.04397535
#
# Stress axis : x y z
#
# Youngs Moduli (GPa) = 142.40931 75.08935 39.47407
#
# Poissons Ratio (x) = 0.18159 0.12676
# Poissons Ratio (y) = 0.34440 -0.18872
# Poissons Ratio (z) = 0.45731 -0.35900
#
# Static dielectric constant tensor:
#      x y z
#    x 1.914760 0.177610 -0.127840 
#    y 0.177610 0.786850 0.845400 
#    z -0.127840 0.845400 1.224630 
# 
# From -- ./inp_files/314730.got.cif
#   From: 2010.05.17/outbox.cif.g08.bks.cpg/sg2_158_cif.got.tgz:314730.got - 2010.06.03 11:33:40.
