data_PCOD9050513
_publ_section_title
;
Structure prediction by ZEFSAII (Michael W. Deem and Ramdas Pophale) SiO2 
 PCOD9050513
Probable space group: P -1
;
_chemical_formula_sum "Si O2"
_cell_formula_units_Z 12
_cell_length_a 13.604110
_cell_length_b 9.918449
_cell_length_c 5.490485
_cell_angle_alpha 99.590981
_cell_angle_beta 56.577221
_cell_angle_gamma 128.277888
_cell_volume 467.843389
_symmetry_space_group_name_H-M "P -1"
_symmetry_group_IT_number 2
_symmetry_cell_setting 'triclinic'
loop_
_space_group_symop_operation_xyz
x,y,z
-x,-y,-z
loop_
_atom_site_type_symbol
_atom_site_label
_atom_site_fract_x
_atom_site_fract_y
_atom_site_fract_z
Si Si1 0.920849 0.072518 0.745113
Si Si2 0.833685 0.240991 0.524185
Si Si3 0.126442 0.410344 0.914901
Si Si4 0.368655 0.081590 0.660910
Si Si5 0.370761 0.699563 0.292059
Si Si6 0.576088 0.443890 0.207505
O O1 0.871821 0.151439 0.638568
O O2 0.965118 0.769032 0.173792
O O3 0.761993 0.917282 0.049266
O O4 0.000000 0.000000 0.500000
O O5 0.723019 0.280988 0.771690
O O6 0.730099 0.101457 0.405582
O O7 0.998074 0.400944 0.230941
O O8 0.239306 0.577023 0.635041
O O9 0.243709 0.423207 0.938561
O O10 0.479760 0.119726 0.740763
O O11 0.480331 0.240673 0.370979
O O12 0.424494 0.590190 0.089673
O O13 0.500000 0.500000 0.500000
#
# Coordination Sequence:
#
# PCOD9050513 Si02
#       6
#     2   2   2   2   2   2
#     4  11  26  42  69  97 139 184 227 272 337 401
#     4  11  24  45  70 103 139 177 224 282 341 399
#     4  10  25  42  68 102 133 178 228 280 331 410
#     4  10  25  42  68 102 133 178 228 280 331 410
#     4  11  24  45  70 103 139 177 224 282 341 399
#     4  11  26  42  69  97 139 184 227 272 337 401
#
# _framework density 25.649607
#
# number of rings (size 3 to 8) (size 9 to 14) (size 15 to 20)
#    0.000    1.333    0.000    3.000    9.333   13.333 
#    0.000    0.000    0.000    0.000    0.000    0.000 
#    0.000    0.000    0.000    0.000    0.000    0.000 
#
# Total GULP energy -67107.636387 kJ/mol
# GULP energy per Si atom -5592.303032 kJ/mol
# Density = 2.559123 g / cm^3
# Si number density = 25.649607 Si / 1000 Ang^3
#
#
#
# Elastic Constant Matrix: (Units=GPa)
#
#
# Indices 1 2 3 4 5 6 
#
# 1 40.5535 46.4194 14.4020 2.6070 -21.0815 25.8255
# 2 46.4194 94.2008 36.4263 5.6883 -23.1879 28.6528
# 3 14.4020 36.4263 144.8578 1.2459 -37.9445 -1.6711
# 4 2.6070 5.6883 1.2459 49.2495 -2.1501 -10.6141
# 5 -21.0815 -23.1879 -37.9445 -2.1501 47.8461 -4.3393
# 6 25.8255 28.6528 -1.6711 -10.6141 -4.3393 52.7800
#
#
#
# Elastic Compliance Matrix: (Units=1/GPa)
#
#
# Indices 1 2 3 4 5 6 
#
# 1 0.088010 -0.031359 0.005576 -0.005421 0.025505 -0.024856
# 2 -0.031359 0.026927 -0.004877 -0.001561 -0.004717 -0.000130
# 3 0.005576 -0.004877 0.009639 0.000580 0.007853 0.000987
# 4 -0.005421 -0.001561 0.000580 0.022429 -0.000956 0.007950
# 5 0.025505 -0.004717 0.007853 -0.000956 0.035406 -0.006952
# 6 -0.024856 -0.000130 0.000987 0.007950 -0.006952 0.032238
#
#
# Mechanical properties :
#
#
# Convention : Reuss Voigt Hill
#
# Bulk Modulus (GPa) = 15.80884 52.67861 34.24373
# Shear Modulus (GPa) = 16.83201 42.13275 29.48238
#
# Velocity S-wave (km/s) = 2.56448 4.05733 3.39400
# Velocity P-wave (km/s) = 3.86594 6.52163 5.36083
#
# Compressibility (1/GPa) = 0.06325573
#
# Stress axis : x y z
#
# Youngs Moduli (GPa) = 11.36241 37.13761 103.74826
#
# Poissons Ratio (x) = 1.16459 -0.57852
# Poissons Ratio (y) = 0.35631 0.50598
# Poissons Ratio (z) = -0.06336 0.18112
#
# Static dielectric constant tensor:
#      x y z
#    x 2.095000 -0.045830 0.055490 
#    y -0.045830 2.031530 0.085630 
#    z 0.055490 0.085630 2.047740 
# 
# From -- ./inp_files/63703.got.cif
#   From: 2010.05.17/outbox.cif.g08.bks.cpg/sg2_32_cif.got.tgz:63703.got - 2010.06.03 11:33:40.
