data_PCOD9050601
_publ_section_title
;
Structure prediction by ZEFSAII (Michael W. Deem and Ramdas Pophale) SiO2 
 PCOD9050601
Probable space group: P -1
;
_chemical_formula_sum "Si O2"
_cell_formula_units_Z 12
_cell_length_a 11.672885
_cell_length_b 11.827473
_cell_length_c 8.987020
_cell_angle_alpha 58.801314
_cell_angle_beta 97.890592
_cell_angle_gamma 144.174239
_cell_volume 512.690240
_symmetry_space_group_name_H-M "P -1"
_symmetry_group_IT_number 2
_symmetry_cell_setting 'triclinic'
loop_
_space_group_symop_operation_xyz
x,y,z
-x,-y,-z
loop_
_atom_site_type_symbol
_atom_site_label
_atom_site_fract_x
_atom_site_fract_y
_atom_site_fract_z
Si Si1 0.505071 0.990182 0.258391
Si Si2 0.835443 0.395076 0.279861
Si Si3 0.645380 0.968794 0.037934
Si Si4 0.872827 0.898128 0.703932
Si Si5 0.420607 0.584190 0.834386
Si Si6 0.701838 0.718064 0.263616
O O1 0.740270 0.212326 0.250649
O O2 0.278982 0.770551 0.475428
O O3 0.497017 0.112321 0.070477
O O4 0.500335 0.861252 0.234157
O O5 0.693222 0.388549 0.227482
O O6 0.110444 0.703325 0.129678
O O7 0.705191 0.874663 0.108498
O O8 0.705047 0.859056 0.702441
O O9 0.693637 0.599808 0.916394
O O10 0.000000 0.000000 0.500000
O O11 0.060495 0.085286 0.742378
O O12 0.349586 0.425687 0.786796
O O13 0.500000 0.500000 0.500000
#
# Coordination Sequence:
#
# PCOD9050601 Si02
#       6
#     2   2   2   2   2   2
#     4  10  25  43  66  96 121 175 221 264 315 382
#     4  11  23  44  69  92 130 165 221 267 321 378
#     4  11  24  44  66  91 135 168 215 267 321 379
#     4  11  24  42  62  96 133 169 214 258 325 392
#     4  11  25  41  67  99 131 169 211 267 333 387
#     4  12  24  42  67  99 136 171 211 266 331 391
#
# _framework density 23.405944999999999
#
# number of rings (size 3 to 8) (size 9 to 14) (size 15 to 20)
#    0.000    1.000    3.333    2.500    4.667    0.000 
#    0.000    6.667    0.000    0.000    0.000    0.000 
#    0.000    0.000    0.000    0.000    0.000    0.000 
#
# Total GULP energy -67208.094128 kJ/mol
# GULP energy per Si atom -5600.674511 kJ/mol
# Density = 2.335267 g / cm^3
# Si number density = 23.405945 Si / 1000 Ang^3
#
#
#
# Elastic Constant Matrix: (Units=GPa)
#
#
# Indices 1 2 3 4 5 6 
#
# 1 75.1021 17.5595 -1.1167 14.4208 -1.4615 11.3159
# 2 17.5595 98.2057 16.4790 15.3570 -3.3049 17.4275
# 3 -1.1167 16.4790 104.9024 17.4618 -19.9126 -5.5437
# 4 14.4208 15.3570 17.4618 40.1270 5.2586 -9.5788
# 5 -1.4615 -3.3049 -19.9126 5.2586 29.0197 -5.9100
# 6 11.3159 17.4275 -5.5437 -9.5788 -5.9100 36.4515
#
#
#
# Elastic Compliance Matrix: (Units=1/GPa)
#
#
# Indices 1 2 3 4 5 6 
#
# 1 0.015994 -0.000752 0.001675 -0.007915 0.002062 -0.006097
# 2 -0.000752 0.012833 -0.001481 -0.005815 -0.000101 -0.007672
# 3 0.001675 -0.001481 0.012963 -0.006534 0.010429 0.002133
# 4 -0.007915 -0.005815 -0.006534 0.037071 -0.009735 0.012407
# 5 0.002062 -0.000101 0.010429 -0.009735 0.044627 0.005672
# 6 -0.006097 -0.007672 0.002133 0.012407 0.005672 0.037498
#
#
# Mechanical properties :
#
#
# Convention : Reuss Voigt Hill
#
# Bulk Modulus (GPa) = 24.58487 38.22818 31.40653
# Shear Modulus (GPa) = 28.46401 37.47221 32.96811
#
# Velocity S-wave (km/s) = 3.49105 4.00555 3.75712
# Velocity P-wave (km/s) = 5.17459 6.14498 5.68054
#
# Compressibility (1/GPa) = 0.04067542
#
# Stress axis : x y z
#
# Youngs Moduli (GPa) = 62.52192 77.92482 77.14203
#
# Poissons Ratio (x) = 0.05860 -0.12922
# Poissons Ratio (y) = 0.04702 0.11421
# Poissons Ratio (z) = -0.10473 0.11537
#
# Static dielectric constant tensor:
#      x y z
#    x 1.855810 0.005840 -0.011120 
#    y 0.005840 1.901000 -0.020530 
#    z -0.011120 -0.020530 1.904210 
# 
# From -- ./inp_files/243783.got.cif
#   From: 2010.05.17/outbox.cif.g08.bks.cpg/sg2_122_cif.got.tgz:243783.got - 2010.06.03 11:33:40.
