data_PCOD9050289
_publ_section_title
;
Structure prediction by ZEFSAII (Michael W. Deem and Ramdas Pophale) SiO2 
 PCOD9050289
Probable space group: P -1
;
_chemical_formula_sum "Si O2"
_cell_formula_units_Z 12
_cell_length_a 12.297055
_cell_length_b 14.448398
_cell_length_c 5.167196
_cell_angle_alpha 53.718940
_cell_angle_beta 69.627880
_cell_angle_gamma 36.718561
_cell_volume 427.039216
_symmetry_space_group_name_H-M "P -1"
_symmetry_group_IT_number 2
_symmetry_cell_setting 'triclinic'
loop_
_space_group_symop_operation_xyz
x,y,z
-x,-y,-z
loop_
_atom_site_type_symbol
_atom_site_label
_atom_site_fract_x
_atom_site_fract_y
_atom_site_fract_z
Si Si1 0.627447 0.578332 0.428227
Si Si2 0.960864 0.356626 0.121112
Si Si3 0.824480 0.252351 0.132713
Si Si4 0.765096 0.152891 0.857332
Si Si5 0.302520 0.051410 0.660757
Si Si6 0.345784 0.242583 0.523085
O O1 0.819183 0.438235 0.340902
O O2 0.463756 0.662470 0.238699
O O3 0.582958 0.735672 0.334584
O O4 0.656021 0.467688 0.823498
O O5 0.970178 0.233495 0.148250
O O6 0.161988 0.226721 0.288684
O O7 0.849798 0.542220 0.752034
O O8 0.795273 0.186319 0.497719
O O9 0.856923 0.152993 0.012621
O O10 0.792877 0.995511 0.122426
O O11 0.315622 0.130167 0.756986
O O12 0.497156 0.875554 0.638677
#
# Coordination Sequence:
#
# PCOD9050289 Si02
#       6
#     2   2   2   2   2   2
#     4  11  23  45  74 107 145 194 245 300 363 431
#     4  11  24  47  73 110 144 191 246 302 363 430
#     4  11  25  44  75 105 152 194 242 296 367 437
#     4  12  24  44  73 108 147 199 238 297 367 439
#     4  11  25  47  74 106 148 192 243 304 364 436
#     4  10  24  50  72 105 145 194 245 300 368 432
#
# _framework density 28.100460999999999
#
# number of rings (size 3 to 8) (size 9 to 14) (size 15 to 20)
#    0.000    1.000    3.333    2.500    2.333    2.667 
#   15.000    0.000    0.000    0.000    0.000    0.000 
#    0.000    0.000    0.000    0.000    0.000    0.000 
#
# Total GULP energy -67342.141324 kJ/mol
# GULP energy per Si atom -5611.845110 kJ/mol
# Density = 2.803650 g / cm^3
# Si number density = 28.100461 Si / 1000 Ang^3
#
#
#
# Elastic Constant Matrix: (Units=GPa)
#
#
# Indices 1 2 3 4 5 6 
#
# 1 165.6641 62.1134 37.2512 6.1071 -27.9976 56.3234
# 2 62.1134 140.1284 47.3318 9.3583 -3.8032 34.4601
# 3 37.2512 47.3318 123.6343 -1.5192 -10.1646 13.3987
# 4 6.1071 9.3583 -1.5192 53.2924 5.0794 9.3276
# 5 -27.9976 -3.8032 -10.1646 5.0794 51.1276 -14.1551
# 6 56.3234 34.4601 13.3987 9.3276 -14.1551 64.6671
#
#
#
# Elastic Compliance Matrix: (Units=1/GPa)
#
#
# Indices 1 2 3 4 5 6 
#
# 1 0.009902 -0.002342 -0.001122 0.000064 0.003234 -0.006446
# 2 -0.002342 0.009884 -0.002926 -0.000867 -0.001846 -0.002900
# 3 -0.001122 -0.002926 0.009576 0.000675 0.001204 0.000719
# 4 0.000064 -0.000867 0.000675 0.019746 -0.002738 -0.003181
# 5 0.003234 -0.001846 0.001204 -0.002738 0.022607 0.003260
# 6 -0.006446 -0.002900 0.000719 -0.003181 0.003260 0.023647
#
#
# Mechanical properties :
#
#
# Convention : Reuss Voigt Hill
#
# Bulk Modulus (GPa) = 60.30608 80.31328 70.30968
# Shear Modulus (GPa) = 43.98733 52.66611 48.32672
#
# Velocity S-wave (km/s) = 3.96075 4.33391 4.15153
# Velocity P-wave (km/s) = 6.51339 7.32711 6.93220
#
# Compressibility (1/GPa) = 0.01658207
#
# Stress axis : x y z
#
# Youngs Moduli (GPa) = 100.98745 101.17615 104.42669
#
# Poissons Ratio (x) = 0.23693 0.11715
# Poissons Ratio (y) = 0.23649 0.30560
# Poissons Ratio (z) = 0.11329 0.29608
#
# Static dielectric constant tensor:
#      x y z
#    x 2.104800 -0.047890 -0.002610 
#    y -0.047890 2.222400 -0.039340 
#    z -0.002610 -0.039340 2.176500 
# 
# From -- ./inp_files/76951.got.cif
#   From: 2010.05.17/outbox.cif.g08.bks.cpg/sg2_39_cif.got.tgz:76951.got - 2010.06.03 11:33:40.
