data_PCOD9050931
_publ_section_title
;
Structure prediction by ZEFSAII (Michael W. Deem and Ramdas Pophale) SiO2 
 PCOD9050931
Probable space group: P -1
;
_chemical_formula_sum "Si O2"
_cell_formula_units_Z 13
_cell_length_a 5.237706
_cell_length_b 16.502251
_cell_length_c 12.326132
_cell_angle_alpha 143.818791
_cell_angle_beta 93.624155
_cell_angle_gamma 104.057193
_cell_volume 544.005473
_symmetry_space_group_name_H-M "P -1"
_symmetry_group_IT_number 2
_symmetry_cell_setting 'triclinic'
loop_
_space_group_symop_operation_xyz
x,y,z
-x,-y,-z
loop_
_atom_site_type_symbol
_atom_site_label
_atom_site_fract_x
_atom_site_fract_y
_atom_site_fract_z
Si Si1 0.286631 0.482219 0.377409
Si Si2 0.189264 0.977608 0.840708
Si Si3 0.500000 0.000000 0.500000
Si Si4 0.043459 0.349036 0.830932
Si Si5 0.507261 0.559900 0.233390
Si Si6 0.594909 0.897041 0.614184
Si Si7 0.234002 0.755051 0.771332
O O1 0.500000 0.500000 0.500000
O O2 0.453802 0.501578 0.291457
O O3 0.206753 0.620247 0.543078
O O4 0.980835 0.321867 0.215525
O O5 0.373393 0.939796 0.716031
O O6 0.143253 0.864589 0.819661
O O7 0.886880 0.951090 0.753729
O O8 0.429723 0.149859 0.076623
O O9 0.325543 0.016038 0.405443
O O10 0.777172 0.179641 0.672648
O O11 0.174633 0.357094 0.724270
O O12 0.308695 0.406295 0.987990
O O13 0.000000 0.500000 0.000000
O O14 0.447100 0.707526 0.390391
#
# Coordination Sequence:
#
# PCOD9050931 Si02
#       7
#     2   2   1   2   2   2   2
#     4  11  24  44  73 111 153 207 260 320 395 488
#     4  11  26  46  76 110 159 208 255 331 400 468
#     4  12  28  50  80 116 150 200 282 326 406 478
#     4  11  26  51  77 109 152 206 261 338 396 476
#     4  11  25  48  75 106 158 206 259 326 409 466
#     4  12  26  48  78 110 154 208 263 333 403 478
#     4  10  25  44  72 113 154 203 266 315 390 486
#
# _framework density 23.896816999999999
#
# number of rings (size 3 to 8) (size 9 to 14) (size 15 to 20)
#    0.000    0.923    3.077    1.846    4.308    6.154 
#    0.000    0.000    0.000    0.000    0.000    0.000 
#    0.000    0.000    0.000    0.000    0.000    0.000 
#
# Total GULP energy -72515.506393 kJ/mol
# GULP energy per Si atom -5578.115876 kJ/mol
# Density = 2.384243 g / cm^3
# Si number density = 23.896817 Si / 1000 Ang^3
#
#
#
# Elastic Constant Matrix: (Units=GPa)
#
#
# Indices 1 2 3 4 5 6 
#
# 1 96.5446 51.5870 54.4878 -4.0241 21.4573 9.3497
# 2 51.5870 188.0153 67.2462 0.7088 22.6049 27.9390
# 3 54.4878 67.2462 92.7748 17.1420 34.0559 21.6410
# 4 -4.0241 0.7088 17.1420 41.7629 9.1184 10.4562
# 5 21.4573 22.6049 34.0559 9.1184 51.0481 -6.5026
# 6 9.3497 27.9390 21.6410 10.4562 -6.5026 32.7299
#
#
#
# Elastic Compliance Matrix: (Units=1/GPa)
#
#
# Indices 1 2 3 4 5 6 
#
# 1 0.017024 -0.001065 -0.010162 0.005833 -0.000854 0.000731
# 2 -0.001065 0.007965 -0.003848 0.003036 -0.001725 -0.005264
# 3 -0.010162 -0.003848 0.029091 -0.006323 -0.014063 -0.013821
# 4 0.005833 0.003036 -0.006323 0.031356 -0.006632 -0.011412
# 5 -0.000854 -0.001725 -0.014063 -0.006632 0.033807 0.019851
# 6 0.000731 -0.005264 -0.013821 -0.011412 0.019851 0.051565
#
#
# Mechanical properties :
#
#
# Convention : Reuss Voigt Hill
#
# Bulk Modulus (GPa) = 41.78644 80.44186 61.11415
# Shear Modulus (GPa) = 23.93103 38.70909 31.32006
#
# Velocity S-wave (km/s) = 3.16797 4.02909 3.62420
# Velocity P-wave (km/s) = 5.55928 7.44178 6.56832
#
# Compressibility (1/GPa) = 0.02393121
#
# Stress axis : x y z
#
# Youngs Moduli (GPa) = 58.74160 125.54418 34.37536
#
# Poissons Ratio (x) = 0.13365 0.34931
# Poissons Ratio (y) = 0.06253 0.13228
# Poissons Ratio (z) = 0.59690 0.48312
#
# Static dielectric constant tensor:
#      x y z
#    x 2.008630 -0.039700 0.008180 
#    y -0.039700 1.889670 -0.035060 
#    z 0.008180 -0.035060 1.987440 
# 
# From -- ./inp_files/287292.got.cif
#   From: 2010.05.17/outbox.cif.g08.bks.cpg/sg2_144_cif.got.tgz:287292.got - 2010.06.03 11:33:40.
