data_PCOD9050768
_publ_section_title
;
Structure prediction by ZEFSAII (Michael W. Deem and Ramdas Pophale) SiO2 
 PCOD9050768
Probable space group: P -1
;
_chemical_formula_sum "Si O2"
_cell_formula_units_Z 12
_cell_length_a 5.241306
_cell_length_b 10.251523
_cell_length_c 16.065378
_cell_angle_alpha 146.501445
_cell_angle_beta 96.306659
_cell_angle_gamma 85.480321
_cell_volume 473.409813
_symmetry_space_group_name_H-M "P -1"
_symmetry_group_IT_number 2
_symmetry_cell_setting 'triclinic'
loop_
_space_group_symop_operation_xyz
x,y,z
-x,-y,-z
loop_
_atom_site_type_symbol
_atom_site_label
_atom_site_fract_x
_atom_site_fract_y
_atom_site_fract_z
Si Si1 0.743174 0.649039 0.556635
Si Si2 0.168573 0.061760 0.444134
Si Si3 0.693820 0.217392 0.108617
Si Si4 0.827363 0.723027 0.136424
Si Si5 0.981141 0.997961 0.137361
Si Si6 0.595114 0.676821 0.269734
O O1 0.500000 0.500000 0.500000
O O2 0.788606 0.885292 0.739186
O O3 0.000000 0.500000 0.500000
O O4 0.713274 0.744670 0.513171
O O5 0.368390 0.857874 0.360063
O O6 0.948872 0.935312 0.312562
O O7 0.159787 0.205429 0.607768
O O8 0.540278 0.442120 0.194901
O O9 0.850239 0.210714 0.196348
O O10 0.500000 0.000000 0.000000
O O11 0.897298 0.169726 0.016899
O O12 0.628822 0.622510 0.144292
O O13 0.792949 0.857754 0.119476
O O14 0.000000 0.500000 0.000000
#
# Coordination Sequence:
#
# PCOD9050768 Si02
#       6
#     2   2   2   2   2   2
#     4  11  26  47  74 108 150 195 246 309 371 447
#     4  10  26  43  70 106 135 195 239 297 373 437
#     4  11  25  43  71 102 144 191 243 308 370 443
#     4  11  23  44  68  99 140 183 240 303 368 437
#     4  10  25  44  66 106 135 192 250 299 372 439
#     4  11  24  46  69 100 143 188 243 304 364 445
#
# _framework density 25.348015
#
# number of rings (size 3 to 8) (size 9 to 14) (size 15 to 20)
#    0.000    1.333    1.667    1.500   11.667    2.000 
#    3.000    0.000    0.000    0.000    0.000    0.000 
#    0.000    0.000    0.000    0.000    0.000    0.000 
#
# Total GULP energy -67072.018855 kJ/mol
# GULP energy per Si atom -5589.334905 kJ/mol
# Density = 2.529032 g / cm^3
# Si number density = 25.348015 Si / 1000 Ang^3
#
#
#
# Elastic Constant Matrix: (Units=GPa)
#
#
# Indices 1 2 3 4 5 6 
#
# 1 59.9851 32.8039 4.6392 0.2419 -10.1156 -0.1018
# 2 32.8039 233.3496 56.2719 -1.1623 -25.0206 -3.2020
# 3 4.6392 56.2719 86.7970 -18.5324 -3.3412 1.9169
# 4 0.2419 -1.1623 -18.5324 62.0788 -6.7243 -4.7392
# 5 -10.1156 -25.0206 -3.3412 -6.7243 38.3689 2.1719
# 6 -0.1018 -3.2020 1.9169 -4.7392 2.1719 29.1044
#
#
#
# Elastic Compliance Matrix: (Units=1/GPa)
#
#
# Indices 1 2 3 4 5 6 
#
# 1 0.018522 -0.002436 0.000834 0.000474 0.003475 -0.000440
# 2 -0.002436 0.005808 -0.003683 -0.000648 0.002679 0.000568
# 3 0.000834 -0.003683 0.014789 0.004280 -0.000106 -0.000671
# 4 0.000474 -0.000648 0.004280 0.017884 0.003078 0.002331
# 5 0.003475 0.002679 -0.000106 0.003078 0.029334 -0.001374
# 6 -0.000440 0.000568 -0.000671 0.002331 -0.001374 0.034946
#
#
# Mechanical properties :
#
#
# Convention : Reuss Voigt Hill
#
# Bulk Modulus (GPa) = 35.02762 63.06240 49.04501
# Shear Modulus (GPa) = 35.36877 45.00485 40.18681
#
# Velocity S-wave (km/s) = 3.73946 4.21821 3.98603
# Velocity P-wave (km/s) = 5.70030 6.97546 6.36987
#
# Compressibility (1/GPa) = 0.02854890
#
# Stress axis : x y z
#
# Youngs Moduli (GPa) = 53.99039 172.18421 67.61894
#
# Poissons Ratio (x) = 0.41943 -0.05639
# Poissons Ratio (y) = 0.13152 0.24902
# Poissons Ratio (z) = -0.04503 0.63411
#
# Static dielectric constant tensor:
#      x y z
#    x 1.994300 0.037380 0.125360 
#    y 0.037380 2.035350 -0.017840 
#    z 0.125360 -0.017840 2.081930 
# 
# From -- ./inp_files/26260.got.cif
#   From: 2010.05.17/outbox.cif.g08.bks.cpg/sg2_14_cif.got.tgz:26260.got - 2010.06.03 11:33:40.
