data_PCOD9050308
_publ_section_title
;
Structure prediction by ZEFSAII (Michael W. Deem and Ramdas Pophale) SiO2 
 PCOD9050308
Probable space group: P -1
;
_chemical_formula_sum "Si O2"
_cell_formula_units_Z 10
_cell_length_a 8.841319
_cell_length_b 8.525526
_cell_length_c 7.784920
_cell_angle_alpha 62.850584
_cell_angle_beta 55.438961
_cell_angle_gamma 94.726152
_cell_volume 380.528440
_symmetry_space_group_name_H-M "P -1"
_symmetry_group_IT_number 2
_symmetry_cell_setting 'triclinic'
loop_
_space_group_symop_operation_xyz
x,y,z
-x,-y,-z
loop_
_atom_site_type_symbol
_atom_site_label
_atom_site_fract_x
_atom_site_fract_y
_atom_site_fract_z
Si Si1 0.585152 0.260387 0.229677
Si Si2 0.403507 0.736259 0.392051
Si Si3 0.861735 0.265872 0.738223
Si Si4 0.103444 0.041515 0.599274
Si Si5 0.772232 0.653959 0.108385
O O1 0.579286 0.181228 0.467781
O O2 0.347907 0.172666 0.370672
O O3 0.690993 0.500394 0.077500
O O4 0.719534 0.228119 0.014479
O O5 0.291180 0.807685 0.292424
O O6 0.622477 0.755066 0.179299
O O7 0.266874 0.497526 0.633770
O O8 0.000000 0.500000 0.500000
O O9 0.006661 0.161521 0.704380
O O10 0.000000 0.000000 0.500000
O O11 0.005920 0.820827 0.853206
#
# Coordination Sequence:
#
# PCOD9050308 Si02
#       5
#     2   2   2   2   2
#     4  10  24  50  75 100 148 191 234 293 361 423
#     4   9  22  47  75 102 146 190 238 291 356 431
#     4  12  26  46  77 109 141 189 243 295 356 423
#     4  12  26  45  77 108 142 190 240 295 358 423
#     4   9  21  47  74 100 145 191 235 288 360 422
#
# _framework density 26.279243999999998
#
# number of rings (size 3 to 8) (size 9 to 14) (size 15 to 20)
#    1.200    0.400    0.000    3.600    0.000    7.200 
#    0.000    6.000    0.000    0.000    0.000    0.000 
#    0.000    0.000    0.000    0.000    0.000    0.000 
#
# Total GULP energy -56106.954842 kJ/mol
# GULP energy per Si atom -5610.695484 kJ/mol
# Density = 2.621943 g / cm^3
# Si number density = 26.279244 Si / 1000 Ang^3
#
#
#
# Elastic Constant Matrix: (Units=GPa)
#
#
# Indices 1 2 3 4 5 6 
#
# 1 125.2286 52.0505 44.0052 18.3793 -15.3086 23.1067
# 2 52.0505 146.7942 76.6128 22.7928 -26.3670 14.0733
# 3 44.0052 76.6128 170.9190 5.6466 -26.4282 3.2729
# 4 18.3793 22.7928 5.6466 68.8183 -3.7945 5.2020
# 5 -15.3086 -26.3670 -26.4282 -3.7945 39.3168 7.7979
# 6 23.1067 14.0733 3.2729 5.2020 7.7979 47.3278
#
#
#
# Elastic Compliance Matrix: (Units=1/GPa)
#
#
# Indices 1 2 3 4 5 6 
#
# 1 0.010715 -0.001880 -0.001333 -0.001606 0.002826 -0.004869
# 2 -0.001880 0.010690 -0.003512 -0.002324 0.004344 -0.002479
# 3 -0.001333 -0.003512 0.008120 0.000948 0.002555 0.000608
# 4 -0.001606 -0.002324 0.000948 0.015677 0.000030 -0.000319
# 5 0.002826 0.004344 0.002555 0.000030 0.032806 -0.008257
# 6 -0.004869 -0.002479 0.000608 -0.000319 -0.008257 0.025597
#
#
# Mechanical properties :
#
#
# Convention : Reuss Voigt Hill
#
# Bulk Modulus (GPa) = 62.20428 87.58652 74.89540
# Shear Modulus (GPa) = 40.84528 49.11079 44.97804
#
# Velocity S-wave (km/s) = 3.94671 4.32766 4.14157
# Velocity P-wave (km/s) = 6.67013 7.64022 7.17160
#
# Compressibility (1/GPa) = 0.01607607
#
# Stress axis : x y z
#
# Youngs Moduli (GPa) = 93.33012 93.54171 123.15053
#
# Poissons Ratio (x) = 0.17585 0.16412
# Poissons Ratio (y) = 0.17545 0.43250
# Poissons Ratio (z) = 0.12438 0.32851
#
# Static dielectric constant tensor:
#      x y z
#    x 2.042900 -0.000810 0.030570 
#    y -0.000810 2.108390 -0.063600 
#    z 0.030570 -0.063600 2.040340 
# 
# From -- ./inp_files/145232.got.cif
#   From: 2010.05.17/outbox.cif.g08.bks.cpg/sg2_73_cif.got.tgz:145232.got - 2010.06.03 11:33:40.
