data_PCOD9050330
_publ_section_title
;
Structure prediction by ZEFSAII (Michael W. Deem and Ramdas Pophale) SiO2 
 PCOD9050330
Probable space group: P -1
;
_chemical_formula_sum "Si O2"
_cell_formula_units_Z 12
_cell_length_a 7.282557
_cell_length_b 8.996900
_cell_length_c 8.380698
_cell_angle_alpha 123.955766
_cell_angle_beta 96.525295
_cell_angle_gamma 76.132187
_cell_volume 442.051364
_symmetry_space_group_name_H-M "P -1"
_symmetry_group_IT_number 2
_symmetry_cell_setting 'triclinic'
loop_
_space_group_symop_operation_xyz
x,y,z
-x,-y,-z
loop_
_atom_site_type_symbol
_atom_site_label
_atom_site_fract_x
_atom_site_fract_y
_atom_site_fract_z
Si Si1 0.842286 0.899209 0.985205
Si Si2 0.680809 0.083529 0.772962
Si Si3 0.047346 0.490247 0.681659
Si Si4 0.832865 0.407261 0.856023
Si Si5 0.489464 0.420566 0.629240
Si Si6 0.692619 0.991575 0.373971
O O1 0.918946 0.684452 0.842928
O O2 0.689381 0.976534 0.877468
O O3 0.000000 0.000000 0.000000
O O4 0.726241 0.538525 0.304054
O O5 0.780189 0.255825 0.877180
O O6 0.762304 0.972515 0.553098
O O7 0.458888 0.136348 0.742143
O O8 0.951548 0.338653 0.666460
O O9 0.000000 0.500000 0.500000
O O10 0.626844 0.496755 0.813553
O O11 0.000000 0.500000 0.000000
O O12 0.500000 0.500000 0.500000
O O13 0.579163 0.204071 0.487170
O O14 0.192692 0.047098 0.801419
#
# Coordination Sequence:
#
# PCOD9050330 Si02
#       6
#     2   2   2   2   2   2
#     4  12  26  47  79 117 160 209 272 335 403 493
#     4  10  24  50  80 112 160 213 270 340 405 486
#     4  12  26  49  77 118 162 213 268 335 420 492
#     4  11  26  51  76 118 161 212 273 339 408 489
#     4  11  23  48  85 113 161 215 271 337 410 491
#     4  10  24  51  81 117 156 216 275 335 409 488
#
# _framework density 27.146166000000001
#
# number of rings (size 3 to 8) (size 9 to 14) (size 15 to 20)
#    0.000    1.000    1.667    3.500    2.333    1.333 
#   27.000    0.000    0.000    0.000    0.000    0.000 
#    0.000    0.000    0.000    0.000    0.000    0.000 
#
# Total GULP energy -67008.141975 kJ/mol
# GULP energy per Si atom -5584.011831 kJ/mol
# Density = 2.708438 g / cm^3
# Si number density = 27.146166 Si / 1000 Ang^3
#
#
#
# Elastic Constant Matrix: (Units=GPa)
#
#
# Indices 1 2 3 4 5 6 
#
# 1 162.5427 25.8935 44.6034 1.5992 15.6545 24.6464
# 2 25.8935 109.1049 23.8054 -22.8621 -5.9748 10.0200
# 3 44.6034 23.8054 146.0155 -23.1396 2.4241 -1.2314
# 4 1.5992 -22.8621 -23.1396 55.7638 5.2672 2.8651
# 5 15.6545 -5.9748 2.4241 5.2672 74.6627 -12.7638
# 6 24.6464 10.0200 -1.2314 2.8651 -12.7638 51.6164
#
#
#
# Elastic Compliance Matrix: (Units=1/GPa)
#
#
# Indices 1 2 3 4 5 6 
#
# 1 0.007874 -0.001387 -0.002392 -0.001364 -0.002278 -0.004035
# 2 -0.001387 0.010687 -0.000683 0.004157 0.000617 -0.001507
# 3 -0.002392 -0.000683 0.008190 0.003100 0.000192 0.001345
# 4 -0.001364 0.004157 0.003100 0.021160 -0.001242 -0.001563
# 5 -0.002278 0.000617 0.000192 -0.001242 0.014806 0.004703
# 6 -0.004035 -0.001507 0.001345 -0.001563 0.004703 0.022875
#
#
# Mechanical properties :
#
#
# Convention : Reuss Voigt Hill
#
# Bulk Modulus (GPa) = 56.09143 67.36308 61.72726
# Shear Modulus (GPa) = 49.77252 57.96597 53.86924
#
# Velocity S-wave (km/s) = 4.28659 4.62597 4.45951
# Velocity P-wave (km/s) = 6.72364 7.30764 7.02172
#
# Compressibility (1/GPa) = 0.01782803
#
# Stress axis : x y z
#
# Youngs Moduli (GPa) = 126.99821 93.57266 122.10203
#
# Poissons Ratio (x) = 0.12978 0.29202
# Poissons Ratio (y) = 0.17614 0.08337
# Poissons Ratio (z) = 0.30373 0.06389
#
# Static dielectric constant tensor:
#      x y z
#    x 2.197960 -0.074050 0.038170 
#    y -0.074050 2.581360 -0.150470 
#    z 0.038170 -0.150470 2.315560 
# 
# From -- ./inp_files/241594.got.cif
#   From: 2010.05.17/outbox.cif.g08.bks.cpg/sg2_121_cif.got.tgz:241594.got - 2010.06.03 11:33:40.
