data_PCOD9050522
_publ_section_title
;
Structure prediction by ZEFSAII (Michael W. Deem and Ramdas Pophale) SiO2 
 PCOD9050522
Probable space group: P -1
;
_chemical_formula_sum "Si O2"
_cell_formula_units_Z 16
_cell_length_a 11.584971
_cell_length_b 8.281043
_cell_length_c 10.799302
_cell_angle_alpha 118.368356
_cell_angle_beta 133.134225
_cell_angle_gamma 55.792170
_cell_volume 618.147747
_symmetry_space_group_name_H-M "P -1"
_symmetry_group_IT_number 2
_symmetry_cell_setting 'triclinic'
loop_
_space_group_symop_operation_xyz
x,y,z
-x,-y,-z
loop_
_atom_site_type_symbol
_atom_site_label
_atom_site_fract_x
_atom_site_fract_y
_atom_site_fract_z
Si Si1 0.611800 0.069419 0.012271
Si Si2 0.824488 0.651970 0.986850
Si Si3 0.957354 0.163371 0.133708
Si Si4 0.020681 0.447162 0.680839
Si Si5 0.363829 0.629035 0.179454
Si Si6 0.179204 0.819749 0.587400
Si Si7 0.746820 0.053698 0.569185
Si Si8 0.345612 0.309354 0.705746
O O1 0.731958 0.875334 0.952134
O O2 0.725391 0.150132 0.210742
O O3 0.500000 0.000000 0.000000
O O4 0.473635 0.227730 0.884857
O O5 0.877946 0.681249 0.176173
O O6 0.692683 0.540048 0.864167
O O7 0.000000 0.500000 0.000000
O O8 0.041490 0.327686 0.238314
O O9 0.325453 0.797985 0.316715
O O10 0.760101 0.289252 0.002058
O O11 0.157669 0.420459 0.663491
O O12 0.874094 0.369013 0.515707
O O13 0.555031 0.582602 0.261521
O O14 0.000000 0.000000 0.000000
O O15 0.948471 0.946186 0.713568
O O16 0.277787 0.832465 0.537797
O O17 0.000000 0.000000 0.500000
O O18 0.667941 0.884901 0.439285
#
# Coordination Sequence:
#
# PCOD9050522 Si02
#       8
#     2   2   2   2   2   2   2   2
#     4  12  24  48  71 105 144 190 237 294 368 421
#     4  11  23  43  72 102 142 184 245 293 352 433
#     4   9  23  45  69  98 137 181 238 288 355 424
#     4  11  23  44  67 106 139 185 244 295 352 429
#     4  10  25  42  69 102 137 187 233 297 362 418
#     4  12  22  42  75 104 137 184 241 299 347 424
#     4  11  22  45  68  99 142 183 234 296 360 423
#     4  12  25  44  69 101 150 186 235 297 363 432
#
# _framework density 25.883779000000001
#
# number of rings (size 3 to 8) (size 9 to 14) (size 15 to 20)
#    0.000    1.000    5.000    1.125    1.750    6.500 
#    2.250    1.875    0.000    0.000    0.000    0.000 
#    0.000    0.000    0.000    0.000    0.000    0.000 
#
# Total GULP energy -89614.801065 kJ/mol
# GULP energy per Si atom -5600.925067 kJ/mol
# Density = 2.582487 g / cm^3
# Si number density = 25.883779 Si / 1000 Ang^3
#
#
#
# Elastic Constant Matrix: (Units=GPa)
#
#
# Indices 1 2 3 4 5 6 
#
# 1 102.8133 37.9392 52.7523 4.5686 27.9660 3.9316
# 2 37.9392 122.3452 69.6384 17.8895 12.5510 -10.0096
# 3 52.7523 69.6384 211.0765 22.4318 16.8063 -0.8951
# 4 4.5686 17.8895 22.4318 63.2620 10.0312 2.7569
# 5 27.9660 12.5510 16.8063 10.0312 47.1659 0.4149
# 6 3.9316 -10.0096 -0.8951 2.7569 0.4149 22.0544
#
#
#
# Elastic Compliance Matrix: (Units=1/GPa)
#
#
# Indices 1 2 3 4 5 6 
#
# 1 0.013919 -0.002971 -0.002154 0.001894 -0.007062 -0.004021
# 2 -0.002971 0.011492 -0.002788 -0.002327 0.000140 0.005921
# 3 -0.002154 -0.002788 0.006327 -0.001286 0.000042 -0.000464
# 4 0.001894 -0.002327 -0.001286 0.017534 -0.003743 -0.003567
# 5 -0.007062 0.000140 0.000042 -0.003743 0.026121 0.001301
# 6 -0.004021 0.005921 -0.000464 -0.003567 0.001301 0.049149
#
#
# Mechanical properties :
#
#
# Convention : Reuss Voigt Hill
#
# Bulk Modulus (GPa) = 62.84900 84.09943 73.47421
# Shear Modulus (GPa) = 34.32371 44.89012 39.60691
#
# Velocity S-wave (km/s) = 3.64548 4.16901 3.91600
# Velocity P-wave (km/s) = 6.48485 7.46564 6.99246
#
# Compressibility (1/GPa) = 0.01591115
#
# Stress axis : x y z
#
# Youngs Moduli (GPa) = 71.84575 87.01710 158.05209
#
# Poissons Ratio (x) = 0.25857 0.34049
# Poissons Ratio (y) = 0.21349 0.44058
# Poissons Ratio (z) = 0.15478 0.24256
#
# Static dielectric constant tensor:
#      x y z
#    x 2.083640 0.018780 0.000990 
#    y 0.018780 2.108660 -0.052550 
#    z 0.000990 -0.052550 1.993360 
# 
# From -- ./inp_files/513613.got.cif
#   From: 2010.05.17/outbox.cif.g08.bks.cpg/sg2_257_cif.got.tgz:513613.got - 2010.06.03 11:33:40.
