data_PCOD9050973
_publ_section_title
;
Structure prediction by ZEFSAII (Michael W. Deem and Ramdas Pophale) SiO2 
 PCOD9050973
Probable space group: P -1
;
_chemical_formula_sum "Si O2"
_cell_formula_units_Z 12
_cell_length_a 8.831993
_cell_length_b 8.212004
_cell_length_c 16.027860
_cell_angle_alpha 109.988095
_cell_angle_beta 150.301858
_cell_angle_gamma 79.105206
_cell_volume 526.493456
_symmetry_space_group_name_H-M "P -1"
_symmetry_group_IT_number 2
_symmetry_cell_setting 'triclinic'
loop_
_space_group_symop_operation_xyz
x,y,z
-x,-y,-z
loop_
_atom_site_type_symbol
_atom_site_label
_atom_site_fract_x
_atom_site_fract_y
_atom_site_fract_z
Si Si1 0.382325 0.109697 0.890007
Si Si2 0.784425 0.179580 0.551914
Si Si3 0.348493 0.964618 0.170691
Si Si4 0.248982 0.553666 0.788178
Si Si5 0.363681 0.589108 0.193380
Si Si6 0.617397 0.643507 0.507250
O O1 0.547027 0.068703 0.877716
O O2 0.013811 0.067369 0.682693
O O3 0.501875 0.317828 0.010412
O O4 0.500000 0.000000 0.000000
O O5 0.520561 0.196815 0.495547
O O6 0.031866 0.366672 0.683213
O O7 0.598030 0.116273 0.366183
O O8 0.377729 0.789625 0.205445
O O9 0.000000 0.000000 0.000000
O O10 0.431594 0.505744 0.786450
O O11 0.984860 0.667729 0.671797
O O12 0.464324 0.579481 0.334880
O O13 0.000000 0.500000 0.000000
O O14 0.500000 0.500000 0.500000
#
# Coordination Sequence:
#
# PCOD9050973 Si02
#       6
#     2   2   2   2   2   2
#     4  12  28  46  77 112 150 192 250 313 374 440
#     4  11  25  51  78 104 152 194 252 310 377 443
#     4  12  30  49  73 111 156 197 250 310 373 443
#     4  11  25  48  79 106 148 195 253 299 380 442
#     4  12  28  46  76 107 155 199 250 304 374 445
#     4  10  25  44  77 107 143 190 251 305 367 440
#
# _framework density 22.792307000000001
#
# number of rings (size 3 to 8) (size 9 to 14) (size 15 to 20)
#    0.000    0.667    1.667    3.500   16.333    0.667 
#    0.000    0.000    0.000    0.000    0.000    0.000 
#    0.000    0.000    0.000    0.000    0.000    0.000 
#
# Total GULP energy -67078.994893 kJ/mol
# GULP energy per Si atom -5589.916241 kJ/mol
# Density = 2.274043 g / cm^3
# Si number density = 22.792307 Si / 1000 Ang^3
#
#
#
# Elastic Constant Matrix: (Units=GPa)
#
#
# Indices 1 2 3 4 5 6 
#
# 1 249.1083 108.5950 259.4342 -48.4612 88.5052 -184.1561
# 2 108.5950 122.7234 141.7153 -27.9594 43.7231 -79.2279
# 3 259.4342 141.7153 584.3257 -83.4402 199.6330 -327.0593
# 4 -48.4612 -27.9594 -83.4402 61.2042 -49.1383 65.0106
# 5 88.5052 43.7231 199.6330 -49.1383 172.3263 -189.5089
# 6 -184.1561 -79.2279 -327.0593 65.0106 -189.5089 314.8330
#
#
#
# Elastic Compliance Matrix: (Units=1/GPa)
#
#
# Indices 1 2 3 4 5 6 
#
# 1 0.011032 -0.005363 -0.001726 0.001410 0.004190 0.005542
# 2 -0.005363 0.014185 -0.001846 0.001502 -0.000746 -0.002244
# 3 -0.001726 -0.001846 0.005072 0.000672 -0.000913 0.003107
# 4 0.001410 0.001502 0.000672 0.022773 0.004523 -0.000079
# 5 0.004190 -0.000746 -0.000913 0.004523 0.019543 0.012145
# 6 0.005542 -0.002244 0.003107 -0.000079 0.012145 0.016407
#
#
# Mechanical properties :
#
#
# Convention : Reuss Voigt Hill
#
# Bulk Modulus (GPa) = 80.52009 219.51626 150.01818
# Shear Modulus (GPa) = 45.03689 139.43358 92.23523
#
# Velocity S-wave (km/s) = 4.45001 7.82998 6.36832
# Velocity P-wave (km/s) = 7.86180 13.35160 10.95612
#
# Compressibility (1/GPa) = 0.01241926
#
# Stress axis : x y z
#
# Youngs Moduli (GPa) = 90.64677 70.49897 197.15793
#
# Poissons Ratio (x) = 0.37808 0.34028
# Poissons Ratio (y) = 0.48613 0.36391
# Poissons Ratio (z) = 0.15645 0.13012
#
# Static dielectric constant tensor:
#      x y z
#    x 1.692750 -0.405740 0.022590 
#    y -0.405740 0.067050 -0.016510 
#    z 0.022590 -0.016510 1.922900 
# 
# From -- ./inp_files/152303.got.cif
#   From: 2010.05.17/outbox.cif.g08.bks.cpg/sg2_77_cif.got.tgz:152303.got - 2010.06.03 11:33:40.
