data_PCOD9050813
_publ_section_title
;
Structure prediction by ZEFSAII (Michael W. Deem and Ramdas Pophale) SiO2 
 PCOD9050813
Probable space group: P -1
;
_chemical_formula_sum "Si O2"
_cell_formula_units_Z 16
_cell_length_a 12.084407
_cell_length_b 8.699052
_cell_length_c 12.307328
_cell_angle_alpha 126.734717
_cell_angle_beta 128.568934
_cell_angle_gamma 85.823675
_cell_volume 711.669090
_symmetry_space_group_name_H-M "P -1"
_symmetry_group_IT_number 2
_symmetry_cell_setting 'triclinic'
loop_
_space_group_symop_operation_xyz
x,y,z
-x,-y,-z
loop_
_atom_site_type_symbol
_atom_site_label
_atom_site_fract_x
_atom_site_fract_y
_atom_site_fract_z
Si Si1 0.370216 0.972033 0.234257
Si Si2 0.963689 0.228290 0.472490
Si Si3 0.004270 0.774081 0.884214
Si Si4 0.479900 0.372466 0.320121
Si Si5 0.194319 0.490403 0.549068
Si Si6 0.994641 0.164726 0.712295
Si Si7 0.660074 0.996621 0.531613
Si Si8 0.791393 0.515721 0.844365
O O1 0.365019 0.086774 0.394975
O O2 0.432127 0.133398 0.237906
O O3 0.501561 0.895924 0.316269
O O4 0.183498 0.809561 0.027872
O O5 0.133450 0.392502 0.589167
O O6 0.981694 0.245135 0.619711
O O7 0.832965 0.299592 0.387887
O O8 0.918666 0.983515 0.308001
O O9 0.938979 0.689549 0.689162
O O10 0.879981 0.602161 0.820399
O O11 0.000000 0.000000 0.000000
O O12 0.500000 0.500000 0.500000
O O13 0.634078 0.456557 0.372219
O O14 0.338552 0.399061 0.187639
O O15 0.814890 0.002798 0.576409
O O16 0.079492 0.361635 0.931103
O O17 0.712498 0.255282 0.685701
#
# Coordination Sequence:
#
# PCOD9050813 Si02
#       8
#     2   2   2   2   2   2   2   2
#     4  11  23  36  58 106 131 164 191 260 357 374
#     4  10  25  44  68  86 123 189 221 254 300 378
#     4  12  21  36  68 102 131 157 211 269 329 384
#     4  12  22  40  65 100 133 161 202 272 343 376
#     4  11  24  44  69  93 130 169 223 258 312 391
#     4  11  23  43  66  91 127 174 225 257 310 383
#     4  11  24  38  63  98 140 161 203 272 339 380
#     4  12  23  38  66 102 129 165 207 274 332 381
#
# _framework density 22.482358999999999
#
# number of rings (size 3 to 8) (size 9 to 14) (size 15 to 20)
#    0.000    0.750    5.000    2.625    3.500    0.000 
#    0.000    1.250   11.000    0.000    0.000    0.000 
#    0.000    0.000    0.000    0.000    0.000    0.000 
#
# Total GULP energy -89508.139505 kJ/mol
# GULP energy per Si atom -5594.258719 kJ/mol
# Density = 2.243119 g / cm^3
# Si number density = 22.482359 Si / 1000 Ang^3
#
#
#
# Elastic Constant Matrix: (Units=GPa)
#
#
# Indices 1 2 3 4 5 6 
#
# 1 108.6148 -5.3275 16.5636 -7.1470 17.0120 4.0558
# 2 -5.3275 50.1912 -14.3099 0.7217 -6.3523 -5.5986
# 3 16.5636 -14.3099 51.1029 -10.1926 20.2710 -10.0671
# 4 -7.1470 0.7217 -10.1926 22.1464 -2.9820 0.6104
# 5 17.0120 -6.3523 20.2710 -2.9820 39.9990 -3.9831
# 6 4.0558 -5.5986 -10.0671 0.6104 -3.9831 41.5731
#
#
#
# Elastic Compliance Matrix: (Units=1/GPa)
#
#
# Indices 1 2 3 4 5 6 
#
# 1 0.010235 -0.000143 -0.001971 0.001992 -0.003413 -0.001851
# 2 -0.000143 0.022682 0.007737 0.002698 0.000435 0.004944
# 3 -0.001971 0.007737 0.030881 0.011506 -0.011989 0.007395
# 4 0.001992 0.002698 0.011506 0.050643 -0.002276 0.001994
# 5 -0.003413 0.000435 -0.011989 -0.002276 0.032491 0.000635
# 6 -0.001851 0.004944 0.007395 0.001994 0.000635 0.026723
#
#
# Mechanical properties :
#
#
# Convention : Reuss Voigt Hill
#
# Bulk Modulus (GPa) = 13.32514 22.64014 17.98264
# Shear Modulus (GPa) = 26.67757 34.94254 30.81005
#
# Velocity S-wave (km/s) = 3.44844 3.94664 3.70592
# Velocity P-wave (km/s) = 4.66856 5.55517 5.13105
#
# Compressibility (1/GPa) = 0.07504612
#
# Stress axis : x y z
#
# Youngs Moduli (GPa) = 97.70237 44.08693 32.38219
#
# Poissons Ratio (x) = 0.00629 0.06383
# Poissons Ratio (y) = 0.01393 -0.25055
# Poissons Ratio (z) = 0.19257 -0.34111
#
# Static dielectric constant tensor:
#      x y z
#    x 1.837010 -0.015650 0.013280 
#    y -0.015650 1.889840 0.008620 
#    z 0.013280 0.008620 1.833840 
# 
# From -- ./inp_files/270155.got.cif
#   From: 2010.05.17/outbox.cif.g08.bks.cpg/sg2_136_cif.got.tgz:270155.got - 2010.06.03 11:33:40.
