data_PCOD9050538
_publ_section_title
;
Structure prediction by ZEFSAII (Michael W. Deem and Ramdas Pophale) SiO2 
 PCOD9050538
Probable space group: P -1
;
_chemical_formula_sum "Si O2"
_cell_formula_units_Z 16
_cell_length_a 20.139437
_cell_length_b 11.938129
_cell_length_c 12.104375
_cell_angle_alpha 156.379885
_cell_angle_beta 147.206366
_cell_angle_gamma 29.981328
_cell_volume 566.405574
_symmetry_space_group_name_H-M "P -1"
_symmetry_group_IT_number 2
_symmetry_cell_setting 'triclinic'
loop_
_space_group_symop_operation_xyz
x,y,z
-x,-y,-z
loop_
_atom_site_type_symbol
_atom_site_label
_atom_site_fract_x
_atom_site_fract_y
_atom_site_fract_z
Si Si1 0.356748 0.012264 0.855097
Si Si2 0.169958 0.654624 0.210432
Si Si3 0.890349 0.359924 0.653501
Si Si4 0.320611 0.776383 0.247253
Si Si5 0.593583 0.760479 0.638670
Si Si6 0.845385 0.641526 0.613552
Si Si7 0.414633 0.351553 0.806196
Si Si8 0.953497 0.888947 0.723386
O O1 0.283297 0.784816 0.520247
O O2 0.244973 0.353798 0.967433
O O3 0.369728 0.066279 0.053991
O O4 0.500000 0.000000 0.000000
O O5 0.114728 0.536319 0.132248
O O6 0.043858 0.913668 0.202124
O O7 0.726139 0.461767 0.512994
O O8 0.904168 0.535934 0.722757
O O9 0.000000 0.000000 0.500000
O O10 0.464602 0.703377 0.439669
O O11 0.250182 0.012838 0.256967
O O12 0.207865 0.960357 0.346052
O O13 0.360299 0.452123 0.947711
O O14 0.523292 0.993281 0.648950
O O15 0.728686 0.525587 0.342455
O O16 0.956966 0.458641 0.509039
O O17 0.500000 0.500000 0.000000
O O18 0.000000 0.000000 0.000000
#
# Coordination Sequence:
#
# PCOD9050538 Si02
#       8
#     2   2   2   2   2   2   2   2
#     4  11  25  45  74 109 154 196 256 310 387 461
#     4  11  27  47  74 113 147 208 250 319 384 460
#     4  11  23  49  74 104 152 196 260 310 384 460
#     4  11  24  43  73 106 148 191 247 316 380 457
#     4  10  25  42  71 107 142 196 245 311 378 451
#     4  11  24  45  70 107 145 199 251 312 383 452
#     4  11  23  40  68 105 142 188 246 305 377 445
#     4  12  25  47  74 108 149 193 258 312 389 455
#
# _framework density 28.24831
#
# number of rings (size 3 to 8) (size 9 to 14) (size 15 to 20)
#    0.000    1.000    2.500    3.000    7.000    4.000 
#    0.000    2.500    0.000    0.000    0.000    0.000 
#    0.000    0.000    0.000    0.000    0.000    0.000 
#
# Total GULP energy -89169.086006 kJ/mol
# GULP energy per Si atom -5573.067875 kJ/mol
# Density = 2.818402 g / cm^3
# Si number density = 28.248310 Si / 1000 Ang^3
#
#
#
# Elastic Constant Matrix: (Units=GPa)
#
#
# Indices 1 2 3 4 5 6 
#
# 1 134.2215 37.5101 38.3874 -10.9671 -14.6369 -10.9938
# 2 37.5101 198.1411 39.2617 -10.1627 -19.1516 -22.4519
# 3 38.3874 39.2617 97.9058 -21.6134 0.9070 -5.4789
# 4 -10.9671 -10.1627 -21.6134 56.9906 -1.2149 -17.0032
# 5 -14.6369 -19.1516 0.9070 -1.2149 27.9438 -0.9327
# 6 -10.9938 -22.4519 -5.4789 -17.0032 -0.9327 64.5493
#
#
#
# Elastic Compliance Matrix: (Units=1/GPa)
#
#
# Indices 1 2 3 4 5 6 
#
# 1 0.009198 -0.000437 -0.003163 0.001037 0.004716 0.001487
# 2 -0.000437 0.006248 -0.002020 0.001029 0.004239 0.002260
# 3 -0.003163 -0.002020 0.013297 0.004294 -0.003254 0.000971
# 4 0.001037 0.001029 0.004294 0.021581 0.002268 0.006616
# 5 0.004716 0.004239 -0.003254 0.002268 0.041473 0.003198
# 6 0.001487 0.002260 0.000971 0.006616 0.003198 0.018403
#
#
# Mechanical properties :
#
#
# Convention : Reuss Voigt Hill
#
# Bulk Modulus (GPa) = 57.13228 73.39856 65.26542
# Shear Modulus (GPa) = 39.28568 50.90401 45.09484
#
# Velocity S-wave (km/s) = 3.73329 4.24963 3.99980
# Velocity P-wave (km/s) = 6.23315 7.07947 6.66975
#
# Compressibility (1/GPa) = 0.01750324
#
# Stress axis : x y z
#
# Youngs Moduli (GPa) = 108.72140 160.03854 75.20764
#
# Poissons Ratio (x) = 0.06994 0.23785
# Poissons Ratio (y) = 0.04752 0.15193
# Poissons Ratio (z) = 0.34384 0.32330
#
# Static dielectric constant tensor:
#      x y z
#    x 2.452720 0.018610 0.054710 
#    y 0.018610 2.334250 -0.105860 
#    z 0.054710 -0.105860 2.393630 
# 
# From -- ./inp_files/471262.got.cif
#   From: 2010.05.17/outbox.cif.g08.bks.cpg/sg2_236_cif.got.tgz:471262.got - 2010.06.03 11:33:40.
