data_PCOD9050005
_publ_section_title
;
Structure prediction by ZEFSAII (Michael W. Deem and Ramdas Pophale) SiO2 
 PCOD9050005
Probable space group: P -1
;
_chemical_formula_sum "Si O2"
_cell_formula_units_Z 14
_cell_length_a 8.246498
_cell_length_b 17.722042
_cell_length_c 8.969616
_cell_angle_alpha 120.242817
_cell_angle_beta 146.543514
_cell_angle_gamma 73.207117
_cell_volume 600.132246
_symmetry_space_group_name_H-M "P -1"
_symmetry_group_IT_number 2
_symmetry_cell_setting 'triclinic'
loop_
_space_group_symop_operation_xyz
x,y,z
-x,-y,-z
loop_
_atom_site_type_symbol
_atom_site_label
_atom_site_fract_x
_atom_site_fract_y
_atom_site_fract_z
Si Si1 0.471047 0.465326 0.775886
Si Si2 0.702672 0.146773 0.731956
Si Si3 0.000029 0.107806 0.220393
Si Si4 0.287438 0.352295 0.041104
Si Si5 0.555358 0.937455 0.844562
Si Si6 0.033739 0.640661 0.907341
Si Si7 0.687983 0.229076 0.309293
O O1 0.558384 0.554619 0.830243
O O2 0.132103 0.404725 0.415100
O O3 0.500000 0.500000 0.000000
O O4 0.715077 0.407062 0.890708
O O5 0.362105 0.127386 0.518362
O O6 0.680521 0.091040 0.504108
O O7 0.818878 0.252869 0.891053
O O8 0.903356 0.124305 0.995387
O O9 0.863333 0.173202 0.285187
O O10 0.845059 0.006335 0.057839
O O11 0.486494 0.280673 0.113737
O O12 0.238179 0.373001 0.195572
O O13 0.951861 0.303757 0.671041
O O14 0.529716 0.841503 0.811324
O O15 0.500000 0.000000 0.000000
#
# Coordination Sequence:
#
# PCOD9050005 Si02
#       7
#     2   2   2   2   2   2   2
#     4  12  28  47  74 107 143 182 236 297 354 422
#     4  12  25  45  73 106 145 186 239 288 354 418
#     4  11  26  44  72 104 148 185 237 293 354 410
#     4  12  25  47  74 101 144 181 240 283 361 414
#     4  10  24  48  72 106 143 189 240 289 352 417
#     4  12  26  47  73 105 145 188 234 287 355 426
#     4  11  25  44  72 106 139 188 232 297 342 425
#
# _framework density 23.328192999999999
#
# number of rings (size 3 to 8) (size 9 to 14) (size 15 to 20)
#    0.000    0.571    1.429    5.571    8.000    1.143 
#    0.000    6.429    0.000    0.000    0.000    0.000 
#    0.000    0.000    0.000    0.000    0.000    0.000 
#
# Total GULP energy -78427.479547 kJ/mol
# GULP energy per Si atom -5601.962825 kJ/mol
# Density = 2.327510 g / cm^3
# Si number density = 23.328193 Si / 1000 Ang^3
#
#
#
# Elastic Constant Matrix: (Units=GPa)
#
#
# Indices 1 2 3 4 5 6 
#
# 1 -460.0316 -221.4050 -317.9245 164.5810 -84.0686 -57.3524
# 2 -221.4050 -7.9006 -119.7769 82.5002 -24.8137 -27.0925
# 3 -317.9245 -119.7769 -100.4032 108.8444 -42.0674 -28.6826
# 4 164.5810 82.5002 108.8444 -5.8749 13.8958 33.7719
# 5 -84.0686 -24.8137 -42.0674 13.8958 28.3920 -6.6162
# 6 -57.3524 -27.0925 -28.6826 33.7719 -6.6162 22.2920
#
#
#
# Elastic Compliance Matrix: (Units=1/GPa)
#
#
# Indices 1 2 3 4 5 6 
#
# 1 0.006337 -0.004288 -0.003935 0.009362 0.002905 -0.007292
# 2 -0.004288 0.012010 -0.003134 -0.003184 -0.004588 0.002994
# 3 -0.003935 -0.003134 0.009913 0.001699 -0.001512 -0.004200
# 4 0.009362 -0.003184 0.001699 0.026171 0.011418 -0.013856
# 5 0.002905 -0.004588 -0.001512 0.011418 0.030017 -0.008438
# 6 -0.007292 0.002994 -0.004200 -0.013856 -0.008438 0.042821
#
#
# Mechanical properties :
#
#
# Convention : Reuss Voigt Hill
#
# Bulk Modulus (GPa) = 180.31009 -209.61647 -14.65319
# Shear Modulus (GPa) = 32.93129 15.01322 23.97226
#
# Velocity S-wave (km/s) = 3.76127 2.53961 3.20911
# Velocity P-wave (km/s) = 9.81445 9.02502 2.72695
#
# Compressibility (1/GPa) = 0.00554600
#
# Stress axis : x y z
#
# Youngs Moduli (GPa) = 157.80692 83.26116 100.87840
#
# Poissons Ratio (x) = 0.35703 0.39691
# Poissons Ratio (y) = 0.67669 0.31620
# Poissons Ratio (z) = 0.62089 0.26098
#
# Static dielectric constant tensor:
#      x y z
#    x 1.925970 -0.057460 -0.049070 
#    y -0.057460 1.855040 0.017470 
#    z -0.049070 0.017470 1.874160 
# 
# From -- ./inp_files/46944.got.cif
#   From: 2010.05.17/outbox.cif.g08.bks.cpg/sg2_24_cif.got.tgz:46944.got - 2010.06.03 11:33:40.
