data_PCOD9050281
_publ_section_title
;
Structure prediction by ZEFSAII (Michael W. Deem and Ramdas Pophale) SiO2 
 PCOD9050281
Probable space group: P -1
;
_chemical_formula_sum "Si O2"
_cell_formula_units_Z 12
_cell_length_a 8.722354
_cell_length_b 20.725810
_cell_length_c 23.919191
_cell_angle_alpha 10.891686
_cell_angle_beta 146.419837
_cell_angle_gamma 146.135418
_cell_volume 448.793571
_symmetry_space_group_name_H-M "P -1"
_symmetry_group_IT_number 2
_symmetry_cell_setting 'triclinic'
loop_
_space_group_symop_operation_xyz
x,y,z
-x,-y,-z
loop_
_atom_site_type_symbol
_atom_site_label
_atom_site_fract_x
_atom_site_fract_y
_atom_site_fract_z
Si Si1 0.066163 0.690557 0.451644
Si Si2 0.881978 0.189202 0.399418
Si Si3 0.572170 0.125746 0.182899
Si Si4 0.579516 0.158117 0.734394
Si Si5 0.730410 0.230301 0.930517
Si Si6 0.656937 0.189742 0.451943
O O1 0.126129 0.693240 0.533506
O O2 0.894774 0.343454 0.673756
O O3 0.354550 0.811552 0.406055
O O4 0.872187 0.999228 0.125870
O O5 0.802101 0.096002 0.519002
O O6 0.585826 0.103865 0.351955
O O7 0.114508 0.963189 0.639760
O O8 0.029817 0.576384 0.120398
O O9 0.493964 0.131811 0.088129
O O10 0.506417 0.477445 0.890947
O O11 0.480193 0.008083 0.891493
O O12 0.403846 0.463713 0.400748
#
# Coordination Sequence:
#
# PCOD9050281 Si02
#       6
#     2   2   2   2   2   2
#     4  12  25  43  71 110 140 191 239 293 361 426
#     4  10  24  50  70 106 142 189 240 299 358 420
#     4  11  25  45  70 109 142 186 239 297 356 427
#     4  11  27  45  75 104 151 188 237 298 355 427
#     4  11  24  48  73 106 143 195 239 293 356 427
#     4  11  25  47  75 101 145 190 240 295 358 431
#
# _framework density 26.738350000000001
#
# number of rings (size 3 to 8) (size 9 to 14) (size 15 to 20)
#    0.000    1.000    1.667    4.000    7.000    2.000 
#    6.000    0.000    0.000    0.000    0.000    0.000 
#    0.000    0.000    0.000    0.000    0.000    0.000 
#
# Total GULP energy -67331.190605 kJ/mol
# GULP energy per Si atom -5610.932550 kJ/mol
# Density = 2.667749 g / cm^3
# Si number density = 26.738350 Si / 1000 Ang^3
#
#
#
# Elastic Constant Matrix: (Units=GPa)
#
#
# Indices 1 2 3 4 5 6 
#
# 1 100.7092 19.7698 37.6782 14.1045 -7.0951 27.8527
# 2 19.7698 105.9610 16.9637 -20.2499 -6.1867 13.4431
# 3 37.6782 16.9637 130.4121 -5.1811 7.5235 8.1080
# 4 14.1045 -20.2499 -5.1811 30.3134 -0.2212 -9.9674
# 5 -7.0951 -6.1867 7.5235 -0.2212 41.3475 -5.9169
# 6 27.8527 13.4431 8.1080 -9.9674 -5.9169 50.0166
#
#
#
# Elastic Compliance Matrix: (Units=1/GPa)
#
#
# Indices 1 2 3 4 5 6 
#
# 1 0.017710 -0.004007 -0.004620 -0.015274 0.001641 -0.010886
# 2 -0.004007 0.012113 -0.000163 0.010341 0.001385 0.001227
# 3 -0.004620 -0.000163 0.009213 0.004154 -0.002230 0.001687
# 4 -0.015274 0.010341 0.004154 0.052872 0.000696 0.015671
# 5 0.001641 0.001385 -0.002230 0.000696 0.025401 0.002219
# 6 -0.010886 0.001227 0.001687 0.015671 0.002219 0.028838
#
#
# Mechanical properties :
#
#
# Convention : Reuss Voigt Hill
#
# Bulk Modulus (GPa) = 46.60880 53.98951 50.29916
# Shear Modulus (GPa) = 29.26056 41.84689 35.55372
#
# Velocity S-wave (km/s) = 3.31165 3.96036 3.65045
# Velocity P-wave (km/s) = 5.66498 6.41469 6.05146
#
# Compressibility (1/GPa) = 0.02145517
#
# Stress axis : x y z
#
# Youngs Moduli (GPa) = 56.46490 82.55814 108.54384
#
# Poissons Ratio (x) = 0.33078 0.50150
# Poissons Ratio (y) = 0.22624 0.01773
# Poissons Ratio (z) = 0.26088 0.01349
#
# Static dielectric constant tensor:
#      x y z
#    x 2.044510 -0.016850 0.045180 
#    y -0.016850 2.147770 0.014730 
#    z 0.045180 0.014730 2.109770 
# 
# From -- ./inp_files/37053.got.cif
#   From: 2010.05.17/outbox.cif.g08.bks.cpg/sg2_19_cif.got.tgz:37053.got - 2010.06.03 11:33:40.
