data_PCOD9050530
_publ_section_title
;
Structure prediction by ZEFSAII (Michael W. Deem and Ramdas Pophale) SiO2 
 PCOD9050530
Probable space group: P -1
;
_chemical_formula_sum "Si O2"
_cell_formula_units_Z 14
_cell_length_a 19.187773
_cell_length_b 5.133593
_cell_length_c 15.023845
_cell_angle_alpha 62.298139
_cell_angle_beta 32.101287
_cell_angle_gamma 56.916856
_cell_volume 658.927804
_symmetry_space_group_name_H-M "P -1"
_symmetry_group_IT_number 2
_symmetry_cell_setting 'triclinic'
loop_
_space_group_symop_operation_xyz
x,y,z
-x,-y,-z
loop_
_atom_site_type_symbol
_atom_site_label
_atom_site_fract_x
_atom_site_fract_y
_atom_site_fract_z
Si Si1 0.432910 0.867928 0.513040
Si Si2 0.899685 0.899511 0.193352
Si Si3 0.655809 0.148724 0.698671
Si Si4 0.928501 0.192024 0.306452
Si Si5 0.644852 0.222673 0.895838
Si Si6 0.066201 0.772939 0.382572
Si Si7 0.491987 0.155157 0.223768
O O1 0.500000 0.500000 0.500000
O O2 0.500000 0.000000 0.500000
O O3 0.263939 0.981601 0.677288
O O4 0.485540 0.979431 0.348002
O O5 0.944066 0.527098 0.218124
O O6 0.913993 0.044713 0.250634
O O7 0.000000 0.000000 0.000000
O O8 0.788172 0.229443 0.507648
O O9 0.668353 0.046645 0.804261
O O10 0.536878 0.485746 0.775691
O O11 0.624893 0.908310 0.702962
O O12 0.039446 0.958857 0.288701
O O13 0.771753 0.344268 0.755064
O O14 0.500000 0.500000 0.000000
O O15 0.624884 0.039799 0.034046
O O16 0.000000 0.500000 0.500000
O O17 0.000000 0.000000 0.500000
#
# Coordination Sequence:
#
# PCOD9050530 Si02
#       7
#     2   2   2   2   2   2   2
#     4  12  25  44  72 100 136 178 231 290 353 412
#     4  12  27  48  74 103 136 184 238 296 355 416
#     4  11  20  40  70  98 130 182 224 268 341 417
#     4  12  23  45  75  96 141 187 235 278 355 417
#     4  10  25  42  70 104 142 179 229 281 343 412
#     4  12  27  43  69 105 144 187 235 283 340 417
#     4  11  23  41  66 100 137 177 227 277 344 406
#
# _framework density 21.246635000000001
#
# number of rings (size 3 to 8) (size 9 to 14) (size 15 to 20)
#    0.000    0.571    4.286    3.429    4.000    4.571 
#    0.000    0.000    0.000    0.000    0.000    0.000 
#    0.000    0.000    0.000    0.000    0.000    0.000 
#
# Total GULP energy -78246.399131 kJ/mol
# GULP energy per Si atom -5589.028509 kJ/mol
# Density = 2.119828 g / cm^3
# Si number density = 21.246635 Si / 1000 Ang^3
#
#
#
# Elastic Constant Matrix: (Units=GPa)
#
#
# Indices 1 2 3 4 5 6 
#
# 1 187.2961 77.3845 84.7445 0.2762 14.2231 4.5280
# 2 77.3845 136.5293 47.4567 -16.9325 -7.3432 4.8647
# 3 84.7445 47.4567 158.6849 -18.2161 16.1802 -5.4682
# 4 0.2762 -16.9325 -18.2161 23.4610 0.7795 0.3973
# 5 14.2231 -7.3432 16.1802 0.7795 47.7611 -0.8677
# 6 4.5280 4.8647 -5.4682 0.3973 -0.8677 37.6131
#
#
#
# Elastic Compliance Matrix: (Units=1/GPa)
#
#
# Indices 1 2 3 4 5 6 
#
# 1 0.009400 -0.004773 -0.004197 -0.006728 -0.002022 -0.001100
# 2 -0.004773 0.011307 -0.000273 0.007918 0.003106 -0.000939
# 3 -0.004197 -0.000273 0.009770 0.007480 -0.002191 0.001831
# 4 -0.006728 0.007918 0.007480 0.054227 -0.000193 0.000296
# 5 -0.002022 0.003106 -0.002191 -0.000193 0.022763 0.000050
# 6 -0.001100 -0.000939 0.001831 0.000296 0.000050 0.027105
#
#
# Mechanical properties :
#
#
# Convention : Reuss Voigt Hill
#
# Bulk Modulus (GPa) = 83.38947 100.18687 91.78817
# Shear Modulus (GPa) = 31.83614 39.96204 35.89909
#
# Velocity S-wave (km/s) = 3.87513 4.34160 4.11498
# Velocity P-wave (km/s) = 7.70426 8.50819 8.11618
#
# Compressibility (1/GPa) = 0.01199192
#
# Stress axis : x y z
#
# Youngs Moduli (GPa) = 106.38088 88.43958 102.35738
#
# Poissons Ratio (x) = 0.42214 0.42957
# Poissons Ratio (y) = 0.50778 0.02790
# Poissons Ratio (z) = 0.44645 0.02411
#
# Static dielectric constant tensor:
#      x y z
#    x 2.000650 -0.428250 -0.146010 
#    y -0.428250 2.476510 0.246380 
#    z -0.146010 0.246380 1.887230 
# 
# From -- ./inp_files/536144.got.cif
#   From: 2010.05.17/outbox.cif.g08.bks.cpg/sg2_269_cif.got.tgz:536144.got - 2010.06.03 11:33:40.
