data_PCOD9050199
_publ_section_title
;
Structure prediction by ZEFSAII (Michael W. Deem and Ramdas Pophale) SiO2 
 PCOD9050199
Probable space group: P -1
;
_chemical_formula_sum "Si O2"
_cell_formula_units_Z 14
_cell_length_a 10.329176
_cell_length_b 11.825232
_cell_length_c 11.210912
_cell_angle_alpha 58.666056
_cell_angle_beta 36.361674
_cell_angle_gamma 83.998305
_cell_volume 543.826015
_symmetry_space_group_name_H-M "P -1"
_symmetry_group_IT_number 2
_symmetry_cell_setting 'triclinic'
loop_
_space_group_symop_operation_xyz
x,y,z
-x,-y,-z
loop_
_atom_site_type_symbol
_atom_site_label
_atom_site_fract_x
_atom_site_fract_y
_atom_site_fract_z
Si Si1 0.445010 0.693528 0.477362
Si Si2 0.844235 0.919693 0.862938
Si Si3 0.308215 0.726891 0.054418
Si Si4 0.662695 0.075049 0.461360
Si Si5 0.815224 0.179580 0.677975
Si Si6 0.323499 0.324412 0.077280
Si Si7 0.746186 0.579896 0.419202
O O1 0.311784 0.761527 0.613210
O O2 0.687144 0.711536 0.362807
O O3 0.282541 0.513160 0.632477
O O4 0.570365 0.814146 0.203254
O O5 0.782229 0.849875 0.813529
O O6 0.042179 0.883693 0.789446
O O7 0.964857 0.111126 0.669982
O O8 0.205307 0.709725 0.275747
O O9 0.040550 0.646365 0.215715
O O10 0.475029 0.651123 0.979213
O O11 0.507064 0.923791 0.758225
O O12 0.500000 0.000000 0.500000
O O13 0.036359 0.288470 0.348632
O O14 0.500000 0.000000 0.000000
O O15 0.507478 0.459118 0.762216
#
# Coordination Sequence:
#
# PCOD9050199 Si02
#       7
#     2   2   2   2   2   2   2
#     4  10  24  49  70  99 142 191 238 285 347 416
#     4  11  22  42  69 105 137 175 236 293 352 405
#     4  12  24  43  70 108 141 179 233 295 356 408
#     4  12  26  42  74 108 134 182 240 300 346 407
#     4  12  23  40  72 107 137 181 227 300 356 401
#     4  11  24  43  68 105 144 180 237 278 357 432
#     4  10  25  47  71  99 151 195 226 282 351 432
#
# _framework density 25.743528999999999
#
# number of rings (size 3 to 8) (size 9 to 14) (size 15 to 20)
#    0.000    0.857    4.286    2.571    2.000    1.714 
#    0.000   17.143    0.000    0.000    0.000    0.000 
#    0.000    0.000    0.000    0.000    0.000    0.000 
#
# Total GULP energy -78281.103204 kJ/mol
# GULP energy per Si atom -5591.507372 kJ/mol
# Density = 2.568494 g / cm^3
# Si number density = 25.743529 Si / 1000 Ang^3
#
#
#
# Elastic Constant Matrix: (Units=GPa)
#
#
# Indices 1 2 3 4 5 6 
#
# 1 114.3848 15.8803 22.0851 4.6424 -20.9256 -6.4837
# 2 15.8803 72.1611 21.9204 19.5397 -10.4852 -18.1212
# 3 22.0851 21.9204 134.8583 18.3150 -1.2953 -0.8291
# 4 4.6424 19.5397 18.3150 30.3800 -8.6499 3.5945
# 5 -20.9256 -10.4852 -1.2953 -8.6499 50.9330 -6.1712
# 6 -6.4837 -18.1212 -0.8291 3.5945 -6.1712 39.2743
#
#
#
# Elastic Compliance Matrix: (Units=1/GPa)
#
#
# Indices 1 2 3 4 5 6 
#
# 1 0.010017 -0.000942 -0.001576 0.001033 0.004270 0.001762
# 2 -0.000942 0.021387 -0.001428 -0.013210 0.003115 0.011380
# 3 -0.001576 -0.001428 0.008473 -0.004315 -0.001530 -0.000586
# 4 0.001033 -0.013210 -0.004315 0.046208 0.004283 -0.009572
# 5 0.004270 0.003115 -0.001530 0.004283 0.023371 0.005390
# 6 0.001762 0.011380 -0.000586 -0.009572 0.005390 0.032714
#
#
# Mechanical properties :
#
#
# Convention : Reuss Voigt Hill
#
# Bulk Modulus (GPa) = 31.26541 49.01953 40.14247
# Shear Modulus (GPa) = 31.10940 41.55202 36.33071
#
# Velocity S-wave (km/s) = 3.48003 4.02192 3.76074
# Velocity P-wave (km/s) = 5.32154 6.37578 5.87237
#
# Compressibility (1/GPa) = 0.03198423
#
# Stress axis : x y z
#
# Youngs Moduli (GPa) = 99.83438 46.75842 118.02100
#
# Poissons Ratio (x) = 0.04407 0.18595
# Poissons Ratio (y) = 0.09409 0.16853
# Poissons Ratio (z) = 0.15730 0.06677
#
# Static dielectric constant tensor:
#      x y z
#    x 2.050170 0.017930 -0.049720 
#    y 0.017930 2.011060 -0.012570 
#    z -0.049720 -0.012570 2.092600 
# 
# From -- ./inp_files/427953.got.cif
#   From: 2010.05.17/outbox.cif.g08.bks.cpg/sg2_214_cif.got.tgz:427953.got - 2010.06.03 11:33:40.
