data_PCOD9050049
_publ_section_title
;
Structure prediction by ZEFSAII (Michael W. Deem and Ramdas Pophale) SiO2 
 PCOD9050049
Probable space group: P -1
;
_chemical_formula_sum "Si O2"
_cell_formula_units_Z 14
_cell_length_a 7.545966
_cell_length_b 14.969586
_cell_length_c 5.833518
_cell_angle_alpha 61.607121
_cell_angle_beta 65.336926
_cell_angle_gamma 68.379092
_cell_volume 514.752411
_symmetry_space_group_name_H-M "P -1"
_symmetry_group_IT_number 2
_symmetry_cell_setting 'triclinic'
loop_
_space_group_symop_operation_xyz
x,y,z
-x,-y,-z
loop_
_atom_site_type_symbol
_atom_site_label
_atom_site_fract_x
_atom_site_fract_y
_atom_site_fract_z
Si Si1 0.816271 0.446970 0.905394
Si Si2 0.802528 0.231334 0.921539
Si Si3 0.136986 0.055351 0.187447
Si Si4 0.686473 0.687156 0.598233
Si Si5 0.462602 0.926679 0.816545
Si Si6 0.762972 0.662783 0.099360
Si Si7 0.359089 0.668421 0.514037
O O1 0.709624 0.426809 0.221538
O O2 0.726414 0.560642 0.723695
O O3 0.792621 0.347745 0.885166
O O4 0.048450 0.430946 0.856989
O O5 0.817190 0.254162 0.612886
O O6 0.974329 0.143957 0.044723
O O7 0.612947 0.175265 0.090546
O O8 0.316588 0.096653 0.164651
O O9 0.000000 0.000000 0.500000
O O10 0.279773 0.982106 0.013481
O O11 0.779873 0.718207 0.272750
O O12 0.455375 0.724233 0.599219
O O13 0.766726 0.704598 0.785255
O O14 0.500000 0.000000 0.500000
O O15 0.544159 0.638202 0.277856
#
# Coordination Sequence:
#
# PCOD9050049 Si02
#       7
#     2   2   2   2   2   2   2
#     4  12  26  44  72 109 152 202 255 321 375 452
#     4  12  28  46  74 119 149 196 257 318 388 455
#     4  11  26  50  79 112 146 199 250 314 396 478
#     4  10  24  48  74 102 155 211 262 308 385 442
#     4  11  26  51  81 106 150 198 253 314 390 483
#     4  10  25  47  71 105 148 211 264 314 374 450
#     4  10  27  43  72 104 157 192 261 312 380 444
#
# _framework density 27.197538000000002
#
# number of rings (size 3 to 8) (size 9 to 14) (size 15 to 20)
#    0.857    0.286    1.429    2.571    8.000    1.143 
#    0.000    0.000    0.000    0.000    0.000    0.000 
#    0.000    0.000    0.000    0.000    0.000    0.000 
#
# Total GULP energy -78064.475713 kJ/mol
# GULP energy per Si atom -5576.033980 kJ/mol
# Density = 2.713563 g / cm^3
# Si number density = 27.197538 Si / 1000 Ang^3
#
#
#
# Elastic Constant Matrix: (Units=GPa)
#
#
# Indices 1 2 3 4 5 6 
#
# 1 168.9909 83.8568 92.7665 -12.8248 -6.5542 -4.0013
# 2 83.8568 139.9833 75.7175 -18.8994 14.5373 9.1864
# 3 92.7665 75.7175 218.2754 -14.3308 17.3200 -4.8517
# 4 -12.8248 -18.8994 -14.3308 46.9373 -13.8224 16.6433
# 5 -6.5542 14.5373 17.3200 -13.8224 71.0856 0.3003
# 6 -4.0013 9.1864 -4.8517 16.6433 0.3003 54.2056
#
#
#
# Elastic Compliance Matrix: (Units=1/GPa)
#
#
# Indices 1 2 3 4 5 6 
#
# 1 0.009944 -0.004792 -0.002725 0.000302 0.002614 0.001195
# 2 -0.004792 0.011908 -0.001795 0.003739 -0.001697 -0.003671
# 3 -0.002725 -0.001795 0.006485 -0.000198 -0.001506 0.000753
# 4 0.000302 0.003739 -0.000198 0.027431 0.004683 -0.009077
# 5 0.002614 -0.001697 -0.001506 0.004683 0.015938 -0.001181
# 6 0.001195 -0.003671 0.000753 -0.009077 -0.001181 0.022020
#
#
# Mechanical properties :
#
#
# Convention : Reuss Voigt Hill
#
# Bulk Modulus (GPa) = 102.96519 114.65903 108.81211
# Shear Modulus (GPa) = 43.25731 52.77296 48.01513
#
# Velocity S-wave (km/s) = 3.99242 4.40973 4.20625
# Velocity P-wave (km/s) = 7.69370 8.25694 7.98029
#
# Compressibility (1/GPa) = 0.00971202
#
# Stress axis : x y z
#
# Youngs Moduli (GPa) = 100.56507 83.98025 154.19108
#
# Poissons Ratio (x) = 0.40245 0.42014
# Poissons Ratio (y) = 0.48193 0.27684
# Poissons Ratio (z) = 0.27402 0.15078
#
# Static dielectric constant tensor:
#      x y z
#    x 2.234790 -0.067910 0.010840 
#    y -0.067910 2.253680 0.207010 
#    z 0.010840 0.207010 2.299600 
# 
# From -- ./inp_files/50964.got.cif
#   From: 2010.05.17/outbox.cif.g08.bks.cpg/sg2_26_cif.got.tgz:50964.got - 2010.06.03 11:33:40.
