data_PCOD9050847
_publ_section_title
;
Structure prediction by ZEFSAII (Michael W. Deem and Ramdas Pophale) SiO2 
 PCOD9050847
Probable space group: P -1
;
_chemical_formula_sum "Si O2"
_cell_formula_units_Z 14
_cell_length_a 8.216782
_cell_length_b 13.504839
_cell_length_c 11.885226
_cell_angle_alpha 32.391262
_cell_angle_beta 60.336247
_cell_angle_gamma 55.094537
_cell_volume 579.201299
_symmetry_space_group_name_H-M "P -1"
_symmetry_group_IT_number 2
_symmetry_cell_setting 'triclinic'
loop_
_space_group_symop_operation_xyz
x,y,z
-x,-y,-z
loop_
_atom_site_type_symbol
_atom_site_label
_atom_site_fract_x
_atom_site_fract_y
_atom_site_fract_z
Si Si1 0.630907 0.501131 0.802047
Si Si2 0.755442 0.229032 0.211318
Si Si3 0.964518 0.712579 0.756429
Si Si4 0.002928 0.861469 0.369147
Si Si5 0.275460 0.125884 0.986116
Si Si6 0.433515 0.179211 0.107480
Si Si7 0.217908 0.235106 0.656172
O O1 0.460434 0.677948 0.750911
O O2 0.722631 0.589437 0.586311
O O3 0.776331 0.389448 0.959796
O O4 0.530113 0.344899 0.943124
O O5 0.912177 0.196265 0.289255
O O6 0.802203 0.032828 0.312359
O O7 0.041740 0.715183 0.601103
O O8 0.728474 0.822854 0.741704
O O9 0.000000 0.500000 0.000000
O O10 0.964510 0.780812 0.340236
O O11 0.161285 0.973339 0.197957
O O12 0.301347 0.234259 0.986125
O O13 0.183659 0.247514 0.789374
O O14 0.500000 0.000000 0.000000
O O15 0.600334 0.968847 0.232195
#
# Coordination Sequence:
#
# PCOD9050847 Si02
#       7
#     2   2   2   2   2   2   2
#     4  11  24  42  68 103 139 171 215 274 333 402
#     4  11  23  40  65 101 141 163 217 269 337 403
#     4  12  24  38  66 105 135 169 215 277 341 398
#     4  12  24  43  71  95 136 180 216 277 335 390
#     4  10  25  44  69  94 128 179 234 271 323 387
#     4  11  23  43  68  99 137 171 219 276 333 391
#     4  11  25  45  68  95 134 185 223 266 326 394
#
# _framework density 24.171215
#
# number of rings (size 3 to 8) (size 9 to 14) (size 15 to 20)
#    0.000    0.857    4.286    2.571    6.000    1.714 
#    0.000    2.143    0.000    0.000    0.000    0.000 
#    0.000    0.000    0.000    0.000    0.000    0.000 
#
# Total GULP energy -78397.748690 kJ/mol
# GULP energy per Si atom -5599.839192 kJ/mol
# Density = 2.411620 g / cm^3
# Si number density = 24.171215 Si / 1000 Ang^3
#
#
#
# Elastic Constant Matrix: (Units=GPa)
#
#
# Indices 1 2 3 4 5 6 
#
# 1 128.9765 24.6012 55.4125 8.4091 9.1972 36.4065
# 2 24.6012 57.5021 32.1233 8.2313 5.9360 -1.6369
# 3 55.4125 32.1233 160.1016 24.9220 20.0037 13.3540
# 4 8.4091 8.2313 24.9220 33.5303 2.9033 11.9084
# 5 9.1972 5.9360 20.0037 2.9033 28.8735 6.0180
# 6 36.4065 -1.6369 13.3540 11.9084 6.0180 40.0799
#
#
#
# Elastic Compliance Matrix: (Units=1/GPa)
#
#
# Indices 1 2 3 4 5 6 
#
# 1 0.013444 -0.005007 -0.003511 0.004936 0.001376 -0.012919
# 2 -0.005007 0.022015 -0.002241 -0.005140 -0.002550 0.008104
# 3 -0.003511 -0.002241 0.009211 -0.005890 -0.004729 0.002489
# 4 0.004936 -0.005140 -0.005890 0.039247 0.002703 -0.014798
# 5 0.001376 -0.002550 -0.004729 0.002703 0.039068 -0.006447
# 6 -0.012919 0.008104 0.002489 -0.014798 -0.006447 0.041552
#
#
# Mechanical properties :
#
#
# Convention : Reuss Voigt Hill
#
# Bulk Modulus (GPa) = 43.19470 63.42823 53.31146
# Shear Modulus (GPa) = 25.80356 36.12628 30.96492
#
# Velocity S-wave (km/s) = 3.27086 3.87020 3.58308
# Velocity P-wave (km/s) = 5.67219 6.80216 6.26272
#
# Compressibility (1/GPa) = 0.02315099
#
# Stress axis : x y z
#
# Youngs Moduli (GPa) = 74.38456 45.42450 108.56491
#
# Poissons Ratio (x) = 0.22742 0.38119
# Poissons Ratio (y) = 0.37241 0.24334
# Poissons Ratio (z) = 0.26118 0.10181
#
# Static dielectric constant tensor:
#      x y z
#    x 1.967310 0.013020 0.051920 
#    y 0.013020 1.932200 -0.007740 
#    z 0.051920 -0.007740 1.929130 
# 
# From -- ./inp_files/269855.got.cif
#   From: 2010.05.17/outbox.cif.g08.bks.cpg/sg2_135_cif.got.tgz:269855.got - 2010.06.03 11:33:40.
