data_PCOD9050059
_publ_section_title
;
Structure prediction by ZEFSAII (Michael W. Deem and Ramdas Pophale) SiO2 
 PCOD9050059
Probable space group: P -1
;
_chemical_formula_sum "Si O2"
_cell_formula_units_Z 13
_cell_length_a 5.201314
_cell_length_b 9.144031
_cell_length_c 11.514640
_cell_angle_alpha 83.257444
_cell_angle_beta 105.066313
_cell_angle_gamma 66.189925
_cell_volume 468.239664
_symmetry_space_group_name_H-M "P -1"
_symmetry_group_IT_number 2
_symmetry_cell_setting 'triclinic'
loop_
_space_group_symop_operation_xyz
x,y,z
-x,-y,-z
loop_
_atom_site_type_symbol
_atom_site_label
_atom_site_fract_x
_atom_site_fract_y
_atom_site_fract_z
Si Si1 0.846627 0.383385 0.467829
Si Si2 0.933348 0.748843 0.251648
Si Si3 0.354855 0.091742 0.204306
Si Si4 0.840540 0.935534 0.582309
Si Si5 0.324897 0.425779 0.246816
Si Si6 0.500000 0.500000 0.000000
Si Si7 0.127306 0.806181 0.035932
O O1 0.929649 0.271583 0.602993
O O2 0.513525 0.449609 0.374333
O O3 0.000000 0.500000 0.500000
O O4 0.016487 0.260060 0.396418
O O5 0.984828 0.563198 0.231658
O O6 0.621602 0.918714 0.205605
O O7 0.135005 0.769003 0.174679
O O8 0.172814 0.039560 0.283170
O O9 0.427706 0.228937 0.264554
O O10 0.134460 0.206234 0.067948
O O11 0.500000 0.000000 0.500000
O O12 0.000000 0.000000 0.500000
O O13 0.392493 0.476189 0.122594
O O14 0.413651 0.692091 0.007165
O O15 0.000000 0.000000 0.000000
#
# Coordination Sequence:
#
# PCOD9050059 Si02
#       7
#     2   2   2   2   2   1   2
#     4  12  27  48  75 113 161 207 271 335 412 492
#     4  11  26  46  75 111 160 202 267 333 411 475
#     4  12  26  49  78 112 158 214 276 340 411 497
#     4  12  27  49  80 114 157 216 269 332 415 484
#     4  11  26  48  78 115 162 216 274 336 415 495
#     4  10  24  48  74 108 158 210 274 336 406 484
#     4  11  26  44  74 111 150 208 271 333 409 490
#
# _framework density 27.763562
#
# number of rings (size 3 to 8) (size 9 to 14) (size 15 to 20)
#    0.000    0.615    1.538    4.615    2.154    8.615 
#    0.000    0.000    0.000    0.000    0.000    0.000 
#    0.000    0.000    0.000    0.000    0.000    0.000 
#
# Total GULP energy -72368.266934 kJ/mol
# GULP energy per Si atom -5566.789764 kJ/mol
# Density = 2.770037 g / cm^3
# Si number density = 27.763562 Si / 1000 Ang^3
#
#
#
# Elastic Constant Matrix: (Units=GPa)
#
#
# Indices 1 2 3 4 5 6 
#
# 1 103.2311 28.5714 38.9813 9.5624 1.3706 0.9066
# 2 28.5714 150.8757 7.1960 24.9604 -15.9554 3.2241
# 3 38.9813 7.1960 171.2170 5.9587 -11.7780 7.4301
# 4 9.5624 24.9604 5.9587 47.0242 -11.0521 -5.4678
# 5 1.3706 -15.9554 -11.7780 -11.0521 66.2020 -0.9107
# 6 0.9066 3.2241 7.4301 -5.4678 -0.9107 44.9372
#
#
#
# Elastic Compliance Matrix: (Units=1/GPa)
#
#
# Indices 1 2 3 4 5 6 
#
# 1 0.011327 -0.001966 -0.002554 -0.001239 -0.001367 0.000156
# 2 -0.001966 0.007734 0.000383 -0.003547 0.001367 -0.000982
# 3 -0.002554 0.000383 0.006550 -0.000348 0.001237 -0.001076
# 4 -0.001239 -0.003547 -0.000348 0.024607 0.003264 0.003397
# 5 -0.001367 0.001367 0.001237 0.003264 0.016234 0.000451
# 6 0.000156 -0.000982 -0.001076 0.003397 0.000451 0.022921
#
#
# Mechanical properties :
#
#
# Convention : Reuss Voigt Hill
#
# Bulk Modulus (GPa) = 57.68128 63.86900 60.77514
# Shear Modulus (GPa) = 48.34321 55.00434 51.67378
#
# Velocity S-wave (km/s) = 4.17735 4.45586 4.31885
# Velocity P-wave (km/s) = 6.63988 7.03758 6.84162
#
# Compressibility (1/GPa) = 0.01733665
#
# Stress axis : x y z
#
# Youngs Moduli (GPa) = 88.28329 129.29196 152.67497
#
# Poissons Ratio (x) = 0.25421 0.38993
# Poissons Ratio (y) = 0.17358 -0.05843
# Poissons Ratio (z) = 0.22547 -0.04948
#
# Static dielectric constant tensor:
#      x y z
#    x 2.450170 -0.042320 0.168950 
#    y -0.042320 2.628440 0.255580 
#    z 0.168950 0.255580 2.660540 
# 
# From -- ./inp_files/360192.got.cif
#   From: 2010.05.17/outbox.cif.g08.bks.cpg/sg2_181_cif.got.tgz:360192.got - 2010.06.03 11:33:40.
