data_PCOD9050678
_publ_section_title
;
Structure prediction by ZEFSAII (Michael W. Deem and Ramdas Pophale) SiO2 
 PCOD9050678
Probable space group: P -1
;
_chemical_formula_sum "Si O2"
_cell_formula_units_Z 14
_cell_length_a 20.828073
_cell_length_b 20.158509
_cell_length_c 11.773227
_cell_angle_alpha 149.345238
_cell_angle_beta 21.516546
_cell_angle_gamma 161.315008
_cell_volume 571.447114
_symmetry_space_group_name_H-M "P -1"
_symmetry_group_IT_number 2
_symmetry_cell_setting 'triclinic'
loop_
_space_group_symop_operation_xyz
x,y,z
-x,-y,-z
loop_
_atom_site_type_symbol
_atom_site_label
_atom_site_fract_x
_atom_site_fract_y
_atom_site_fract_z
Si Si1 0.351014 0.845159 0.126098
Si Si2 0.617315 0.949075 0.072455
Si Si3 0.986072 0.966187 0.108400
Si Si4 0.905223 0.220987 0.216700
Si Si5 0.808922 0.644166 0.656531
Si Si6 0.322647 0.554867 0.638795
Si Si7 0.550369 0.613229 0.696497
O O1 0.563980 0.973464 0.070237
O O2 0.053735 0.745246 0.490195
O O3 0.267054 0.647389 0.943244
O O4 0.500000 0.000000 0.000000
O O5 0.312766 0.797827 0.411251
O O6 0.834459 0.143809 0.088551
O O7 0.671288 0.826853 0.794691
O O8 0.661142 0.756056 0.363887
O O9 0.088687 0.161039 0.278945
O O10 0.151623 0.942588 0.855755
O O11 0.000000 0.000000 0.000000
O O12 0.233949 0.446911 0.022968
O O13 0.796111 0.520965 0.404617
O O14 0.500000 0.500000 0.000000
O O15 0.261386 0.377304 0.528434
O O16 0.500000 0.500000 0.500000
#
# Coordination Sequence:
#
# PCOD9050678 Si02
#       7
#     2   2   2   2   2   2   2
#     4  12  26  46  71 103 145 184 230 296 353 416
#     4  11  24  48  68 100 140 185 234 286 346 416
#     4  11  21  43  69 102 140 180 233 292 345 411
#     4  10  25  43  71 101 136 187 232 285 350 414
#     4  12  25  42  70 102 133 185 232 286 351 418
#     4  11  24  44  67 100 139 181 233 287 356 410
#     4  11  23  44  69  99 137 180 229 284 343 417
#
# _framework density 24.499203000000001
#
# number of rings (size 3 to 8) (size 9 to 14) (size 15 to 20)
#    0.000    0.857    4.286    2.571    2.000    1.714 
#    7.714    0.000    0.000    0.000    0.000    0.000 
#    0.000    0.000    0.000    0.000    0.000    0.000 
#
# Total GULP energy -78311.765125 kJ/mol
# GULP energy per Si atom -5593.697509 kJ/mol
# Density = 2.444344 g / cm^3
# Si number density = 24.499203 Si / 1000 Ang^3
#
#
#
# Elastic Constant Matrix: (Units=GPa)
#
#
# Indices 1 2 3 4 5 6 
#
# 1 150.9891 34.9085 35.4656 12.2568 -8.5499 12.8208
# 2 34.9085 56.2803 26.6315 15.3126 -10.8167 2.7739
# 3 35.4656 26.6315 117.2257 6.4704 -17.9869 -2.7905
# 4 12.2568 15.3126 6.4704 48.9580 4.4939 2.2812
# 5 -8.5499 -10.8167 -17.9869 4.4939 40.4464 7.0155
# 6 12.8208 2.7739 -2.7905 2.2812 7.0155 32.4351
#
#
#
# Elastic Compliance Matrix: (Units=1/GPa)
#
#
# Indices 1 2 3 4 5 6 
#
# 1 0.008248 -0.003970 -0.001547 -0.000527 0.000598 -0.003146
# 2 -0.003970 0.024698 -0.003258 -0.006719 0.005324 -0.001502
# 3 -0.001547 -0.003258 0.010274 -0.000298 0.003213 0.001100
# 4 -0.000527 -0.006719 -0.000298 0.023117 -0.004632 0.000133
# 5 0.000598 0.005324 0.003213 -0.004632 0.029334 -0.006434
# 6 -0.003146 -0.001502 0.001100 0.000133 -0.006434 0.033680
#
#
# Mechanical properties :
#
#
# Convention : Reuss Voigt Hill
#
# Bulk Modulus (GPa) = 38.95719 57.61182 48.28450
# Shear Modulus (GPa) = 32.16283 39.53387 35.84835
#
# Velocity S-wave (km/s) = 3.62720 4.02142 3.82939
# Velocity P-wave (km/s) = 5.78602 6.71783 6.26927
#
# Compressibility (1/GPa) = 0.02566920
#
# Stress axis : x y z
#
# Youngs Moduli (GPa) = 121.23823 40.48955 97.32894
#
# Poissons Ratio (x) = 0.16076 0.15062
# Poissons Ratio (y) = 0.48137 0.31706
# Poissons Ratio (z) = 0.18762 0.13190
#
# Static dielectric constant tensor:
#      x y z
#    x 2.106880 0.054400 0.018390 
#    y 0.054400 1.992650 -0.011770 
#    z 0.018390 -0.011770 1.958070 
# 
# From -- ./inp_files/257301.got.cif
#   From: 2010.05.17/outbox.cif.g08.bks.cpg/sg2_129_cif.got.tgz:257301.got - 2010.06.03 11:33:40.
