data_PCOD9050191
_publ_section_title
;
Structure prediction by ZEFSAII (Michael W. Deem and Ramdas Pophale) SiO2 
 PCOD9050191
Probable space group: P -1
;
_chemical_formula_sum "Si O2"
_cell_formula_units_Z 14
_cell_length_a 12.584150
_cell_length_b 6.905513
_cell_length_c 14.501818
_cell_angle_alpha 59.723683
_cell_angle_beta 42.437599
_cell_angle_gamma 45.643329
_cell_volume 607.835645
_symmetry_space_group_name_H-M "P -1"
_symmetry_group_IT_number 2
_symmetry_cell_setting 'triclinic'
loop_
_space_group_symop_operation_xyz
x,y,z
-x,-y,-z
loop_
_atom_site_type_symbol
_atom_site_label
_atom_site_fract_x
_atom_site_fract_y
_atom_site_fract_z
Si Si1 0.337907 0.713181 0.985238
Si Si2 0.325168 0.248051 0.822799
Si Si3 0.690591 0.257898 0.626297
Si Si4 0.014061 0.751115 0.449794
Si Si5 0.183059 0.738505 0.896226
Si Si6 0.929885 0.870596 0.275641
Si Si7 0.328107 0.283655 0.588467
O O1 0.344838 0.622464 0.897239
O O2 0.331398 0.986697 0.913886
O O3 0.500000 0.500000 0.000000
O O4 0.142308 0.763517 0.135964
O O5 0.509767 0.240623 0.739294
O O6 0.161971 0.510479 0.921965
O O7 0.320186 0.267065 0.709263
O O8 0.773601 0.336175 0.640844
O O9 0.663654 0.470144 0.513792
O O10 0.866351 0.946136 0.574316
O O11 0.927224 0.926330 0.370672
O O12 0.000000 0.500000 0.500000
O O13 0.212540 0.866803 0.757034
O O14 0.000000 0.000000 0.000000
O O15 0.864994 0.672709 0.339467
O O16 0.500000 0.000000 0.500000
#
# Coordination Sequence:
#
# PCOD9050191 Si02
#       7
#     2   2   2   2   2   2   2
#     4  11  28  46  72 105 146 196 242 306 366 434
#     4  12  26  45  76 105 150 190 247 302 369 437
#     4  11  26  42  70 111 140 191 244 291 381 435
#     4  11  24  44  70 102 148 191 237 305 366 432
#     4  10  24  49  70 103 138 190 251 298 359 430
#     4  11  23  46  74  99 146 193 242 296 366 430
#     4  12  24  44  78 109 148 193 241 305 366 438
#
# _framework density 23.032543
#
# number of rings (size 3 to 8) (size 9 to 14) (size 15 to 20)
#    0.000    0.857    2.857    3.000    4.000    2.857 
#    5.143    0.000    0.000    0.000    0.000    0.000 
#    0.000    0.000    0.000    0.000    0.000    0.000 
#
# Total GULP energy -78157.994171 kJ/mol
# GULP energy per Si atom -5582.713869 kJ/mol
# Density = 2.298012 g / cm^3
# Si number density = 23.032543 Si / 1000 Ang^3
#
#
#
# Elastic Constant Matrix: (Units=GPa)
#
#
# Indices 1 2 3 4 5 6 
#
# 1 185.8367 42.5691 63.6715 10.2334 -7.2595 6.8590
# 2 42.5691 127.1507 47.6455 2.9268 -1.8769 16.9268
# 3 63.6715 47.6455 70.4530 -11.8313 -24.8217 8.7991
# 4 10.2334 2.9268 -11.8313 21.2232 4.1034 4.9083
# 5 -7.2595 -1.8769 -24.8217 4.1034 63.3874 -11.0684
# 6 6.8590 16.9268 8.7991 4.9083 -11.0684 36.0017
#
#
#
# Elastic Compliance Matrix: (Units=1/GPa)
#
#
# Indices 1 2 3 4 5 6 
#
# 1 0.010253 0.001855 -0.013932 -0.012660 -0.003175 0.001329
# 2 0.001855 0.012566 -0.012663 -0.008029 -0.004455 -0.003442
# 3 -0.013932 -0.012663 0.045807 0.032067 0.013395 -0.002842
# 4 -0.012660 -0.008029 0.032067 0.073783 0.004278 -0.010394
# 5 -0.003175 -0.004455 0.013395 0.004278 0.021184 0.005355
# 6 0.001329 -0.003442 -0.002842 -0.010394 0.005355 0.032899
#
#
# Mechanical properties :
#
#
# Convention : Reuss Voigt Hill
#
# Bulk Modulus (GPa) = 52.22413 76.80139 64.51276
# Shear Modulus (GPa) = 19.81352 39.42607 29.61980
#
# Velocity S-wave (km/s) = 2.93617 4.14182 3.58997
# Velocity P-wave (km/s) = 5.84962 7.50267 6.72711
#
# Compressibility (1/GPa) = 0.01914824
#
# Stress axis : x y z
#
# Youngs Moduli (GPa) = 97.52871 79.58183 21.83073
#
# Poissons Ratio (x) = -0.14764 0.30414
# Poissons Ratio (y) = -0.18094 0.27643
# Poissons Ratio (z) = 1.35872 1.00771
#
# Static dielectric constant tensor:
#      x y z
#    x 1.885500 -0.076000 -0.058560 
#    y -0.076000 1.763450 -0.133760 
#    z -0.058560 -0.133760 1.744360 
# 
# From -- ./inp_files/141034.got.cif
#   From: 2010.05.17/outbox.cif.g08.bks.cpg/sg2_71_cif.got.tgz:141034.got - 2010.06.03 11:33:40.
