data_PCOD9050542
_publ_section_title
;
Structure prediction by ZEFSAII (Michael W. Deem and Ramdas Pophale) SiO2 
 PCOD9050542
Probable space group: P -1
;
_chemical_formula_sum "Si O2"
_cell_formula_units_Z 13
_cell_length_a 8.389965
_cell_length_b 9.410090
_cell_length_c 8.472576
_cell_angle_alpha 65.354247
_cell_angle_beta 68.680279
_cell_angle_gamma 96.047255
_cell_volume 539.658842
_symmetry_space_group_name_H-M "P -1"
_symmetry_group_IT_number 2
_symmetry_cell_setting 'triclinic'
loop_
_space_group_symop_operation_xyz
x,y,z
-x,-y,-z
loop_
_atom_site_type_symbol
_atom_site_label
_atom_site_fract_x
_atom_site_fract_y
_atom_site_fract_z
Si Si1 0.208882 0.566274 0.949182
Si Si2 0.566759 0.878620 0.819426
Si Si3 0.500000 0.500000 0.000000
Si Si4 0.795689 0.140737 0.392113
Si Si5 0.081250 0.400961 0.391998
Si Si6 0.247905 0.985427 0.004912
Si Si7 0.140454 0.141625 0.698871
O O1 0.355739 0.474645 0.903839
O O2 0.259315 0.745773 0.770386
O O3 0.203632 0.522896 0.161255
O O4 0.000000 0.500000 0.000000
O O5 0.550841 0.695959 0.863333
O O6 0.630138 0.016516 0.599367
O O7 0.386139 0.887426 0.964258
O O8 0.715507 0.936684 0.873863
O O9 0.928438 0.263826 0.412057
O O10 0.885677 0.019123 0.326431
O O11 0.186928 0.301174 0.500875
O O12 0.000000 0.500000 0.500000
O O13 0.271552 0.120961 0.798039
O O14 0.044092 0.868700 0.137937
#
# Coordination Sequence:
#
# PCOD9050542 Si02
#       7
#     2   2   1   2   2   2   2
#     4  10  26  45  70 107 146 187 243 305 355 436
#     4  11  25  47  70 107 144 191 236 310 361 438
#     4  12  26  42  76 106 146 186 246 300 366 422
#     4  11  24  45  75 100 145 196 244 290 371 444
#     4  11  25  41  71 108 145 185 241 307 362 428
#     4  10  25  42  72 101 147 186 241 294 363 436
#     4  11  23  43  72 103 135 197 239 290 362 444
#
# _framework density 24.089292
#
# number of rings (size 3 to 8) (size 9 to 14) (size 15 to 20)
#    0.000    1.231    1.538    2.308   10.769    4.923 
#    0.000    0.000    0.000    8.308    0.000    0.000 
#    0.000    0.000    0.000    0.000    0.000    0.000 
#
# Total GULP energy -72405.669334 kJ/mol
# GULP energy per Si atom -5569.666872 kJ/mol
# Density = 2.403446 g / cm^3
# Si number density = 24.089292 Si / 1000 Ang^3
#
#
#
# Elastic Constant Matrix: (Units=GPa)
#
#
# Indices 1 2 3 4 5 6 
#
# 1 71.1929 3.9852 16.4770 -21.1317 27.0626 -12.6252
# 2 3.9852 82.6516 67.0950 -25.3230 15.5667 -12.6625
# 3 16.4770 67.0950 174.9219 -34.0966 24.0345 -6.4696
# 4 -21.1317 -25.3230 -34.0966 46.4512 -6.5449 5.3004
# 5 27.0626 15.5667 24.0345 -6.5449 51.4377 -2.8969
# 6 -12.6252 -12.6625 -6.4696 5.3004 -2.8969 37.1234
#
#
#
# Elastic Compliance Matrix: (Units=1/GPa)
#
#
# Indices 1 2 3 4 5 6 
#
# 1 0.022767 0.005855 -0.000405 0.010768 -0.011785 0.007212
# 2 0.005855 0.021360 -0.006164 0.008291 -0.005237 0.006610
# 3 -0.000405 -0.006164 0.008875 0.002861 -0.001774 -0.001241
# 4 0.010768 0.008291 0.002861 0.032070 -0.005319 0.001995
# 5 -0.011785 -0.005237 -0.001774 -0.005319 0.027197 -0.003222
# 6 0.007212 0.006610 -0.001241 0.001995 -0.003222 0.030892
#
#
# Mechanical properties :
#
#
# Convention : Reuss Voigt Hill
#
# Bulk Modulus (GPa) = 19.39005 55.98677 37.68841
# Shear Modulus (GPa) = 30.90577 43.08309 36.99443
#
# Velocity S-wave (km/s) = 3.58574 4.23362 3.92308
# Velocity P-wave (km/s) = 5.02096 6.86949 6.01664
#
# Compressibility (1/GPa) = 0.05157285
#
# Stress axis : x y z
#
# Youngs Moduli (GPa) = 43.92249 46.81610 112.67474
#
# Poissons Ratio (x) = -0.27411 0.04569
# Poissons Ratio (y) = -0.25717 0.69458
# Poissons Ratio (z) = 0.01781 0.28860
#
# Static dielectric constant tensor:
#      x y z
#    x 1.841440 0.227490 0.061590 
#    y 0.227490 1.742160 -0.066980 
#    z 0.061590 -0.066980 1.891100 
# 
# From -- ./inp_files/152862.got.cif
#   From: 2010.05.17/outbox.cif.g08.bks.cpg/sg2_77_cif.got.tgz:152862.got - 2010.06.03 11:33:40.
