data_PCOD9050746
_publ_section_title
;
Structure prediction by ZEFSAII (Michael W. Deem and Ramdas Pophale) SiO2 
 PCOD9050746
Probable space group: P -1
;
_chemical_formula_sum "Si O2"
_cell_formula_units_Z 16
_cell_length_a 12.421645
_cell_length_b 9.480433
_cell_length_c 15.317864
_cell_angle_alpha 105.040563
_cell_angle_beta 49.195697
_cell_angle_gamma 142.697475
_cell_volume 681.358314
_symmetry_space_group_name_H-M "P -1"
_symmetry_group_IT_number 2
_symmetry_cell_setting 'triclinic'
loop_
_space_group_symop_operation_xyz
x,y,z
-x,-y,-z
loop_
_atom_site_type_symbol
_atom_site_label
_atom_site_fract_x
_atom_site_fract_y
_atom_site_fract_z
Si Si1 0.505655 0.788278 0.702758
Si Si2 0.399398 0.121698 0.823288
Si Si3 0.233069 0.201832 0.548735
Si Si4 0.150350 0.391894 0.038248
Si Si5 0.268181 0.026258 0.211051
Si Si6 0.267853 0.764521 0.459883
Si Si7 0.131769 0.724923 0.061631
Si Si8 0.055365 0.312284 0.278510
O O1 0.662611 0.777414 0.593445
O O2 0.653972 0.981750 0.740803
O O3 0.176701 0.489177 0.831390
O O4 0.569117 0.952752 0.616942
O O5 0.521633 0.176018 0.672709
O O6 0.655678 0.426960 0.780598
O O7 0.095201 0.910796 0.927313
O O8 0.317155 0.933085 0.913618
O O9 0.500000 0.500000 0.500000
O O10 0.008522 0.129938 0.651203
O O11 0.106550 0.964388 0.638279
O O12 0.121652 0.541913 0.055447
O O13 0.115409 0.343895 0.151426
O O14 0.465305 0.634527 0.886942
O O15 0.237972 0.898486 0.121185
O O16 0.000000 0.500000 0.500000
O O17 0.129121 0.701037 0.612181
#
# Coordination Sequence:
#
# PCOD9050746 Si02
#       8
#     2   2   2   2   2   2   2   2
#     4  11  22  44  66  98 125 174 225 266 327 390
#     4  11  21  42  63  98 140 167 211 268 328 394
#     4  11  25  51  68  91 131 175 231 278 316 384
#     4  12  24  39  69 106 132 175 213 261 344 396
#     4  12  25  41  71  95 127 181 222 267 327 386
#     4   9  20  38  61  89 137 172 198 270 323 380
#     4  12  23  39  69 102 138 169 213 270 328 400
#     4  10  25  44  63  97 133 175 220 272 326 385
#
# _framework density 23.482503999999999
#
# number of rings (size 3 to 8) (size 9 to 14) (size 15 to 20)
#    0.000    1.000    5.000    1.875    3.500    1.000 
#    9.000    0.625    0.000    0.000    0.000    0.000 
#    0.000    0.000    0.000    0.000    0.000    0.000 
#
# Total GULP energy -89305.769478 kJ/mol
# GULP energy per Si atom -5581.610592 kJ/mol
# Density = 2.342906 g / cm^3
# Si number density = 23.482504 Si / 1000 Ang^3
#
#
#
# Elastic Constant Matrix: (Units=GPa)
#
#
# Indices 1 2 3 4 5 6 
#
# 1 47.3492 39.6088 33.1319 -0.5513 -20.3561 19.8482
# 2 39.6088 122.3655 40.6534 -25.6544 -8.8996 27.5614
# 3 33.1319 40.6534 110.0402 -25.4137 -24.6228 16.8130
# 4 -0.5513 -25.6544 -25.4137 49.4625 8.5967 3.6223
# 5 -20.3561 -8.8996 -24.6228 8.5967 38.4786 -4.5576
# 6 19.8482 27.5614 16.8130 3.6223 -4.5576 29.8380
#
#
#
# Elastic Compliance Matrix: (Units=1/GPa)
#
#
# Indices 1 2 3 4 5 6 
#
# 1 0.050305 -0.011756 -0.006684 -0.011483 0.020487 -0.014314
# 2 -0.011756 0.015464 0.000044 0.009537 -0.005755 -0.008526
# 3 -0.006684 0.000044 0.014015 0.006824 0.003469 -0.003790
# 4 -0.011483 0.009537 0.006824 0.030569 -0.007501 -0.009872
# 5 0.020487 -0.005755 0.003469 -0.007501 0.038988 -0.003401
# 6 -0.014314 -0.008526 -0.003790 -0.009872 -0.003401 0.053726
#
#
# Mechanical properties :
#
#
# Convention : Reuss Voigt Hill
#
# Bulk Modulus (GPa) = 23.26016 56.28256 39.77136
# Shear Modulus (GPa) = 19.67024 34.64653 27.15838
#
# Velocity S-wave (km/s) = 2.89737 3.84529 3.40448
# Velocity P-wave (km/s) = 4.59563 6.61323 5.69450
#
# Compressibility (1/GPa) = 0.04299197
#
# Stress axis : x y z
#
# Youngs Moduli (GPa) = 19.87860 64.66532 71.35138
#
# Poissons Ratio (x) = 0.76023 0.47692
# Poissons Ratio (y) = 0.23370 -0.00314
# Poissons Ratio (z) = 0.13287 -0.00284
#
# Static dielectric constant tensor:
#      x y z
#    x 1.911150 -0.028420 -0.042110 
#    y -0.028420 1.916600 0.042340 
#    z -0.042110 0.042340 1.973100 
# 
# From -- ./inp_files/532554.got.cif
#   From: 2010.05.17/outbox.cif.g08.bks.cpg/sg2_267_cif.got.tgz:532554.got - 2010.06.03 11:33:40.
