data_PCOD9050347
_publ_section_title
;
Structure prediction by ZEFSAII (Michael W. Deem and Ramdas Pophale) SiO2 
 PCOD9050347
Probable space group: P -1
;
_chemical_formula_sum "Si O2"
_cell_formula_units_Z 14
_cell_length_a 7.037326
_cell_length_b 18.527686
_cell_length_c 11.711841
_cell_angle_alpha 26.662480
_cell_angle_beta 76.475828
_cell_angle_gamma 92.389771
_cell_volume 545.280749
_symmetry_space_group_name_H-M "P -1"
_symmetry_group_IT_number 2
_symmetry_cell_setting 'triclinic'
loop_
_space_group_symop_operation_xyz
x,y,z
-x,-y,-z
loop_
_atom_site_type_symbol
_atom_site_label
_atom_site_fract_x
_atom_site_fract_y
_atom_site_fract_z
Si Si1 0.666172 0.488293 0.402764
Si Si2 0.817201 0.468883 0.951966
Si Si3 0.833698 0.980682 0.207482
Si Si4 0.430698 0.968978 0.421279
Si Si5 0.884652 0.904640 0.773699
Si Si6 0.760157 0.190771 0.738026
Si Si7 0.520200 0.456220 0.210835
O O1 0.500000 0.500000 0.500000
O O2 0.719529 0.326556 0.632699
O O3 0.556863 0.454137 0.340976
O O4 0.889081 0.713493 0.050071
O O5 0.589514 0.422814 0.973571
O O6 0.061667 0.655225 0.602209
O O7 0.782817 0.260715 0.248069
O O8 0.357919 0.110269 0.187551
O O9 0.017835 0.004851 0.242248
O O10 0.649719 0.004510 0.268812
O O11 0.681347 0.761147 0.494184
O O12 0.896845 0.118937 0.893342
O O13 0.500000 0.000000 0.500000
O O14 0.251901 0.486330 0.979035
O O15 0.000000 0.000000 0.500000
O O16 0.500000 0.000000 0.000000
#
# Coordination Sequence:
#
# PCOD9050347 Si02
#       7
#     2   2   2   2   2   2   2
#     4  12  28  50  76 116 161 206 266 330 402 476
#     4  10  25  45  82 111 156 204 273 328 390 481
#     4  11  26  48  73 111 159 206 265 323 401 475
#     4  11  22  47  75 111 155 204 262 329 396 475
#     4  12  26  46  76 112 154 203 262 326 400 467
#     4  12  27  52  76 117 162 212 269 329 404 480
#     4  10  24  51  76 118 153 213 270 325 403 475
#
# _framework density 25.674845999999999
#
# number of rings (size 3 to 8) (size 9 to 14) (size 15 to 20)
#    0.000    0.857    2.857    2.571    6.000    4.000 
#    0.000    0.000    0.000    0.000    0.000    0.000 
#    0.000    0.000    0.000    0.000    0.000    0.000 
#
# Total GULP energy -78357.350001 kJ/mol
# GULP energy per Si atom -5596.953571 kJ/mol
# Density = 2.561641 g / cm^3
# Si number density = 25.674846 Si / 1000 Ang^3
#
#
#
# Elastic Constant Matrix: (Units=GPa)
#
#
# Indices 1 2 3 4 5 6 
#
# 1 90.3349 52.7115 34.1797 5.8394 1.9349 5.6933
# 2 52.7115 129.1619 39.5295 4.6943 -3.8928 10.7163
# 3 34.1797 39.5295 141.0070 -0.4424 10.0782 -0.5275
# 4 5.8394 4.6943 -0.4424 54.9236 -4.3299 1.5559
# 5 1.9349 -3.8928 10.0782 -4.3299 37.7627 1.2259
# 6 5.6933 10.7163 -0.5275 1.5559 1.2259 65.2440
#
#
#
# Elastic Compliance Matrix: (Units=1/GPa)
#
#
# Indices 1 2 3 4 5 6 
#
# 1 0.015199 -0.005518 -0.002077 -0.001223 -0.000921 -0.000390
# 2 -0.005518 0.010721 -0.001809 -0.000157 0.001896 -0.001326
# 3 -0.002077 -0.001809 0.008268 0.000246 -0.002277 0.000582
# 4 -0.001223 -0.000157 0.000246 0.018529 0.002117 -0.000347
# 5 -0.000921 0.001896 -0.002277 0.002117 0.027601 -0.000819
# 6 -0.000390 -0.001326 0.000582 -0.000347 -0.000819 0.015607
#
#
# Mechanical properties :
#
#
# Convention : Reuss Voigt Hill
#
# Bulk Modulus (GPa) = 65.01797 68.14948 66.58372
# Shear Modulus (GPa) = 41.71579 47.19161 44.45370
#
# Velocity S-wave (km/s) = 4.03522 4.29190 4.16554
# Velocity P-wave (km/s) = 6.86216 7.15272 7.00895
#
# Compressibility (1/GPa) = 0.01538036
#
# Stress axis : x y z
#
# Youngs Moduli (GPa) = 65.79420 93.27846 120.94802
#
# Poissons Ratio (x) = 0.51472 0.25117
# Poissons Ratio (y) = 0.36306 0.21876
# Poissons Ratio (z) = 0.13664 0.16872
#
# Static dielectric constant tensor:
#      x y z
#    x 2.075580 0.001740 -0.012930 
#    y 0.001740 1.438100 0.056870 
#    z -0.012930 0.056870 2.124170 
# 
# From -- ./inp_files/401656.got.cif
#   From: 2010.05.17/outbox.cif.g08.bks.cpg/sg2_201_cif.got.tgz:401656.got - 2010.06.03 11:33:40.
