data_PCOD9050512
_publ_section_title
;
Structure prediction by ZEFSAII (Michael W. Deem and Ramdas Pophale) SiO2 
 PCOD9050512
Probable space group: P -1
;
_chemical_formula_sum "Si O2"
_cell_formula_units_Z 16
_cell_length_a 12.369027
_cell_length_b 5.441151
_cell_length_c 13.921520
_cell_angle_alpha 55.905868
_cell_angle_beta 115.575025
_cell_angle_gamma 116.021224
_cell_volume 675.171435
_symmetry_space_group_name_H-M "P -1"
_symmetry_group_IT_number 2
_symmetry_cell_setting 'triclinic'
loop_
_space_group_symop_operation_xyz
x,y,z
-x,-y,-z
loop_
_atom_site_type_symbol
_atom_site_label
_atom_site_fract_x
_atom_site_fract_y
_atom_site_fract_z
Si Si1 0.524545 0.323199 0.202848
Si Si2 0.089076 0.293186 0.920001
Si Si3 0.916411 0.704688 0.767350
Si Si4 0.729252 0.563511 0.889803
Si Si5 0.278200 0.850344 0.554452
Si Si6 0.604054 0.909923 0.993517
Si Si7 0.953468 0.625204 0.336256
Si Si8 0.800623 0.521233 0.577660
O O1 0.406661 0.400392 0.192039
O O2 0.597770 0.165050 0.338632
O O3 0.460612 0.146658 0.122527
O O4 0.618356 0.618878 0.123746
O O5 0.081658 0.300830 0.801398
O O6 0.029984 0.569541 0.868195
O O7 0.224384 0.333788 0.007829
O O8 0.000000 0.000000 0.000000
O O9 0.832193 0.738284 0.817137
O O10 0.824420 0.467435 0.711519
O O11 0.975461 0.038181 0.669926
O O12 0.719812 0.201904 0.964678
O O13 0.167252 0.574998 0.614701
O O14 0.278053 0.747344 0.464016
O O15 0.250446 0.175381 0.500907
O O16 0.500000 0.000000 0.000000
O O17 0.057511 0.434866 0.413982
#
# Coordination Sequence:
#
# PCOD9050512 Si02
#       8
#     2   2   2   2   2   2   2   2
#     4  10  25  42  68 101 134 183 230 280 346 418
#     4  11  25  39  65 108 142 181 228 274 353 429
#     4  11  25  44  69 100 138 185 231 286 356 412
#     4  11  24  42  68  97 145 180 221 284 346 424
#     4  12  27  43  76 100 139 181 241 289 351 408
#     4   9  22  42  63  94 140 176 224 273 343 405
#     4  11  25  42  71 105 138 180 232 289 358 411
#     4  11  26  48  69 102 138 183 234 303 346 403
#
# _framework density 23.697686000000001
#
# number of rings (size 3 to 8) (size 9 to 14) (size 15 to 20)
#    0.000    1.250    2.500    1.125   15.750    0.000 
#    0.000    1.250    0.000    0.000    0.000    0.000 
#    0.000    0.000    0.000    0.000    0.000    0.000 
#
# Total GULP energy -89362.142785 kJ/mol
# GULP energy per Si atom -5585.133924 kJ/mol
# Density = 2.364375 g / cm^3
# Si number density = 23.697686 Si / 1000 Ang^3
#
#
#
# Elastic Constant Matrix: (Units=GPa)
#
#
# Indices 1 2 3 4 5 6 
#
# 1 62.4531 11.1218 28.8622 -2.4599 19.2744 -10.0256
# 2 11.1218 90.7362 23.3380 -14.0069 18.0061 -20.6110
# 3 28.8622 23.3380 125.3972 13.7055 34.8092 -10.4304
# 4 -2.4599 -14.0069 13.7055 24.7205 0.6653 -7.9437
# 5 19.2744 18.0061 34.8092 0.6653 44.1954 -0.6727
# 6 -10.0256 -20.6110 -10.4304 -7.9437 -0.6727 28.6178
#
#
#
# Elastic Compliance Matrix: (Units=1/GPa)
#
#
# Indices 1 2 3 4 5 6 
#
# 1 0.021960 0.004444 -0.003705 0.010966 -0.008446 0.012389
# 2 0.004444 0.020947 -0.003286 0.021134 -0.007881 0.021126
# 3 -0.003705 -0.003286 0.012092 -0.009411 -0.006458 -0.002022
# 4 0.010966 0.021134 -0.009411 0.070141 -0.006505 0.034949
# 5 -0.008446 -0.007881 -0.006458 -0.006505 0.034523 -0.011983
# 6 0.012389 0.021126 -0.002022 0.034949 -0.011983 0.063182
#
#
# Mechanical properties :
#
#
# Convention : Reuss Voigt Hill
#
# Bulk Modulus (GPa) = 20.03801 45.02561 32.53181
# Shear Modulus (GPa) = 20.44367 33.85773 27.15070
#
# Velocity S-wave (km/s) = 2.94034 3.78396 3.38851
# Velocity P-wave (km/s) = 4.47230 6.17514 5.39138
#
# Compressibility (1/GPa) = 0.04990515
#
# Stress axis : x y z
#
# Youngs Moduli (GPa) = 45.53667 47.74045 82.69719
#
# Poissons Ratio (x) = -0.21218 0.30640
# Poissons Ratio (y) = -0.20239 0.27178
# Poissons Ratio (z) = 0.16872 0.15689
#
# Static dielectric constant tensor:
#      x y z
#    x 1.910600 -0.070560 -0.003970 
#    y -0.070560 1.973790 -0.015700 
#    z -0.003970 -0.015700 1.939640 
# 
# From -- ./inp_files/525563.got.cif
#   From: 2010.05.17/outbox.cif.g08.bks.cpg/sg2_263_cif.got.tgz:525563.got - 2010.06.03 11:33:40.
