data_PCOD9050409
_publ_section_title
;
Structure prediction by ZEFSAII (Michael W. Deem and Ramdas Pophale) SiO2 
 PCOD9050409
Probable space group: P -1
;
_chemical_formula_sum "Si O2"
_cell_formula_units_Z 16
_cell_length_a 11.302218
_cell_length_b 9.041704
_cell_length_c 11.101200
_cell_angle_alpha 129.890636
_cell_angle_beta 48.700634
_cell_angle_gamma 120.326653
_cell_volume 647.331514
_symmetry_space_group_name_H-M "P -1"
_symmetry_group_IT_number 2
_symmetry_cell_setting 'triclinic'
loop_
_space_group_symop_operation_xyz
x,y,z
-x,-y,-z
loop_
_atom_site_type_symbol
_atom_site_label
_atom_site_fract_x
_atom_site_fract_y
_atom_site_fract_z
Si Si1 0.067595 0.217703 0.529641
Si Si2 0.852114 0.423291 0.646627
Si Si3 0.409459 0.293017 0.412733
Si Si4 0.374907 0.720719 0.959950
Si Si5 0.236524 0.218777 0.990396
Si Si6 0.880015 0.023775 0.840791
Si Si7 0.882519 0.637948 0.089956
Si Si8 0.572895 0.128352 0.721083
O O1 0.223747 0.311128 0.540655
O O2 0.933327 0.353576 0.678349
O O3 0.116428 0.171937 0.337344
O O4 0.000000 0.000000 0.500000
O O5 0.747587 0.590765 0.835965
O O6 0.725430 0.234044 0.600087
O O7 0.000000 0.500000 0.500000
O O8 0.500000 0.500000 0.500000
O O9 0.474158 0.248739 0.213542
O O10 0.428364 0.102851 0.380686
O O11 0.286267 0.501881 0.877743
O O12 0.252108 0.860470 0.067376
O O13 0.413437 0.777617 0.102554
O O14 0.168211 0.036471 0.023222
O O15 0.115432 0.272463 0.999357
O O16 0.406788 0.177263 0.806493
O O17 0.049737 0.158680 0.784456
O O18 0.000000 0.500000 0.000000
#
# Coordination Sequence:
#
# PCOD9050409 Si02
#       8
#     2   2   2   2   2   2   2   2
#     4  12  25  44  73 101 155 199 248 307 380 447
#     4  12  26  43  72 113 147 193 251 311 377 450
#     4  12  27  44  73 115 150 197 254 318 382 443
#     4  11  22  44  75 106 147 200 258 306 368 457
#     4  12  24  45  73 106 148 199 252 311 377 452
#     4  11  22  43  72 106 143 200 254 306 369 449
#     4  10  25  40  69 106 141 185 257 315 364 434
#     4  12  24  48  78 107 153 203 258 309 375 460
#
# _framework density 24.716854999999999
#
# number of rings (size 3 to 8) (size 9 to 14) (size 15 to 20)
#    0.000    0.500    6.250    1.875    3.500    1.000 
#    2.250    0.000    0.000    2.250    0.000    0.000 
#    0.000    0.000    0.000    0.000    0.000    0.000 
#
# Total GULP energy -89379.179704 kJ/mol
# GULP energy per Si atom -5586.198732 kJ/mol
# Density = 2.466060 g / cm^3
# Si number density = 24.716855 Si / 1000 Ang^3
#
#
#
# Elastic Constant Matrix: (Units=GPa)
#
#
# Indices 1 2 3 4 5 6 
#
# 1 88.1552 53.4363 18.3809 16.0015 -5.1636 1.8381
# 2 53.4363 156.1007 26.1491 6.8874 -9.7528 17.5527
# 3 18.3809 26.1491 55.6546 4.4783 -15.1071 6.1572
# 4 16.0015 6.8874 4.4783 48.0915 -3.0186 5.8123
# 5 -5.1636 -9.7528 -15.1071 -3.0186 36.6373 2.4225
# 6 1.8381 17.5527 6.1572 5.8123 2.4225 53.1903
#
#
#
# Elastic Compliance Matrix: (Units=1/GPa)
#
#
# Indices 1 2 3 4 5 6 
#
# 1 0.015689 -0.004952 -0.002930 -0.004527 -0.000818 0.001963
# 2 -0.004952 0.008753 -0.001971 0.000965 0.001074 -0.002644
# 3 -0.002930 -0.001971 0.022402 -0.000030 0.008444 -0.002223
# 4 -0.004527 0.000965 -0.000030 0.022595 0.001647 -0.002702
# 5 -0.000818 0.001074 0.008444 0.001647 0.031275 -0.002908
# 6 0.001963 -0.002644 -0.002223 -0.002702 -0.002908 0.020290
#
#
# Mechanical properties :
#
#
# Convention : Reuss Voigt Hill
#
# Bulk Modulus (GPa) = 36.84735 55.09368 45.97052
# Shear Modulus (GPa) = 33.38772 41.04678 37.21725
#
# Velocity S-wave (km/s) = 3.67932 4.07956 3.88460
# Velocity P-wave (km/s) = 5.74369 6.67299 6.22570
#
# Compressibility (1/GPa) = 0.02713899
#
# Stress axis : x y z
#
# Youngs Moduli (GPa) = 63.73862 114.24375 44.63868
#
# Poissons Ratio (x) = 0.56573 0.13079
# Poissons Ratio (y) = 0.31563 0.08798
# Poissons Ratio (z) = 0.18675 0.22516
#
# Static dielectric constant tensor:
#      x y z
#    x 2.017970 -0.023190 0.061770 
#    y -0.023190 1.989640 -0.060620 
#    z 0.061770 -0.060620 2.097260 
# 
# From -- ./inp_files/419914.got.cif
#   From: 2010.05.17/outbox.cif.g08.bks.cpg/sg2_210_cif.got.tgz:419914.got - 2010.06.03 11:33:40.
