data_PCOD9050214
_publ_section_title
;
Structure prediction by ZEFSAII (Michael W. Deem and Ramdas Pophale) SiO2 
 PCOD9050214
Probable space group: P -1
;
_chemical_formula_sum "Si O2"
_cell_formula_units_Z 16
_cell_length_a 8.873657
_cell_length_b 12.895618
_cell_length_c 6.890019
_cell_angle_alpha 108.677034
_cell_angle_beta 72.394660
_cell_angle_gamma 84.081625
_cell_volume 694.253047
_symmetry_space_group_name_H-M "P -1"
_symmetry_group_IT_number 2
_symmetry_cell_setting 'triclinic'
loop_
_space_group_symop_operation_xyz
x,y,z
-x,-y,-z
loop_
_atom_site_type_symbol
_atom_site_label
_atom_site_fract_x
_atom_site_fract_y
_atom_site_fract_z
Si Si1 0.901538 0.291146 0.458128
Si Si2 0.445386 0.692346 0.591982
Si Si3 0.876651 0.472592 0.875394
Si Si4 0.356095 0.938735 0.963438
Si Si5 0.425881 0.602904 0.946041
Si Si6 0.359466 0.299454 0.852417
Si Si7 0.132934 0.146812 0.966678
Si Si8 0.101645 0.885682 0.306802
O O1 0.724911 0.322113 0.442975
O O2 0.939441 0.399501 0.618064
O O3 0.885984 0.203484 0.580563
O O4 0.040458 0.228378 0.220561
O O5 0.416290 0.821278 0.755655
O O6 0.485024 0.608458 0.708191
O O7 0.589211 0.674700 0.368707
O O8 0.761249 0.401051 0.983979
O O9 0.766391 0.594258 0.944351
O O10 0.000000 0.500000 0.000000
O O11 0.265279 0.910849 0.173276
O O12 0.500000 0.000000 0.000000
O O13 0.219395 0.025616 0.945664
O O14 0.500000 0.500000 0.000000
O O15 0.477974 0.706469 0.092257
O O16 0.276107 0.196515 0.845379
O O17 0.998790 0.144992 0.855388
O O18 0.000000 0.000000 0.500000
#
# Coordination Sequence:
#
# PCOD9050214 Si02
#       8
#     2   2   2   2   2   2   2   2
#     4  12  26  47  78 106 150 202 248 310 376 443
#     4  12  26  47  78 107 149 200 245 306 379 440
#     4  11  25  46  73 108 144 189 248 308 372 439
#     4  12  27  45  75 112 149 197 253 302 372 450
#     4  10  24  49  72 106 147 188 243 306 367 443
#     4  11  27  47  72 107 149 189 251 308 368 441
#     4  12  27  49  72 112 150 198 254 306 371 444
#     4  12  25  47  74 105 153 195 247 312 372 438
#
# _framework density 23.046353
#
# number of rings (size 3 to 8) (size 9 to 14) (size 15 to 20)
#    0.000    0.500    3.750    3.375    5.250    6.000 
#    0.000    0.000    0.000    0.000    0.000    0.000 
#    0.000    0.000    0.000    0.000    0.000    0.000 
#
# Total GULP energy -89525.869933 kJ/mol
# GULP energy per Si atom -5595.366871 kJ/mol
# Density = 2.299390 g / cm^3
# Si number density = 23.046353 Si / 1000 Ang^3
#
#
#
# Elastic Constant Matrix: (Units=GPa)
#
#
# Indices 1 2 3 4 5 6 
#
# 1 122.9181 43.8844 42.9936 -9.1960 15.6551 24.0337
# 2 43.8844 113.2712 60.1806 -15.2950 2.2737 -9.1164
# 3 42.9936 60.1806 161.2551 -2.5202 2.0067 2.4298
# 4 -9.1960 -15.2950 -2.5202 59.1809 3.6820 1.0104
# 5 15.6551 2.2737 2.0067 3.6820 34.7680 0.1234
# 6 24.0337 -9.1164 2.4298 1.0104 0.1234 49.2958
#
#
#
# Elastic Compliance Matrix: (Units=1/GPa)
#
#
# Indices 1 2 3 4 5 6 
#
# 1 0.012227 -0.004209 -0.001505 0.001188 -0.005246 -0.006677
# 2 -0.004209 0.013184 -0.003841 0.002450 0.000979 0.004627
# 3 -0.001505 -0.003841 0.008020 -0.000914 0.000564 -0.000355
# 4 0.001188 0.002450 -0.000914 0.017841 -0.002530 -0.000441
# 5 -0.005246 0.000979 0.000564 -0.002530 0.031286 0.002684
# 6 -0.006677 0.004627 -0.000355 -0.000441 0.002684 0.024416
#
#
# Mechanical properties :
#
#
# Convention : Reuss Voigt Hill
#
# Bulk Modulus (GPa) = 69.83185 76.84017 73.33601
# Shear Modulus (GPa) = 38.20923 45.34133 41.77528
#
# Velocity S-wave (km/s) = 4.07619 4.44035 4.26216
# Velocity P-wave (km/s) = 7.24708 7.72676 7.49076
#
# Compressibility (1/GPa) = 0.01432011
#
# Stress axis : x y z
#
# Youngs Moduli (GPa) = 81.78595 75.85137 124.68520
#
# Poissons Ratio (x) = 0.31928 0.18760
# Poissons Ratio (y) = 0.34426 0.47898
# Poissons Ratio (z) = 0.12305 0.29138
#
# Static dielectric constant tensor:
#      x y z
#    x 2.027860 -0.033380 -0.012680 
#    y -0.033380 1.895820 0.022480 
#    z -0.012680 0.022480 1.854340 
# 
# From -- ./inp_files/39729.got.cif
#   From: 2010.05.17/outbox.cif.g08.bks.cpg/sg2_20_cif.got.tgz:39729.got - 2010.06.03 11:33:40.
