data_PCOD9050744
_publ_section_title
;
Structure prediction by ZEFSAII (Michael W. Deem and Ramdas Pophale) SiO2 
 PCOD9050744
Probable space group: P -1
;
_chemical_formula_sum "Si O2"
_cell_formula_units_Z 16
_cell_length_a 26.382963
_cell_length_b 14.164771
_cell_length_c 9.295875
_cell_angle_alpha 131.954711
_cell_angle_beta 141.221351
_cell_angle_gamma 19.868862
_cell_volume 704.578484
_symmetry_space_group_name_H-M "P -1"
_symmetry_group_IT_number 2
_symmetry_cell_setting 'triclinic'
loop_
_space_group_symop_operation_xyz
x,y,z
-x,-y,-z
loop_
_atom_site_type_symbol
_atom_site_label
_atom_site_fract_x
_atom_site_fract_y
_atom_site_fract_z
Si Si1 0.910713 0.641753 0.795072
Si Si2 0.901258 0.233617 0.631448
Si Si3 0.528261 0.818190 0.940948
Si Si4 0.100164 0.028176 0.151208
Si Si5 0.234337 0.775106 0.487540
Si Si6 0.865647 0.596407 0.213882
Si Si7 0.414900 0.744507 0.414835
Si Si8 0.874131 0.407210 0.465278
O O1 0.848177 0.590604 0.554324
O O2 0.068405 0.477274 0.876265
O O3 0.736347 0.979410 0.743292
O O4 0.000000 0.500000 0.000000
O O5 0.743674 0.379521 0.519659
O O6 0.848615 0.419355 0.593191
O O7 0.000000 0.000000 0.500000
O O8 0.041238 0.061963 0.898392
O O9 0.509064 0.729554 0.694817
O O10 0.344848 0.068098 0.888266
O O11 0.718884 0.547311 0.177215
O O12 0.500000 0.000000 0.000000
O O13 0.931376 0.361844 0.160654
O O14 0.140243 0.887640 0.236900
O O15 0.291188 0.836009 0.344148
O O16 0.436184 0.537193 0.642671
O O17 0.084248 0.073917 0.542606
O O18 0.000000 0.500000 0.500000
#
# Coordination Sequence:
#
# PCOD9050744 Si02
#       8
#     2   2   2   2   2   2   2   2
#     4  11  23  45  69  98 135 175 215 273 336 398
#     4  10  25  44  62  93 134 176 222 267 329 395
#     4  12  23  40  68 104 135 166 223 278 328 400
#     4  11  22  43  69  95 131 175 224 273 329 392
#     4  11  25  43  69  96 131 176 224 272 333 386
#     4  11  21  41  68 101 130 167 222 276 333 394
#     4  11  25  41  67 105 131 165 228 275 325 398
#     4  11  24  44  67  97 136 178 215 275 336 390
#
# _framework density 22.708611000000001
#
# number of rings (size 3 to 8) (size 9 to 14) (size 15 to 20)
#    0.000    1.000    3.750    3.750    7.000    1.000 
#    0.000    7.500    0.000    0.000    0.000    0.000 
#    0.000    0.000    0.000    0.000    0.000    0.000 
#
# Total GULP energy -89317.299600 kJ/mol
# GULP energy per Si atom -5582.331225 kJ/mol
# Density = 2.265692 g / cm^3
# Si number density = 22.708611 Si / 1000 Ang^3
#
#
#
# Elastic Constant Matrix: (Units=GPa)
#
#
# Indices 1 2 3 4 5 6 
#
# 1 96.6177 14.3035 1.9984 -15.3854 -30.6607 -3.9735
# 2 14.3035 94.0625 0.7324 -19.8255 -9.0151 -21.8118
# 3 1.9984 0.7324 69.3989 6.3169 -18.8164 -14.2130
# 4 -15.3854 -19.8255 6.3169 25.1921 -0.8338 3.7129
# 5 -30.6607 -9.0151 -18.8164 -0.8338 37.6029 -0.4307
# 6 -3.9735 -21.8118 -14.2130 3.7129 -0.4307 23.0882
#
#
#
# Elastic Compliance Matrix: (Units=1/GPa)
#
#
# Indices 1 2 3 4 5 6 
#
# 1 0.017572 0.003137 0.004754 0.011508 0.017799 0.007396
# 2 0.003137 0.018092 0.005197 0.012377 0.009988 0.019027
# 3 0.004754 0.005197 0.023103 -0.001257 0.016890 0.020467
# 4 0.011508 0.012377 -0.001257 0.056615 0.013023 0.004038
# 5 0.017799 0.009988 0.016890 0.013023 0.052491 0.021781
# 6 0.007396 0.019027 0.020467 0.004038 0.021781 0.074916
#
#
# Mechanical properties :
#
#
# Convention : Reuss Voigt Hill
#
# Bulk Modulus (GPa) = 11.77243 32.68305 22.22774
# Shear Modulus (GPa) = 20.41422 33.37965 26.89693
#
# Velocity S-wave (km/s) = 3.00153 3.83810 3.44530
# Velocity P-wave (km/s) = 4.14820 5.83652 5.06323
#
# Compressibility (1/GPa) = 0.08494419
#
# Stress axis : x y z
#
# Youngs Moduli (GPa) = 56.90752 55.27399 43.28392
#
# Poissons Ratio (x) = -0.17341 -0.20578
# Poissons Ratio (y) = -0.17854 -0.22495
# Poissons Ratio (z) = -0.27054 -0.28726
#
# Static dielectric constant tensor:
#      x y z
#    x 1.995580 0.065800 -0.006510 
#    y 0.065800 1.878140 0.029800 
#    z -0.006510 0.029800 1.996470 
# 
# From -- ./inp_files/357444.got.cif
#   From: 2010.05.17/outbox.cif.g08.bks.cpg/sg2_179_cif.got.tgz:357444.got - 2010.06.03 11:33:40.
