data_PCOD9050561
_publ_section_title
;
Structure prediction by ZEFSAII (Michael W. Deem and Ramdas Pophale) SiO2 
 PCOD9050561
Probable space group: P -1
;
_chemical_formula_sum "Si O2"
_cell_formula_units_Z 16
_cell_length_a 5.528152
_cell_length_b 11.044812
_cell_length_c 14.401857
_cell_angle_alpha 115.305424
_cell_angle_beta 92.145786
_cell_angle_gamma 115.184242
_cell_volume 693.058938
_symmetry_space_group_name_H-M "P -1"
_symmetry_group_IT_number 2
_symmetry_cell_setting 'triclinic'
loop_
_space_group_symop_operation_xyz
x,y,z
-x,-y,-z
loop_
_atom_site_type_symbol
_atom_site_label
_atom_site_fract_x
_atom_site_fract_y
_atom_site_fract_z
Si Si1 0.265120 0.857689 0.393626
Si Si2 0.333703 0.204348 0.996243
Si Si3 0.750715 0.661543 0.455388
Si Si4 0.104525 0.130663 0.173157
Si Si5 0.613929 0.885124 0.650883
Si Si6 0.979711 0.349515 0.371291
Si Si7 0.763858 0.452577 0.711809
Si Si8 0.993421 0.377907 0.034279
O O1 0.339198 0.725526 0.328730
O O2 0.995264 0.769490 0.424029
O O3 0.500000 0.000000 0.500000
O O4 0.250128 0.943968 0.330787
O O5 0.266426 0.196882 0.102185
O O6 0.661212 0.269558 0.007640
O O7 0.178486 0.296267 0.983038
O O8 0.169909 0.029148 0.902238
O O9 0.699510 0.786091 0.552875
O O10 0.492534 0.552127 0.350272
O O11 0.807849 0.577417 0.515905
O O12 0.290160 0.101175 0.238177
O O13 0.040089 0.248654 0.265110
O O14 0.285513 0.777259 0.618991
O O15 0.994094 0.476613 0.340596
O O16 0.873973 0.540271 0.838413
O O17 0.000000 0.500000 0.000000
#
# Coordination Sequence:
#
# PCOD9050561 Si02
#       8
#     2   2   2   2   2   2   2   2
#     4  12  25  44  64 100 140 189 234 295 358 442
#     4  11  26  51  75 109 146 193 250 308 367 432
#     4  11  24  43  71  97 145 184 244 289 369 433
#     4  10  25  42  79 100 143 188 243 311 361 436
#     4  11  24  43  71 103 142 185 243 297 362 444
#     4  11  23  45  68 110 141 184 244 296 368 435
#     4  12  27  43  73 100 146 192 234 304 367 438
#     4  12  29  50  75 109 153 193 249 302 373 441
#
# _framework density 23.086061000000001
#
# number of rings (size 3 to 8) (size 9 to 14) (size 15 to 20)
#    0.000    0.750    3.750    1.875    5.250    6.000 
#    0.000    0.000    0.000    0.000    0.000    0.000 
#    0.000    0.000    0.000    0.000    0.000    0.000 
#
# Total GULP energy -89380.740381 kJ/mol
# GULP energy per Si atom -5586.296274 kJ/mol
# Density = 2.303352 g / cm^3
# Si number density = 23.086061 Si / 1000 Ang^3
#
#
#
# Elastic Constant Matrix: (Units=GPa)
#
#
# Indices 1 2 3 4 5 6 
#
# 1 57.5148 19.7875 26.4044 3.4500 18.5770 14.2589
# 2 19.7875 132.2196 24.1101 -8.9801 9.3369 -7.5237
# 3 26.4044 24.1101 85.7039 -6.7622 15.1611 4.1620
# 4 3.4500 -8.9801 -6.7622 31.2896 -14.4372 11.9207
# 5 18.5770 9.3369 15.1611 -14.4372 27.6518 3.4037
# 6 14.2589 -7.5237 4.1620 11.9207 3.4037 44.2065
#
#
#
# Elastic Compliance Matrix: (Units=1/GPa)
#
#
# Indices 1 2 3 4 5 6 
#
# 1 0.030449 -0.003156 -0.005266 -0.014817 -0.023742 -0.004039
# 2 -0.003156 0.008501 -0.001515 0.002167 0.000972 0.001948
# 3 -0.005266 -0.001515 0.014373 0.002114 -0.002694 -0.000275
# 4 -0.014817 0.002167 0.002114 0.058635 0.040397 -0.013973
# 5 -0.023742 0.000972 -0.002694 0.040397 0.075416 -0.008623
# 6 -0.004039 0.001948 -0.000275 -0.013973 -0.008623 0.028713
#
#
# Mechanical properties :
#
#
# Convention : Reuss Voigt Hill
#
# Bulk Modulus (GPa) = 29.89580 46.22691 38.06136
# Shear Modulus (GPa) = 20.23374 34.30537 27.26955
#
# Velocity S-wave (km/s) = 2.96370 3.85902 3.44061
# Velocity P-wave (km/s) = 4.96882 6.31848 5.68386
#
# Compressibility (1/GPa) = 0.03344952
#
# Stress axis : x y z
#
# Youngs Moduli (GPa) = 32.84177 117.63147 69.57351
#
# Poissons Ratio (x) = 0.37127 0.36638
# Poissons Ratio (y) = 0.10366 0.10538
# Poissons Ratio (z) = 0.17295 0.17818
#
# Static dielectric constant tensor:
#      x y z
#    x 2.056960 -0.050110 0.015530 
#    y -0.050110 1.935870 -0.005810 
#    z 0.015530 -0.005810 1.824840 
# 
# From -- ./inp_files/367986.got.cif
#   From: 2010.05.17/outbox.cif.g08.bks.cpg/sg2_184_cif.got.tgz:367986.got - 2010.06.03 11:33:40.
