data_PCOD9050858
_publ_section_title
;
Structure prediction by ZEFSAII (Michael W. Deem and Ramdas Pophale) SiO2 
 PCOD9050858
Probable space group: P -1
;
_chemical_formula_sum "Si O2"
_cell_formula_units_Z 16
_cell_length_a 11.051095
_cell_length_b 8.603661
_cell_length_c 8.770301
_cell_angle_alpha 88.470456
_cell_angle_beta 51.028599
_cell_angle_gamma 79.953071
_cell_volume 634.600359
_symmetry_space_group_name_H-M "P -1"
_symmetry_group_IT_number 2
_symmetry_cell_setting 'triclinic'
loop_
_space_group_symop_operation_xyz
x,y,z
-x,-y,-z
loop_
_atom_site_type_symbol
_atom_site_label
_atom_site_fract_x
_atom_site_fract_y
_atom_site_fract_z
Si Si1 0.239596 0.891835 0.369836
Si Si2 0.243189 0.682136 0.090909
Si Si3 0.927336 0.345674 0.294303
Si Si4 0.598970 0.839906 0.139298
Si Si5 0.864222 0.899773 0.087740
Si Si6 0.767725 0.634785 0.755045
Si Si7 0.127541 0.208952 0.593964
Si Si8 0.341539 0.495131 0.717988
O O1 0.264984 0.824622 0.180239
O O2 0.169175 0.767208 0.533659
O O3 0.413297 0.903930 0.290678
O O4 0.129935 0.064671 0.476901
O O5 0.294002 0.523997 0.157942
O O6 0.052584 0.714118 0.223746
O O7 0.313953 0.630063 0.870105
O O8 0.805805 0.468858 0.284137
O O9 0.054581 0.388271 0.312949
O O10 0.043221 0.247506 0.078910
O O11 0.705740 0.959050 0.114423
O O12 0.639720 0.675257 0.209376
O O13 0.657866 0.780272 0.925910
O O14 0.802588 0.863453 0.302301
O O15 0.000000 0.000000 0.000000
O O16 0.781353 0.674051 0.567726
O O17 0.500000 0.500000 0.500000
#
# Coordination Sequence:
#
# PCOD9050858 Si02
#       8
#     2   2   2   2   2   2   2   2
#     4  12  25  44  70 102 152 184 230 298 347 427
#     4  11  25  43  71 108 140 187 243 286 355 422
#     4  11  22  42  70 101 142 177 233 300 349 415
#     4  10  26  46  67 103 143 184 236 295 357 413
#     4  11  24  45  72  99 138 188 238 289 348 425
#     4  10  25  44  70 101 140 186 241 293 347 426
#     4  12  24  43  72 106 137 192 239 287 350 419
#     4  11  23  44  73 106 141 182 231 299 365 413
#
# _framework density 25.212717000000001
#
# number of rings (size 3 to 8) (size 9 to 14) (size 15 to 20)
#    0.000    1.000    5.000    0.750    1.750    4.500 
#    2.250    0.000    0.000    0.000    0.000    0.000 
#    0.000    0.000    0.000    0.000    0.000    0.000 
#
# Total GULP energy -89612.725297 kJ/mol
# GULP energy per Si atom -5600.795331 kJ/mol
# Density = 2.515533 g / cm^3
# Si number density = 25.212717 Si / 1000 Ang^3
#
#
#
# Elastic Constant Matrix: (Units=GPa)
#
#
# Indices 1 2 3 4 5 6 
#
# 1 58.9217 9.5807 55.1286 -2.8259 -4.7119 11.2726
# 2 9.5807 58.4258 44.5001 3.0219 17.7944 1.3700
# 3 55.1286 44.5001 196.5465 4.1332 17.6010 4.9094
# 4 -2.8259 3.0219 4.1332 37.4136 -0.8413 13.9061
# 5 -4.7119 17.7944 17.6010 -0.8413 54.5589 2.2110
# 6 11.2726 1.3700 4.9094 13.9061 2.2110 29.8025
#
#
#
# Elastic Compliance Matrix: (Units=1/GPa)
#
#
# Indices 1 2 3 4 5 6 
#
# 1 0.028124 -0.000260 -0.008186 0.008214 0.005830 -0.013543
# 2 -0.000260 0.022450 -0.004463 -0.001894 -0.005980 0.001129
# 3 -0.008186 -0.004463 0.008561 -0.002439 -0.002180 0.003191
# 4 0.008214 -0.001894 -0.002439 0.034983 0.003431 -0.019196
# 5 0.005830 -0.005980 -0.002180 0.003431 0.021733 -0.004785
# 6 -0.013543 0.001129 0.003191 -0.019196 -0.004785 0.047411
#
#
# Mechanical properties :
#
#
# Convention : Reuss Voigt Hill
#
# Bulk Modulus (GPa) = 30.01381 59.14588 44.57984
# Shear Modulus (GPa) = 24.97667 38.00065 31.48866
#
# Velocity S-wave (km/s) = 3.15085 3.88648 3.53784
# Velocity P-wave (km/s) = 5.01670 6.60676 5.86586
#
# Compressibility (1/GPa) = 0.03331799
#
# Stress axis : x y z
#
# Youngs Moduli (GPa) = 35.55645 44.54295 116.80504
#
# Poissons Ratio (x) = 0.01157 0.95619
# Poissons Ratio (y) = 0.00923 0.52130
# Poissons Ratio (z) = 0.29107 0.19880
#
# Static dielectric constant tensor:
#      x y z
#    x 2.012290 0.030300 0.029300 
#    y 0.030300 2.068530 -0.017190 
#    z 0.029300 -0.017190 1.939400 
# 
# From -- ./inp_files/243834.got.cif
#   From: 2010.05.17/outbox.cif.g08.bks.cpg/sg2_122_cif.got.tgz:243834.got - 2010.06.03 11:33:40.
