data_PCOD9050130
_publ_section_title
;
Structure prediction by ZEFSAII (Michael W. Deem and Ramdas Pophale) SiO2 
 PCOD9050130
Probable space group: P -1
;
_chemical_formula_sum "Si O2"
_cell_formula_units_Z 12
_cell_length_a 11.181590
_cell_length_b 5.434369
_cell_length_c 8.556613
_cell_angle_alpha 86.804829
_cell_angle_beta 78.367676
_cell_angle_gamma 64.178534
_cell_volume 458.112177
_symmetry_space_group_name_H-M "P -1"
_symmetry_group_IT_number 2
_symmetry_cell_setting 'triclinic'
loop_
_space_group_symop_operation_xyz
x,y,z
-x,-y,-z
loop_
_atom_site_type_symbol
_atom_site_label
_atom_site_fract_x
_atom_site_fract_y
_atom_site_fract_z
Si Si1 0.559059 0.585270 0.780655
Si Si2 0.053626 0.102732 0.630162
Si Si3 0.349343 0.999094 0.188190
Si Si4 0.720954 0.741843 0.500108
Si Si5 0.287016 0.582536 0.757091
Si Si6 0.879835 0.502791 0.921937
O O1 0.556414 0.844539 0.862404
O O2 0.677966 0.547105 0.625231
O O3 0.417650 0.638477 0.738805
O O4 0.605078 0.303921 0.870329
O O5 0.127029 0.295265 0.557053
O O6 0.942367 0.271528 0.782107
O O7 0.169075 0.835585 0.691465
O O8 0.000000 0.000000 0.500000
O O9 0.343861 0.990803 0.381599
O O10 0.204361 0.206553 0.150931
O O11 0.676186 0.694248 0.343132
O O12 0.224348 0.547292 0.937066
O O13 0.000000 0.500000 0.000000
#
# Coordination Sequence:
#
# PCOD9050130 Si02
#       6
#     2   2   2   2   2   2
#     4  10  26  47  82 113 152 201 272 311 397 456
#     4  12  28  49  82 112 155 211 262 315 389 473
#     4  10  26  48  77 113 153 206 257 323 386 468
#     4  10  24  48  77 112 155 203 260 319 386 461
#     4  12  26  46  78 115 156 202 255 332 381 462
#     4  12  28  49  74 115 159 203 260 318 396 462
#
# _framework density 26.194455000000001
#
# number of rings (size 3 to 8) (size 9 to 14) (size 15 to 20)
#    1.000    0.000    1.667    3.000    7.000    5.333 
#    0.000    0.833    0.000    1.000    0.000    0.000 
#    0.000    0.000    0.000    0.000    0.000    0.000 
#
# Total GULP energy -67194.082896 kJ/mol
# GULP energy per Si atom -5599.506908 kJ/mol
# Density = 2.613484 g / cm^3
# Si number density = 26.194455 Si / 1000 Ang^3
#
#
#
# Elastic Constant Matrix: (Units=GPa)
#
#
# Indices 1 2 3 4 5 6 
#
# 1 166.4536 57.9987 75.5951 4.4376 29.0768 18.3040
# 2 57.9987 140.4547 66.9652 8.1452 20.1154 1.9591
# 3 75.5951 66.9652 173.8405 29.1957 -5.6928 11.6550
# 4 4.4376 8.1452 29.1957 35.8647 16.7603 10.3877
# 5 29.0768 20.1154 -5.6928 16.7603 49.3079 -12.9585
# 6 18.3040 1.9591 11.6550 10.3877 -12.9585 56.7044
#
#
#
# Elastic Compliance Matrix: (Units=1/GPa)
#
#
# Indices 1 2 3 4 5 6 
#
# 1 0.013204 0.000084 -0.008288 0.015412 -0.016417 -0.009137
# 2 0.000084 0.010238 -0.005057 0.005810 -0.007332 -0.002081
# 3 -0.008288 -0.005057 0.014765 -0.020198 0.017495 0.007513
# 4 0.015412 0.005810 -0.020198 0.067946 -0.043010 -0.023300
# 5 -0.016417 -0.007332 0.017495 -0.043010 0.055511 0.022522
# 6 -0.009137 -0.002081 0.007513 -0.023300 0.022522 0.028528
#
#
# Mechanical properties :
#
#
# Convention : Reuss Voigt Hill
#
# Bulk Modulus (GPa) = 85.56608 97.98521 91.77565
# Shear Modulus (GPa) = 22.66457 47.05473 34.85965
#
# Velocity S-wave (km/s) = 2.94469 4.24295 3.65197
# Velocity P-wave (km/s) = 6.65569 7.84166 7.27289
#
# Compressibility (1/GPa) = 0.01168687
#
# Stress axis : x y z
#
# Youngs Moduli (GPa) = 75.73460 97.67442 67.72578
#
# Poissons Ratio (x) = -0.00819 0.56128
# Poissons Ratio (y) = -0.00635 0.34246
# Poissons Ratio (z) = 0.62766 0.49390
#
# Static dielectric constant tensor:
#      x y z
#    x 1.996020 -0.027470 -0.019410 
#    y -0.027470 2.055360 0.003410 
#    z -0.019410 0.003410 2.068980 
# 
# From -- ./inp_files/229117.got.cif
#   From: 2010.05.17/outbox.cif.g08.bks.cpg/sg2_115_cif.got.tgz:229117.got - 2010.06.03 11:33:40.
