data_PCOD9050729
_publ_section_title
;
Structure prediction by ZEFSAII (Michael W. Deem and Ramdas Pophale) SiO2 
 PCOD9050729
Probable space group: P -1
;
_chemical_formula_sum "Si O2"
_cell_formula_units_Z 14
_cell_length_a 8.049864
_cell_length_b 9.561135
_cell_length_c 15.686183
_cell_angle_alpha 145.049091
_cell_angle_beta 99.848730
_cell_angle_gamma 66.561852
_cell_volume 606.355191
_symmetry_space_group_name_H-M "P -1"
_symmetry_group_IT_number 2
_symmetry_cell_setting 'triclinic'
loop_
_space_group_symop_operation_xyz
x,y,z
-x,-y,-z
loop_
_atom_site_type_symbol
_atom_site_label
_atom_site_fract_x
_atom_site_fract_y
_atom_site_fract_z
Si Si1 0.168035 0.207540 0.841226
Si Si2 0.446376 0.613112 0.308096
Si Si3 0.201586 0.883681 0.842787
Si Si4 0.832944 0.643813 0.805140
Si Si5 0.879107 0.753618 0.677584
Si Si6 0.517718 0.254794 0.818138
Si Si7 0.132373 0.095182 0.610983
O O1 0.327921 0.232971 0.812377
O O2 0.094605 0.068410 0.694027
O O3 0.257059 0.022039 0.838072
O O4 0.000000 0.500000 0.000000
O O5 0.644049 0.419905 0.273289
O O6 0.320316 0.446690 0.216736
O O7 0.469188 0.676636 0.244447
O O8 0.337860 0.891211 0.491968
O O9 0.010427 0.882550 0.792591
O O10 0.188970 0.072587 0.016476
O O11 0.813619 0.654708 0.707352
O O12 0.040892 0.415037 0.738396
O O13 0.000000 0.500000 0.500000
O O14 0.701639 0.981756 0.726110
O O15 0.500000 0.500000 0.000000
O O16 0.000000 0.000000 0.500000
#
# Coordination Sequence:
#
# PCOD9050729 Si02
#       7
#     2   2   2   2   2   2   2
#     4  12  26  47  77 107 144 194 246 297 359 433
#     4  11  26  46  75 110 144 190 241 300 366 425
#     4  12  26  44  75 105 146 188 247 291 360 432
#     4  11  23  48  73 101 146 195 240 295 359 432
#     4  12  29  46  72 110 151 188 241 302 366 426
#     4  12  27  47  75 109 148 190 244 297 359 437
#     4  10  25  43  76 103 148 184 242 297 370 418
#
# _framework density 23.088775999999999
#
# number of rings (size 3 to 8) (size 9 to 14) (size 15 to 20)
#    0.000    0.571    1.429    5.143   14.000    1.143 
#    0.000    0.000    0.000    0.000    0.000    0.000 
#    0.000    0.000    0.000    0.000    0.000    0.000 
#
# Total GULP energy -78417.750071 kJ/mol
# GULP energy per Si atom -5601.267862 kJ/mol
# Density = 2.303622 g / cm^3
# Si number density = 23.088776 Si / 1000 Ang^3
#
#
#
# Elastic Constant Matrix: (Units=GPa)
#
#
# Indices 1 2 3 4 5 6 
#
# 1 107.7426 42.6597 20.0971 0.8643 -14.5936 10.3666
# 2 42.6597 195.8827 46.2262 -8.6414 -46.6154 6.7926
# 3 20.0971 46.2262 118.1318 -18.8490 -34.0784 0.9418
# 4 0.8643 -8.6414 -18.8490 48.9895 -6.6719 -13.0449
# 5 -14.5936 -46.6154 -34.0784 -6.6719 36.7315 -1.2140
# 6 10.3666 6.7926 0.9418 -13.0449 -1.2140 42.4511
#
#
#
# Elastic Compliance Matrix: (Units=1/GPa)
#
#
# Indices 1 2 3 4 5 6 
#
# 1 0.010590 -0.001952 -0.001240 -0.001722 0.000176 -0.002770
# 2 -0.001952 0.008046 0.000857 0.003404 0.010866 0.000527
# 3 -0.001240 0.000857 0.014071 0.008435 0.015277 0.002882
# 4 -0.001722 0.003404 0.008435 0.029031 0.017035 0.009097
# 5 0.000176 0.010866 0.015277 0.017035 0.058510 0.004787
# 6 -0.002770 0.000527 0.002882 0.009097 0.004787 0.027017
#
#
# Mechanical properties :
#
#
# Convention : Reuss Voigt Hill
#
# Bulk Modulus (GPa) = 35.66679 71.08032 53.37356
# Shear Modulus (GPa) = 31.00239 46.48604 38.74422
#
# Velocity S-wave (km/s) = 3.66833 4.49192 4.10085
# Velocity P-wave (km/s) = 5.78130 7.59971 6.75200
#
# Compressibility (1/GPa) = 0.02803729
#
# Stress axis : x y z
#
# Youngs Moduli (GPa) = 94.43267 124.29192 71.07066
#
# Poissons Ratio (x) = 0.24258 0.08811
# Poissons Ratio (y) = 0.18430 -0.06092
# Poissons Ratio (z) = 0.11707 -0.10654
#
# Static dielectric constant tensor:
#      x y z
#    x 2.191310 -0.334010 0.418550 
#    y -0.334010 2.363170 -0.613480 
#    z 0.418550 -0.613480 2.331550 
# 
# From -- ./inp_files/245253.got.cif
#   From: 2010.05.17/outbox.cif.g08.bks.cpg/sg2_123_cif.got.tgz:245253.got - 2010.06.03 11:33:40.
