data_PCOD9050451
_publ_section_title
;
Structure prediction by ZEFSAII (Michael W. Deem and Ramdas Pophale) SiO2 
 PCOD9050451
Probable space group: P -1
;
_chemical_formula_sum "Si O2"
_cell_formula_units_Z 16
_cell_length_a 12.812916
_cell_length_b 9.878718
_cell_length_c 9.300979
_cell_angle_alpha 55.574927
_cell_angle_beta 118.097300
_cell_angle_gamma 81.456459
_cell_volume 703.819640
_symmetry_space_group_name_H-M "P -1"
_symmetry_group_IT_number 2
_symmetry_cell_setting 'triclinic'
loop_
_space_group_symop_operation_xyz
x,y,z
-x,-y,-z
loop_
_atom_site_type_symbol
_atom_site_label
_atom_site_fract_x
_atom_site_fract_y
_atom_site_fract_z
Si Si1 0.945719 0.302018 0.872989
Si Si2 0.318365 0.322932 0.403492
Si Si3 0.362166 0.897813 0.182500
Si Si4 0.659215 0.747156 0.877141
Si Si5 0.393262 0.734111 0.766198
Si Si6 0.761776 0.937434 0.307267
Si Si7 0.954346 0.453127 0.347413
Si Si8 0.179940 0.848505 0.303195
O O1 0.811023 0.446999 0.798394
O O2 0.023105 0.413652 0.830193
O O3 0.885736 0.276812 0.697850
O O4 0.055930 0.075350 0.129297
O O5 0.470755 0.276910 0.580827
O O6 0.323431 0.269048 0.272895
O O7 0.283845 0.193502 0.560098
O O8 0.251558 0.851230 0.198326
O O9 0.335475 0.076717 0.158488
O O10 0.324387 0.977065 0.948734
O O11 0.502470 0.798687 0.776384
O O12 0.786778 0.544944 0.161000
O O13 0.302552 0.763807 0.549787
O O14 0.284496 0.873461 0.737772
O O15 0.500000 0.500000 0.000000
O O16 0.930537 0.778577 0.476204
O O17 0.000000 0.500000 0.500000
#
# Coordination Sequence:
#
# PCOD9050451 Si02
#       8
#     2   2   2   2   2   2   2   2
#     4  10  25  41  70  98 130 178 222 266 333 393
#     4  11  24  40  71 102 131 172 222 281 325 395
#     4  12  22  42  70  97 136 175 219 273 334 394
#     4  12  24  44  69 100 134 171 225 272 341 388
#     4  12  29  45  67  97 138 179 218 280 336 391
#     4  11  25  41  68 102 133 174 228 273 329 399
#     4  11  23  43  72 101 133 176 221 280 327 396
#     4  11  24  47  66  94 140 177 219 269 334 399
#
# _framework density 22.733097000000001
#
# number of rings (size 3 to 8) (size 9 to 14) (size 15 to 20)
#    0.000    0.750    5.000    1.500    5.250    2.500 
#    0.000    0.625    0.000    0.000    0.000    0.000 
#    0.000    0.000    0.000    0.000    0.000    0.000 
#
# Total GULP energy -89557.492591 kJ/mol
# GULP energy per Si atom -5597.343287 kJ/mol
# Density = 2.268136 g / cm^3
# Si number density = 22.733097 Si / 1000 Ang^3
#
#
#
# Elastic Constant Matrix: (Units=GPa)
#
#
# Indices 1 2 3 4 5 6 
#
# 1 37.8913 6.9588 20.9996 -6.5112 8.8402 -11.4681
# 2 6.9588 60.0161 -3.1713 -4.4721 -10.8685 -11.7666
# 3 20.9996 -3.1713 108.9518 19.2387 12.0797 -12.1324
# 4 -6.5112 -4.4721 19.2387 29.8241 -8.6326 8.0122
# 5 8.8402 -10.8685 12.0797 -8.6326 36.5694 0.2700
# 6 -11.4681 -11.7666 -12.1324 8.0122 0.2700 37.0653
#
#
#
# Elastic Compliance Matrix: (Units=1/GPa)
#
#
# Indices 1 2 3 4 5 6 
#
# 1 0.035573 -0.003703 -0.007358 0.008971 -0.005192 0.005521
# 2 -0.003703 0.019500 0.000559 0.002561 0.007076 0.004622
# 3 -0.007358 0.000559 0.014446 -0.014183 -0.006217 0.005741
# 4 0.008971 0.002561 -0.014183 0.053012 0.015885 -0.012629
# 5 -0.005192 0.007076 -0.006217 0.015885 0.036545 -0.005095
# 6 0.005521 0.004622 0.005741 -0.012629 -0.005095 0.034801
#
#
# Mechanical properties :
#
#
# Convention : Reuss Voigt Hill
#
# Bulk Modulus (GPa) = 20.61194 28.49258 24.55226
# Shear Modulus (GPa) = 21.64024 32.82989 27.23507
#
# Velocity S-wave (km/s) = 3.08868 3.80431 3.46502
# Velocity P-wave (km/s) = 4.66975 5.64427 5.17998
#
# Compressibility (1/GPa) = 0.04851557
#
# Stress axis : x y z
#
# Youngs Moduli (GPa) = 28.11110 51.28297 69.22434
#
# Poissons Ratio (x) = 0.18989 0.50934
# Poissons Ratio (y) = 0.10409 -0.03871
# Poissons Ratio (z) = 0.20684 -0.02868
#
# Static dielectric constant tensor:
#      x y z
#    x 1.892300 0.023670 -0.009720 
#    y 0.023670 1.841030 -0.040090 
#    z -0.009720 -0.040090 1.839900 
# 
# From -- ./inp_files/297995.got.cif
#   From: 2010.05.17/outbox.cif.g08.bks.cpg/sg2_149_cif.got.tgz:297995.got - 2010.06.03 11:33:40.
