data_PCOD9050885
_publ_section_title
;
Structure prediction by ZEFSAII (Michael W. Deem and Ramdas Pophale) SiO2 
 PCOD9050885
Probable space group: P -1
;
_chemical_formula_sum "Si O2"
_cell_formula_units_Z 14
_cell_length_a 4.798127
_cell_length_b 13.987659
_cell_length_c 20.299077
_cell_angle_alpha 155.751312
_cell_angle_beta 107.978355
_cell_angle_gamma 71.198018
_cell_volume 529.279305
_symmetry_space_group_name_H-M "P -1"
_symmetry_group_IT_number 2
_symmetry_cell_setting 'triclinic'
loop_
_space_group_symop_operation_xyz
x,y,z
-x,-y,-z
loop_
_atom_site_type_symbol
_atom_site_label
_atom_site_fract_x
_atom_site_fract_y
_atom_site_fract_z
Si Si1 0.780681 0.758386 0.987719
Si Si2 0.269212 0.060099 0.269505
Si Si3 0.402963 0.646184 0.200582
Si Si4 0.692694 0.325691 0.643111
Si Si5 0.546472 0.774104 0.750900
Si Si6 0.810708 0.882073 0.287609
Si Si7 0.132605 0.478517 0.611407
O O1 0.635477 0.618304 0.947837
O O2 0.863872 0.552074 0.811990
O O3 0.539388 0.956554 0.065352
O O4 0.047419 0.888712 0.116059
O O5 0.393602 0.204221 0.308757
O O6 0.092690 0.237964 0.419822
O O7 0.553812 0.943055 0.255161
O O8 0.369204 0.765122 0.345043
O O9 0.687972 0.701296 0.217041
O O10 0.122428 0.760008 0.210149
O O11 0.380519 0.416617 0.645233
O O12 0.841402 0.122737 0.480353
O O13 0.276468 0.639672 0.669554
O O14 0.835933 0.624076 0.705230
#
# Coordination Sequence:
#
# PCOD9050885 Si02
#       7
#     2   2   2   2   2   2   2
#     4  10  26  43  68  98 146 163 225 274 340 379
#     4  11  26  44  69 103 133 173 228 275 321 409
#     4  10  25  44  70  99 135 175 219 278 328 393
#     4   9  24  47  67 105 130 174 226 277 320 411
#     4  12  25  46  67 101 135 179 216 282 326 396
#     4  11  24  45  75  94 132 181 225 264 336 390
#     4  11  26  44  75  93 132 181 228 263 337 389
#
# _framework density 26.451063000000001
#
# number of rings (size 3 to 8) (size 9 to 14) (size 15 to 20)
#    0.857    0.571    1.429    1.714    6.000    6.857 
#    5.143    0.000    0.000    0.000    0.000    0.000 
#    0.000    0.000    0.000    0.000    0.000    0.000 
#
# Total GULP energy -78502.127411 kJ/mol
# GULP energy per Si atom -5607.294815 kJ/mol
# Density = 2.639086 g / cm^3
# Si number density = 26.451063 Si / 1000 Ang^3
#
#
#
# Elastic Constant Matrix: (Units=GPa)
#
#
# Indices 1 2 3 4 5 6 
#
# 1 115.6658 34.1030 48.6406 17.6979 10.8267 -14.2566
# 2 34.1030 143.0362 17.2746 28.5287 13.3121 -28.3901
# 3 48.6406 17.2746 149.0757 -12.7049 26.5295 0.1012
# 4 17.6979 28.5287 -12.7049 80.7476 9.1778 -19.7264
# 5 10.8267 13.3121 26.5295 9.1778 32.1384 -3.4342
# 6 -14.2566 -28.3901 0.1012 -19.7264 -3.4342 48.5950
#
#
#
# Elastic Compliance Matrix: (Units=1/GPa)
#
#
# Indices 1 2 3 4 5 6 
#
# 1 0.011144 -0.001526 -0.003792 -0.002215 0.000806 0.001544
# 2 -0.001526 0.008652 -0.000297 -0.001615 -0.001956 0.003814
# 3 -0.003792 -0.000297 0.009578 0.003157 -0.007466 -0.000552
# 4 -0.002215 -0.001615 0.003157 0.015591 -0.005177 0.004363
# 5 0.000806 -0.001956 -0.007466 -0.005177 0.039273 -0.000217
# 6 0.001544 0.003814 -0.000552 0.004363 -0.000217 0.025016
#
#
# Mechanical properties :
#
#
# Convention : Reuss Voigt Hill
#
# Bulk Modulus (GPa) = 55.11583 67.53488 61.32536
# Shear Modulus (GPa) = 39.51556 52.81351 46.16453
#
# Velocity S-wave (km/s) = 3.86931 4.47324 4.18219
# Velocity P-wave (km/s) = 6.39095 7.22961 6.82318
#
# Compressibility (1/GPa) = 0.01814361
#
# Stress axis : x y z
#
# Youngs Moduli (GPa) = 89.73436 115.57989 104.40677
#
# Poissons Ratio (x) = 0.17636 0.39596
# Poissons Ratio (y) = 0.13692 0.03100
# Poissons Ratio (z) = 0.34031 0.03431
#
# Static dielectric constant tensor:
#      x y z
#    x 2.007150 0.012840 -0.020400 
#    y 0.012840 2.068420 0.021050 
#    z -0.020400 0.021050 2.070960 
# 
# From -- ./inp_files/598141.got.cif
#   From: 2010.05.17/outbox.cif.g08.bks.cpg/sg2_300_cif.got.tgz:598141.got - 2010.06.03 11:33:40.
