data_PCOD9050564
_publ_section_title
;
Structure prediction by ZEFSAII (Michael W. Deem and Ramdas Pophale) SiO2 
 PCOD9050564
Probable space group: P -1
;
_chemical_formula_sum "Si O2"
_cell_formula_units_Z 14
_cell_length_a 16.143110
_cell_length_b 13.880521
_cell_length_c 8.123197
_cell_angle_alpha 37.351865
_cell_angle_beta 42.229401
_cell_angle_gamma 26.812722
_cell_volume 494.931212
_symmetry_space_group_name_H-M "P -1"
_symmetry_group_IT_number 2
_symmetry_cell_setting 'triclinic'
loop_
_space_group_symop_operation_xyz
x,y,z
-x,-y,-z
loop_
_atom_site_type_symbol
_atom_site_label
_atom_site_fract_x
_atom_site_fract_y
_atom_site_fract_z
Si Si1 0.296222 0.485751 0.521545
Si Si2 0.937170 0.838767 0.341801
Si Si3 0.090220 0.225207 0.897476
Si Si4 0.761114 0.202321 0.551715
Si Si5 0.760357 0.714790 0.883509
Si Si6 0.660984 0.343892 0.137864
Si Si7 0.498090 0.793450 0.916200
O O1 0.246246 0.630074 0.564035
O O2 0.476051 0.414012 0.299375
O O3 0.121911 0.659797 0.420813
O O4 0.313578 0.289470 0.832052
O O5 0.979239 0.724859 0.254709
O O6 0.790883 0.872104 0.615263
O O7 0.816765 0.112588 0.109157
O O8 0.964635 0.454667 0.885283
O O9 0.307322 0.062001 0.782088
O O10 0.097265 0.048526 0.219920
O O11 0.764174 0.222147 0.327256
O O12 0.576796 0.273574 0.760949
O O13 0.630046 0.780327 0.839708
O O14 0.596452 0.590547 0.909201
#
# Coordination Sequence:
#
# PCOD9050564 Si02
#       7
#     2   2   2   2   2   2   2
#     4  11  22  42  67  97 124 160 214 263 316 357
#     4  12  29  38  60 101 135 164 197 261 329 369
#     4  10  25  43  61  94 128 170 212 246 316 382
#     4   9  19  44  67  92 118 163 215 261 299 368
#     4  12  23  44  68  88 127 174 211 252 306 385
#     4  11  21  44  68  95 123 158 220 268 301 364
#     4   9  21  41  71  88 115 171 218 251 302 367
#
# _framework density 28.286757000000001
#
# number of rings (size 3 to 8) (size 9 to 14) (size 15 to 20)
#    0.857    0.571    2.857    2.571    2.000    5.714 
#    0.000    0.000    0.000    0.000    0.000    0.000 
#    0.000    0.000    0.000    0.000    0.000    0.000 
#
# Total GULP energy -78441.791966 kJ/mol
# GULP energy per Si atom -5602.985140 kJ/mol
# Density = 2.822238 g / cm^3
# Si number density = 28.286757 Si / 1000 Ang^3
#
#
#
# Elastic Constant Matrix: (Units=GPa)
#
#
# Indices 1 2 3 4 5 6 
#
# 1 140.8111 47.5176 22.0008 -5.9901 -12.5106 -48.1882
# 2 47.5176 148.5245 8.8343 12.0934 -26.7198 -29.9143
# 3 22.0008 8.8343 110.0961 4.9294 -16.6430 -21.4665
# 4 -5.9901 12.0934 4.9294 42.0453 -9.0626 -4.1325
# 5 -12.5106 -26.7198 -16.6430 -9.0626 24.6586 7.1615
# 6 -48.1882 -29.9143 -21.4665 -4.1325 7.1615 63.0012
#
#
#
# Elastic Compliance Matrix: (Units=1/GPa)
#
#
# Indices 1 2 3 4 5 6 
#
# 1 0.010502 -0.001775 -0.000387 0.003236 0.002297 0.007009
# 2 -0.001775 0.009475 0.001543 -0.000896 0.009339 0.002546
# 3 -0.000387 0.001543 0.010862 0.000263 0.007959 0.003250
# 4 0.003236 -0.000896 0.000263 0.026883 0.009923 0.002775
# 5 0.002297 0.009339 0.007959 0.009923 0.060065 0.002726
# 6 0.007009 0.002546 0.003250 0.002775 0.002726 0.023422
#
#
# Mechanical properties :
#
#
# Convention : Reuss Voigt Hill
#
# Bulk Modulus (GPa) = 33.78571 61.79301 47.78936
# Shear Modulus (GPa) = 32.82680 47.34628 40.08654
#
# Velocity S-wave (km/s) = 3.41031 4.09564 3.76859
# Velocity P-wave (km/s) = 5.24184 6.65270 5.98896
#
# Compressibility (1/GPa) = 0.02959831
#
# Stress axis : x y z
#
# Youngs Moduli (GPa) = 95.22405 105.54074 92.06767
#
# Poissons Ratio (x) = 0.18738 0.03566
# Poissons Ratio (y) = 0.16907 -0.14204
# Poissons Ratio (z) = 0.03688 -0.16283
#
# Static dielectric constant tensor:
#      x y z
#    x 2.119430 -0.027340 -0.038300 
#    y -0.027340 2.255040 0.052330 
#    z -0.038300 0.052330 2.349820 
# 
# From -- ./inp_files/314436.got.cif
#   From: 2010.05.17/outbox.cif.g08.bks.cpg/sg2_158_cif.got.tgz:314436.got - 2010.06.03 11:33:40.
