data_PCOD9050091
_publ_section_title
;
Structure prediction by ZEFSAII (Michael W. Deem and Ramdas Pophale) SiO2 
 PCOD9050091
Probable space group: P -1
;
_chemical_formula_sum "Si O2"
_cell_formula_units_Z 12
_cell_length_a 9.651368
_cell_length_b 11.803962
_cell_length_c 14.981520
_cell_angle_alpha 150.689549
_cell_angle_beta 32.043792
_cell_angle_gamma 143.716498
_cell_volume 428.315211
_symmetry_space_group_name_H-M "P -1"
_symmetry_group_IT_number 2
_symmetry_cell_setting 'triclinic'
loop_
_space_group_symop_operation_xyz
x,y,z
-x,-y,-z
loop_
_atom_site_type_symbol
_atom_site_label
_atom_site_fract_x
_atom_site_fract_y
_atom_site_fract_z
Si Si1 0.040109 0.314093 0.731727
Si Si2 0.839878 0.784508 0.206420
Si Si3 0.848052 0.706815 0.699760
Si Si4 0.773224 0.518180 0.435576
Si Si5 0.433025 0.038510 0.827386
Si Si6 0.586739 0.300260 0.758171
O O1 0.748866 0.134345 0.746635
O O2 0.142764 0.213999 0.695716
O O3 0.242734 0.361746 0.569496
O O4 0.975768 0.571183 0.959023
O O5 0.542389 0.722797 0.284201
O O6 0.987679 0.035558 0.253329
O O7 0.650168 0.599347 0.649342
O O8 0.000000 0.500000 0.500000
O O9 0.906666 0.372628 0.642476
O O10 0.716630 0.235056 0.261400
O O11 0.437374 0.071086 0.740738
O O12 0.288607 0.208290 0.080075
O O13 0.500000 0.500000 0.000000
#
# Coordination Sequence:
#
# PCOD9050091 Si02
#       6
#     2   2   2   2   2   2
#     4  10  24  48  75  98 141 199 230 287 359 419
#     4  11  23  46  72 104 142 188 240 287 352 431
#     4  12  26  41  72 111 144 180 237 299 354 416
#     4  11  24  46  71 107 142 185 237 290 357 421
#     4  11  23  48  73 105 143 185 239 294 352 423
#     4  11  20  41  72 100 137 185 233 288 351 410
#
# _framework density 28.016750999999999
#
# number of rings (size 3 to 8) (size 9 to 14) (size 15 to 20)
#    0.000    1.000    5.000    2.000    0.000    4.000 
#    6.000    0.833    0.000    2.000    0.000    0.000 
#    0.000    0.000    0.000    0.000    0.000    0.000 
#
# Total GULP energy -67321.978898 kJ/mol
# GULP energy per Si atom -5610.164908 kJ/mol
# Density = 2.795298 g / cm^3
# Si number density = 28.016751 Si / 1000 Ang^3
#
#
#
# Elastic Constant Matrix: (Units=GPa)
#
#
# Indices 1 2 3 4 5 6 
#
# 1 176.6810 80.2035 51.2255 -0.6411 21.4034 -53.3040
# 2 80.2035 215.1075 67.3076 30.1056 1.4456 -25.1219
# 3 51.2255 67.3076 201.9550 20.8983 9.5567 -8.2621
# 4 -0.6411 30.1056 20.8983 53.1049 -2.3257 0.5277
# 5 21.4034 1.4456 9.5567 -2.3257 42.6565 -2.1646
# 6 -53.3040 -25.1219 -8.2621 0.5277 -2.1646 49.5313
#
#
#
# Elastic Compliance Matrix: (Units=1/GPa)
#
#
# Indices 1 2 3 4 5 6 
#
# 1 0.010782 -0.002665 -0.001436 0.001916 -0.004396 0.009800
# 2 -0.002665 0.006494 -0.001204 -0.003189 0.001229 0.000313
# 3 -0.001436 -0.001204 0.005874 -0.001666 -0.000706 -0.001189
# 4 0.001916 -0.003189 -0.001666 0.021347 0.000682 -0.000031
# 5 -0.004396 0.001229 -0.000706 0.000682 0.025645 -0.003112
# 6 0.009800 0.000313 -0.001189 -0.000031 -0.003112 0.030560
#
#
# Mechanical properties :
#
#
# Convention : Reuss Voigt Hill
#
# Bulk Modulus (GPa) = 79.74062 110.13520 94.93791
# Shear Modulus (GPa) = 43.29349 55.39233 49.34291
#
# Velocity S-wave (km/s) = 3.93526 4.45130 4.20121
# Velocity P-wave (km/s) = 7.01227 8.11262 7.58243
#
# Compressibility (1/GPa) = 0.01254066
#
# Stress axis : x y z
#
# Youngs Moduli (GPa) = 92.74721 153.99650 170.23884
#
# Poissons Ratio (x) = 0.41039 0.24446
# Poissons Ratio (y) = 0.24717 0.20490
# Poissons Ratio (z) = 0.13319 0.18535
#
# Static dielectric constant tensor:
#      x y z
#    x 2.248500 -0.054360 0.021430 
#    y -0.054360 2.324670 -0.088870 
#    z 0.021430 -0.088870 2.196260 
# 
# From -- ./inp_files/325347.got.cif
#   From: 2010.05.17/outbox.cif.g08.bks.cpg/sg2_163_cif.got.tgz:325347.got - 2010.06.03 11:33:40.
