data_PCOD9050007
_publ_section_title
;
Structure prediction by ZEFSAII (Michael W. Deem and Ramdas Pophale) SiO2 
 PCOD9050007
Probable space group: P -1
;
_chemical_formula_sum "Si O2"
_cell_formula_units_Z 12
_cell_length_a 9.883513
_cell_length_b 10.185999
_cell_length_c 11.326892
_cell_angle_alpha 131.359752
_cell_angle_beta 85.538575
_cell_angle_gamma 57.141149
_cell_volume 519.002780
_symmetry_space_group_name_H-M "P -1"
_symmetry_group_IT_number 2
_symmetry_cell_setting 'triclinic'
loop_
_space_group_symop_operation_xyz
x,y,z
-x,-y,-z
loop_
_atom_site_type_symbol
_atom_site_label
_atom_site_fract_x
_atom_site_fract_y
_atom_site_fract_z
Si Si1 0.152005 0.304093 0.036368
Si Si2 0.538707 0.660571 0.560322
Si Si3 0.709444 0.462507 0.923239
Si Si4 0.279134 0.930267 0.347596
Si Si5 0.695850 0.571147 0.237923
Si Si6 0.138542 0.456879 0.365253
O O1 0.233147 0.232981 0.124811
O O2 0.896774 0.502514 0.175935
O O3 0.820950 0.529831 0.920906
O O4 0.309166 0.007433 0.779714
O O5 0.500000 0.500000 0.500000
O O6 0.668352 0.538490 0.354183
O O7 0.685730 0.602425 0.616349
O O8 0.748157 0.245628 0.720820
O O9 0.442850 0.768415 0.125985
O O10 0.760836 0.375505 0.007676
O O11 0.439088 0.870323 0.392164
O O12 0.044024 0.245682 0.517759
O O13 0.000000 0.500000 0.500000
#
# Coordination Sequence:
#
# PCOD9050007 Si02
#       6
#     2   2   2   2   2   2
#     4  12  26  46  76 106 143 192 241 292 364 423
#     4  12  30  47  74 108 147 190 240 293 364 432
#     4   9  22  43  74 110 139 185 243 299 346 423
#     4   9  23  44  75 104 144 188 239 292 359 412
#     4  10  24  48  72 107 144 185 240 308 339 429
#     4  12  26  49  70 105 150 192 230 299 361 428
#
# _framework density 23.121264
#
# number of rings (size 3 to 8) (size 9 to 14) (size 15 to 20)
#    1.000    0.333    1.667    2.000    4.667    6.667 
#    0.000    0.000    0.000    0.000    0.000    0.000 
#    0.000    0.000    0.000    0.000    0.000    0.000 
#
# Total GULP energy -66936.878895 kJ/mol
# GULP energy per Si atom -5578.073241 kJ/mol
# Density = 2.306864 g / cm^3
# Si number density = 23.121264 Si / 1000 Ang^3
#
#
#
# Elastic Constant Matrix: (Units=GPa)
#
#
# Indices 1 2 3 4 5 6 
#
# 1 206.5784 63.4965 77.7986 1.9565 -11.7018 6.7393
# 2 63.4965 76.5209 39.7813 -7.7938 -7.4783 -7.3666
# 3 77.7986 39.7813 79.0706 -8.3692 -4.9372 12.1783
# 4 1.9565 -7.7938 -8.3692 42.8704 -1.5318 -5.0374
# 5 -11.7018 -7.4783 -4.9372 -1.5318 27.4505 -3.7655
# 6 6.7393 -7.3666 12.1783 -5.0374 -3.7655 45.3605
#
#
#
# Elastic Compliance Matrix: (Units=1/GPa)
#
#
# Indices 1 2 3 4 5 6 
#
# 1 0.008651 -0.003831 -0.006718 -0.002389 0.001266 -0.000264
# 2 -0.003831 0.021558 -0.007496 0.003575 0.004026 0.006814
# 3 -0.006718 -0.007496 0.024255 0.002867 -0.001277 -0.006519
# 4 -0.002389 0.003575 0.002867 0.025097 0.002303 0.003144
# 5 0.001266 0.004026 -0.001277 0.002303 0.038550 0.004264
# 6 -0.000264 0.006814 -0.006519 0.003144 0.004264 0.025645
#
#
# Mechanical properties :
#
#
# Convention : Reuss Voigt Hill
#
# Bulk Modulus (GPa) = 54.42196 80.48029 67.45113
# Shear Modulus (GPa) = 26.88595 35.20921 31.04758
#
# Velocity S-wave (km/s) = 3.41372 3.90655 3.66842
# Velocity P-wave (km/s) = 6.25513 7.43180 6.86871
#
# Compressibility (1/GPa) = 0.01837493
#
# Stress axis : x y z
#
# Youngs Moduli (GPa) = 115.58974 46.38610 41.22785
#
# Poissons Ratio (x) = 0.17773 0.27695
# Poissons Ratio (y) = 0.44288 0.30905
# Poissons Ratio (z) = 0.77647 0.34771
#
# Static dielectric constant tensor:
#      x y z
#    x 1.841040 -0.039750 0.019140 
#    y -0.039750 1.834050 0.000360 
#    z 0.019140 0.000360 1.898750 
# 
# From -- ./inp_files/426683.got.cif
#   From: 2010.05.17/outbox.cif.g08.bks.cpg/sg2_214_cif.got.tgz:426683.got - 2010.06.03 11:33:40.
