data_PCOD9050269
_publ_section_title
;
Structure prediction by ZEFSAII (Michael W. Deem and Ramdas Pophale) SiO2 
 PCOD9050269
Probable space group: P -1
;
_chemical_formula_sum "Si O2"
_cell_formula_units_Z 14
_cell_length_a 5.382463
_cell_length_b 18.092495
_cell_length_c 7.797926
_cell_angle_alpha 55.306004
_cell_angle_beta 119.410191
_cell_angle_gamma 100.992589
_cell_volume 539.701493
_symmetry_space_group_name_H-M "P -1"
_symmetry_group_IT_number 2
_symmetry_cell_setting 'triclinic'
loop_
_space_group_symop_operation_xyz
x,y,z
-x,-y,-z
loop_
_atom_site_type_symbol
_atom_site_label
_atom_site_fract_x
_atom_site_fract_y
_atom_site_fract_z
Si Si1 0.483296 0.935680 0.921946
Si Si2 0.146056 0.450190 0.338573
Si Si3 0.115433 0.691654 0.791473
Si Si4 0.913973 0.168157 0.688782
Si Si5 0.622983 0.567913 0.193731
Si Si6 0.902007 0.221207 0.976271
Si Si7 0.623290 0.920315 0.519931
O O1 0.349626 0.842189 0.997757
O O2 0.249178 0.010431 0.653349
O O3 0.825471 0.902628 0.058318
O O4 0.500000 0.000000 0.000000
O O5 0.389107 0.502697 0.263501
O O6 0.254803 0.404971 0.616466
O O7 0.063681 0.379909 0.263185
O O8 0.866683 0.516059 0.224107
O O9 0.025028 0.783869 0.533765
O O10 0.109040 0.703092 0.980122
O O11 0.448604 0.652276 0.925751
O O12 0.629750 0.122053 0.611274
O O13 0.876002 0.240397 0.738844
O O14 0.189419 0.157672 0.213450
O O15 0.500000 0.000000 0.500000
#
# Coordination Sequence:
#
# PCOD9050269 Si02
#       7
#     2   2   2   2   2   2   2
#     4  12  23  47  71  95 143 193 255 307 362 446
#     4  10  24  49  80 112 148 201 254 303 375 462
#     4  12  28  45  75 110 154 183 248 305 379 458
#     4  12  28  46  68 108 147 191 242 314 382 436
#     4  10  24  49  80 112 148 202 251 303 379 460
#     4  12  28  46  70 108 147 197 247 313 387 432
#     4  12  23  45  74  95 137 197 257 308 367 442
#
# _framework density 25.940266000000001
#
# number of rings (size 3 to 8) (size 9 to 14) (size 15 to 20)
#    0.000    0.571    2.857    4.286    2.000    5.714 
#    0.000    0.000    0.000    0.000    0.000    0.000 
#    0.000    0.000    0.000    0.000    0.000    0.000 
#
# Total GULP energy -78112.236679 kJ/mol
# GULP energy per Si atom -5579.445477 kJ/mol
# Density = 2.588123 g / cm^3
# Si number density = 25.940266 Si / 1000 Ang^3
#
#
#
# Elastic Constant Matrix: (Units=GPa)
#
#
# Indices 1 2 3 4 5 6 
#
# 1 80.6679 69.3266 18.8356 27.3695 11.0573 20.9287
# 2 69.3266 268.2341 43.1362 80.1703 -4.7756 32.4142
# 3 18.8356 43.1362 118.5972 23.7333 24.2187 6.8684
# 4 27.3695 80.1703 23.7333 56.6845 -2.3740 4.5215
# 5 11.0573 -4.7756 24.2187 -2.3740 41.0961 6.3525
# 6 20.9287 32.4142 6.8684 4.5215 6.3525 49.8803
#
#
#
# Elastic Compliance Matrix: (Units=1/GPa)
#
#
# Indices 1 2 3 4 5 6 
#
# 1 0.018338 -0.002891 0.000398 -0.004761 -0.005038 -0.004798
# 2 -0.002891 0.007623 -0.000827 -0.008702 0.002129 -0.003109
# 3 0.000398 -0.000827 0.010827 -0.003850 -0.006821 0.000097
# 4 -0.004761 -0.008702 -0.003850 0.033646 0.003763 0.004653
# 5 -0.005038 0.002129 -0.006821 0.003763 0.030570 -0.002564
# 6 -0.004798 -0.003109 0.000097 0.004653 -0.002564 0.023973
#
#
# Mechanical properties :
#
#
# Convention : Reuss Voigt Hill
#
# Bulk Modulus (GPa) = 33.16707 81.12180 57.14443
# Shear Modulus (GPa) = 35.29471 51.94556 43.62014
#
# Velocity S-wave (km/s) = 3.69265 4.47979 4.10513
# Velocity P-wave (km/s) = 5.56728 7.62224 6.67432
#
# Compressibility (1/GPa) = 0.03015039
#
# Stress axis : x y z
#
# Youngs Moduli (GPa) = 54.53024 131.19017 92.36119
#
# Poissons Ratio (x) = 0.37922 -0.03680
# Poissons Ratio (y) = 0.15762 0.07635
# Poissons Ratio (z) = -0.02172 0.10844
#
# Static dielectric constant tensor:
#      x y z
#    x 1.940720 0.073560 0.223470 
#    y 0.073560 2.180040 -0.034070 
#    z 0.223470 -0.034070 1.773440 
# 
# From -- ./inp_files/138819.got.cif
#   From: 2010.05.17/outbox.cif.g08.bks.cpg/sg2_70_cif.got.tgz:138819.got - 2010.06.03 11:33:40.
