data_PCOD9050403
_publ_section_title
;
Structure prediction by ZEFSAII (Michael W. Deem and Ramdas Pophale) SiO2 
 PCOD9050403
Probable space group: P -1
;
_chemical_formula_sum "Si O2"
_cell_formula_units_Z 16
_cell_length_a 11.836265
_cell_length_b 11.531020
_cell_length_c 8.510187
_cell_angle_alpha 110.617643
_cell_angle_beta 52.762788
_cell_angle_gamma 132.450069
_cell_volume 679.177957
_symmetry_space_group_name_H-M "P -1"
_symmetry_group_IT_number 2
_symmetry_cell_setting 'triclinic'
loop_
_space_group_symop_operation_xyz
x,y,z
-x,-y,-z
loop_
_atom_site_type_symbol
_atom_site_label
_atom_site_fract_x
_atom_site_fract_y
_atom_site_fract_z
Si Si1 0.892747 0.267633 0.858551
Si Si2 0.870277 0.810000 0.543451
Si Si3 0.136792 0.459496 0.022283
Si Si4 0.431281 0.074267 0.945375
Si Si5 0.600736 0.989540 0.553585
Si Si6 0.495773 0.284249 0.285757
Si Si7 0.206181 0.073995 0.851768
Si Si8 0.294416 0.355312 0.062683
O O1 0.893539 0.410098 0.869853
O O2 0.018196 0.246659 0.639627
O O3 0.972400 0.315530 0.992095
O O4 0.695807 0.099662 0.955901
O O5 0.687341 0.736031 0.562054
O O6 0.804113 0.752344 0.750763
O O7 0.000000 0.000000 0.500000
O O8 0.182808 0.411594 0.118446
O O9 0.316336 0.543877 0.802928
O O10 0.301657 0.061499 0.914442
O O11 0.601549 0.100929 0.730633
O O12 0.475400 0.201028 0.096325
O O13 0.495580 0.817151 0.637961
O O14 0.771357 0.009959 0.349973
O O15 0.500000 0.000000 0.500000
O O16 0.302204 0.259988 0.867658
O O17 0.000000 0.000000 0.000000
O O18 0.500000 0.500000 0.000000
#
# Coordination Sequence:
#
# PCOD9050403 Si02
#       8
#     2   2   2   2   2   2   2   2
#     4  11  25  46  68 103 147 181 241 289 362 428
#     4  12  26  45  76 110 136 184 245 302 356 414
#     4  11  26  46  70  99 146 198 220 295 361 432
#     4  11  21  45  69  97 140 182 234 298 346 423
#     4  10  25  40  66 102 135 180 231 288 358 411
#     4  12  23  44  73 103 137 186 242 290 361 418
#     4  11  24  42  68 102 138 182 237 301 346 412
#     4  12  25  48  69 103 146 186 237 291 359 432
#
# _framework density 23.557891000000001
#
# number of rings (size 3 to 8) (size 9 to 14) (size 15 to 20)
#    0.000    0.750    5.000    1.125    5.250    2.000 
#    0.000    0.000    0.000    0.000    0.000    0.000 
#    0.000    0.000    0.000    0.000    0.000    0.000 
#
# Total GULP energy -89483.547108 kJ/mol
# GULP energy per Si atom -5592.721694 kJ/mol
# Density = 2.350427 g / cm^3
# Si number density = 23.557891 Si / 1000 Ang^3
#
#
#
# Elastic Constant Matrix: (Units=GPa)
#
#
# Indices 1 2 3 4 5 6 
#
# 1 132.1719 30.6490 41.3381 3.2850 -4.2940 -20.1439
# 2 30.6490 78.4372 28.5331 8.0848 -6.6601 2.5238
# 3 41.3381 28.5331 138.6416 20.4546 -33.0496 -10.0378
# 4 3.2850 8.0848 20.4546 37.0112 -13.5004 0.3646
# 5 -4.2940 -6.6601 -33.0496 -13.5004 49.3935 -2.2114
# 6 -20.1439 2.5238 -10.0378 0.3646 -2.2114 47.3729
#
#
#
# Elastic Compliance Matrix: (Units=1/GPa)
#
#
# Indices 1 2 3 4 5 6 
#
# 1 0.009512 -0.003177 -0.002192 0.000773 -0.000691 0.003711
# 2 -0.003177 0.015017 -0.002124 -0.001913 -0.000312 -0.002601
# 3 -0.002192 -0.002124 0.010193 -0.002944 0.005612 0.001625
# 4 0.000773 -0.001913 -0.002944 0.031330 0.006396 -0.000136
# 5 -0.000691 -0.000312 0.005612 0.006396 0.025739 0.002064
# 6 0.003711 -0.002601 0.001625 -0.000136 0.002064 0.023268
#
#
# Mechanical properties :
#
#
# Convention : Reuss Voigt Hill
#
# Bulk Modulus (GPa) = 50.66726 61.14346 55.90536
# Shear Modulus (GPa) = 36.59660 43.33754 39.96707
#
# Velocity S-wave (km/s) = 3.94569 4.29373 4.12338
# Velocity P-wave (km/s) = 6.50478 7.11283 6.81559
#
# Compressibility (1/GPa) = 0.01973661
#
# Stress axis : x y z
#
# Youngs Moduli (GPa) = 105.12688 66.58932 98.10317
#
# Poissons Ratio (x) = 0.21156 0.21508
# Poissons Ratio (y) = 0.33400 0.20834
# Poissons Ratio (z) = 0.23048 0.14142
#
# Static dielectric constant tensor:
#      x y z
#    x 1.883660 -0.030920 0.010500 
#    y -0.030920 1.875170 -0.000290 
#    z 0.010500 -0.000290 1.929060 
# 
# From -- ./inp_files/262784.got.cif
#   From: 2010.05.17/outbox.cif.g08.bks.cpg/sg2_132_cif.got.tgz:262784.got - 2010.06.03 11:33:40.
