data_PCOD9050306
_publ_section_title
;
Structure prediction by ZEFSAII (Michael W. Deem and Ramdas Pophale) SiO2 
 PCOD9050306
Probable space group: P -1
;
_chemical_formula_sum "Si O2"
_cell_formula_units_Z 12
_cell_length_a 9.103999
_cell_length_b 8.016161
_cell_length_c 12.828254
_cell_angle_alpha 111.454504
_cell_angle_beta 145.944746
_cell_angle_gamma 81.663110
_cell_volume 464.961519
_symmetry_space_group_name_H-M "P -1"
_symmetry_group_IT_number 2
_symmetry_cell_setting 'triclinic'
loop_
_space_group_symop_operation_xyz
x,y,z
-x,-y,-z
loop_
_atom_site_type_symbol
_atom_site_label
_atom_site_fract_x
_atom_site_fract_y
_atom_site_fract_z
Si Si1 0.377732 0.556179 0.046682
Si Si2 0.322893 0.120913 0.177460
Si Si3 0.244342 0.501899 0.273546
Si Si4 0.916991 0.066879 0.206155
Si Si5 0.601505 0.262854 0.185523
Si Si6 0.511876 0.150139 0.660507
O O1 0.155320 0.753675 0.748157
O O2 0.481426 0.765956 0.199611
O O3 0.500000 0.500000 0.000000
O O4 0.530393 0.453855 0.193072
O O5 0.200326 0.296163 0.149223
O O6 0.602606 0.194160 0.288914
O O7 0.385976 0.029792 0.298856
O O8 0.128021 0.963997 0.950449
O O9 0.500000 0.500000 0.500000
O O10 0.326287 0.677183 0.280616
O O11 0.954977 0.504225 0.155683
O O12 0.207891 0.073625 0.420561
O O13 0.674638 0.883802 0.060883
#
# Coordination Sequence:
#
# PCOD9050306 Si02
#       6
#     2   2   2   2   2   2
#     4  12  28  52  78 113 159 208 258 316 387 464
#     4  10  24  50  74 111 160 199 252 328 374 459
#     4  12  31  52  76 119 158 201 261 323 384 459
#     4   9  22  45  77 120 153 205 258 313 386 461
#     4   9  21  47  73 110 168 192 254 324 376 453
#     4  12  26  48  86 114 150 210 259 308 401 450
#
# _framework density 25.808589000000001
#
# number of rings (size 3 to 8) (size 9 to 14) (size 15 to 20)
#    1.000    0.333    1.667    1.500    7.000    4.000 
#    0.000    0.000    0.000    0.000    0.000    0.000 
#    0.000    0.000    0.000    0.000    0.000    0.000 
#
# Total GULP energy -67011.286386 kJ/mol
# GULP energy per Si atom -5584.273865 kJ/mol
# Density = 2.574985 g / cm^3
# Si number density = 25.808589 Si / 1000 Ang^3
#
#
#
# Elastic Constant Matrix: (Units=GPa)
#
#
# Indices 1 2 3 4 5 6 
#
# 1 148.3315 57.3373 44.4305 -20.0203 -5.2221 -18.6477
# 2 57.3373 176.7152 31.9086 -26.5433 10.5155 -9.3079
# 3 44.4305 31.9086 89.6886 -35.3592 0.6769 -4.4861
# 4 -20.0203 -26.5433 -35.3592 36.2117 -13.6860 2.8329
# 5 -5.2221 10.5155 0.6769 -13.6860 23.6419 -0.6300
# 6 -18.6477 -9.3079 -4.4861 2.8329 -0.6300 44.2715
#
#
#
# Elastic Compliance Matrix: (Units=1/GPa)
#
#
# Indices 1 2 3 4 5 6 
#
# 1 0.009311 -0.002291 -0.002821 0.002172 0.004496 0.003079
# 2 -0.002291 0.007005 -0.000151 0.002988 -0.001880 0.000275
# 3 -0.002821 -0.000151 0.022517 0.025458 0.013527 -0.000375
# 4 0.002172 0.002988 0.025458 0.070733 0.039373 0.000157
# 5 0.004496 -0.001880 0.013527 0.039373 0.066567 0.001297
# 6 0.003079 0.000275 -0.000375 0.000157 0.001297 0.023913
#
#
# Mechanical properties :
#
#
# Convention : Reuss Voigt Hill
#
# Bulk Modulus (GPa) = 35.32799 75.78756 55.55777
# Shear Modulus (GPa) = 22.72666 39.56229 31.14447
#
# Velocity S-wave (km/s) = 2.97068 3.91949 3.47760
# Velocity P-wave (km/s) = 5.04825 7.06486 6.13991
#
# Compressibility (1/GPa) = 0.02830617
#
# Stress axis : x y z
#
# Youngs Moduli (GPa) = 107.40387 142.76482 44.41155
#
# Poissons Ratio (x) = 0.32702 0.12528
# Poissons Ratio (y) = 0.24602 0.00672
# Poissons Ratio (z) = 0.30298 0.02159
#
# Static dielectric constant tensor:
#      x y z
#    x 2.171230 0.039220 -0.032330 
#    y 0.039220 2.109060 0.034050 
#    z -0.032330 0.034050 2.017300 
# 
# From -- ./inp_files/380168.got.cif
#   From: 2010.05.17/outbox.cif.g08.bks.cpg/sg2_191_cif.got.tgz:380168.got - 2010.06.03 11:33:40.
