data_PCOD9050419
_publ_section_title
;
Structure prediction by ZEFSAII (Michael W. Deem and Ramdas Pophale) SiO2 
 PCOD9050419
Probable space group: P -1
;
_chemical_formula_sum "Si O2"
_cell_formula_units_Z 16
_cell_length_a 9.533938
_cell_length_b 16.088352
_cell_length_c 8.586370
_cell_angle_alpha 73.966651
_cell_angle_beta 72.799285
_cell_angle_gamma 31.710086
_cell_volume 660.498749
_symmetry_space_group_name_H-M "P -1"
_symmetry_group_IT_number 2
_symmetry_cell_setting 'triclinic'
loop_
_space_group_symop_operation_xyz
x,y,z
-x,-y,-z
loop_
_atom_site_type_symbol
_atom_site_label
_atom_site_fract_x
_atom_site_fract_y
_atom_site_fract_z
Si Si1 0.574452 0.426817 0.344368
Si Si2 0.393991 0.789117 0.584461
Si Si3 0.013749 0.250628 0.697754
Si Si4 0.167882 0.391710 0.226634
Si Si5 0.015133 0.929167 0.178198
Si Si6 0.124491 0.216870 0.308707
Si Si7 0.486530 0.123081 0.747452
Si Si8 0.601975 0.686456 0.131333
O O1 0.500000 0.500000 0.500000
O O2 0.658194 0.284914 0.400025
O O3 0.299295 0.573078 0.264676
O O4 0.835465 0.352526 0.248845
O O5 0.681802 0.649486 0.649924
O O6 0.409649 0.849809 0.409266
O O7 0.168392 0.937191 0.698732
O O8 0.074041 0.124133 0.800223
O O9 0.080463 0.216675 0.507277
O O10 0.200361 0.229259 0.728462
O O11 0.239372 0.255933 0.253763
O O12 0.845033 0.551659 0.242266
O O13 0.280458 0.385775 0.041661
O O14 0.330045 0.768370 0.203676
O O15 0.000000 0.000000 0.000000
O O16 0.315103 0.054140 0.249067
O O17 0.469729 0.176906 0.891689
#
# Coordination Sequence:
#
# PCOD9050419 Si02
#       8
#     2   2   2   2   2   2   2   2
#     4  10  25  41  64 103 136 174 221 287 337 398
#     4  12  24  45  73 101 135 182 232 271 348 402
#     4  11  23  43  66 101 136 176 228 277 342 395
#     4  11  24  47  68  96 140 184 225 275 338 409
#     4  12  25  46  71  98 138 185 223 281 341 410
#     4  11  22  42  67  98 138 175 225 281 335 395
#     4  12  25  41  71 105 134 177 228 288 328 407
#     4  11  27  43  67 101 136 184 227 276 340 405
#
# _framework density 24.224119999999999
#
# number of rings (size 3 to 8) (size 9 to 14) (size 15 to 20)
#    0.000    0.750    3.750    3.375    7.000    2.500 
#    2.250    0.625    0.000    0.000    0.000    0.000 
#    0.000    0.000    0.000    0.000    0.000    0.000 
#
# Total GULP energy -89644.186046 kJ/mol
# GULP energy per Si atom -5602.761628 kJ/mol
# Density = 2.416898 g / cm^3
# Si number density = 24.224120 Si / 1000 Ang^3
#
#
#
# Elastic Constant Matrix: (Units=GPa)
#
#
# Indices 1 2 3 4 5 6 
#
# 1 101.6630 5.7219 0.7532 2.2895 -10.9988 9.8066
# 2 5.7219 61.1806 1.0293 -4.3592 -3.3715 -4.0189
# 3 0.7532 1.0293 62.6127 -8.2957 -12.3425 1.8478
# 4 2.2895 -4.3592 -8.2957 16.4884 7.1664 -6.2243
# 5 -10.9988 -3.3715 -12.3425 7.1664 19.7748 -3.4019
# 6 9.8066 -4.0189 1.8478 -6.2243 -3.4019 63.1759
#
#
#
# Elastic Compliance Matrix: (Units=1/GPa)
#
#
# Indices 1 2 3 4 5 6 
#
# 1 0.011102 -0.001135 0.000804 -0.005748 0.008232 -0.001942
# 2 -0.001135 0.016986 0.000574 0.005156 0.001065 0.001805
# 3 0.000804 0.000574 0.018667 0.005057 0.010437 0.000426
# 4 -0.005748 0.005156 0.005057 0.079833 -0.026805 0.007495
# 5 0.008232 0.001065 0.010437 -0.026805 0.071505 -0.000306
# 6 -0.001942 0.001805 0.000426 0.007495 -0.000306 0.016955
#
#
# Mechanical properties :
#
#
# Convention : Reuss Voigt Hill
#
# Bulk Modulus (GPa) = 21.16867 26.71834 23.94350
# Shear Modulus (GPa) = 21.70988 34.41794 28.06391
#
# Velocity S-wave (km/s) = 2.99692 3.77346 3.40738
# Velocity P-wave (km/s) = 4.55336 5.48077 5.03845
#
# Compressibility (1/GPa) = 0.04723963
#
# Stress axis : x y z
#
# Youngs Moduli (GPa) = 90.07571 58.87123 53.57101
#
# Poissons Ratio (x) = 0.06684 -0.04305
# Poissons Ratio (y) = 0.10227 -0.03076
# Poissons Ratio (z) = -0.07238 -0.03380
#
# Static dielectric constant tensor:
#      x y z
#    x 1.896760 -0.046570 0.016280 
#    y -0.046570 1.973090 -0.000150 
#    z 0.016280 -0.000150 1.912380 
# 
# From -- ./inp_files/206816.got.cif
#   From: 2010.05.17/outbox.cif.g08.bks.cpg/sg2_104_cif.got.tgz:206816.got - 2010.06.03 11:33:40.
