data_PCOD9050322
_publ_section_title
;
Structure prediction by ZEFSAII (Michael W. Deem and Ramdas Pophale) SiO2 
 PCOD9050322
Probable space group: P -1
;
_chemical_formula_sum "Si O2"
_cell_formula_units_Z 14
_cell_length_a 10.239874
_cell_length_b 10.381047
_cell_length_c 7.446880
_cell_angle_alpha 94.299021
_cell_angle_beta 78.785730
_cell_angle_gamma 137.265829
_cell_volume 524.179466
_symmetry_space_group_name_H-M "P -1"
_symmetry_group_IT_number 2
_symmetry_cell_setting 'triclinic'
loop_
_space_group_symop_operation_xyz
x,y,z
-x,-y,-z
loop_
_atom_site_type_symbol
_atom_site_label
_atom_site_fract_x
_atom_site_fract_y
_atom_site_fract_z
Si Si1 0.775078 0.567946 0.882908
Si Si2 0.888908 0.301412 0.608358
Si Si3 0.505016 0.151194 0.752134
Si Si4 0.356695 0.615403 0.754104
Si Si5 0.726183 0.638610 0.524416
Si Si6 0.238099 0.059439 0.498941
Si Si7 0.820989 0.242832 0.044090
O O1 0.644975 0.356172 0.825072
O O2 0.750648 0.649326 0.734564
O O3 0.999124 0.685733 0.878568
O O4 0.684293 0.524346 0.099862
O O5 0.656320 0.163885 0.614656
O O6 0.000000 0.500000 0.500000
O O7 0.250762 0.485673 0.588797
O O8 0.887199 0.301618 0.826337
O O9 0.356901 0.109636 0.650358
O O10 0.366007 0.982999 0.914252
O O11 0.587076 0.806191 0.682531
O O12 0.253712 0.674003 0.850024
O O13 0.500000 0.500000 0.500000
O O14 0.831813 0.843098 0.446869
O O15 0.094395 0.836734 0.473692
#
# Coordination Sequence:
#
# PCOD9050322 Si02
#       7
#     2   2   2   2   2   2   2
#     4  12  26  46  81 117 161 208 269 332 396 480
#     4  12  28  48  82 119 165 209 261 340 403 471
#     4  12  25  47  78 119 158 203 263 337 400 461
#     4  11  23  46  78 117 163 201 267 330 397 472
#     4  10  24  50  77 115 158 219 266 319 398 479
#     4  11  25  48  79 117 159 213 267 321 400 483
#     4  12  28  48  78 128 159 202 269 335 413 466
#
# _framework density 26.708409
#
# number of rings (size 3 to 8) (size 9 to 14) (size 15 to 20)
#    0.000    0.571    5.714    2.143    4.000    2.857 
#    2.571    1.429    3.143    2.571    0.000    0.000 
#    0.000    0.000    0.000    0.000    0.000    0.000 
#
# Total GULP energy -78414.725843 kJ/mol
# GULP energy per Si atom -5601.051846 kJ/mol
# Density = 2.664762 g / cm^3
# Si number density = 26.708409 Si / 1000 Ang^3
#
#
#
# Elastic Constant Matrix: (Units=GPa)
#
#
# Indices 1 2 3 4 5 6 
#
# 1 136.9492 27.4427 55.5067 8.1465 21.9638 -17.4480
# 2 27.4427 153.6862 41.6827 -5.0191 11.7092 -20.0176
# 3 55.5067 41.6827 171.6806 -7.8811 30.2878 4.8528
# 4 8.1465 -5.0191 -7.8811 60.1597 12.3978 4.7851
# 5 21.9638 11.7092 30.2878 12.3978 49.4666 2.0249
# 6 -17.4480 -20.0176 4.8528 4.7851 2.0249 38.2467
#
#
#
# Elastic Compliance Matrix: (Units=1/GPa)
#
#
# Indices 1 2 3 4 5 6 
#
# 1 0.009594 -0.000165 -0.002879 -0.001621 -0.002256 0.004978
# 2 -0.000165 0.007628 -0.001743 0.000287 -0.000907 0.004150
# 3 -0.002879 -0.001743 0.008027 0.002318 -0.003668 -0.003340
# 4 -0.001621 0.000287 0.002318 0.018490 -0.005282 -0.002917
# 5 -0.002256 -0.000907 -0.003668 -0.005282 0.025071 -0.001705
# 6 0.004978 0.004150 -0.003340 -0.002917 -0.001705 0.031468
#
#
# Mechanical properties :
#
#
# Convention : Reuss Voigt Hill
#
# Bulk Modulus (GPa) = 63.79514 79.06445 71.42980
# Shear Modulus (GPa) = 43.44901 52.08687 47.76794
#
# Velocity S-wave (km/s) = 4.03773 4.42090 4.23365
# Velocity P-wave (km/s) = 6.75835 7.46500 7.12045
#
# Compressibility (1/GPa) = 0.01567517
#
# Stress axis : x y z
#
# Youngs Moduli (GPa) = 104.22718 131.09647 124.58518
#
# Poissons Ratio (x) = 0.02163 0.35870
# Poissons Ratio (y) = 0.01720 0.21712
# Poissons Ratio (z) = 0.30009 0.22847
#
# Static dielectric constant tensor:
#      x y z
#    x 2.325430 0.111120 -0.069100 
#    y 0.111120 2.116450 -0.017650 
#    z -0.069100 -0.017650 2.157120 
# 
# From -- ./inp_files/206519.got.cif
#   From: 2010.05.17/outbox.cif.g08.bks.cpg/sg2_104_cif.got.tgz:206519.got - 2010.06.03 11:33:40.
