data_PCOD9050781
_publ_section_title
;
Structure prediction by ZEFSAII (Michael W. Deem and Ramdas Pophale) SiO2 
 PCOD9050781
Probable space group: P -1
;
_chemical_formula_sum "Si O2"
_cell_formula_units_Z 16
_cell_length_a 6.547028
_cell_length_b 18.140428
_cell_length_c 14.813190
_cell_angle_alpha 39.503941
_cell_angle_beta 70.238289
_cell_angle_gamma 47.101002
_cell_volume 750.844709
_symmetry_space_group_name_H-M "P -1"
_symmetry_group_IT_number 2
_symmetry_cell_setting 'triclinic'
loop_
_space_group_symop_operation_xyz
x,y,z
-x,-y,-z
loop_
_atom_site_type_symbol
_atom_site_label
_atom_site_fract_x
_atom_site_fract_y
_atom_site_fract_z
Si Si1 0.626306 0.216095 0.941904
Si Si2 0.757273 0.429337 0.107508
Si Si3 0.648496 0.069670 0.890845
Si Si4 0.269107 0.355268 0.534106
Si Si5 0.396506 0.560225 0.690992
Si Si6 0.375113 0.147820 0.200188
Si Si7 0.352636 0.307111 0.216860
Si Si8 0.257763 0.218244 0.490800
O O1 0.594534 0.172484 0.888644
O O2 0.499869 0.393540 0.801766
O O3 0.449863 0.200367 0.054346
O O4 0.988909 0.079818 0.036686
O O5 0.564650 0.445643 0.201024
O O6 0.417069 0.414892 0.077816
O O7 0.018048 0.268190 0.163182
O O8 0.988878 0.424258 0.141105
O O9 0.493216 0.190673 0.714824
O O10 0.500000 0.000000 0.000000
O O11 0.423572 0.410648 0.417390
O O12 0.159997 0.323154 0.494855
O O13 0.000000 0.500000 0.500000
O O14 0.044628 0.715521 0.573946
O O15 0.501310 0.166848 0.252875
O O16 0.527202 0.967228 0.339038
O O17 0.414176 0.241393 0.370156
#
# Coordination Sequence:
#
# PCOD9050781 Si02
#       8
#     2   2   2   2   2   2   2   2
#     4  11  22  40  71  90 117 173 206 256 319 360
#     4   8  16  33  59  91 122 159 201 250 295 367
#     4  11  25  44  63  93 125 157 217 265 308 366
#     4  12  27  44  61  91 129 163 210 263 305 373
#     4  11  22  41  65  90 124 164 212 250 310 372
#     4  10  17  34  64  95 124 157 205 254 306 374
#     4   8  15  32  59  90 122 156 202 243 298 373
#     4  11  22  37  65  94 128 167 198 252 324 360
#
# _framework density 21.309331
#
# number of rings (size 3 to 8) (size 9 to 14) (size 15 to 20)
#    0.750    1.000    1.250    4.125    0.000    4.000 
#    0.000    2.500    2.750    0.000    0.000    0.000 
#    0.000    0.000    0.000    0.000    0.000    0.000 
#
# Total GULP energy -89341.781798 kJ/mol
# GULP energy per Si atom -5583.861362 kJ/mol
# Density = 2.126083 g / cm^3
# Si number density = 21.309331 Si / 1000 Ang^3
#
#
#
# Elastic Constant Matrix: (Units=GPa)
#
#
# Indices 1 2 3 4 5 6 
#
# 1 26.7930 20.3798 29.6549 3.8648 -5.9076 -4.0432
# 2 20.3798 109.3725 40.9338 10.2258 -14.1886 -2.2908
# 3 29.6549 40.9338 129.1041 16.3061 -24.7211 -9.0757
# 4 3.8648 10.2258 16.3061 45.7477 2.4303 -3.4348
# 5 -5.9076 -14.1886 -24.7211 2.4303 37.1019 6.7605
# 6 -4.0432 -2.2908 -9.0757 -3.4348 6.7605 31.8375
#
#
#
# Elastic Compliance Matrix: (Units=1/GPa)
#
#
# Indices 1 2 3 4 5 6 
#
# 1 0.053868 -0.006317 -0.010537 0.000991 -0.001623 0.003834
# 2 -0.006317 0.011364 -0.001511 -0.001696 0.002656 -0.001162
# 3 -0.010537 -0.001511 0.012270 -0.003439 0.006074 0.000390
# 4 0.000991 -0.001696 -0.003439 0.023833 -0.004820 0.002618
# 5 -0.001623 0.002656 0.006074 -0.004820 0.033137 -0.005840
# 6 0.003834 -0.001162 0.000390 0.002618 -0.005840 0.033446
#
#
# Mechanical properties :
#
#
# Convention : Reuss Voigt Hill
#
# Bulk Modulus (GPa) = 24.52603 49.68963 37.10783
# Shear Modulus (GPa) = 22.91057 34.55750 28.73403
#
# Velocity S-wave (km/s) = 3.28249 4.03141 3.67607
# Velocity P-wave (km/s) = 5.08929 6.71108 5.95565
#
# Compressibility (1/GPa) = 0.04077301
#
# Stress axis : x y z
#
# Youngs Moduli (GPa) = 18.56383 87.99337 81.50006
#
# Poissons Ratio (x) = 0.55583 0.85876
# Poissons Ratio (y) = 0.11726 0.12316
# Poissons Ratio (z) = 0.19561 0.13297
#
# Static dielectric constant tensor:
#      x y z
#    x 1.901690 0.004350 0.007740 
#    y 0.004350 1.744720 0.037610 
#    z 0.007740 0.037610 1.775460 
# 
# From -- ./inp_files/485201.got.cif
#   From: 2010.05.17/outbox.cif.g08.bks.cpg/sg2_243_cif.got.tgz:485201.got - 2010.06.03 11:33:40.
