data_PCOD9050092
_publ_section_title
;
Structure prediction by ZEFSAII (Michael W. Deem and Ramdas Pophale) SiO2 
 PCOD9050092
Probable space group: P -1
;
_chemical_formula_sum "Si O2"
_cell_formula_units_Z 16
_cell_length_a 13.636148
_cell_length_b 5.442653
_cell_length_c 25.777100
_cell_angle_alpha 77.226948
_cell_angle_beta 21.966954
_cell_angle_gamma 73.063563
_cell_volume 678.129167
_symmetry_space_group_name_H-M "P -1"
_symmetry_group_IT_number 2
_symmetry_cell_setting 'triclinic'
loop_
_space_group_symop_operation_xyz
x,y,z
-x,-y,-z
loop_
_atom_site_type_symbol
_atom_site_label
_atom_site_fract_x
_atom_site_fract_y
_atom_site_fract_z
Si Si1 0.706088 0.837882 0.779582
Si Si2 0.994358 0.292494 0.624478
Si Si3 0.660245 0.714738 0.922539
Si Si4 0.802019 0.708719 0.121741
Si Si5 0.443291 0.633497 0.685100
Si Si6 0.197879 0.156328 0.647169
Si Si7 0.851538 0.387577 0.268110
Si Si8 0.883735 0.039468 0.974469
O O1 0.793493 0.750249 0.799677
O O2 0.826040 0.592097 0.694940
O O3 0.379139 0.904742 0.934723
O O4 0.825824 0.088442 0.697496
O O5 0.284015 0.267474 0.454991
O O6 0.066029 0.226303 0.652895
O O7 0.838557 0.601774 0.890824
O O8 0.500000 0.500000 0.000000
O O9 0.500000 0.000000 0.000000
O O10 0.548036 0.602990 0.268750
O O11 0.973908 0.737593 0.087078
O O12 0.000000 0.500000 0.000000
O O13 0.760793 0.955965 0.093227
O O14 0.385569 0.543826 0.659847
O O15 0.154226 0.833920 0.830707
O O16 0.211945 0.403337 0.663842
O O17 0.500000 0.000000 0.500000
O O18 0.088014 0.923860 0.737305
#
# Coordination Sequence:
#
# PCOD9050092 Si02
#       8
#     2   2   2   2   2   2   2   2
#     4  12  27  46  70 102 146 190 228 287 370 411
#     4  12  26  45  68 106 149 188 232 292 351 417
#     4  12  24  40  61  94 139 186 235 283 330 410
#     4   9  22  46  76 103 135 173 240 294 356 418
#     4  11  26  41  75 104 137 182 247 291 345 423
#     4  12  23  42  62  89 142 193 227 274 338 401
#     4  12  25  39  64  96 136 184 238 278 333 403
#     4  10  24  48  76 100 137 184 233 296 357 429
#
# _framework density 23.594325999999999
#
# number of rings (size 3 to 8) (size 9 to 14) (size 15 to 20)
#    0.000    0.750    3.750    2.625   10.500    0.000 
#    0.000    1.250    0.000    0.000    0.000    0.000 
#    0.000    0.000    0.000    0.000    0.000    0.000 
#
# Total GULP energy -89177.678700 kJ/mol
# GULP energy per Si atom -5573.604919 kJ/mol
# Density = 2.354062 g / cm^3
# Si number density = 23.594326 Si / 1000 Ang^3
#
#
#
# Elastic Constant Matrix: (Units=GPa)
#
#
# Indices 1 2 3 4 5 6 
#
# 1 43.7491 23.7371 6.3952 -2.6170 -0.4677 11.2127
# 2 23.7371 118.6252 62.6070 -8.5308 -1.9708 28.1491
# 3 6.3952 62.6070 106.8946 -13.5450 -2.3676 15.4151
# 4 -2.6170 -8.5308 -13.5450 52.1378 -5.8345 -2.5359
# 5 -0.4677 -1.9708 -2.3676 -5.8345 26.6358 -11.0319
# 6 11.2127 28.1491 15.4151 -2.5359 -11.0319 31.1938
#
#
#
# Elastic Compliance Matrix: (Units=1/GPa)
#
#
# Indices 1 2 3 4 5 6 
#
# 1 0.027061 -0.004907 0.002318 0.000510 -0.002604 -0.007324
# 2 -0.004907 0.015719 -0.007619 -0.000581 -0.003904 -0.010084
# 3 0.002318 -0.007619 0.014081 0.002648 0.001193 -0.000279
# 4 0.000510 -0.000581 0.002648 0.020590 0.005863 0.002780
# 5 -0.002604 -0.003904 0.001193 0.005863 0.047332 0.021085
# 6 -0.007324 -0.010084 -0.000279 0.002780 0.021085 0.051611
#
#
# Mechanical properties :
#
#
# Convention : Reuss Voigt Hill
#
# Bulk Modulus (GPa) = 27.43837 50.52752 38.98294
# Shear Modulus (GPa) = 23.92836 33.76212 28.84524
#
# Velocity S-wave (km/s) = 3.18804 3.78688 3.50029
# Velocity P-wave (km/s) = 5.02055 6.37042 5.73534
#
# Compressibility (1/GPa) = 0.03644532
#
# Stress axis : x y z
#
# Youngs Moduli (GPa) = 36.95364 63.61728 71.01885
#
# Poissons Ratio (x) = 0.31217 -0.16463
# Poissons Ratio (y) = 0.18133 0.54108
# Poissons Ratio (z) = -0.08567 0.48469
#
# Static dielectric constant tensor:
#      x y z
#    x 2.570450 -0.948110 -0.009270 
#    y -0.948110 3.299740 0.097870 
#    z -0.009270 0.097870 1.949170 
# 
# From -- ./inp_files/623325.got.cif
#   From: 2010.05.17/outbox.cif.g08.bks.cpg/sg2_312_cif.got.tgz:623325.got - 2010.06.03 11:33:40.
