data_PCOD9050452
_publ_section_title
;
Structure prediction by ZEFSAII (Michael W. Deem and Ramdas Pophale) SiO2 
 PCOD9050452
Probable space group: P -1
;
_chemical_formula_sum "Si O2"
_cell_formula_units_Z 14
_cell_length_a 9.527744
_cell_length_b 10.019743
_cell_length_c 14.494101
_cell_angle_alpha 44.734510
_cell_angle_beta 79.606857
_cell_angle_gamma 48.786837
_cell_volume 615.067697
_symmetry_space_group_name_H-M "P -1"
_symmetry_group_IT_number 2
_symmetry_cell_setting 'triclinic'
loop_
_space_group_symop_operation_xyz
x,y,z
-x,-y,-z
loop_
_atom_site_type_symbol
_atom_site_label
_atom_site_fract_x
_atom_site_fract_y
_atom_site_fract_z
Si Si1 0.660747 0.511099 0.176368
Si Si2 0.444614 0.124924 0.157671
Si Si3 0.964876 0.139321 0.563275
Si Si4 0.030000 0.446298 0.632702
Si Si5 0.930152 0.147078 0.778340
Si Si6 0.377723 0.523156 0.090286
Si Si7 0.524813 0.293723 0.711059
O O1 0.892744 0.176548 0.338862
O O2 0.503108 0.494111 0.173919
O O3 0.555457 0.714884 0.178037
O O4 0.677183 0.634903 0.027099
O O5 0.404874 0.274483 0.184889
O O6 0.300332 0.608799 0.540013
O O7 0.384926 0.965104 0.237678
O O8 0.020143 0.077883 0.696477
O O9 0.024862 0.291822 0.448475
O O10 0.000000 0.500000 0.500000
O O11 0.900533 0.388315 0.704087
O O12 0.291592 0.136829 0.767160
O O13 0.120471 0.843283 0.960505
O O14 0.708405 0.256602 0.735326
O O15 0.500000 0.500000 0.000000
#
# Coordination Sequence:
#
# PCOD9050452 Si02
#       7
#     2   2   2   2   2   2   2
#     4  11  20  39  61  83 115 152 194 228 278 347
#     4  10  19  38  59  84 110 154 197 221 273 353
#     4  10  20  38  60  79 111 159 194 223 274 354
#     4   9  17  32  60  83 102 146 197 228 263 334
#     4  11  19  37  59  87 115 143 193 244 278 327
#     4  10  17  34  63  81 105 150 198 225 268 333
#     4  11  25  34  57  91 121 144 180 244 300 317
#
# _framework density 22.761721999999999
#
# number of rings (size 3 to 8) (size 9 to 14) (size 15 to 20)
#    0.000    1.714    5.714    2.143    0.000    1.143 
#    0.000    0.714    0.000    0.000    0.000    0.000 
#    0.000    0.000    0.000    0.000    0.000    0.000 
#
# Total GULP energy -78168.994376 kJ/mol
# GULP energy per Si atom -5583.499598 kJ/mol
# Density = 2.270992 g / cm^3
# Si number density = 22.761722 Si / 1000 Ang^3
#
#
#
# Elastic Constant Matrix: (Units=GPa)
#
#
# Indices 1 2 3 4 5 6 
#
# 1 133.4549 7.6835 52.4292 -25.9024 0.2733 -1.8141
# 2 7.6835 46.0040 11.9174 -12.4601 -8.0758 20.2643
# 3 52.4292 11.9174 97.5612 -34.4568 8.6658 -7.8464
# 4 -25.9024 -12.4601 -34.4568 28.2400 8.1814 -0.0670
# 5 0.2733 -8.0758 8.6658 8.1814 39.1722 -2.9115
# 6 -1.8141 20.2643 -7.8464 -0.0670 -2.9115 16.2261
#
#
#
# Elastic Compliance Matrix: (Units=1/GPa)
#
#
# Indices 1 2 3 4 5 6 
#
# 1 0.009928 0.002721 -0.004179 0.005194 0.000013 -0.004286
# 2 0.002721 0.071560 -0.012567 0.016455 0.007106 -0.093798
# 3 -0.004179 -0.012567 0.026612 0.026653 -0.012080 0.026038
# 4 0.005194 0.016455 0.026653 0.086104 -0.021307 -0.010549
# 5 0.000013 0.007106 -0.012080 -0.021307 0.033462 -0.008798
# 6 -0.004286 -0.093798 0.026038 -0.010549 -0.008798 0.189260
#
#
# Mechanical properties :
#
#
# Convention : Reuss Voigt Hill
#
# Bulk Modulus (GPa) = 12.49224 46.78668 29.63946
# Shear Modulus (GPa) = 10.60091 30.39368 20.49729
#
# Velocity S-wave (km/s) = 2.16043 3.65814 3.00412
# Velocity P-wave (km/s) = 3.42395 6.20018 5.00828
#
# Compressibility (1/GPa) = 0.08004972
#
# Stress axis : x y z
#
# Youngs Moduli (GPa) = 100.72371 13.97437 37.57774
#
# Poissons Ratio (x) = -0.03803 0.15705
# Poissons Ratio (y) = -0.27410 0.47223
# Poissons Ratio (z) = 0.42095 0.17561
#
# Static dielectric constant tensor:
#      x y z
#    x 1.874930 0.026690 -0.017480 
#    y 0.026690 1.887680 0.014240 
#    z -0.017480 0.014240 1.876360 
# 
# From -- ./inp_files/588564.got.cif
#   From: 2010.05.17/outbox.cif.g08.bks.cpg/sg2_295_cif.got.tgz:588564.got - 2010.06.03 11:33:40.
