data_PCOD9050360
_publ_section_title
;
Structure prediction by ZEFSAII (Michael W. Deem and Ramdas Pophale) SiO2 
 PCOD9050360
Probable space group: P -1
;
_chemical_formula_sum "Si O2"
_cell_formula_units_Z 14
_cell_length_a 9.682208
_cell_length_b 8.500283
_cell_length_c 7.345194
_cell_angle_alpha 98.405657
_cell_angle_beta 67.056384
_cell_angle_gamma 84.834387
_cell_volume 543.497277
_symmetry_space_group_name_H-M "P -1"
_symmetry_group_IT_number 2
_symmetry_cell_setting 'triclinic'
loop_
_space_group_symop_operation_xyz
x,y,z
-x,-y,-z
loop_
_atom_site_type_symbol
_atom_site_label
_atom_site_fract_x
_atom_site_fract_y
_atom_site_fract_z
Si Si1 0.661900 0.871015 0.208842
Si Si2 0.801991 0.699753 0.429287
Si Si3 0.519676 0.219885 0.243308
Si Si4 0.441803 0.675445 0.144282
Si Si5 0.941354 0.906126 0.842117
Si Si6 0.111785 0.768020 0.279419
Si Si7 0.814443 0.359717 0.190214
O O1 0.759598 0.849164 0.337922
O O2 0.557183 0.732301 0.236076
O O3 0.559130 0.043914 0.278833
O O4 0.782474 0.855306 0.979048
O O5 0.654344 0.702724 0.628641
O O6 0.823405 0.540135 0.270305
O O7 0.961013 0.721121 0.437482
O O8 0.642279 0.322799 0.277477
O O9 0.553897 0.204959 0.009045
O O10 0.266817 0.702287 0.293867
O O11 0.500000 0.500000 0.000000
O O12 0.075159 0.754980 0.750754
O O13 0.908943 0.041495 0.725340
O O14 0.000000 0.000000 0.000000
O O15 0.133000 0.681486 0.053173
#
# Coordination Sequence:
#
# PCOD9050360 Si02
#       7
#     2   2   2   2   2   2   2
#     4  12  21  39  67  91 118 166 204 245 297 367
#     4  12  23  36  66  95 125 153 201 258 308 340
#     4  11  23  41  59  94 128 158 197 253 307 361
#     4  11  25  42  65  86 123 161 210 243 300 365
#     4  10  17  34  62  91 116 151 215 249 279 351
#     4  10  20  39  59  90 119 160 210 245 290 368
#     4  10  19  35  60  90 121 159 203 248 289 358
#
# _framework density 25.759097000000001
#
# number of rings (size 3 to 8) (size 9 to 14) (size 15 to 20)
#    0.000    1.143    7.143    3.429    2.000    0.000 
#    0.000    1.429    3.143    0.000    0.000    0.000 
#    0.000    0.000    0.000    0.000    0.000    0.000 
#
# Total GULP energy -78455.902644 kJ/mol
# GULP energy per Si atom -5603.993046 kJ/mol
# Density = 2.570047 g / cm^3
# Si number density = 25.759097 Si / 1000 Ang^3
#
#
#
# Elastic Constant Matrix: (Units=GPa)
#
#
# Indices 1 2 3 4 5 6 
#
# 1 171.8821 22.8515 40.0367 0.8717 -48.0730 2.9257
# 2 22.8515 78.4592 2.5008 7.1307 -9.0475 -8.3993
# 3 40.0367 2.5008 99.7950 4.1249 -35.6062 2.0059
# 4 0.8717 7.1307 4.1249 12.5271 0.4676 -4.8893
# 5 -48.0730 -9.0475 -35.6062 0.4676 59.5510 -2.7107
# 6 2.9257 -8.3993 2.0059 -4.8893 -2.7107 35.7662
#
#
#
# Elastic Compliance Matrix: (Units=1/GPa)
#
#
# Indices 1 2 3 4 5 6 
#
# 1 0.007817 -0.001722 -0.001210 0.000436 0.005298 -0.000515
# 2 -0.001722 0.014358 0.001189 -0.007513 0.001677 0.002546
# 3 -0.001210 0.001189 0.013265 -0.005449 0.007152 -0.000569
# 4 0.000436 -0.007513 -0.005449 0.090126 -0.004277 0.010502
# 5 0.005298 0.001677 0.007152 -0.004277 0.025676 0.000921
# 6 -0.000515 0.002546 -0.000569 0.010502 0.000921 0.030137
#
#
# Mechanical properties :
#
#
# Convention : Reuss Voigt Hill
#
# Bulk Modulus (GPa) = 31.29630 53.43495 42.36562
# Shear Modulus (GPa) = 25.57339 40.55201 33.06270
#
# Velocity S-wave (km/s) = 3.15428 3.97202 3.58653
# Velocity P-wave (km/s) = 5.04400 6.46723 5.79944
#
# Compressibility (1/GPa) = 0.03195266
#
# Stress axis : x y z
#
# Youngs Moduli (GPa) = 127.92260 69.64810 75.38870
#
# Poissons Ratio (x) = 0.11993 0.09124
# Poissons Ratio (y) = 0.22028 -0.08962
# Poissons Ratio (z) = 0.15482 -0.08279
#
# Static dielectric constant tensor:
#      x y z
#    x 2.045480 0.002640 0.007290 
#    y 0.002640 1.988850 -0.003080 
#    z 0.007290 -0.003080 2.082070 
# 
# From -- ./inp_files/156939.got.cif
#   From: 2010.05.17/outbox.cif.g08.bks.cpg/sg2_79_cif.got.tgz:156939.got - 2010.06.03 11:33:40.
