data_PCOD9050429
_publ_section_title
;
Structure prediction by ZEFSAII (Michael W. Deem and Ramdas Pophale) SiO2 
 PCOD9050429
Probable space group: P -1
;
_chemical_formula_sum "Si O2"
_cell_formula_units_Z 16
_cell_length_a 10.851618
_cell_length_b 27.433577
_cell_length_c 4.973731
_cell_angle_alpha 56.712471
_cell_angle_beta 123.649482
_cell_angle_gamma 147.928479
_cell_volume 643.852405
_symmetry_space_group_name_H-M "P -1"
_symmetry_group_IT_number 2
_symmetry_cell_setting 'triclinic'
loop_
_space_group_symop_operation_xyz
x,y,z
-x,-y,-z
loop_
_atom_site_type_symbol
_atom_site_label
_atom_site_fract_x
_atom_site_fract_y
_atom_site_fract_z
Si Si1 0.886734 0.138483 0.490707
Si Si2 0.594212 0.207583 0.484964
Si Si3 0.493936 0.247984 0.764599
Si Si4 0.199904 0.548483 0.374359
Si Si5 0.513429 0.562407 0.047957
Si Si6 0.885657 0.592699 0.571105
Si Si7 0.467287 0.045751 0.630039
Si Si8 0.189365 0.242950 0.059893
O O1 0.669080 0.105682 0.463843
O O2 0.997079 0.204637 0.165565
O O3 0.781159 0.044631 0.541535
O O4 0.070728 0.187964 0.806020
O O5 0.599914 0.237375 0.698055
O O6 0.500238 0.113365 0.638168
O O7 0.863782 0.298740 0.426580
O O8 0.428510 0.190604 0.120148
O O9 0.668588 0.349761 0.799275
O O10 0.313375 0.229771 0.419320
O O11 0.080215 0.465870 0.274856
O O12 0.000000 0.500000 0.500000
O O13 0.410829 0.571159 0.665028
O O14 0.723189 0.580712 0.205193
O O15 0.290350 0.463761 0.218866
O O16 0.631530 0.649396 0.112182
O O17 0.500000 0.000000 0.000000
#
# Coordination Sequence:
#
# PCOD9050429 Si02
#       8
#     2   2   2   2   2   2   2   2
#     4  11  24  45  77 105 134 183 235 294 369 420
#     4  12  27  47  71 105 144 186 244 297 360 419
#     4  11  27  44  70 104 145 192 239 291 347 445
#     4  11  22  42  66  95 145 194 240 287 352 422
#     4  10  25  41  65 105 143 189 242 299 342 432
#     4  11  24  42  67 102 144 190 245 293 354 413
#     4  11  26  48  78 108 140 179 243 303 366 430
#     4  11  24  46  72 103 146 190 235 288 369 422
#
# _framework density 24.850414000000001
#
# number of rings (size 3 to 8) (size 9 to 14) (size 15 to 20)
#    0.000    1.000    2.500    2.625   10.500    1.000 
#    0.000    3.750    0.000    0.000    0.000    0.000 
#    0.000    0.000    0.000    0.000    0.000    0.000 
#
# Total GULP energy -89441.708172 kJ/mol
# GULP energy per Si atom -5590.106761 kJ/mol
# Density = 2.479385 g / cm^3
# Si number density = 24.850414 Si / 1000 Ang^3
#
#
#
# Elastic Constant Matrix: (Units=GPa)
#
#
# Indices 1 2 3 4 5 6 
#
# 1 78.3359 41.3534 39.3810 -0.1590 -6.7735 -22.1828
# 2 41.3534 145.9768 43.9256 10.3988 1.4358 -40.8577
# 3 39.3810 43.9256 106.8552 -0.8754 -7.7484 -30.5829
# 4 -0.1590 10.3988 -0.8754 45.1373 -9.9803 0.5534
# 5 -6.7735 1.4358 -7.7484 -9.9803 38.2111 -7.6266
# 6 -22.1828 -40.8577 -30.5829 0.5534 -7.6266 39.8241
#
#
#
# Elastic Compliance Matrix: (Units=1/GPa)
#
#
# Indices 1 2 3 4 5 6 
#
# 1 0.017810 -0.002641 -0.003737 0.001393 0.003873 0.005064
# 2 -0.002641 0.010456 -0.000877 -0.002537 0.000020 0.008622
# 3 -0.003737 -0.000877 0.013818 0.001279 0.004186 0.008415
# 4 0.001393 -0.002537 0.001279 0.024311 0.006982 0.000155
# 5 0.003873 0.000020 0.004186 0.006982 0.031801 0.011386
# 6 0.005064 0.008622 0.008415 0.000155 0.011386 0.045418
#
#
# Mechanical properties :
#
#
# Convention : Reuss Voigt Hill
#
# Bulk Modulus (GPa) = 36.26287 64.49866 50.38076
# Shear Modulus (GPa) = 29.88385 38.40170 34.14277
#
# Velocity S-wave (km/s) = 3.47154 3.93531 3.71068
# Velocity P-wave (km/s) = 5.54012 6.83081 6.21904
#
# Compressibility (1/GPa) = 0.02757642
#
# Stress axis : x y z
#
# Youngs Moduli (GPa) = 56.14882 95.63774 72.36724
#
# Poissons Ratio (x) = 0.25257 0.27040
# Poissons Ratio (y) = 0.14829 0.06343
# Poissons Ratio (z) = 0.20980 0.08383
#
# Static dielectric constant tensor:
#      x y z
#    x 2.032640 -0.016780 0.032530 
#    y -0.016780 2.031150 0.061860 
#    z 0.032530 0.061860 2.046830 
# 
# From -- ./inp_files/85003.got.cif
#   From: 2010.05.17/outbox.cif.g08.bks.cpg/sg2_43_cif.got.tgz:85003.got - 2010.06.03 11:33:40.
