data_PCOD9050962
_publ_section_title
;
Structure prediction by ZEFSAII (Michael W. Deem and Ramdas Pophale) SiO2 
 PCOD9050962
Probable space group: P -1
;
_chemical_formula_sum "Si O2"
_cell_formula_units_Z 16
_cell_length_a 13.795005
_cell_length_b 7.813863
_cell_length_c 8.436449
_cell_angle_alpha 124.683276
_cell_angle_beta 86.381744
_cell_angle_gamma 123.485519
_cell_volume 580.466244
_symmetry_space_group_name_H-M "P -1"
_symmetry_group_IT_number 2
_symmetry_cell_setting 'triclinic'
loop_
_space_group_symop_operation_xyz
x,y,z
-x,-y,-z
loop_
_atom_site_type_symbol
_atom_site_label
_atom_site_fract_x
_atom_site_fract_y
_atom_site_fract_z
Si Si1 0.291509 0.483942 0.291562
Si Si2 0.588491 0.973278 0.320487
Si Si3 0.017908 0.377883 0.754561
Si Si4 0.913760 0.823805 0.067997
Si Si5 0.212823 0.961984 0.890922
Si Si6 0.196750 0.354818 0.562787
Si Si7 0.732440 0.024748 0.633005
Si Si8 0.386597 0.802858 0.031600
O O1 0.407323 0.778671 0.491096
O O2 0.213809 0.453320 0.131344
O O3 0.204302 0.427062 0.417468
O O4 0.291681 0.238013 0.130434
O O5 0.690617 0.054620 0.217887
O O6 0.641307 0.923282 0.438661
O O7 0.455672 0.757498 0.136918
O O8 0.113883 0.693349 0.861550
O O9 0.060382 0.253424 0.566123
O O10 0.031226 0.266010 0.860443
O O11 0.122572 0.731594 0.297080
O O12 0.859949 0.983461 0.196744
O O13 0.000000 0.000000 0.000000
O O14 0.248620 0.193450 0.455254
O O15 0.280329 0.554722 0.804885
O O16 0.670293 0.071146 0.807930
O O17 0.500000 0.000000 0.000000
#
# Coordination Sequence:
#
# PCOD9050962 Si02
#       8
#     2   2   2   2   2   2   2   2
#     4  10  25  46  76 116 160 203 263 315 396 469
#     4  12  26  54  78 117 159 207 273 327 389 478
#     4  12  26  53  82 120 170 204 264 326 401 495
#     4  10  25  44  74 112 162 209 254 321 391 473
#     4  10  26  47  82 117 164 217 249 328 407 466
#     4  12  27  51  79 123 155 206 267 324 402 486
#     4  12  32  49  83 119 157 215 260 330 411 464
#     4  12  29  54  81 109 159 207 277 336 386 475
#
# _framework density 27.564050000000002
#
# number of rings (size 3 to 8) (size 9 to 14) (size 15 to 20)
#    0.750    0.000    2.500    2.250    7.000    4.500 
#    2.250    0.000    0.000    0.000    0.000    0.000 
#    0.000    0.000    0.000    0.000    0.000    0.000 
#
# Total GULP energy -89345.052120 kJ/mol
# GULP energy per Si atom -5584.065757 kJ/mol
# Density = 2.750131 g / cm^3
# Si number density = 27.564050 Si / 1000 Ang^3
#
#
#
# Elastic Constant Matrix: (Units=GPa)
#
#
# Indices 1 2 3 4 5 6 
#
# 1 224.4455 58.8197 68.3405 -9.7762 -5.2197 -1.7646
# 2 58.8197 93.2429 33.0652 -7.8771 -9.0701 -3.8505
# 3 68.3405 33.0652 160.3817 3.7128 -15.2405 -0.8137
# 4 -9.7762 -7.8771 3.7128 36.2129 -2.0882 -7.7076
# 5 -5.2197 -9.0701 -15.2405 -2.0882 64.9685 -9.4056
# 6 -1.7646 -3.8505 -0.8137 -7.7076 -9.4056 53.5504
#
#
#
# Elastic Compliance Matrix: (Units=1/GPa)
#
#
# Indices 1 2 3 4 5 6 
#
# 1 0.005862 -0.002943 -0.001951 0.001133 -0.000353 0.000053
# 2 -0.002943 0.013542 -0.001439 0.002719 0.001626 0.001532
# 3 -0.001951 -0.001439 0.007527 -0.001541 0.001353 -0.000038
# 4 0.001133 0.002719 -0.001541 0.029795 0.001763 0.004807
# 5 -0.000353 0.001626 0.001353 0.001763 0.016438 0.003267
# 6 0.000053 0.001532 -0.000038 0.004807 0.003267 0.020051
#
#
# Mechanical properties :
#
#
# Convention : Reuss Voigt Hill
#
# Bulk Modulus (GPa) = 70.09117 88.72453 79.40785
# Shear Modulus (GPa) = 45.19374 52.13602 48.66488
#
# Velocity S-wave (km/s) = 4.05358 4.35380 4.20637
# Velocity P-wave (km/s) = 6.88421 7.58502 7.24309
#
# Compressibility (1/GPa) = 0.01426713
#
# Stress axis : x y z
#
# Youngs Moduli (GPa) = 170.58595 73.84322 132.85373
#
# Poissons Ratio (x) = 0.21729 0.25917
# Poissons Ratio (y) = 0.50197 0.19114
# Poissons Ratio (z) = 0.33278 0.10624
#
# Static dielectric constant tensor:
#      x y z
#    x 2.093440 0.052050 0.001570 
#    y 0.052050 2.456600 0.070560 
#    z 0.001570 0.070560 2.211100 
# 
# From -- ./inp_files/328039.got.cif
#   From: 2010.05.17/outbox.cif.g08.bks.cpg/sg2_165_cif.got.tgz:328039.got - 2010.06.03 11:33:40.
