data_PCOD9050714
_publ_section_title
;
Structure prediction by ZEFSAII (Michael W. Deem and Ramdas Pophale) SiO2 
 PCOD9050714
Probable space group: P -1
;
_chemical_formula_sum "Si O2"
_cell_formula_units_Z 14
_cell_length_a 7.938840
_cell_length_b 10.930679
_cell_length_c 17.239552
_cell_angle_alpha 30.310486
_cell_angle_beta 48.832188
_cell_angle_gamma 59.975704
_cell_volume 559.202711
_symmetry_space_group_name_H-M "P -1"
_symmetry_group_IT_number 2
_symmetry_cell_setting 'triclinic'
loop_
_space_group_symop_operation_xyz
x,y,z
-x,-y,-z
loop_
_atom_site_type_symbol
_atom_site_label
_atom_site_fract_x
_atom_site_fract_y
_atom_site_fract_z
Si Si1 0.242022 0.409620 0.152509
Si Si2 0.953815 0.148845 0.243775
Si Si3 0.183210 0.359587 0.367187
Si Si4 0.196570 0.949083 0.911057
Si Si5 0.508303 0.820634 0.169326
Si Si6 0.259873 0.444673 0.554863
Si Si7 0.309312 0.422228 0.874555
O O1 0.202458 0.271632 0.321449
O O2 0.112568 0.238139 0.220392
O O3 0.500000 0.500000 0.000000
O O4 0.165760 0.672910 0.042666
O O5 0.771273 0.330863 0.205536
O O6 0.840729 0.868521 0.442376
O O7 0.128529 0.210689 0.086106
O O8 0.423704 0.539299 0.206843
O O9 0.960043 0.482522 0.376564
O O10 0.412790 0.021781 0.863853
O O11 0.217336 0.148567 0.726402
O O12 0.000000 0.000000 0.000000
O O13 0.296113 0.616989 0.373413
O O14 0.682700 0.647022 0.180570
O O15 0.500000 0.000000 0.000000
O O16 0.500000 0.500000 0.500000
#
# Coordination Sequence:
#
# PCOD9050714 Si02
#       7
#     2   2   2   2   2   2   2
#     4  12  25  43  76 105 141 196 246 296 369 431
#     4  11  26  46  71 107 149 189 241 298 364 443
#     4  12  24  47  74 105 145 189 246 300 365 443
#     4  11  23  46  71 101 147 187 241 303 362 433
#     4  11  24  44  72 102 147 185 241 307 360 429
#     4  10  25  43  73 105 141 189 246 301 369 431
#     4  11  25  47  69 107 147 193 235 294 379 433
#
# _framework density 25.035644000000001
#
# number of rings (size 3 to 8) (size 9 to 14) (size 15 to 20)
#    0.000    0.857    2.857    3.429    6.000    1.714 
#    7.714    0.000    0.000    0.000    0.000    0.000 
#    0.000    0.000    0.000    0.000    0.000    0.000 
#
# Total GULP energy -78296.767860 kJ/mol
# GULP energy per Si atom -5592.626276 kJ/mol
# Density = 2.497866 g / cm^3
# Si number density = 25.035644 Si / 1000 Ang^3
#
#
#
# Elastic Constant Matrix: (Units=GPa)
#
#
# Indices 1 2 3 4 5 6 
#
# 1 78.4845 16.3620 23.8326 15.9919 -13.2455 -7.1772
# 2 16.3620 81.9021 33.8482 24.5679 -16.1686 -18.9269
# 3 23.8326 33.8482 180.1191 -0.6699 12.5580 -20.9738
# 4 15.9919 24.5679 -0.6699 54.1513 -2.7554 -6.0822
# 5 -13.2455 -16.1686 12.5580 -2.7554 39.9963 5.0706
# 6 -7.1772 -18.9269 -20.9738 -6.0822 5.0706 42.0362
#
#
#
# Elastic Compliance Matrix: (Units=1/GPa)
#
#
# Indices 1 2 3 4 5 6 
#
# 1 0.015292 0.000503 -0.002503 -0.004456 0.005714 0.000254
# 2 0.000503 0.018443 -0.003559 -0.007657 0.007631 0.004586
# 3 -0.002503 -0.003559 0.007174 0.002483 -0.004662 0.002471
# 4 -0.004456 -0.007657 0.002483 0.023186 -0.003861 0.000851
# 5 0.005714 0.007631 -0.004662 -0.003861 0.031465 -0.002269
# 6 0.000254 0.004586 0.002471 0.000851 -0.002269 0.027527
#
#
# Mechanical properties :
#
#
# Convention : Reuss Voigt Hill
#
# Bulk Modulus (GPa) = 33.56728 54.28792 43.92760
# Shear Modulus (GPa) = 34.68945 45.00096 39.84520
#
# Velocity S-wave (km/s) = 3.72641 4.24426 3.99374
# Velocity P-wave (km/s) = 5.65258 6.76385 6.23303
#
# Compressibility (1/GPa) = 0.02979092
#
# Stress axis : x y z
#
# Youngs Moduli (GPa) = 65.39256 54.22150 139.39296
#
# Poissons Ratio (x) = -0.02728 0.34894
# Poissons Ratio (y) = -0.03290 0.49608
# Poissons Ratio (z) = 0.16370 0.19297
#
# Static dielectric constant tensor:
#      x y z
#    x 2.199230 -0.022700 0.078630 
#    y -0.022700 1.994190 -0.031400 
#    z 0.078630 -0.031400 1.985770 
# 
# From -- ./inp_files/559478.got.cif
#   From: 2010.05.17/outbox.cif.g08.bks.cpg/sg2_280_cif.got.tgz:559478.got - 2010.06.03 11:33:40.
