data_PCOD9050229
_publ_section_title
;
Structure prediction by ZEFSAII (Michael W. Deem and Ramdas Pophale) SiO2 
 PCOD9050229
Probable space group: P -1
;
_chemical_formula_sum "Si O2"
_cell_formula_units_Z 13
_cell_length_a 9.383505
_cell_length_b 13.645607
_cell_length_c 5.235137
_cell_angle_alpha 66.607400
_cell_angle_beta 79.907695
_cell_angle_gamma 122.823811
_cell_volume 445.859375
_symmetry_space_group_name_H-M "P -1"
_symmetry_group_IT_number 2
_symmetry_cell_setting 'triclinic'
loop_
_space_group_symop_operation_xyz
x,y,z
-x,-y,-z
loop_
_atom_site_type_symbol
_atom_site_label
_atom_site_fract_x
_atom_site_fract_y
_atom_site_fract_z
Si Si1 0.708574 0.803238 0.318820
Si Si2 0.687610 0.378793 0.562132
Si Si3 0.992655 0.625391 0.903622
Si Si4 0.244335 0.977233 0.264605
Si Si5 0.000000 0.000000 0.500000
Si Si6 0.304691 0.833023 0.963652
Si Si7 0.675161 0.551508 0.707766
O O1 0.480053 0.725263 0.484367
O O2 0.712698 0.678662 0.406111
O O3 0.829164 0.893771 0.434407
O O4 0.787745 0.912453 0.936987
O O5 0.839785 0.546784 0.266094
O O6 0.768240 0.308252 0.710577
O O7 0.586343 0.394888 0.798606
O O8 0.200531 0.771500 0.785876
O O9 0.874684 0.618258 0.720052
O O10 0.000000 0.500000 0.000000
O O11 0.059417 0.896654 0.589428
O O12 0.252114 0.908100 0.079679
O O13 0.459883 0.067095 0.223202
O O14 0.500000 0.500000 0.000000
#
# Coordination Sequence:
#
# PCOD9050229 Si02
#       7
#     2   2   2   2   1   2   2
#     4  11  27  45  71 106 152 183 248 306 366 436
#     4  11  25  47  72 108 148 190 240 316 369 444
#     4  12  26  43  75 111 146 195 245 301 375 451
#     4  10  26  51  72 107 145 206 240 318 356 437
#     4  12  28  44  78 104 140 200 258 292 366 434
#     4  10  24  49  74 102 157 186 248 303 382 428
#     4  12  27  45  76 112 146 197 240 306 385 440
#
# _framework density 29.157177000000001
#
# number of rings (size 3 to 8) (size 9 to 14) (size 15 to 20)
#    0.000    0.923    3.077    1.385   10.769    0.000 
#    0.000    2.308    0.000    0.000    0.000    0.000 
#    0.000    0.000    0.000    0.000    0.000    0.000 
#
# Total GULP energy -72657.879601 kJ/mol
# GULP energy per Si atom -5589.067662 kJ/mol
# Density = 2.909081 g / cm^3
# Si number density = 29.157177 Si / 1000 Ang^3
#
#
#
# Elastic Constant Matrix: (Units=GPa)
#
#
# Indices 1 2 3 4 5 6 
#
# 1 241.1695 89.8442 22.2710 19.2899 12.0097 9.2760
# 2 89.8442 179.1042 16.3540 14.5137 4.3571 15.4354
# 3 22.2710 16.3540 61.2787 -18.6640 14.8109 10.5247
# 4 19.2899 14.5137 -18.6640 51.8803 -4.3464 6.1866
# 5 12.0097 4.3571 14.8109 -4.3464 60.0636 1.7378
# 6 9.2760 15.4354 10.5247 6.1866 1.7378 85.7347
#
#
#
# Elastic Compliance Matrix: (Units=1/GPa)
#
#
# Indices 1 2 3 4 5 6 
#
# 1 0.005389 -0.002370 -0.001855 -0.002087 -0.000606 0.000234
# 2 -0.002370 0.007081 -0.001412 -0.001501 0.000221 -0.000741
# 3 -0.001855 -0.001412 0.021518 0.008808 -0.004116 -0.002739
# 4 -0.002087 -0.001501 0.008808 0.023928 0.000153 -0.002315
# 5 -0.000606 0.000221 -0.004116 0.000153 0.017775 0.000160
# 6 0.000234 -0.000741 -0.002739 -0.002315 0.000160 0.012272
#
#
# Mechanical properties :
#
#
# Convention : Reuss Voigt Hill
#
# Bulk Modulus (GPa) = 44.02657 82.05455 63.04056
# Shear Modulus (GPa) = 46.81251 63.07460 54.94355
#
# Velocity S-wave (km/s) = 4.01124 4.65613 4.34567
# Velocity P-wave (km/s) = 6.04863 7.55707 6.84453
#
# Compressibility (1/GPa) = 0.02271356
#
# Stress axis : x y z
#
# Youngs Moduli (GPa) = 185.56925 141.21707 46.47333
#
# Poissons Ratio (x) = 0.33470 0.08622
# Poissons Ratio (y) = 0.43983 0.06560
# Poissons Ratio (z) = 0.34430 0.19935
#
# Static dielectric constant tensor:
#      x y z
#    x 11.543020 -2.514100 -21.780180 
#    y -2.514100 2.920610 5.546560 
#    z -21.780180 5.546560 53.139450 
# 
# From -- ./inp_files/26939.got.cif
#   From: 2010.05.17/outbox.cif.g08.bks.cpg/sg2_14_cif.got.tgz:26939.got - 2010.06.03 11:33:40.
