data_PCOD9050683
_publ_section_title
;
Structure prediction by ZEFSAII (Michael W. Deem and Ramdas Pophale) SiO2 
 PCOD9050683
Probable space group: P -1
;
_chemical_formula_sum "Si O2"
_cell_formula_units_Z 16
_cell_length_a 16.703730
_cell_length_b 13.797972
_cell_length_c 6.869318
_cell_angle_alpha 82.947234
_cell_angle_beta 112.704874
_cell_angle_gamma 147.506642
_cell_volume 715.912662
_symmetry_space_group_name_H-M "P -1"
_symmetry_group_IT_number 2
_symmetry_cell_setting 'triclinic'
loop_
_space_group_symop_operation_xyz
x,y,z
-x,-y,-z
loop_
_atom_site_type_symbol
_atom_site_label
_atom_site_fract_x
_atom_site_fract_y
_atom_site_fract_z
Si Si1 0.666218 0.680058 0.472765
Si Si2 0.424509 0.312415 0.995030
Si Si3 0.011653 0.708089 0.898596
Si Si4 0.480159 0.758883 0.189839
Si Si5 0.311660 0.508111 0.480996
Si Si6 0.124008 0.510956 0.804133
Si Si7 0.118179 0.018005 0.094557
Si Si8 0.199510 0.807514 0.701675
O O1 0.500000 0.500000 0.500000
O O2 0.589817 0.614029 0.199393
O O3 0.770268 0.679719 0.586260
O O4 0.781341 0.877168 0.629073
O O5 0.419550 0.223175 0.846934
O O6 0.566412 0.397518 0.246885
O O7 0.258440 0.167785 0.014634
O O8 0.846742 0.571549 0.637608
O O9 0.168474 0.829366 0.876212
O O10 0.955448 0.570826 0.032278
O O11 0.041164 0.835376 0.023462
O O12 0.426651 0.658578 0.370240
O O13 0.616473 0.981285 0.272918
O O14 0.296374 0.611378 0.954560
O O15 0.185949 0.678820 0.758163
O O16 0.963120 0.324284 0.559215
O O17 0.000000 0.000000 0.000000
#
# Coordination Sequence:
#
# PCOD9050683 Si02
#       8
#     2   2   2   2   2   2   2   2
#     4  12  24  42  62  93 131 177 227 272 328 390
#     4  12  24  41  67  93 131 181 226 275 335 400
#     4  11  24  45  68  97 137 177 224 277 336 407
#     4  11  23  42  70 100 134 173 226 279 343 409
#     4  11  24  43  64  97 133 178 227 279 330 396
#     4  10  25  43  71 103 136 170 224 286 342 414
#     4  12  26  42  62  97 135 181 226 276 329 393
#     4  11  23  45  71 101 134 178 220 280 354 403
#
# _framework density 22.349094000000001
#
# number of rings (size 3 to 8) (size 9 to 14) (size 15 to 20)
#    0.000    0.750    5.000    1.875    3.500    0.500 
#    2.250    0.000    0.000    8.250    0.000    0.000 
#    0.000    0.000    0.000    0.000    0.000    0.000 
#
# Total GULP energy -89212.757507 kJ/mol
# GULP energy per Si atom -5575.797344 kJ/mol
# Density = 2.229823 g / cm^3
# Si number density = 22.349094 Si / 1000 Ang^3
#
#
#
# Elastic Constant Matrix: (Units=GPa)
#
#
# Indices 1 2 3 4 5 6 
#
# 1 46.6000 10.6355 19.8580 -7.2551 -1.8830 7.8425
# 2 10.6355 120.9696 27.7763 -6.0478 4.9155 -17.0741
# 3 19.8580 27.7763 155.5389 -17.6243 17.2750 3.0024
# 4 -7.2551 -6.0478 -17.6243 33.8862 -1.4908 -0.4306
# 5 -1.8830 4.9155 17.2750 -1.4908 25.0417 -4.8497
# 6 7.8425 -17.0741 3.0024 -0.4306 -4.8497 34.0181
#
#
#
# Elastic Compliance Matrix: (Units=1/GPa)
#
#
# Indices 1 2 3 4 5 6 
#
# 1 0.024837 -0.002422 -0.002555 0.003615 0.003115 -0.006226
# 2 -0.002422 0.009619 -0.001462 0.000510 0.000039 0.005527
# 3 -0.002555 -0.001462 0.008016 0.003096 -0.005562 -0.001606
# 4 0.003615 0.000510 0.003096 0.031973 -0.000151 -0.000468
# 5 0.003115 0.000039 -0.005562 -0.000151 0.045195 0.006234
# 6 -0.006226 0.005527 -0.001606 -0.000468 0.006234 0.034630
#
#
# Mechanical properties :
#
#
# Convention : Reuss Voigt Hill
#
# Bulk Modulus (GPa) = 33.78866 48.84977 41.31921
# Shear Modulus (GPa) = 28.24665 36.24513 32.24589
#
# Velocity S-wave (km/s) = 3.55897 4.03149 3.80258
# Velocity P-wave (km/s) = 5.66037 6.60118 6.14880
#
# Compressibility (1/GPa) = 0.02959573
#
# Stress axis : x y z
#
# Youngs Moduli (GPa) = 40.26252 103.95905 124.75008
#
# Poissons Ratio (x) = 0.25175 0.31870
# Poissons Ratio (y) = 0.09750 0.18237
# Poissons Ratio (z) = 0.10286 0.15197
#
# Static dielectric constant tensor:
#      x y z
#    x 1.911230 -0.081470 -0.025100 
#    y -0.081470 1.915640 0.041500 
#    z -0.025100 0.041500 1.863740 
# 
# From -- ./inp_files/110814.got.cif
#   From: 2010.05.17/outbox.cif.g08.bks.cpg/sg2_56_cif.got.tgz:110814.got - 2010.06.03 11:33:40.
