data_PCOD9050572
_publ_section_title
;
Structure prediction by ZEFSAII (Michael W. Deem and Ramdas Pophale) SiO2 
 PCOD9050572
Probable space group: P -1
;
_chemical_formula_sum "Si O2"
_cell_formula_units_Z 16
_cell_length_a 8.391483
_cell_length_b 8.224405
_cell_length_c 14.248934
_cell_angle_alpha 57.995289
_cell_angle_beta 90.665175
_cell_angle_gamma 118.509552
_cell_volume 693.293161
_symmetry_space_group_name_H-M "P -1"
_symmetry_group_IT_number 2
_symmetry_cell_setting 'triclinic'
loop_
_space_group_symop_operation_xyz
x,y,z
-x,-y,-z
loop_
_atom_site_type_symbol
_atom_site_label
_atom_site_fract_x
_atom_site_fract_y
_atom_site_fract_z
Si Si1 0.851897 0.805580 0.488068
Si Si2 0.929550 0.611022 0.391795
Si Si3 0.497598 0.339501 0.210243
Si Si4 0.195544 0.452373 0.103160
Si Si5 0.499146 0.775814 0.545903
Si Si6 0.839316 0.799770 0.995681
Si Si7 0.185871 0.583493 0.260454
Si Si8 0.466042 0.086461 0.114376
O O1 0.950234 0.821024 0.384964
O O2 0.669627 0.818734 0.468036
O O3 0.793779 0.572663 0.615459
O O4 0.000000 0.000000 0.500000
O O5 0.706514 0.427646 0.428455
O O6 0.000000 0.500000 0.500000
O O7 0.048780 0.650447 0.287190
O O8 0.351500 0.397704 0.151330
O O9 0.460181 0.290879 0.333074
O O10 0.469498 0.128888 0.213257
O O11 0.708987 0.562043 0.124752
O O12 0.087022 0.273151 0.072085
O O13 0.102859 0.455893 0.199438
O O14 0.325670 0.713428 0.983544
O O15 0.500000 0.000000 0.500000
O O16 0.689487 0.865702 0.942486
O O17 0.000000 0.000000 0.000000
O O18 0.388819 0.824284 0.171396
#
# Coordination Sequence:
#
# PCOD9050572 Si02
#       8
#     2   2   2   2   2   2   2   2
#     4  11  25  45  67  93 130 171 225 277 333 397
#     4  10  25  43  64  95 129 174 221 266 336 388
#     4   9  20  38  62  95 123 171 220 261 330 385
#     4   9  18  40  64  94 126 173 219 260 325 394
#     4  12  24  42  69  94 132 166 224 280 327 397
#     4   9  19  37  62  92 135 171 210 270 322 390
#     4  11  21  38  69  94 130 169 221 272 328 392
#     4   9  20  35  66  93 127 169 217 266 328 393
#
# _framework density 23.078261999999999
#
# number of rings (size 3 to 8) (size 9 to 14) (size 15 to 20)
#    0.000    2.000    1.250    3.750    7.000    0.000 
#    0.000    0.625    5.500    0.000    0.000    0.000 
#    0.000    0.000    0.000    0.000    0.000    0.000 
#
# Total GULP energy -89446.265993 kJ/mol
# GULP energy per Si atom -5590.391625 kJ/mol
# Density = 2.302573 g / cm^3
# Si number density = 23.078262 Si / 1000 Ang^3
#
#
#
# Elastic Constant Matrix: (Units=GPa)
#
#
# Indices 1 2 3 4 5 6 
#
# 1 71.7155 29.3669 8.3222 14.0444 -15.3491 -5.7948
# 2 29.3669 157.2966 21.2588 20.5825 -13.0982 -2.4904
# 3 8.3222 21.2588 45.4579 11.2795 -8.3452 -15.0825
# 4 14.0444 20.5825 11.2795 43.4285 -19.0214 -5.7027
# 5 -15.3491 -13.0982 -8.3452 -19.0214 23.0310 10.0216
# 6 -5.7948 -2.4904 -15.0825 -5.7027 10.0216 41.0995
#
#
#
# Elastic Compliance Matrix: (Units=1/GPa)
#
#
# Indices 1 2 3 4 5 6 
#
# 1 0.017057 -0.002313 -0.000297 0.000049 0.010117 -0.000304
# 2 -0.002313 0.007470 -0.002928 -0.001926 0.000653 -0.001374
# 3 -0.000297 -0.002928 0.027631 -0.004179 0.000709 0.009168
# 4 0.000049 -0.001926 -0.004179 0.037765 0.030259 -0.003781
# 5 0.010117 0.000653 0.000709 0.030259 0.081892 -0.014044
# 6 -0.000304 -0.001374 0.009168 -0.003781 -0.014044 0.030469
#
#
# Mechanical properties :
#
#
# Convention : Reuss Voigt Hill
#
# Bulk Modulus (GPa) = 24.34170 43.59619 33.96895
# Shear Modulus (GPa) = 22.02128 35.87995 28.95061
#
# Velocity S-wave (km/s) = 3.09236 3.94726 3.54567
# Velocity P-wave (km/s) = 4.82915 6.30127 5.61367
#
# Compressibility (1/GPa) = 0.04108176
#
# Stress axis : x y z
#
# Youngs Moduli (GPa) = 58.62754 133.87536 36.19158
#
# Poissons Ratio (x) = 0.30967 0.01074
# Poissons Ratio (y) = 0.13561 0.10597
# Poissons Ratio (z) = 0.01739 0.39199
#
# Static dielectric constant tensor:
#      x y z
#    x 1.883570 -0.046420 -0.008950 
#    y -0.046420 1.880230 0.005710 
#    z -0.008950 0.005710 1.879380 
# 
# From -- ./inp_files/492307.got.cif
#   From: 2010.05.17/outbox.cif.g08.bks.cpg/sg2_247_cif.got.tgz:492307.got - 2010.06.03 11:33:40.
