data_PCOD9050674
_publ_section_title
;
Structure prediction by ZEFSAII (Michael W. Deem and Ramdas Pophale) SiO2 
 PCOD9050674
Probable space group: P -1
;
_chemical_formula_sum "Si O2"
_cell_formula_units_Z 16
_cell_length_a 25.235326
_cell_length_b 9.880562
_cell_length_c 9.380982
_cell_angle_alpha 145.807643
_cell_angle_beta 144.470628
_cell_angle_gamma 32.038195
_cell_volume 645.619314
_symmetry_space_group_name_H-M "P -1"
_symmetry_group_IT_number 2
_symmetry_cell_setting 'triclinic'
loop_
_space_group_symop_operation_xyz
x,y,z
-x,-y,-z
loop_
_atom_site_type_symbol
_atom_site_label
_atom_site_fract_x
_atom_site_fract_y
_atom_site_fract_z
Si Si1 0.537451 0.624940 0.569558
Si Si2 0.049302 0.546075 0.505711
Si Si3 0.807382 0.928614 0.787231
Si Si4 0.355633 0.228751 0.607829
Si Si5 0.455345 0.709764 0.950569
Si Si6 0.084400 0.247057 0.857051
Si Si7 0.748363 0.447339 0.930380
Si Si8 0.267880 0.324087 0.197606
O O1 0.500000 0.500000 0.500000
O O2 0.594401 0.388525 0.365103
O O3 0.440340 0.888601 0.503578
O O4 0.622085 0.699363 0.884132
O O5 0.088315 0.269865 0.253009
O O6 0.155115 0.542791 0.779127
O O7 0.000000 0.500000 0.500000
O O8 0.975633 0.793328 0.443400
O O9 0.746267 0.759428 0.531596
O O10 0.839400 0.992049 0.067067
O O11 0.743335 0.201726 0.786760
O O12 0.316343 0.361295 0.481024
O O13 0.436695 0.325348 0.915993
O O14 0.500000 0.500000 0.000000
O O15 0.364225 0.019715 0.080877
O O16 0.166027 0.311529 0.012896
O O17 0.000000 0.500000 0.000000
O O18 0.770992 0.443115 0.808269
#
# Coordination Sequence:
#
# PCOD9050674 Si02
#       8
#     2   2   2   2   2   2   2   2
#     4  12  26  42  65 104 144 180 227 279 343 413
#     4  11  24  46  69  99 136 175 230 293 343 404
#     4  10  25  43  71 100 134 183 225 276 358 410
#     4  11  23  45  68  97 147 180 229 282 337 422
#     4  12  25  42  72  99 140 191 231 275 348 412
#     4   9  21  47  71  94 135 178 224 291 345 404
#     4  12  25  40  71 102 138 175 231 282 342 405
#     4  11  22  43  70 103 138 179 231 291 337 414
#
# _framework density 24.782406000000002
#
# number of rings (size 3 to 8) (size 9 to 14) (size 15 to 20)
#    0.000    1.000    5.000    1.125    3.500    1.500 
#    0.000    0.000    0.000    0.000    0.000    0.000 
#    0.000    0.000    0.000    0.000    0.000    0.000 
#
# Total GULP energy -89238.587975 kJ/mol
# GULP energy per Si atom -5577.411748 kJ/mol
# Density = 2.472600 g / cm^3
# Si number density = 24.782406 Si / 1000 Ang^3
#
#
#
# Elastic Constant Matrix: (Units=GPa)
#
#
# Indices 1 2 3 4 5 6 
#
# 1 172.4147 52.1414 53.5082 -27.5591 -3.6613 32.6950
# 2 52.1414 78.0453 27.1135 -34.5638 -6.0081 34.7655
# 3 53.5082 27.1135 102.3097 -45.5653 6.3883 13.8075
# 4 -27.5591 -34.5638 -45.5653 41.8365 -3.0678 -2.3540
# 5 -3.6613 -6.0081 6.3883 -3.0678 25.8612 -8.9067
# 6 32.6950 34.7655 13.8075 -2.3540 -8.9067 50.5148
#
#
#
# Elastic Compliance Matrix: (Units=1/GPa)
#
#
# Indices 1 2 3 4 5 6 
#
# 1 0.008390 -0.005758 -0.004858 -0.004506 0.000421 -0.000275
# 2 -0.005758 0.049979 0.019550 0.057024 0.001323 -0.033123
# 3 -0.004858 0.019550 0.028892 0.043177 -0.003981 -0.016898
# 4 -0.004506 0.057024 0.043177 0.112706 0.000582 -0.042776
# 5 0.000421 0.001323 -0.003981 0.000582 0.042654 0.007453
# 6 -0.000275 -0.033123 -0.016898 -0.042776 0.007453 0.046710
#
#
# Mechanical properties :
#
#
# Convention : Reuss Voigt Hill
#
# Bulk Modulus (GPa) = 9.51198 68.69954 39.10576
# Shear Modulus (GPa) = 16.31296 38.30962 27.31129
#
# Velocity S-wave (km/s) = 2.56842 3.93598 3.32331
# Velocity P-wave (km/s) = 3.55559 6.95968 5.52628
#
# Compressibility (1/GPa) = 0.10513053
#
# Stress axis : x y z
#
# Youngs Moduli (GPa) = 119.19221 20.00853 34.61148
#
# Poissons Ratio (x) = 0.11521 0.16813
# Poissons Ratio (y) = 0.68629 -0.67667
# Poissons Ratio (z) = 0.57900 -0.39118
#
# Static dielectric constant tensor:
#      x y z
#    x 1.946430 -0.011850 0.017550 
#    y -0.011850 2.115380 -0.012700 
#    z 0.017550 -0.012700 1.999610 
# 
# From -- ./inp_files/352485.got.cif
#   From: 2010.05.17/outbox.cif.g08.bks.cpg/sg2_177_cif.got.tgz:352485.got - 2010.06.03 11:33:40.
