data_PCOD9050353
_publ_section_title
;
Structure prediction by ZEFSAII (Michael W. Deem and Ramdas Pophale) SiO2 
 PCOD9050353
Probable space group: P -1
;
_chemical_formula_sum "Si O2"
_cell_formula_units_Z 14
_cell_length_a 7.011629
_cell_length_b 12.123974
_cell_length_c 7.034183
_cell_angle_alpha 112.303579
_cell_angle_beta 113.491670
_cell_angle_gamma 89.139838
_cell_volume 500.792473
_symmetry_space_group_name_H-M "P -1"
_symmetry_group_IT_number 2
_symmetry_cell_setting 'triclinic'
loop_
_space_group_symop_operation_xyz
x,y,z
-x,-y,-z
loop_
_atom_site_type_symbol
_atom_site_label
_atom_site_fract_x
_atom_site_fract_y
_atom_site_fract_z
Si Si1 0.642125 0.627808 0.862031
Si Si2 0.832639 0.988822 0.623922
Si Si3 0.700278 0.722795 0.349568
Si Si4 0.188047 0.562237 0.478959
Si Si5 0.734148 0.020197 0.024521
Si Si6 0.966824 0.741706 0.837840
Si Si7 0.765736 0.259442 0.708949
O O1 0.393350 0.606228 0.717261
O O2 0.736926 0.529376 0.707230
O O3 0.759752 0.751671 0.893040
O O4 0.693824 0.635910 0.109473
O O5 0.763053 0.863485 0.406579
O O6 0.081671 0.007326 0.779421
O O7 0.771838 0.115112 0.612164
O O8 0.732897 0.959970 0.776101
O O9 0.466050 0.713100 0.331282
O O10 0.150776 0.674889 0.407581
O O11 0.846620 0.701061 0.569048
O O12 0.000000 0.500000 0.500000
O O13 0.845251 0.155213 0.092808
O O14 0.500000 0.000000 0.000000
O O15 0.097317 0.686583 0.019848
#
# Coordination Sequence:
#
# PCOD9050353 Si02
#       7
#     2   2   2   2   2   2   2
#     4  11  27  56  85 123 169 226 295 365 432 512
#     4   9  21  46  79 127 175 224 291 343 422 524
#     4  11  24  52  90 123 179 221 283 365 429 514
#     4  11  28  58  91 122 172 226 293 367 445 513
#     4   9  19  45  80 120 181 235 280 342 424 515
#     4  10  24  51  80 129 168 220 292 350 422 515
#     4  11  24  52  86 128 171 233 291 347 440 514
#
# _framework density 27.955691999999999
#
# number of rings (size 3 to 8) (size 9 to 14) (size 15 to 20)
#    0.000    1.714    1.429    1.286    2.000    2.286 
#   28.286    4.286    0.000    0.857    0.000    0.000 
#    0.000    0.000    0.000    0.000    0.000    0.000 
#
# Total GULP energy -78347.666652 kJ/mol
# GULP energy per Si atom -5596.261904 kJ/mol
# Density = 2.789206 g / cm^3
# Si number density = 27.955692 Si / 1000 Ang^3
#
#
#
# Elastic Constant Matrix: (Units=GPa)
#
#
# Indices 1 2 3 4 5 6 
#
# 1 237.7809 48.8437 69.9449 -15.4620 14.9091 38.3973
# 2 48.8437 132.1248 28.8313 -12.0204 2.2650 17.2398
# 3 69.9449 28.8313 187.5408 -24.1080 14.5733 1.5352
# 4 -15.4620 -12.0204 -24.1080 43.6374 0.6340 -5.8266
# 5 14.9091 2.2650 14.5733 0.6340 61.3649 1.6261
# 6 38.3973 17.2398 1.5352 -5.8266 1.6261 41.8025
#
#
#
# Elastic Compliance Matrix: (Units=1/GPa)
#
#
# Indices 1 2 3 4 5 6 
#
# 1 0.005812 -0.001092 -0.001887 0.000090 -0.000798 -0.004775
# 2 -0.001092 0.008548 -0.000741 0.001245 0.000175 -0.002329
# 3 -0.001887 -0.000741 0.006622 0.003107 -0.001179 0.002275
# 4 0.000090 0.001245 0.003107 0.025408 -0.001144 0.002876
# 5 -0.000798 0.000175 -0.001179 -0.001144 0.016778 -0.000108
# 6 -0.004775 -0.002329 0.002275 0.002876 -0.000108 0.029590
#
#
# Mechanical properties :
#
#
# Convention : Reuss Voigt Hill
#
# Bulk Modulus (GPa) = 73.84602 94.74293 84.29447
# Shear Modulus (GPa) = 47.74958 56.68273 52.21616
#
# Velocity S-wave (km/s) = 4.13733 4.50776 4.32652
# Velocity P-wave (km/s) = 7.02112 7.81391 7.42810
#
# Compressibility (1/GPa) = 0.01354169
#
# Stress axis : x y z
#
# Youngs Moduli (GPa) = 172.05941 116.98525 151.00448
#
# Poissons Ratio (x) = 0.12772 0.28496
# Poissons Ratio (y) = 0.18785 0.11196
# Poissons Ratio (z) = 0.32469 0.08674
#
# Static dielectric constant tensor:
#      x y z
#    x 2.184250 -0.048570 -0.068010 
#    y -0.048570 2.383110 0.227670 
#    z -0.068010 0.227670 2.255190 
# 
# From -- ./inp_files/35825.got.cif
#   From: 2010.05.17/outbox.cif.g08.bks.cpg/sg2_18_cif.got.tgz:35825.got - 2010.06.03 11:33:40.
