data_PCOD9050801
_publ_section_title
;
Structure prediction by ZEFSAII (Michael W. Deem and Ramdas Pophale) SiO2 
 PCOD9050801
Probable space group: P -1
;
_chemical_formula_sum "Si O2"
_cell_formula_units_Z 14
_cell_length_a 10.459302
_cell_length_b 20.775216
_cell_length_c 7.640722
_cell_angle_alpha 48.706731
_cell_angle_beta 42.352805
_cell_angle_gamma 29.568961
_cell_volume 551.223906
_symmetry_space_group_name_H-M "P -1"
_symmetry_group_IT_number 2
_symmetry_cell_setting 'triclinic'
loop_
_space_group_symop_operation_xyz
x,y,z
-x,-y,-z
loop_
_atom_site_type_symbol
_atom_site_label
_atom_site_fract_x
_atom_site_fract_y
_atom_site_fract_z
Si Si1 0.531974 0.161850 0.575591
Si Si2 0.032570 0.881101 0.964612
Si Si3 0.623315 0.882087 0.466104
Si Si4 0.599446 0.318639 0.736120
Si Si5 0.621388 0.446849 0.241667
Si Si6 0.523315 0.816710 0.009416
Si Si7 0.075517 0.570733 0.361060
O O1 0.626156 0.057111 0.531660
O O2 0.767147 0.156605 0.331197
O O3 0.243897 0.285120 0.537740
O O4 0.440890 0.169883 0.847598
O O5 0.870590 0.846185 0.168007
O O6 0.230149 0.792861 0.089806
O O7 0.207401 0.578375 0.052357
O O8 0.800096 0.034676 0.959598
O O9 0.699223 0.791864 0.710410
O O10 0.500000 0.000000 0.500000
O O11 0.772986 0.318730 0.424119
O O12 0.423543 0.452460 0.776768
O O13 0.442081 0.297310 0.827742
O O14 0.312801 0.510074 0.379193
O O15 0.000000 0.500000 0.500000
#
# Coordination Sequence:
#
# PCOD9050801 Si02
#       7
#     2   2   2   2   2   2   2
#     4  12  25  45  71 107 143 192 236 294 364 423
#     4  11  24  46  71 101 151 185 234 300 350 428
#     4  10  25  44  68 103 141 187 241 290 347 425
#     4  11  22  44  74 100 142 188 240 293 362 421
#     4  10  25  46  70 106 138 189 238 307 356 416
#     4  11  25  45  74 107 143 196 238 290 361 429
#     4  11  24  46  72 102 144 185 246 296 358 428
#
# _framework density 25.398028
#
# number of rings (size 3 to 8) (size 9 to 14) (size 15 to 20)
#    0.000    1.143    1.429    3.429    4.000    5.714 
#    0.000    2.857    0.000    0.000    0.000    0.000 
#    0.000    0.000    0.000    0.000    0.000    0.000 
#
# Total GULP energy -78119.612805 kJ/mol
# GULP energy per Si atom -5579.972343 kJ/mol
# Density = 2.534022 g / cm^3
# Si number density = 25.398028 Si / 1000 Ang^3
#
#
#
# Elastic Constant Matrix: (Units=GPa)
#
#
# Indices 1 2 3 4 5 6 
#
# 1 86.7708 30.4046 44.8280 12.7335 -2.4616 28.7211
# 2 30.4046 42.0654 36.5240 -2.4483 2.1663 12.4539
# 3 44.8280 36.5240 161.7843 14.7684 0.4531 21.4053
# 4 12.7335 -2.4483 14.7684 38.0867 5.3476 -2.4313
# 5 -2.4616 2.1663 0.4531 5.3476 49.8956 8.1897
# 6 28.7211 12.4539 21.4053 -2.4313 8.1897 45.4317
#
#
#
# Elastic Compliance Matrix: (Units=1/GPa)
#
#
# Indices 1 2 3 4 5 6 
#
# 1 0.021280 -0.012069 -0.000927 -0.008839 0.004329 -0.010961
# 2 -0.012069 0.038367 -0.006339 0.009518 -0.003425 0.001226
# 3 -0.000927 -0.006339 0.008465 -0.003631 0.000873 -0.002016
# 4 -0.008839 0.009518 -0.003631 0.032479 -0.005515 0.007422
# 5 0.004329 -0.003425 0.000873 -0.005515 0.022051 -0.006479
# 6 -0.010961 0.001226 -0.002016 0.007422 -0.006479 0.031120
#
#
# Mechanical properties :
#
#
# Convention : Reuss Voigt Hill
#
# Bulk Modulus (GPa) = 33.96389 57.12596 45.54493
# Shear Modulus (GPa) = 24.72242 38.60706 31.66474
#
# Velocity S-wave (km/s) = 3.12332 3.90305 3.53475
# Velocity P-wave (km/s) = 5.13892 6.54621 5.88478
#
# Compressibility (1/GPa) = 0.02944303
#
# Stress axis : x y z
#
# Youngs Moduli (GPa) = 46.99150 26.06392 118.13664
#
# Poissons Ratio (x) = 0.31456 0.10950
# Poissons Ratio (y) = 0.56713 0.74888
# Poissons Ratio (z) = 0.04356 0.16522
#
# Static dielectric constant tensor:
#      x y z
#    x 1.817480 -0.401330 0.061210 
#    y -0.401330 1.598760 0.106300 
#    z 0.061210 0.106300 2.001290 
# 
# From -- ./inp_files/276205.got.cif
#   From: 2010.05.17/outbox.cif.g08.bks.cpg/sg2_139_cif.got.tgz:276205.got - 2010.06.03 11:33:40.
