data_PCOD9050523
_publ_section_title
;
Structure prediction by ZEFSAII (Michael W. Deem and Ramdas Pophale) SiO2 
 PCOD9050523
Probable space group: P -1
;
_chemical_formula_sum "Si O2"
_cell_formula_units_Z 14
_cell_length_a 11.838918
_cell_length_b 9.534310
_cell_length_c 10.411341
_cell_angle_alpha 31.221770
_cell_angle_beta 111.684660
_cell_angle_gamma 109.626440
_cell_volume 565.568934
_symmetry_space_group_name_H-M "P -1"
_symmetry_group_IT_number 2
_symmetry_cell_setting 'triclinic'
loop_
_space_group_symop_operation_xyz
x,y,z
-x,-y,-z
loop_
_atom_site_type_symbol
_atom_site_label
_atom_site_fract_x
_atom_site_fract_y
_atom_site_fract_z
Si Si1 0.622868 0.689655 0.421700
Si Si2 0.992010 0.117000 0.262708
Si Si3 0.217681 0.514444 0.110674
Si Si4 0.945837 0.194897 0.720696
Si Si5 0.345279 0.554900 0.864116
Si Si6 0.505870 0.044490 0.273263
Si Si7 0.705184 0.403928 0.448783
O O1 0.500000 0.500000 0.500000
O O2 0.710169 0.588993 0.652952
O O3 0.688791 0.653340 0.341750
O O4 0.573914 0.977145 0.221679
O O5 0.101687 0.340420 0.143355
O O6 0.854463 0.212483 0.105803
O O7 0.000000 0.000000 0.500000
O O8 0.029603 0.923953 0.315894
O O9 0.305379 0.509504 0.028244
O O10 0.805978 0.211414 0.692267
O O11 0.000000 0.500000 0.500000
O O12 0.000000 0.000000 0.000000
O O13 0.392526 0.871799 0.644272
O O14 0.249991 0.531839 0.727051
O O15 0.433470 0.320937 0.035095
O O16 0.419945 0.779821 0.468386
#
# Coordination Sequence:
#
# PCOD9050523 Si02
#       7
#     2   2   2   2   2   2   2
#     4  10  25  46  68 101 148 190 236 303 375 452
#     4  11  27  49  79 106 145 199 259 317 386 458
#     4  11  26  46  74 109 147 188 257 311 383 450
#     4  12  30  49  78 113 157 198 256 320 390 454
#     4  11  25  42  74 105 137 191 242 309 366 449
#     4  10  25  42  69 103 144 182 243 294 372 444
#     4  11  25  47  70 102 147 191 245 301 378 443
#
# _framework density 24.753834000000001
#
# number of rings (size 3 to 8) (size 9 to 14) (size 15 to 20)
#    0.000    1.143    0.000    3.000   24.000    0.571 
#    2.571    0.000    0.000    0.000    0.000    0.000 
#    0.000    0.000    0.000    0.000    0.000    0.000 
#
# Total GULP energy -78149.721653 kJ/mol
# GULP energy per Si atom -5582.122975 kJ/mol
# Density = 2.469749 g / cm^3
# Si number density = 24.753834 Si / 1000 Ang^3
#
#
#
# Elastic Constant Matrix: (Units=GPa)
#
#
# Indices 1 2 3 4 5 6 
#
# 1 89.4587 57.9075 7.0967 -2.1625 6.5706 -22.3423
# 2 57.9075 207.4339 44.3221 1.2882 0.2388 -38.0531
# 3 7.0967 44.3221 51.2592 -0.4840 -0.6132 -1.6359
# 4 -2.1625 1.2882 -0.4840 33.8887 -5.2717 8.2777
# 5 6.5706 0.2388 -0.6132 -5.2717 33.0932 2.3858
# 6 -22.3423 -38.0531 -1.6359 8.2777 2.3858 42.4504
#
#
#
# Elastic Compliance Matrix: (Units=1/GPa)
#
#
# Indices 1 2 3 4 5 6 
#
# 1 0.014808 -0.003406 0.001011 -0.000682 -0.003373 0.005103
# 2 -0.003406 0.008223 -0.006477 -0.002064 -0.000246 0.005745
# 3 0.001011 -0.006477 0.024848 0.001978 0.000964 -0.004757
# 4 -0.000682 -0.002064 0.001978 0.032669 0.006029 -0.008842
# 5 -0.003373 -0.000246 0.000964 0.006029 0.032224 -0.004946
# 6 0.005103 0.005745 -0.004757 -0.008842 -0.004946 0.033211
#
#
# Mechanical properties :
#
#
# Convention : Reuss Voigt Hill
#
# Bulk Modulus (GPa) = 33.18503 62.97828 48.08165
# Shear Modulus (GPa) = 28.77321 37.80814 33.29068
#
# Velocity S-wave (km/s) = 3.41306 3.91239 3.67122
# Velocity P-wave (km/s) = 5.38211 6.77541 6.11855
#
# Compressibility (1/GPa) = 0.03013407
#
# Stress axis : x y z
#
# Youngs Moduli (GPa) = 67.52944 121.61657 40.24480
#
# Poissons Ratio (x) = 0.41419 -0.04067
# Poissons Ratio (y) = 0.22998 0.26068
# Poissons Ratio (z) = -0.06825 0.78775
#
# Static dielectric constant tensor:
#      x y z
#    x 1.903270 -0.059770 0.014080 
#    y -0.059770 1.897180 -0.040000 
#    z 0.014080 -0.040000 1.983980 
# 
# From -- ./inp_files/241814.got.cif
#   From: 2010.05.17/outbox.cif.g08.bks.cpg/sg2_121_cif.got.tgz:241814.got - 2010.06.03 11:33:40.
