data_PCOD9050475
_publ_section_title
;
Structure prediction by ZEFSAII (Michael W. Deem and Ramdas Pophale) SiO2 
 PCOD9050475
Probable space group: P -1
;
_chemical_formula_sum "Si O2"
_cell_formula_units_Z 14
_cell_length_a 11.927733
_cell_length_b 9.002434
_cell_length_c 11.782634
_cell_angle_alpha 73.103308
_cell_angle_beta 36.647305
_cell_angle_gamma 50.840839
_cell_volume 517.881515
_symmetry_space_group_name_H-M "P -1"
_symmetry_group_IT_number 2
_symmetry_cell_setting 'triclinic'
loop_
_space_group_symop_operation_xyz
x,y,z
-x,-y,-z
loop_
_atom_site_type_symbol
_atom_site_label
_atom_site_fract_x
_atom_site_fract_y
_atom_site_fract_z
Si Si1 0.691473 0.599786 0.016508
Si Si2 0.335162 0.866435 0.778724
Si Si3 0.220572 0.851053 0.633374
Si Si4 0.756875 0.290761 0.900740
Si Si5 0.255853 0.608707 0.473223
Si Si6 0.373625 0.155973 0.787068
Si Si7 0.804715 0.727293 0.681227
O O1 0.452453 0.626462 0.252888
O O2 0.784036 0.656727 0.030596
O O3 0.873607 0.363746 0.864601
O O4 0.650532 0.729433 0.909069
O O5 0.181902 0.879046 0.793771
O O6 0.626250 0.632876 0.566961
O O7 0.271873 0.082292 0.801753
O O8 0.320363 0.796995 0.929532
O O9 0.225584 0.681944 0.610294
O O10 0.480472 0.797742 0.413042
O O11 0.997661 0.071282 0.693454
O O12 0.500000 0.500000 0.000000
O O13 0.993074 0.743232 0.585847
O O14 0.594277 0.934453 0.728548
O O15 0.000000 0.500000 0.500000
#
# Coordination Sequence:
#
# PCOD9050475 Si02
#       7
#     2   2   2   2   2   2   2
#     4  10  25  42  63 103 139 177 227 296 344 409
#     4  11  23  46  68  99 140 184 229 287 350 417
#     4  11  25  44  70  98 139 186 231 281 357 421
#     4  11  25  42  68 101 136 181 232 292 344 409
#     4  10  25  43  72 101 137 186 234 291 348 417
#     4  11  24  41  67 100 137 180 233 288 348 415
#     4  12  23  41  69 106 138 180 234 290 358 408
#
# _framework density 27.033211000000001
#
# number of rings (size 3 to 8) (size 9 to 14) (size 15 to 20)
#    0.000    1.143    1.429    3.429   10.000    1.143 
#    0.000    0.714    0.000    0.000    0.000    0.000 
#    0.000    0.000    0.000    0.000    0.000    0.000 
#
# Total GULP energy -78211.536143 kJ/mol
# GULP energy per Si atom -5586.538296 kJ/mol
# Density = 2.697168 g / cm^3
# Si number density = 27.033211 Si / 1000 Ang^3
#
#
#
# Elastic Constant Matrix: (Units=GPa)
#
#
# Indices 1 2 3 4 5 6 
#
# 1 164.9020 39.6944 27.4814 -7.4515 9.9862 21.7721
# 2 39.6944 84.5948 16.4104 -0.6873 -0.8154 23.6936
# 3 27.4814 16.4104 61.7288 -19.6447 18.6947 10.3105
# 4 -7.4515 -0.6873 -19.6447 39.6373 3.0106 7.4012
# 5 9.9862 -0.8154 18.6947 3.0106 38.3195 6.1326
# 6 21.7721 23.6936 10.3105 7.4012 6.1326 73.9365
#
#
#
# Elastic Compliance Matrix: (Units=1/GPa)
#
#
# Indices 1 2 3 4 5 6 
#
# 1 0.007255 -0.002780 -0.001827 0.000665 -0.000954 -0.000978
# 2 -0.002780 0.014868 -0.003760 -0.001738 0.003579 -0.003545
# 3 -0.001827 -0.003760 0.027154 0.014525 -0.013614 -0.002369
# 4 0.000665 -0.001738 0.014525 0.034031 -0.009282 -0.004301
# 5 -0.000954 0.003579 -0.013614 -0.009282 0.033928 -0.000853
# 6 -0.000978 -0.003545 -0.002369 -0.004301 -0.000853 0.015781
#
#
# Mechanical properties :
#
#
# Convention : Reuss Voigt Hill
#
# Bulk Modulus (GPa) = 30.72798 53.15533 41.94166
# Shear Modulus (GPa) = 31.13381 45.55462 38.34421
#
# Velocity S-wave (km/s) = 3.39733 4.10949 3.77027
# Velocity P-wave (km/s) = 5.17500 6.49792 5.87382
#
# Compressibility (1/GPa) = 0.03254363
#
# Stress axis : x y z
#
# Youngs Moduli (GPa) = 137.84095 67.25898 36.82719
#
# Poissons Ratio (x) = 0.18695 0.06727
# Poissons Ratio (y) = 0.38314 0.13848
# Poissons Ratio (z) = 0.25178 0.25291
#
# Static dielectric constant tensor:
#      x y z
#    x 2.165710 0.013450 -0.023220 
#    y 0.013450 2.144500 0.103030 
#    z -0.023220 0.103030 2.366020 
# 
# From -- ./inp_files/414563.got.cif
#   From: 2010.05.17/outbox.cif.g08.bks.cpg/sg2_208_cif.got.tgz:414563.got - 2010.06.03 11:33:40.
