data_PCOD9050507
_publ_section_title
;
Structure prediction by ZEFSAII (Michael W. Deem and Ramdas Pophale) SiO2 
 PCOD9050507
Probable space group: P -1
;
_chemical_formula_sum "Si O2"
_cell_formula_units_Z 14
_cell_length_a 23.198431
_cell_length_b 9.924205
_cell_length_c 5.388425
_cell_angle_alpha 65.234741
_cell_angle_beta 58.711472
_cell_angle_gamma 36.860724
_cell_volume 635.929982
_symmetry_space_group_name_H-M "P -1"
_symmetry_group_IT_number 2
_symmetry_cell_setting 'triclinic'
loop_
_space_group_symop_operation_xyz
x,y,z
-x,-y,-z
loop_
_atom_site_type_symbol
_atom_site_label
_atom_site_fract_x
_atom_site_fract_y
_atom_site_fract_z
Si Si1 0.188313 0.398058 0.108810
Si Si2 0.765049 0.141596 0.261852
Si Si3 0.730669 0.881557 0.349837
Si Si4 0.565531 0.907335 0.676432
Si Si5 0.902397 0.060845 0.638034
Si Si6 0.277027 0.537034 0.592405
Si Si7 0.967078 0.722128 0.425808
O O1 0.211351 0.285204 0.410923
O O2 0.068980 0.639761 0.174096
O O3 0.212217 0.251022 0.934361
O O4 0.261661 0.418533 0.891799
O O5 0.690034 0.363599 0.428859
O O6 0.720066 0.075077 0.269157
O O7 0.861728 0.916991 0.368331
O O8 0.820286 0.174228 0.946779
O O9 0.624949 0.965793 0.506003
O O10 0.650656 0.638584 0.654413
O O11 0.500000 0.000000 0.500000
O O12 0.500000 0.000000 0.000000
O O13 0.835586 0.239542 0.429249
O O14 0.942661 0.828944 0.666699
O O15 0.000000 0.000000 0.500000
O O16 0.000000 0.500000 0.500000
#
# Coordination Sequence:
#
# PCOD9050507 Si02
#       7
#     2   2   2   2   2   2   2
#     4  11  23  40  66  97 136 188 229 269 324 397
#     4  11  24  40  63  99 143 184 223 282 340 389
#     4  11  25  43  70 100 133 174 226 287 344 399
#     4  11  25  48  76 101 124 171 231 287 351 419
#     4  11  24  38  64  97 142 187 228 265 328 398
#     4  10  25  42  67  98 136 175 224 285 337 407
#     4  11  22  36  57  95 138 182 235 264 315 391
#
# _framework density 22.015001999999999
#
# number of rings (size 3 to 8) (size 9 to 14) (size 15 to 20)
#    0.000    1.143    1.429    4.286   14.000    3.429 
#    0.000    1.429    0.000    0.000    0.000    0.000 
#    0.000    0.000    0.000    0.000    0.000    0.000 
#
# Total GULP energy -78167.244838 kJ/mol
# GULP energy per Si atom -5583.374631 kJ/mol
# Density = 2.196490 g / cm^3
# Si number density = 22.015002 Si / 1000 Ang^3
#
#
#
# Elastic Constant Matrix: (Units=GPa)
#
#
# Indices 1 2 3 4 5 6 
#
# 1 145.9141 49.0969 33.3226 14.0113 2.9737 21.0705
# 2 49.0969 87.0316 21.7951 13.5829 1.5057 33.0457
# 3 33.3226 21.7951 81.4887 18.3706 10.3986 9.2901
# 4 14.0113 13.5829 18.3706 39.9623 -3.8003 4.8550
# 5 2.9737 1.5057 10.3986 -3.8003 30.8707 5.9323
# 6 21.0705 33.0457 9.2901 4.8550 5.9323 36.4990
#
#
#
# Elastic Compliance Matrix: (Units=1/GPa)
#
#
# Indices 1 2 3 4 5 6 
#
# 1 0.008925 -0.004030 -0.002383 -0.000536 0.000240 -0.000864
# 2 -0.004030 0.020654 -0.001825 -0.002560 0.002758 -0.016016
# 3 -0.002383 -0.001825 0.015872 -0.006510 -0.005988 0.000827
# 4 -0.000536 -0.002560 -0.006510 0.029742 0.006160 -0.000673
# 5 0.000240 0.002758 -0.005988 0.006160 0.036523 -0.007867
# 6 -0.000864 -0.016016 0.000827 -0.000673 -0.007867 0.043556
#
#
# Mechanical properties :
#
#
# Convention : Reuss Voigt Hill
#
# Bulk Modulus (GPa) = 34.51337 58.09597 46.30467
# Shear Modulus (GPa) = 27.56253 35.48105 31.52179
#
# Velocity S-wave (km/s) = 3.54218 4.01892 3.78806
# Velocity P-wave (km/s) = 5.69567 6.92692 6.34125
#
# Compressibility (1/GPa) = 0.02897428
#
# Stress axis : x y z
#
# Youngs Moduli (GPa) = 112.04368 48.41689 63.00548
#
# Poissons Ratio (x) = 0.19514 0.15013
# Poissons Ratio (y) = 0.45158 0.11498
# Poissons Ratio (z) = 0.26698 0.08836
#
# Static dielectric constant tensor:
#      x y z
#    x 1.869750 0.018170 0.015610 
#    y 0.018170 1.843790 -0.015610 
#    z 0.015610 -0.015610 1.896510 
# 
# From -- ./inp_files/34746.got.cif
#   From: 2010.05.17/outbox.cif.g08.bks.cpg/sg2_18_cif.got.tgz:34746.got - 2010.06.03 11:33:40.
