data_PCOD9050009
_publ_section_title
;
Structure prediction by ZEFSAII (Michael W. Deem and Ramdas Pophale) SiO2 
 PCOD9050009
Probable space group: P -1
;
_chemical_formula_sum "Si O2"
_cell_formula_units_Z 11
_cell_length_a 11.008906
_cell_length_b 14.625810
_cell_length_c 5.000245
_cell_angle_alpha 121.079281
_cell_angle_beta 112.152025
_cell_angle_gamma 43.489814
_cell_volume 474.554502
_symmetry_space_group_name_H-M "P -1"
_symmetry_group_IT_number 2
_symmetry_cell_setting 'triclinic'
loop_
_space_group_symop_operation_xyz
x,y,z
-x,-y,-z
loop_
_atom_site_type_symbol
_atom_site_label
_atom_site_fract_x
_atom_site_fract_y
_atom_site_fract_z
Si Si1 0.924623 0.605345 0.348618
Si Si2 0.489325 0.128090 0.594870
Si Si3 0.317015 0.657640 0.135220
Si Si4 0.325871 0.879647 0.754152
Si Si5 0.912096 0.257890 0.443697
Si Si6 0.000000 0.000000 0.000000
O O1 0.000000 0.500000 0.500000
O O2 0.997352 0.686450 0.507006
O O3 0.714273 0.727263 0.385022
O O4 0.799277 0.342122 0.742123
O O5 0.597553 0.080224 0.337298
O O6 0.500000 0.000000 0.500000
O O7 0.567913 0.159675 0.941997
O O8 0.874208 0.016236 0.155183
O O9 0.356835 0.749009 0.440721
O O10 0.211425 0.727038 0.872283
O O11 0.500000 0.500000 0.000000
O O12 0.965567 0.909846 0.652379
O O13 0.000000 0.500000 0.000000
#
# Coordination Sequence:
#
# PCOD9050009 Si02
#       6
#     2   2   2   2   2   1
#     4  12  28  47  72 106 151 201 241 300 369 445
#     4  12  27  48  75 110 149 199 251 304 363 446
#     4  11  25  42  70 102 138 182 234 300 358 418
#     4  11  25  44  76 107 146 185 242 309 366 437
#     4  11  25  45  71 101 140 191 237 297 362 436
#     4  10  24  48  72 108 140 184 244 306 374 420
#
# _framework density 23.179635999999999
#
# number of rings (size 3 to 8) (size 9 to 14) (size 15 to 20)
#    0.000    0.727    0.000    6.545    7.636    9.455 
#    0.000    0.000    0.000    0.000    0.000    0.000 
#    0.000    0.000    0.000    0.000    0.000    0.000 
#
# Total GULP energy -61356.742496 kJ/mol
# GULP energy per Si atom -5577.885681 kJ/mol
# Density = 2.312688 g / cm^3
# Si number density = 23.179636 Si / 1000 Ang^3
#
#
#
# Elastic Constant Matrix: (Units=GPa)
#
#
# Indices 1 2 3 4 5 6 
#
# 1 171.8496 61.3751 47.5706 0.3441 -34.6161 34.8554
# 2 61.3751 82.4958 29.1281 -15.0252 -17.6071 -0.3511
# 3 47.5706 29.1281 114.0138 -16.5622 -22.7415 -2.6790
# 4 0.3441 -15.0252 -16.5622 41.7437 2.1472 -7.9573
# 5 -34.6161 -17.6071 -22.7415 2.1472 63.6230 1.9418
# 6 34.8554 -0.3511 -2.6790 -7.9573 1.9418 40.3902
#
#
#
# Elastic Compliance Matrix: (Units=1/GPa)
#
#
# Indices 1 2 3 4 5 6 
#
# 1 0.014323 -0.009846 -0.004150 -0.008307 0.004310 -0.014565
# 2 -0.009846 0.021150 0.000385 0.009879 -0.000025 0.010653
# 3 -0.004150 0.000385 0.011702 0.005762 0.001672 0.005416
# 4 -0.008307 0.009879 0.005762 0.032623 -0.001258 0.014124
# 5 0.004310 -0.000025 0.001672 -0.001258 0.018841 -0.004762
# 6 -0.014565 0.010653 0.005416 0.014124 -0.004762 0.040791
#
#
# Mechanical properties :
#
#
# Convention : Reuss Voigt Hill
#
# Bulk Modulus (GPa) = 50.11653 71.61187 60.86420
# Shear Modulus (GPa) = 28.85134 44.50373 36.67754
#
# Velocity S-wave (km/s) = 3.53184 4.38648 3.98215
# Velocity P-wave (km/s) = 6.18867 7.52438 6.88898
#
# Compressibility (1/GPa) = 0.01995350
#
# Stress axis : x y z
#
# Youngs Moduli (GPa) = 69.81774 47.28072 85.45789
#
# Poissons Ratio (x) = 0.46552 0.35464
# Poissons Ratio (y) = 0.68741 -0.03290
# Poissons Ratio (z) = 0.28974 -0.01820
#
# Static dielectric constant tensor:
#      x y z
#    x 1.871340 -0.001420 0.009040 
#    y -0.001420 1.381630 -0.142830 
#    z 0.009040 -0.142830 1.782510 
# 
# From -- ./inp_files/36680.got.cif
#   From: 2010.05.17/outbox.cif.g08.bks.cpg/sg2_19_cif.got.tgz:36680.got - 2010.06.03 11:33:40.
