data_PCOD9050188
_publ_section_title
;
Structure prediction by ZEFSAII (Michael W. Deem and Ramdas Pophale) SiO2 
 PCOD9050188
Probable space group: P -1
;
_chemical_formula_sum "Si O2"
_cell_formula_units_Z 14
_cell_length_a 19.427862
_cell_length_b 10.288560
_cell_length_c 7.328868
_cell_angle_alpha 62.736000
_cell_angle_beta 126.462129
_cell_angle_gamma 151.124321
_cell_volume 561.579924
_symmetry_space_group_name_H-M "P -1"
_symmetry_group_IT_number 2
_symmetry_cell_setting 'triclinic'
loop_
_space_group_symop_operation_xyz
x,y,z
-x,-y,-z
loop_
_atom_site_type_symbol
_atom_site_label
_atom_site_fract_x
_atom_site_fract_y
_atom_site_fract_z
Si Si1 0.340453 0.671583 0.010872
Si Si2 0.099839 0.685545 0.864194
Si Si3 0.011485 0.262938 0.833237
Si Si4 0.345260 0.371995 0.394559
Si Si5 0.050097 0.928111 0.734997
Si Si6 0.416523 0.985018 0.231140
Si Si7 0.384596 0.470332 0.822259
O O1 0.371475 0.553132 0.197413
O O2 0.317748 0.728331 0.127117
O O3 0.152878 0.410356 0.824992
O O4 0.500000 0.000000 0.000000
O O5 0.041508 0.481649 0.757177
O O6 0.052922 0.786825 0.701587
O O7 0.000000 0.500000 0.000000
O O8 0.282293 0.920420 0.070737
O O9 0.172277 0.043011 0.312087
O O10 0.023174 0.207281 0.093517
O O11 0.500000 0.500000 0.500000
O O12 0.352018 0.431944 0.578897
O O13 0.236476 0.217165 0.874077
O O14 0.000000 0.000000 0.500000
O O15 0.560314 0.289109 0.181323
O O16 0.500000 0.000000 0.500000
O O17 0.500000 0.500000 0.000000
#
# Coordination Sequence:
#
# PCOD9050188 Si02
#       7
#     2   2   2   2   2   2   2
#     4  11  26  47  73 103 143 188 234 299 362 427
#     4   9  21  40  68  97 137 182 232 289 350 414
#     4  10  24  49  70 101 146 186 241 296 358 432
#     4  12  27  46  71 107 148 191 233 298 371 423
#     4  11  23  41  72 107 138 187 240 293 355 427
#     4  11  23  44  72 101 138 187 245 297 349 424
#     4  12  25  45  73 103 143 186 243 297 356 435
#
# _framework density 24.929667999999999
#
# number of rings (size 3 to 8) (size 9 to 14) (size 15 to 20)
#    0.000    1.143    2.857    2.143   10.000    0.000 
#    0.000    1.429    0.000    0.000    0.000    0.000 
#    0.000    0.000    0.000    0.000    0.000    0.000 
#
# Total GULP energy -77934.454689 kJ/mol
# GULP energy per Si atom -5566.746763 kJ/mol
# Density = 2.487293 g / cm^3
# Si number density = 24.929668 Si / 1000 Ang^3
#
#
#
# Elastic Constant Matrix: (Units=GPa)
#
#
# Indices 1 2 3 4 5 6 
#
# 1 48.5802 36.9674 39.3585 -10.4659 30.4968 -9.3747
# 2 36.9674 212.3276 60.4039 -12.3161 25.8060 14.1603
# 3 39.3585 60.4039 147.6398 -14.4539 25.0517 -10.3121
# 4 -10.4659 -12.3161 -14.4539 37.0613 -2.4663 10.9379
# 5 30.4968 25.8060 25.0517 -2.4663 53.0160 -5.6521
# 6 -9.3747 14.1603 -10.3121 10.9379 -5.6521 66.1754
#
#
#
# Elastic Compliance Matrix: (Units=1/GPa)
#
#
# Indices 1 2 3 4 5 6 
#
# 1 0.041466 -0.003112 -0.005729 0.006295 -0.019020 0.002982
# 2 -0.003112 0.005975 -0.001565 0.001107 -0.000562 -0.002194
# 3 -0.005729 -0.001565 0.009130 0.001197 -0.000123 0.000738
# 4 0.006295 0.001107 0.001197 0.030687 -0.003784 -0.004554
# 5 -0.019020 -0.000562 -0.000123 -0.003784 0.030022 0.000596
# 6 0.002982 -0.002194 0.000738 -0.004554 0.000596 0.016922
#
#
# Mechanical properties :
#
#
# Convention : Reuss Voigt Hill
#
# Bulk Modulus (GPa) = 27.96387 75.77860 51.87123
# Shear Modulus (GPa) = 29.95197 49.37172 39.66184
#
# Velocity S-wave (km/s) = 3.46997 4.45504 3.99300
# Velocity P-wave (km/s) = 5.22453 7.54494 6.48929
#
# Compressibility (1/GPa) = 0.03576043
#
# Stress axis : x y z
#
# Youngs Moduli (GPa) = 24.11626 167.35215 109.52568
#
# Poissons Ratio (x) = 0.52074 0.62749
# Poissons Ratio (y) = 0.07504 0.17139
# Poissons Ratio (z) = 0.13817 0.26187
#
# Static dielectric constant tensor:
#      x y z
#    x 2.652640 0.162140 0.230710 
#    y 0.162140 2.074780 0.150530 
#    z 0.230710 0.150530 2.206780 
# 
# From -- ./inp_files/345975.got.cif
#   From: 2010.05.17/outbox.cif.g08.bks.cpg/sg2_173_cif.got.tgz:345975.got - 2010.06.03 11:33:40.
