data_PCOD9050874
_publ_section_title
;
Structure prediction by ZEFSAII (Michael W. Deem and Ramdas Pophale) SiO2 
 PCOD9050874
Probable space group: P -1
;
_chemical_formula_sum "Si O2"
_cell_formula_units_Z 14
_cell_length_a 16.377898
_cell_length_b 5.107464
_cell_length_c 9.410140
_cell_angle_alpha 68.950880
_cell_angle_beta 52.586191
_cell_angle_gamma 66.132502
_cell_volume 564.742732
_symmetry_space_group_name_H-M "P -1"
_symmetry_group_IT_number 2
_symmetry_cell_setting 'triclinic'
loop_
_space_group_symop_operation_xyz
x,y,z
-x,-y,-z
loop_
_atom_site_type_symbol
_atom_site_label
_atom_site_fract_x
_atom_site_fract_y
_atom_site_fract_z
Si Si1 0.513757 0.335992 0.835937
Si Si2 0.114792 0.701787 0.878050
Si Si3 0.670434 0.208191 0.938142
Si Si4 0.973747 0.712600 0.273781
Si Si5 0.565076 0.936605 0.589478
Si Si6 0.749038 0.924635 0.201971
Si Si7 0.102120 0.737374 0.401170
O O1 0.589557 0.155520 0.912833
O O2 0.561367 0.616974 0.704262
O O3 0.522304 0.164126 0.714317
O O4 0.395144 0.479985 0.990493
O O5 0.193635 0.410859 0.802657
O O6 0.075056 0.943222 0.752672
O O7 0.171676 0.871827 0.897621
O O8 0.021172 0.628563 0.084524
O O9 0.784897 0.191118 0.750950
O O10 0.690029 0.011001 0.097163
O O11 0.893694 0.529140 0.445372
O O12 0.068023 0.640364 0.302481
O O13 0.678011 0.968073 0.409601
O O14 0.500000 0.000000 0.500000
O O15 0.000000 0.000000 0.500000
#
# Coordination Sequence:
#
# PCOD9050874 Si02
#       7
#     2   2   2   2   2   2   2
#     4  11  28  50  77 113 153 204 255 316 380 466
#     4  11  26  45  74 107 148 196 255 311 380 451
#     4  11  26  49  77 111 156 205 257 313 389 456
#     4  10  25  44  70 107 150 196 254 310 379 453
#     4  12  26  48  76 111 150 193 257 318 382 449
#     4  12  26  45  77 109 147 203 248 321 380 450
#     4  11  24  46  73 108 153 199 247 314 379 457
#
# _framework density 24.790050999999998
#
# number of rings (size 3 to 8) (size 9 to 14) (size 15 to 20)
#    0.000    0.857    2.857    2.143    6.000    5.714 
#    7.714    0.000    0.000    0.000    0.000    0.000 
#    0.000    0.000    0.000    0.000    0.000    0.000 
#
# Total GULP energy -78436.751338 kJ/mol
# GULP energy per Si atom -5602.625096 kJ/mol
# Density = 2.473363 g / cm^3
# Si number density = 24.790051 Si / 1000 Ang^3
#
#
#
# Elastic Constant Matrix: (Units=GPa)
#
#
# Indices 1 2 3 4 5 6 
#
# 1 103.2226 39.1235 41.8466 14.8344 22.9933 -16.8563
# 2 39.1235 126.8156 77.7733 9.4267 12.4574 -6.2261
# 3 41.8466 77.7733 175.7679 0.5146 -6.7669 -7.3374
# 4 14.8344 9.4267 0.5146 50.2524 -0.2762 7.7640
# 5 22.9933 12.4574 -6.7669 -0.2762 51.1225 4.7917
# 6 -16.8563 -6.2261 -7.3374 7.7640 4.7917 40.2759
#
#
#
# Elastic Compliance Matrix: (Units=1/GPa)
#
#
# Indices 1 2 3 4 5 6 
#
# 1 0.015079 -0.001317 -0.002970 -0.005375 -0.007587 0.007505
# 2 -0.001317 0.011863 -0.005001 -0.001975 -0.003076 0.001118
# 3 -0.002970 -0.005001 0.008699 0.001942 0.003835 -0.001262
# 4 -0.005375 -0.001975 0.001942 0.022955 0.003945 -0.007095
# 5 -0.007587 -0.003076 0.003835 0.003945 0.024877 -0.006672
# 6 0.007505 0.001118 -0.001262 -0.007095 -0.006672 0.030074
#
#
# Mechanical properties :
#
#
# Convention : Reuss Voigt Hill
#
# Bulk Modulus (GPa) = 58.60572 80.36587 69.48580
# Shear Modulus (GPa) = 36.28117 44.80101 40.54109
#
# Velocity S-wave (km/s) = 3.82977 4.25575 4.04837
# Velocity P-wave (km/s) = 6.57635 7.52579 7.06703
#
# Compressibility (1/GPa) = 0.01706318
#
# Stress axis : x y z
#
# Youngs Moduli (GPa) = 66.31639 84.29604 114.95855
#
# Poissons Ratio (x) = 0.11103 0.34146
# Poissons Ratio (y) = 0.08735 0.57496
# Poissons Ratio (z) = 0.19698 0.42160
#
# Static dielectric constant tensor:
#      x y z
#    x 2.009120 0.004470 -0.029870 
#    y 0.004470 1.951260 -0.011600 
#    z -0.029870 -0.011600 1.987970 
# 
# From -- ./inp_files/323401.got.cif
#   From: 2010.05.17/outbox.cif.g08.bks.cpg/sg2_162_cif.got.tgz:323401.got - 2010.06.03 11:33:40.
