data_PCOD9050944
_publ_section_title
;
Structure prediction by ZEFSAII (Michael W. Deem and Ramdas Pophale) SiO2 
 PCOD9050944
Probable space group: P -1
;
_chemical_formula_sum "Si O2"
_cell_formula_units_Z 14
_cell_length_a 15.986264
_cell_length_b 5.066486
_cell_length_c 21.049349
_cell_angle_alpha 112.846084
_cell_angle_beta 24.511006
_cell_angle_gamma 101.812863
_cell_volume 600.596440
_symmetry_space_group_name_H-M "P -1"
_symmetry_group_IT_number 2
_symmetry_cell_setting 'triclinic'
loop_
_space_group_symop_operation_xyz
x,y,z
-x,-y,-z
loop_
_atom_site_type_symbol
_atom_site_label
_atom_site_fract_x
_atom_site_fract_y
_atom_site_fract_z
Si Si1 0.289262 0.654207 0.362775
Si Si2 0.125940 0.743299 0.265538
Si Si3 0.377849 0.091953 0.817750
Si Si4 0.081122 0.699552 0.011478
Si Si5 0.736605 0.539587 0.494981
Si Si6 0.529743 0.683810 0.913940
Si Si7 0.356406 0.800229 0.587296
O O1 0.451214 0.828939 0.247857
O O2 0.358479 0.377404 0.238038
O O3 0.330338 0.519203 0.393144
O O4 0.042675 0.915265 0.563280
O O5 0.297744 0.590408 0.188665
O O6 0.971819 0.556923 0.340223
O O7 0.280558 0.707564 0.094087
O O8 0.208259 0.432066 0.948882
O O9 0.242635 0.873963 0.899770
O O10 0.564828 0.874220 0.619572
O O11 0.000000 0.500000 0.000000
O O12 0.864294 0.984223 0.206618
O O13 0.715517 0.292800 0.438704
O O14 0.500000 0.000000 0.000000
O O15 0.500000 0.500000 0.500000
O O16 0.500000 0.000000 0.500000
#
# Coordination Sequence:
#
# PCOD9050944 Si02
#       7
#     2   2   2   2   2   2   2
#     4  11  25  46  74 105 157 197 250 314 382 451
#     4  10  25  44  73 108 149 200 252 309 380 455
#     4  11  24  44  69 104 142 192 245 300 372 447
#     4  12  24  44  72 103 143 191 250 310 375 446
#     4  11  25  47  74 106 152 195 256 305 388 445
#     4  11  25  46  73 110 153 192 262 306 385 455
#     4  12  28  47  75 108 152 198 251 315 378 447
#
# _framework density 23.310164
#
# number of rings (size 3 to 8) (size 9 to 14) (size 15 to 20)
#    0.000    0.857    1.429    4.286    6.000    9.143 
#    0.000    0.000    0.000    0.000    0.000    0.000 
#    0.000    0.000    0.000    0.000    0.000    0.000 
#
# Total GULP energy -78110.072821 kJ/mol
# GULP energy per Si atom -5579.290916 kJ/mol
# Density = 2.325711 g / cm^3
# Si number density = 23.310164 Si / 1000 Ang^3
#
#
#
# Elastic Constant Matrix: (Units=GPa)
#
#
# Indices 1 2 3 4 5 6 
#
# 1 101.5538 45.2106 72.1980 10.9157 21.4391 11.4291
# 2 45.2106 146.6939 60.0536 -9.4229 -2.2522 6.9296
# 3 72.1980 60.0536 202.3672 7.2599 -10.2827 5.8594
# 4 10.9157 -9.4229 7.2599 56.5489 7.9690 -5.1361
# 5 21.4391 -2.2522 -10.2827 7.9690 32.5240 12.1923
# 6 11.4291 6.9296 5.8594 -5.1361 12.1923 37.0656
#
#
#
# Elastic Compliance Matrix: (Units=1/GPa)
#
#
# Indices 1 2 3 4 5 6 
#
# 1 0.019369 -0.003623 -0.006559 -0.001353 -0.014935 0.000467
# 2 -0.003623 0.008615 -0.001180 0.001858 0.002481 -0.000866
# 3 -0.006559 -0.001180 0.008122 -0.001229 0.007774 -0.001768
# 4 -0.001353 0.001858 -0.001229 0.019722 -0.006072 0.004994
# 5 -0.014935 0.002481 0.007774 -0.006072 0.050112 -0.014412
# 6 0.000467 -0.000866 -0.001768 0.004994 -0.014412 0.032709
#
#
# Mechanical properties :
#
#
# Convention : Reuss Voigt Hill
#
# Bulk Modulus (GPa) = 74.72189 89.50437 82.11313
# Shear Modulus (GPa) = 30.15113 43.43788 36.79450
#
# Velocity S-wave (km/s) = 3.60039 4.32148 3.97731
# Velocity P-wave (km/s) = 7.02914 7.96120 7.50965
#
# Compressibility (1/GPa) = 0.01338296
#
# Stress axis : x y z
#
# Youngs Moduli (GPa) = 51.62996 116.08228 123.12418
#
# Poissons Ratio (x) = 0.42051 0.80757
# Poissons Ratio (y) = 0.18703 0.14523
# Poissons Ratio (z) = 0.33864 0.13693
#
# Static dielectric constant tensor:
#      x y z
#    x 1.911110 -0.060190 0.061350 
#    y -0.060190 1.927670 0.049660 
#    z 0.061350 0.049660 1.816760 
# 
# From -- ./inp_files/620119.got.cif
#   From: 2010.05.17/outbox.cif.g08.bks.cpg/sg2_311_cif.got.tgz:620119.got - 2010.06.03 11:33:40.
