data_PCOD9050958
_publ_section_title
;
Structure prediction by ZEFSAII (Michael W. Deem and Ramdas Pophale) SiO2 
 PCOD9050958
Probable space group: P -1
;
_chemical_formula_sum "Si O2"
_cell_formula_units_Z 8
_cell_length_a 14.759319
_cell_length_b 11.228852
_cell_length_c 8.540437
_cell_angle_alpha 26.994112
_cell_angle_beta 32.679072
_cell_angle_gamma 29.904636
_cell_volume 304.914162
_symmetry_space_group_name_H-M "P -1"
_symmetry_group_IT_number 2
_symmetry_cell_setting 'triclinic'
loop_
_space_group_symop_operation_xyz
x,y,z
-x,-y,-z
loop_
_atom_site_type_symbol
_atom_site_label
_atom_site_fract_x
_atom_site_fract_y
_atom_site_fract_z
Si Si1 0.542768 0.670195 0.374497
Si Si2 0.274886 0.195764 0.586470
Si Si3 0.132553 0.722907 0.424825
Si Si4 0.172559 0.032911 0.630087
O O1 0.500000 0.500000 0.500000
O O2 0.756012 0.464859 0.366911
O O3 0.379490 0.742750 0.659455
O O4 0.500000 0.000000 0.000000
O O5 0.211903 0.476603 0.459787
O O6 0.207426 0.255326 0.432837
O O7 0.190070 0.984100 0.021008
O O8 0.500000 0.000000 0.500000
O O9 0.907444 0.871190 0.541971
O O10 0.000000 0.000000 0.000000
#
# Coordination Sequence:
#
# PCOD9050958 Si02
#       4
#     2   2   2   2
#     4  12  28  46  69  98 143 188 227 275 345 409
#     4  11  21  39  72 102 135 171 224 285 348 393
#     4  11  24  43  68 100 140 177 227 284 339 403
#     4  10  25  44  74 106 134 176 234 286 341 406
#
# _framework density 26.236892000000001
#
# number of rings (size 3 to 8) (size 9 to 14) (size 15 to 20)
#    0.000    1.000    2.500    3.000    3.500    6.000 
#    0.000    0.000    0.000    0.000    0.000    0.000 
#    0.000    0.000    0.000    0.000    0.000    0.000 
#
# Total GULP energy -44762.135251 kJ/mol
# GULP energy per Si atom -5595.266906 kJ/mol
# Density = 2.617718 g / cm^3
# Si number density = 26.236892 Si / 1000 Ang^3
#
#
#
# Elastic Constant Matrix: (Units=GPa)
#
#
# Indices 1 2 3 4 5 6 
#
# 1 202.4233 11.0113 30.2734 -24.1036 0.3366 -21.4367
# 2 11.0113 66.7495 6.5686 -9.5134 -17.4966 1.1985
# 3 30.2734 6.5686 124.4395 -16.6039 -10.5458 -5.5009
# 4 -24.1036 -9.5134 -16.6039 47.0776 -7.9202 -4.3547
# 5 0.3366 -17.4966 -10.5458 -7.9202 28.4078 -18.1470
# 6 -21.4367 1.1985 -5.5009 -4.3547 -18.1470 72.0699
#
#
#
# Elastic Compliance Matrix: (Units=1/GPa)
#
#
# Indices 1 2 3 4 5 6 
#
# 1 0.005673 0.000139 -0.000653 0.003298 0.002225 0.002395
# 2 0.000139 0.021025 0.001906 0.008753 0.019459 0.005266
# 3 -0.000653 0.001906 0.009558 0.005013 0.007916 0.002800
# 4 0.003298 0.008753 0.005013 0.030807 0.021175 0.008411
# 5 0.002225 0.019459 0.007916 0.021175 0.068429 0.019452
# 6 0.002395 0.005266 0.002800 0.008411 0.019452 0.020120
#
#
# Mechanical properties :
#
#
# Convention : Reuss Voigt Hill
#
# Bulk Modulus (GPa) = 25.61510 54.36876 39.99193
# Shear Modulus (GPa) = 30.14941 52.56165 41.35553
#
# Velocity S-wave (km/s) = 3.39355 4.48073 3.97449
# Velocity P-wave (km/s) = 5.01389 6.89468 6.02809
#
# Compressibility (1/GPa) = 0.03903948
#
# Stress axis : x y z
#
# Youngs Moduli (GPa) = 176.27729 47.56325 104.62793
#
# Poissons Ratio (x) = -0.00660 0.06831
# Poissons Ratio (y) = -0.02446 -0.19945
# Poissons Ratio (z) = 0.11509 -0.09067
#
# Static dielectric constant tensor:
#      x y z
#    x 2.166190 -0.059190 0.135360 
#    y -0.059190 2.071550 0.005320 
#    z 0.135360 0.005320 2.269500 
# 
# From -- ./inp_files/306052.got.cif
#   From: 2010.05.17/outbox.cif.g08.bks.cpg/sg2_154_cif.got.tgz:306052.got - 2010.06.03 11:33:40.
