data_PCOD9050112
_publ_section_title
;
Structure prediction by ZEFSAII (Michael W. Deem and Ramdas Pophale) SiO2 
 PCOD9050112
Probable space group: P -1
;
_chemical_formula_sum "Si O2"
_cell_formula_units_Z 10
_cell_length_a 4.638993
_cell_length_b 14.164100
_cell_length_c 6.214593
_cell_angle_alpha 72.659809
_cell_angle_beta 98.573250
_cell_angle_gamma 111.263269
_cell_volume 362.864060
_symmetry_space_group_name_H-M "P -1"
_symmetry_group_IT_number 2
_symmetry_cell_setting 'triclinic'
loop_
_space_group_symop_operation_xyz
x,y,z
-x,-y,-z
loop_
_atom_site_type_symbol
_atom_site_label
_atom_site_fract_x
_atom_site_fract_y
_atom_site_fract_z
Si Si1 0.690394 0.383129 0.701992
Si Si2 0.232591 0.253933 0.104726
Si Si3 0.107937 0.902870 0.151019
Si Si4 0.296010 0.098520 0.541257
Si Si5 0.108248 0.384622 0.381322
O O1 0.939307 0.171550 0.006957
O O2 0.446782 0.399908 0.496236
O O3 0.907896 0.498352 0.727847
O O4 0.487576 0.322005 0.920159
O O5 0.386312 0.180471 0.303236
O O6 0.102447 0.322821 0.202472
O O7 0.884201 0.334871 0.593934
O O8 0.846011 0.845423 0.333415
O O9 0.433375 0.932385 0.291751
O O10 0.000000 0.000000 0.000000
O O11 0.000000 0.000000 0.500000
#
# Coordination Sequence:
#
# PCOD9050112 Si02
#       5
#     2   2   2   2   2
#     4  10  24  48  76 115 161 208 271 334 399 485
#     4  12  27  46  84 114 162 214 275 328 414 470
#     4  12  28  50  77 115 160 214 274 332 404 486
#     4  12  28  50  77 115 160 214 274 332 404 486
#     4  10  24  48  76 115 161 208 271 334 399 485
#
# _framework density 27.558529
#
# number of rings (size 3 to 8) (size 9 to 14) (size 15 to 20)
#    0.000    0.800    2.000    3.000    0.000   11.200 
#    0.000    6.000    0.000    3.600    0.000    0.000 
#    0.000    0.000    0.000    0.000    0.000    0.000 
#
# Total GULP energy -56061.060760 kJ/mol
# GULP energy per Si atom -5606.106076 kJ/mol
# Density = 2.749580 g / cm^3
# Si number density = 27.558529 Si / 1000 Ang^3
#
#
#
# Elastic Constant Matrix: (Units=GPa)
#
#
# Indices 1 2 3 4 5 6 
#
# 1 173.3749 65.7569 73.0145 6.9422 15.6587 -15.6494
# 2 65.7569 202.4223 100.9515 39.1562 -5.7141 4.4048
# 3 73.0145 100.9515 166.3912 8.4233 -10.2932 15.6013
# 4 6.9422 39.1562 8.4233 52.8212 -8.3737 -4.9008
# 5 15.6587 -5.7141 -10.2932 -8.3737 68.8006 3.4182
# 6 -15.6494 4.4048 15.6013 -4.9008 3.4182 44.0377
#
#
#
# Elastic Compliance Matrix: (Units=1/GPa)
#
#
# Indices 1 2 3 4 5 6 
#
# 1 0.008369 -0.001178 -0.003575 0.000339 -0.002725 0.004608
# 2 -0.001178 0.008604 -0.004411 -0.005603 -0.000344 -0.000314
# 3 -0.003575 -0.004411 0.010742 0.002000 0.002527 -0.004609
# 4 0.000339 -0.005603 0.002000 0.023335 0.002479 0.002377
# 5 -0.002725 -0.000344 0.002527 0.002479 0.015945 -0.002791
# 6 0.004608 -0.000314 -0.004609 0.002377 -0.002791 0.026490
#
#
# Mechanical properties :
#
#
# Convention : Reuss Voigt Hill
#
# Bulk Modulus (GPa) = 106.54790 113.51492 110.03141
# Shear Modulus (GPa) = 43.49943 53.29626 48.39785
#
# Velocity S-wave (km/s) = 3.97727 4.40242 4.19523
# Velocity P-wave (km/s) = 7.73549 8.19278 7.96742
#
# Compressibility (1/GPa) = 0.00938545
#
# Stress axis : x y z
#
# Youngs Moduli (GPa) = 119.49015 116.22566 93.09020
#
# Poissons Ratio (x) = 0.13697 0.33281
# Poissons Ratio (y) = 0.14081 0.41064
# Poissons Ratio (z) = 0.42720 0.51269
#
# Static dielectric constant tensor:
#      x y z
#    x 2.117000 0.010470 0.013590 
#    y 0.010470 2.227700 -0.007370 
#    z 0.013590 -0.007370 2.200980 
# 
# From -- ./inp_files/20725.got.cif
#   From: 2010.05.17/outbox.cif.g08.bks.cpg/sg2_11_cif.got.tgz:20725.got - 2010.06.03 11:33:40.
