data_PCOD9050470
_publ_section_title
;
Structure prediction by ZEFSAII (Michael W. Deem and Ramdas Pophale) SiO2 
 PCOD9050470
Probable space group: P -1
;
_chemical_formula_sum "Si O2"
_cell_formula_units_Z 16
_cell_length_a 14.029505
_cell_length_b 11.334949
_cell_length_c 13.682166
_cell_angle_alpha 41.491950
_cell_angle_beta 32.042402
_cell_angle_gamma 41.863337
_cell_volume 726.505119
_symmetry_space_group_name_H-M "P -1"
_symmetry_group_IT_number 2
_symmetry_cell_setting 'triclinic'
loop_
_space_group_symop_operation_xyz
x,y,z
-x,-y,-z
loop_
_atom_site_type_symbol
_atom_site_label
_atom_site_fract_x
_atom_site_fract_y
_atom_site_fract_z
Si Si1 0.607006 0.407400 0.364955
Si Si2 0.374640 0.376181 0.404046
Si Si3 0.457253 0.198420 0.853433
Si Si4 0.890725 0.854434 0.290864
Si Si5 0.420042 0.953411 0.885886
Si Si6 0.822440 0.991484 0.482090
Si Si7 0.720381 0.201374 0.086522
Si Si8 0.787163 0.214316 0.666739
O O1 0.500000 0.500000 0.500000
O O2 0.478522 0.338115 0.442147
O O3 0.655805 0.582532 0.160612
O O4 0.764506 0.214119 0.375132
O O5 0.263734 0.238604 0.551297
O O6 0.540492 0.357458 0.191511
O O7 0.222710 0.577288 0.426493
O O8 0.668839 0.212693 0.672463
O O9 0.362672 0.157428 0.861166
O O10 0.500000 0.000000 0.000000
O O11 0.888818 0.889124 0.385188
O O12 0.818474 0.058096 0.176312
O O13 0.104644 0.741253 0.143822
O O14 0.350001 0.913906 0.865269
O O15 0.644907 0.922839 0.709692
O O16 0.334675 0.836444 0.107630
O O17 0.003617 0.921673 0.435757
#
# Coordination Sequence:
#
# PCOD9050470 Si02
#       8
#     2   2   2   2   2   2   2   2
#     4  11  22  41  70  99 123 174 223 265 317 398
#     4  11  23  43  66  92 135 172 211 267 335 373
#     4   9  21  43  65  91 135 168 212 269 325 381
#     4  11  23  39  65  98 131 164 219 270 322 384
#     4  11  21  40  66  90 128 172 211 261 335 372
#     4  12  22  41  69  94 131 168 219 266 325 378
#     4  11  22  39  67  93 128 169 214 275 317 389
#     4  10  25  42  62  96 133 169 218 269 316 399
#
# _framework density 22.023244999999999
#
# number of rings (size 3 to 8) (size 9 to 14) (size 15 to 20)
#    0.000    1.250    5.000    1.125    0.000    2.500 
#    0.000    2.500    5.500    0.000    0.000    0.000 
#    0.000    0.000    0.000    0.000    0.000    0.000 
#
# Total GULP energy -89085.791064 kJ/mol
# GULP energy per Si atom -5567.861941 kJ/mol
# Density = 2.197312 g / cm^3
# Si number density = 22.023245 Si / 1000 Ang^3
#
#
#
# Elastic Constant Matrix: (Units=GPa)
#
#
# Indices 1 2 3 4 5 6 
#
# 1 95.2726 5.0677 -4.4506 10.9489 -1.4291 10.9623
# 2 5.0677 84.0771 13.4757 15.0428 -10.7526 -11.8445
# 3 -4.4506 13.4757 68.8489 15.6725 4.5661 -4.4712
# 4 10.9489 15.0428 15.6725 21.1048 -0.4125 -1.6435
# 5 -1.4291 -10.7526 4.5661 -0.4125 16.9571 2.4718
# 6 10.9623 -11.8445 -4.4712 -1.6435 2.4718 39.5147
#
#
#
# Elastic Compliance Matrix: (Units=1/GPa)
#
#
# Indices 1 2 3 4 5 6 
#
# 1 0.011957 -0.000037 0.002381 -0.008200 0.000645 -0.003440
# 2 -0.000037 0.015528 -0.001236 -0.009671 0.009425 0.003533
# 3 0.002381 -0.001236 0.018619 -0.014232 -0.006069 0.000864
# 4 -0.008200 -0.009671 -0.014232 0.069128 -0.001416 0.000729
# 5 0.000645 0.009425 -0.006069 -0.001416 0.066936 -0.002286
# 6 -0.003440 0.003533 0.000864 0.000729 -0.002286 0.027592
#
#
# Mechanical properties :
#
#
# Convention : Reuss Voigt Hill
#
# Bulk Modulus (GPa) = 20.69603 30.70936 25.70270
# Shear Modulus (GPa) = 22.35634 31.12237 26.73936
#
# Velocity S-wave (km/s) = 3.18956 3.76328 3.48824
# Velocity P-wave (km/s) = 4.79397 5.73214 5.28392
#
# Compressibility (1/GPa) = 0.04831844
#
# Stress axis : x y z
#
# Youngs Moduli (GPa) = 83.63112 64.40121 53.70992
#
# Poissons Ratio (x) = 0.00241 -0.12786
# Poissons Ratio (y) = 0.00313 0.06637
# Poissons Ratio (z) = -0.19909 0.07958
#
# Static dielectric constant tensor:
#      x y z
#    x 1.848630 -0.008360 0.071500 
#    y -0.008360 1.854100 0.000140 
#    z 0.071500 0.000140 1.886600 
# 
# From -- ./inp_files/531610.got.cif
#   From: 2010.05.17/outbox.cif.g08.bks.cpg/sg2_266_cif.got.tgz:531610.got - 2010.06.03 11:33:40.
