data_PCOD9050079
_publ_section_title
;
Structure prediction by ZEFSAII (Michael W. Deem and Ramdas Pophale) SiO2 
 PCOD9050079
Probable space group: P -1
;
_chemical_formula_sum "Si O2"
_cell_formula_units_Z 12
_cell_length_a 8.131180
_cell_length_b 20.065417
_cell_length_c 9.231526
_cell_angle_alpha 141.779035
_cell_angle_beta 147.700260
_cell_angle_gamma 42.668046
_cell_volume 486.246037
_symmetry_space_group_name_H-M "P -1"
_symmetry_group_IT_number 2
_symmetry_cell_setting 'triclinic'
loop_
_space_group_symop_operation_xyz
x,y,z
-x,-y,-z
loop_
_atom_site_type_symbol
_atom_site_label
_atom_site_fract_x
_atom_site_fract_y
_atom_site_fract_z
Si Si1 0.310761 0.175331 0.223818
Si Si2 0.020589 0.120452 0.627097
Si Si3 0.350000 0.270444 0.926038
Si Si4 0.493878 0.921543 0.504598
Si Si5 0.768073 0.569386 0.331760
Si Si6 0.183142 0.593159 0.406492
O O1 0.264864 0.116715 0.243642
O O2 0.327153 0.302935 0.475469
O O3 0.657310 0.123684 0.330944
O O4 0.066453 0.162757 0.896043
O O5 0.175594 0.200844 0.781439
O O6 0.217520 0.000558 0.524348
O O7 0.478197 0.197134 0.754631
O O8 0.070178 0.375915 0.857974
O O9 0.656903 0.300924 0.276867
O O10 0.500000 0.000000 0.500000
O O11 0.000000 0.500000 0.500000
O O12 0.961728 0.573957 0.338815
O O13 0.500000 0.500000 0.000000
O O14 0.500000 0.500000 0.500000
#
# Coordination Sequence:
#
# PCOD9050079 Si02
#       6
#     2   2   2   2   2   2
#     4  12  25  47  73 106 152 183 245 298 368 426
#     4  11  26  44  75 108 145 193 236 298 361 443
#     4  11  25  47  72 108 146 193 241 303 360 433
#     4  10  24  48  75 106 146 191 245 295 365 430
#     4  12  28  47  75 107 148 194 240 301 369 432
#     4  12  27  47  76 104 147 192 252 300 361 431
#
# _framework density 24.678863
#
# number of rings (size 3 to 8) (size 9 to 14) (size 15 to 20)
#    0.000    0.667    1.667    4.500    9.333    1.333 
#    0.000    7.500    0.000    0.000    0.000    0.000 
#    0.000    0.000    0.000    0.000    0.000    0.000 
#
# Total GULP energy -67014.102031 kJ/mol
# GULP energy per Si atom -5584.508503 kJ/mol
# Density = 2.462269 g / cm^3
# Si number density = 24.678863 Si / 1000 Ang^3
#
#
#
# Elastic Constant Matrix: (Units=GPa)
#
#
# Indices 1 2 3 4 5 6 
#
# 1 83.2228 23.2423 16.4039 7.6106 12.1532 17.4157
# 2 23.2423 140.0825 8.4513 -3.1427 0.5139 -1.5494
# 3 16.4039 8.4513 113.3778 -12.6246 16.4869 10.3781
# 4 7.6106 -3.1427 -12.6246 34.8570 -1.5174 -5.9817
# 5 12.1532 0.5139 16.4869 -1.5174 45.7653 5.2490
# 6 17.4157 -1.5494 10.3781 -5.9817 5.2490 56.3239
#
#
#
# Elastic Compliance Matrix: (Units=1/GPa)
#
#
# Indices 1 2 3 4 5 6 
#
# 1 0.014911 -0.002526 -0.001673 -0.005012 -0.002964 -0.004628
# 2 -0.002526 0.007613 -0.000238 0.001370 0.000587 0.001125
# 3 -0.001673 -0.000238 0.009983 0.003718 -0.002951 -0.000659
# 4 -0.005012 0.001370 0.003718 0.032006 0.000550 0.004250
# 5 -0.002964 0.000587 -0.002951 0.000550 0.023791 -0.000682
# 6 -0.004628 0.001125 -0.000659 0.004250 -0.000682 0.019853
#
#
# Mechanical properties :
#
#
# Convention : Reuss Voigt Hill
#
# Bulk Modulus (GPa) = 42.31081 48.09755 45.20418
# Shear Modulus (GPa) = 40.02962 46.62827 43.32894
#
# Velocity S-wave (km/s) = 4.03180 4.35144 4.19467
# Velocity P-wave (km/s) = 6.23343 6.69167 6.46661
#
# Compressibility (1/GPa) = 0.02363462
#
# Stress axis : x y z
#
# Youngs Moduli (GPa) = 67.06596 131.35228 100.16844
#
# Poissons Ratio (x) = 0.33177 0.16753
# Poissons Ratio (y) = 0.16940 0.02382
# Poissons Ratio (z) = 0.11217 0.03124
#
# Static dielectric constant tensor:
#      x y z
#    x 1.916610 -0.058660 -0.002700 
#    y -0.058660 2.286170 0.053360 
#    z -0.002700 0.053360 1.906070 
# 
# From -- ./inp_files/104469.got.cif
#   From: 2010.05.17/outbox.cif.g08.bks.cpg/sg2_53_cif.got.tgz:104469.got - 2010.06.03 11:33:40.
