data_PCOD9050374
_publ_section_title
;
Structure prediction by ZEFSAII (Michael W. Deem and Ramdas Pophale) SiO2 
 PCOD9050374
Probable space group: P -1
;
_chemical_formula_sum "Si O2"
_cell_formula_units_Z 16
_cell_length_a 7.154988
_cell_length_b 18.960970
_cell_length_c 12.200954
_cell_angle_alpha 151.187818
_cell_angle_beta 113.985914
_cell_angle_gamma 70.918356
_cell_volume 727.230482
_symmetry_space_group_name_H-M "P -1"
_symmetry_group_IT_number 2
_symmetry_cell_setting 'triclinic'
loop_
_space_group_symop_operation_xyz
x,y,z
-x,-y,-z
loop_
_atom_site_type_symbol
_atom_site_label
_atom_site_fract_x
_atom_site_fract_y
_atom_site_fract_z
Si Si1 0.506776 0.851673 0.456926
Si Si2 0.937125 0.159644 0.728745
Si Si3 0.015380 0.320230 0.176533
Si Si4 0.777610 0.600877 0.460773
Si Si5 0.233234 0.901443 0.036338
Si Si6 0.590634 0.426716 0.813549
Si Si7 0.039558 0.826548 0.678415
Si Si8 0.100190 0.311939 0.758230
O O1 0.309314 0.848352 0.327431
O O2 0.433259 0.743406 0.391538
O O3 0.701545 0.784966 0.353421
O O4 0.575585 0.008194 0.739703
O O5 0.003429 0.261686 0.781357
O O6 0.047742 0.217396 0.942683
O O7 0.000000 0.000000 0.500000
O O8 0.928133 0.468321 0.311357
O O9 0.207749 0.350615 0.343608
O O10 0.841785 0.239207 0.102278
O O11 0.556555 0.551262 0.294051
O O12 0.873437 0.730964 0.583149
O O13 0.054189 0.018205 0.158683
O O14 0.232823 0.856710 0.846758
O O15 0.500000 0.500000 0.000000
O O16 0.802072 0.522264 0.984327
O O17 0.048154 0.734528 0.443248
#
# Coordination Sequence:
#
# PCOD9050374 Si02
#       8
#     2   2   2   2   2   2   2   2
#     4  10  21  39  63  90 116 163 213 257 310 360
#     4  12  26  41  58  92 132 167 206 251 314 381
#     4  10  22  35  59  92 130 169 200 253 312 380
#     4  10  18  36  63  94 122 161 213 253 313 366
#     4   9  17  33  60  89 118 161 204 251 305 368
#     4  10  17  34  62  92 116 151 207 265 304 356
#     4   9  16  32  60  90 119 155 208 254 303 358
#     4  10  21  37  63  91 120 159 205 262 307 364
#
# _framework density 22.001279
#
# number of rings (size 3 to 8) (size 9 to 14) (size 15 to 20)
#    0.000    2.000    3.750    3.000    0.000    3.500 
#    0.000    1.250    0.000    0.000    0.000    0.000 
#    0.000    0.000    0.000    0.000    0.000    0.000 
#
# Total GULP energy -89330.050574 kJ/mol
# GULP energy per Si atom -5583.128161 kJ/mol
# Density = 2.195120 g / cm^3
# Si number density = 22.001279 Si / 1000 Ang^3
#
#
#
# Elastic Constant Matrix: (Units=GPa)
#
#
# Indices 1 2 3 4 5 6 
#
# 1 58.7122 8.1394 14.1254 -15.9348 15.9451 -2.6376
# 2 8.1394 66.2152 31.7715 -20.5133 3.2842 -2.1405
# 3 14.1254 31.7715 132.6627 -33.8507 10.5520 0.9325
# 4 -15.9348 -20.5133 -33.8507 57.7968 3.8462 0.0161
# 5 15.9451 3.2842 10.5520 3.8462 29.1433 -1.1001
# 6 -2.6376 -2.1405 0.9325 0.0161 -1.1001 18.9369
#
#
#
# Elastic Compliance Matrix: (Units=1/GPa)
#
#
# Indices 1 2 3 4 5 6 
#
# 1 0.022708 0.000011 0.000549 0.007485 -0.013524 0.002345
# 2 0.000011 0.018179 -0.003030 0.004780 -0.001509 0.002114
# 3 0.000549 -0.003030 0.009860 0.005133 -0.004244 -0.001002
# 4 0.007485 0.004780 0.005133 0.024716 -0.009726 0.000744
# 5 -0.013524 -0.001509 -0.004244 -0.009726 0.044731 0.000762
# 6 0.002345 0.002114 -0.001002 0.000744 0.000762 0.053465
#
#
# Mechanical properties :
#
#
# Convention : Reuss Voigt Hill
#
# Bulk Modulus (GPa) = 21.83130 40.62920 31.23025
# Shear Modulus (GPa) = 25.79064 34.74567 30.26815
#
# Velocity S-wave (km/s) = 3.42750 3.97830 3.71313
# Velocity P-wave (km/s) = 5.06043 6.29359 5.71040
#
# Compressibility (1/GPa) = 0.04580579
#
# Stress axis : x y z
#
# Youngs Moduli (GPa) = 44.03668 55.00903 101.42461
#
# Poissons Ratio (x) = -0.00060 -0.05565
# Poissons Ratio (y) = -0.00048 0.30731
# Poissons Ratio (z) = -0.02416 0.16667
#
# Static dielectric constant tensor:
#      x y z
#    x 1.855690 -0.103570 -0.046930 
#    y -0.103570 1.916130 0.059890 
#    z -0.046930 0.059890 1.882480 
# 
# From -- ./inp_files/403579.got.cif
#   From: 2010.05.17/outbox.cif.g08.bks.cpg/sg2_202_cif.got.tgz:403579.got - 2010.06.03 11:33:40.
