data_PCOD9050796
_publ_section_title
;
Structure prediction by ZEFSAII (Michael W. Deem and Ramdas Pophale) SiO2 
 PCOD9050796
Probable space group: P -1
;
_chemical_formula_sum "Si O2"
_cell_formula_units_Z 14
_cell_length_a 5.204223
_cell_length_b 5.164899
_cell_length_c 23.032299
_cell_angle_alpha 92.093211
_cell_angle_beta 116.152316
_cell_angle_gamma 99.844530
_cell_volume 543.130815
_symmetry_space_group_name_H-M "P -1"
_symmetry_group_IT_number 2
_symmetry_cell_setting 'triclinic'
loop_
_space_group_symop_operation_xyz
x,y,z
-x,-y,-z
loop_
_atom_site_type_symbol
_atom_site_label
_atom_site_fract_x
_atom_site_fract_y
_atom_site_fract_z
Si Si1 0.364434 0.719498 0.455627
Si Si2 0.732335 0.935124 0.147914
Si Si3 0.426152 0.356905 0.759999
Si Si4 0.997413 0.520901 0.877232
Si Si5 0.241766 0.829929 0.012026
Si Si6 0.515554 0.931759 0.346938
Si Si7 0.190520 0.627748 0.640902
O O1 0.500000 0.500000 0.500000
O O2 0.446811 0.773694 0.396707
O O3 0.018655 0.583541 0.420051
O O4 0.500000 0.000000 0.500000
O O5 0.732559 0.873589 0.215327
O O6 0.941201 0.762615 0.136904
O O7 0.413991 0.805904 0.088113
O O8 0.811012 0.240358 0.140071
O O9 0.579752 0.230955 0.721346
O O10 0.524633 0.763851 0.653909
O O11 0.671272 0.536529 0.825376
O O12 0.103146 0.586747 0.954301
O O13 0.500000 0.000000 0.000000
O O14 0.000000 0.000000 0.000000
O O15 0.779828 0.483528 0.293528
O O16 0.862748 0.074108 0.369459
#
# Coordination Sequence:
#
# PCOD9050796 Si02
#       7
#     2   2   2   2   2   2   2
#     4  12  26  44  72 102 136 185 232 285 356 430
#     4  11  27  45  72 104 145 191 248 304 374 441
#     4  10  28  41  76  96 146 186 240 296 368 438
#     4  11  27  45  72 104 145 191 248 304 374 441
#     4  10  25  47  75 107 152 196 258 321 379 449
#     4  10  25  44  67  99 139 177 231 287 353 420
#     4  10  25  44  67  99 139 177 231 287 353 420
#
# _framework density 25.776477
#
# number of rings (size 3 to 8) (size 9 to 14) (size 15 to 20)
#    0.857    0.571    0.000    2.143   14.000    4.000 
#    0.000    0.000    0.000    0.000    0.000    0.000 
#    0.000    0.000    0.000    0.000    0.000    0.000 
#
# Total GULP energy -78061.814288 kJ/mol
# GULP energy per Si atom -5575.843878 kJ/mol
# Density = 2.571781 g / cm^3
# Si number density = 25.776477 Si / 1000 Ang^3
#
#
#
# Elastic Constant Matrix: (Units=GPa)
#
#
# Indices 1 2 3 4 5 6 
#
# 1 74.2256 12.6131 27.8714 -5.3101 -3.1877 -1.0293
# 2 12.6131 104.0709 37.4524 -6.4538 0.3079 4.2599
# 3 27.8714 37.4524 109.2823 -4.0297 -13.5109 5.4056
# 4 -5.3101 -6.4538 -4.0297 44.1107 13.3774 -0.6418
# 5 -3.1877 0.3079 -13.5109 13.3774 39.5597 -0.6971
# 6 -1.0293 4.2599 5.4056 -0.6418 -0.6971 37.0011
#
#
#
# Elastic Compliance Matrix: (Units=1/GPa)
#
#
# Indices 1 2 3 4 5 6 
#
# 1 0.015060 -0.000411 -0.003765 0.001604 -0.000593 0.001033
# 2 -0.000411 0.011210 -0.003890 0.001859 -0.002091 -0.000741
# 3 -0.003765 -0.003890 0.011986 -0.001224 0.004211 -0.001350
# 4 0.001604 0.001859 -0.001224 0.025760 -0.009009 0.000287
# 5 -0.000593 -0.002091 0.004211 -0.009009 0.029732 0.000013
# 6 0.001033 -0.000741 -0.001350 0.000287 0.000013 0.027343
#
#
# Mechanical properties :
#
#
# Convention : Reuss Voigt Hill
#
# Bulk Modulus (GPa) = 45.20202 49.27251 47.23727
# Shear Modulus (GPa) = 34.57847 38.11042 36.34445
#
# Velocity S-wave (km/s) = 3.66659 3.84929 3.75905
# Velocity P-wave (km/s) = 5.95813 6.23802 6.09968
#
# Compressibility (1/GPa) = 0.02212290
#
# Stress axis : x y z
#
# Youngs Moduli (GPa) = 66.40231 89.20224 83.42789
#
# Poissons Ratio (x) = 0.03669 0.31412
# Poissons Ratio (y) = 0.02731 0.32457
# Poissons Ratio (z) = 0.25002 0.34703
#
# Static dielectric constant tensor:
#      x y z
#    x 2.156770 -0.060740 0.056970 
#    y -0.060740 1.922910 0.016130 
#    z 0.056970 0.016130 2.002290 
# 
# From -- ./inp_files/602967.got.cif
#   From: 2010.05.17/outbox.cif.g08.bks.cpg/sg2_302_cif.got.tgz:602967.got - 2010.06.03 11:33:40.
