data_PCOD9050489
_publ_section_title
;
Structure prediction by ZEFSAII (Michael W. Deem and Ramdas Pophale) SiO2 
 PCOD9050489
Probable space group: P -1
;
_chemical_formula_sum "Si O2"
_cell_formula_units_Z 16
_cell_length_a 22.126542
_cell_length_b 5.553429
_cell_length_c 9.195903
_cell_angle_alpha 76.970186
_cell_angle_beta 132.042583
_cell_angle_gamma 124.617226
_cell_volume 668.037466
_symmetry_space_group_name_H-M "P -1"
_symmetry_group_IT_number 2
_symmetry_cell_setting 'triclinic'
loop_
_space_group_symop_operation_xyz
x,y,z
-x,-y,-z
loop_
_atom_site_type_symbol
_atom_site_label
_atom_site_fract_x
_atom_site_fract_y
_atom_site_fract_z
Si Si1 0.590105 0.379767 0.950157
Si Si2 0.410376 0.200905 0.324334
Si Si3 0.820781 0.381819 0.644335
Si Si4 0.715628 0.366505 0.925585
Si Si5 0.898502 0.463905 0.086959
Si Si6 0.392379 0.719731 0.683503
Si Si7 0.712951 0.771107 0.642569
Si Si8 0.997365 0.893521 0.675294
O O1 0.603985 0.671235 0.863735
O O2 0.682737 0.390531 0.028203
O O3 0.485591 0.069851 0.774421
O O4 0.590680 0.385221 0.122369
O O5 0.500000 0.500000 0.500000
O O6 0.327391 0.097325 0.327859
O O7 0.390562 0.890411 0.285134
O O8 0.714836 0.335415 0.475676
O O9 0.891052 0.620957 0.604101
O O10 0.792263 0.040852 0.629668
O O11 0.872898 0.478219 0.874516
O O12 0.754155 0.644540 0.840064
O O13 0.799379 0.307851 0.050512
O O14 0.941048 0.259014 0.193993
O O15 0.965988 0.807179 0.210194
O O16 0.376998 0.498011 0.559745
O O17 0.000000 0.000000 0.500000
#
# Coordination Sequence:
#
# PCOD9050489 Si02
#       8
#     2   2   2   2   2   2   2   2
#     4  10  25  42  65 106 149 204 244 315 372 454
#     4  11  21  38  66  99 139 190 252 306 371 438
#     4  12  26  46  76 108 144 200 248 316 378 462
#     4  11  23  41  70 103 145 191 249 309 375 443
#     4  12  26  51  80 112 152 196 258 310 386 463
#     4  11  24  44  68 101 154 195 257 302 384 448
#     4  11  21  41  67 103 138 190 251 308 367 449
#     4  12  31  53  80 115 152 193 253 321 392 459
#
# _framework density 23.950755000000001
#
# number of rings (size 3 to 8) (size 9 to 14) (size 15 to 20)
#    0.000    0.750    2.500    4.125    5.250    3.000 
#    0.000    3.125    0.000    0.000    0.000    0.000 
#    0.000    0.000    0.000    0.000    0.000    0.000 
#
# Total GULP energy -89351.160474 kJ/mol
# GULP energy per Si atom -5584.447530 kJ/mol
# Density = 2.389624 g / cm^3
# Si number density = 23.950755 Si / 1000 Ang^3
#
#
#
# Elastic Constant Matrix: (Units=GPa)
#
#
# Indices 1 2 3 4 5 6 
#
# 1 86.2323 29.7919 32.5273 -13.1926 6.5905 15.9614
# 2 29.7919 150.2580 52.1213 -1.0661 -12.4961 35.5755
# 3 32.5273 52.1213 87.4840 -9.2930 -11.0839 8.6024
# 4 -13.1926 -1.0661 -9.2930 32.7891 3.2493 -11.2765
# 5 6.5905 -12.4961 -11.0839 3.2493 36.1894 0.7722
# 6 15.9614 35.5755 8.6024 -11.2765 0.7722 36.1557
#
#
#
# Elastic Compliance Matrix: (Units=1/GPa)
#
#
# Indices 1 2 3 4 5 6 
#
# 1 0.015446 -0.000892 -0.005078 0.004086 -0.004971 -0.003353
# 2 -0.000892 0.011887 -0.005808 -0.006026 0.003283 -0.011871
# 3 -0.005078 -0.005808 0.017179 0.004001 0.003714 0.005037
# 4 0.004086 -0.006026 0.004001 0.038924 -0.005423 0.015429
# 5 -0.004971 0.003283 0.003714 -0.005423 0.031387 -0.004281
# 6 -0.003353 -0.011871 0.005037 0.015429 -0.004281 0.044523
#
#
# Mechanical properties :
#
#
# Convention : Reuss Voigt Hill
#
# Bulk Modulus (GPa) = 47.71499 61.42836 54.57168
# Shear Modulus (GPa) = 26.33158 34.99576 30.66367
#
# Velocity S-wave (km/s) = 3.31932 3.82665 3.58198
# Velocity P-wave (km/s) = 5.88693 6.72516 6.31996
#
# Compressibility (1/GPa) = 0.02095777
#
# Stress axis : x y z
#
# Youngs Moduli (GPa) = 64.74337 84.12289 58.21092
#
# Poissons Ratio (x) = 0.07502 0.29557
# Poissons Ratio (y) = 0.05774 0.33807
# Poissons Ratio (z) = 0.32874 0.48856
#
# Static dielectric constant tensor:
#      x y z
#    x 1.985090 -0.006690 0.091200 
#    y -0.006690 1.975270 0.039930 
#    z 0.091200 0.039930 1.958130 
# 
# From -- ./inp_files/351006.got.cif
#   From: 2010.05.17/outbox.cif.g08.bks.cpg/sg2_176_cif.got.tgz:351006.got - 2010.06.03 11:33:40.
