data_PCOD9050028
_publ_section_title
;
Structure prediction by ZEFSAII (Michael W. Deem and Ramdas Pophale) SiO2 
 PCOD9050028
Probable space group: P -1
;
_chemical_formula_sum "Si O2"
_cell_formula_units_Z 16
_cell_length_a 14.040285
_cell_length_b 14.696385
_cell_length_c 15.532420
_cell_angle_alpha 28.964938
_cell_angle_beta 29.205846
_cell_angle_gamma 29.249529
_cell_volume 672.271839
_symmetry_space_group_name_H-M "P -1"
_symmetry_group_IT_number 2
_symmetry_cell_setting 'triclinic'
loop_
_space_group_symop_operation_xyz
x,y,z
-x,-y,-z
loop_
_atom_site_type_symbol
_atom_site_label
_atom_site_fract_x
_atom_site_fract_y
_atom_site_fract_z
Si Si1 0.098693 0.703560 0.902699
Si Si2 0.019937 0.777681 0.700871
Si Si3 0.418977 0.272838 0.251284
Si Si4 0.275514 0.416885 0.673974
Si Si5 0.796445 0.301816 0.840868
Si Si6 0.464084 0.046825 0.090602
Si Si7 0.786574 0.008866 0.310960
Si Si8 0.607073 0.381731 0.746924
O O1 0.354175 0.537376 0.838416
O O2 0.029397 0.762303 0.809134
O O3 0.094116 0.894779 0.803480
O O4 0.938359 0.619914 0.139119
O O5 0.792565 0.790193 0.834902
O O6 0.219560 0.570475 0.674182
O O7 0.000000 0.000000 0.500000
O O8 0.252966 0.516562 0.200145
O O9 0.289578 0.138269 0.453478
O O10 0.568077 0.185958 0.291710
O O11 0.599063 0.241553 0.063405
O O12 0.322781 0.535905 0.460804
O O13 0.469491 0.179018 0.730819
O O14 0.753991 0.384155 0.708518
O O15 0.045773 0.122729 0.788662
O O16 0.610129 0.156522 0.915138
O O17 0.500000 0.000000 0.000000
#
# Coordination Sequence:
#
# PCOD9050028 Si02
#       8
#     2   2   2   2   2   2   2   2
#     4  12  25  48  69 106 145 185 242 296 347 428
#     4  12  26  45  73 102 147 195 241 293 354 412
#     4  10  24  48  73 104 138 181 231 295 359 427
#     4  12  27  48  72 103 147 194 239 299 350 415
#     4  11  24  46  73 103 143 182 230 292 359 428
#     4  12  24  46  73 100 144 193 243 293 349 415
#     4  11  24  45  76 105 138 181 235 291 361 426
#     4  12  27  47  72 109 144 188 242 292 355 424
#
# _framework density 23.799894999999999
#
# number of rings (size 3 to 8) (size 9 to 14) (size 15 to 20)
#    0.000    0.500    3.750    4.125    1.750    5.500 
#    2.250    0.000    0.000    0.000    0.000    0.000 
#    0.000    0.000    0.000    0.000    0.000    0.000 
#
# Total GULP energy -89621.172201 kJ/mol
# GULP energy per Si atom -5601.323263 kJ/mol
# Density = 2.374573 g / cm^3
# Si number density = 23.799895 Si / 1000 Ang^3
#
#
#
# Elastic Constant Matrix: (Units=GPa)
#
#
# Indices 1 2 3 4 5 6 
#
# 1 51.9207 1.7296 4.7003 -8.3112 -8.9081 -5.2756
# 2 1.7296 101.1232 -0.5763 -2.8041 -8.5078 -0.4630
# 3 4.7003 -0.5763 83.3024 -18.4182 -5.3686 6.4593
# 4 -8.3112 -2.8041 -18.4182 31.2029 0.4450 -5.6897
# 5 -8.9081 -8.5078 -5.3686 0.4450 33.5999 1.2571
# 6 -5.2756 -0.4630 6.4593 -5.6897 1.2571 24.3975
#
#
#
# Elastic Compliance Matrix: (Units=1/GPa)
#
#
# Indices 1 2 3 4 5 6 
#
# 1 0.021930 0.000320 0.000209 0.007015 0.005610 0.006039
# 2 0.000320 0.010151 0.000492 0.001303 0.002706 0.000296
# 3 0.000209 0.000492 0.014073 0.008022 0.002394 -0.001924
# 4 0.007015 0.001303 0.008022 0.040315 0.002613 0.008685
# 5 0.005610 0.002706 0.002394 0.002613 0.032298 -0.000424
# 6 0.006039 0.000296 -0.001924 0.008685 -0.000424 0.044856
#
#
# Mechanical properties :
#
#
# Convention : Reuss Voigt Hill
#
# Bulk Modulus (GPa) = 20.74866 27.56149 24.15508
# Shear Modulus (GPa) = 28.14573 33.20626 30.67600
#
# Velocity S-wave (km/s) = 3.44262 3.73933 3.59404
# Velocity P-wave (km/s) = 4.95370 5.49992 5.23394
#
# Compressibility (1/GPa) = 0.04819589
#
# Stress axis : x y z
#
# Youngs Moduli (GPa) = 45.60066 98.50892 71.05703
#
# Poissons Ratio (x) = -0.03155 -0.01485
# Poissons Ratio (y) = -0.01460 -0.03494
# Poissons Ratio (z) = -0.00953 -0.04844
#
# Static dielectric constant tensor:
#      x y z
#    x 1.893870 -0.014950 -0.021510 
#    y -0.014950 1.953190 -0.013450 
#    z -0.021510 -0.013450 1.902960 
# 
# From -- ./inp_files/534051.got.cif
#   From: 2010.05.17/outbox.cif.g08.bks.cpg/sg2_268_cif.got.tgz:534051.got - 2010.06.03 11:33:40.
