data_PCOD9050135
_publ_section_title
;
Structure prediction by ZEFSAII (Michael W. Deem and Ramdas Pophale) SiO2 
 PCOD9050135
Probable space group: P -1
;
_chemical_formula_sum "Si O2"
_cell_formula_units_Z 15
_cell_length_a 17.627838
_cell_length_b 5.475964
_cell_length_c 11.381123
_cell_angle_alpha 92.171495
_cell_angle_beta 151.022438
_cell_angle_gamma 85.622050
_cell_volume 529.739030
_symmetry_space_group_name_H-M "P -1"
_symmetry_group_IT_number 2
_symmetry_cell_setting 'triclinic'
loop_
_space_group_symop_operation_xyz
x,y,z
-x,-y,-z
loop_
_atom_site_type_symbol
_atom_site_label
_atom_site_fract_x
_atom_site_fract_y
_atom_site_fract_z
Si Si1 0.486902 0.942565 0.222283
Si Si2 0.272478 0.491561 0.205921
Si Si3 0.913675 0.747473 0.237451
Si Si4 0.065878 0.916545 0.957256
Si Si5 0.404911 0.700020 0.791922
Si Si6 0.500000 0.000000 0.500000
Si Si7 0.801621 0.628960 0.640770
Si Si8 0.781872 0.170611 0.248440
O O1 0.474556 0.159649 0.116389
O O2 0.444707 0.035326 0.293469
O O3 0.668808 0.852809 0.460259
O O4 0.373568 0.734031 0.032960
O O5 0.172477 0.424551 0.186955
O O6 0.423098 0.299203 0.428898
O O7 0.195843 0.443798 0.973699
O O8 0.249691 0.792701 0.198757
O O9 0.080429 0.663551 0.524665
O O10 0.946772 0.899095 0.165025
O O11 0.843329 0.942400 0.244348
O O12 0.949601 0.706420 0.771870
O O13 0.000000 0.000000 0.000000
O O14 0.283423 0.586151 0.537778
O O15 0.295794 0.879211 0.732100
O O16 0.500000 0.500000 0.000000
#
# Coordination Sequence:
#
# PCOD9050135 Si02
#       8
#     2   2   2   2   2   1   2   2
#     4  11  24  47  73 105 148 194 249 315 363 435
#     4  11  24  46  72 109 147 191 247 309 368 444
#     4  11  25  46  71 102 148 198 236 304 379 435
#     4  12  26  43  75 110 147 190 249 309 378 440
#     4  12  26  42  71 108 146 197 243 301 372 435
#     4  10  24  48  78 104 156 190 256 310 370 440
#     4  11  25  44  71 109 142 190 254 306 372 437
#     4  11  24  47  68 101 151 192 242 297 363 460
#
# _framework density 28.315829000000001
#
# number of rings (size 3 to 8) (size 9 to 14) (size 15 to 20)
#    0.000    0.800    4.000    2.400    5.600    1.067 
#    0.000    4.000    0.000    0.000    0.000    0.000 
#    0.000    0.000    0.000    0.000    0.000    0.000 
#
# Total GULP energy -83613.033323 kJ/mol
# GULP energy per Si atom -5574.202222 kJ/mol
# Density = 2.825138 g / cm^3
# Si number density = 28.315829 Si / 1000 Ang^3
#
#
#
# Elastic Constant Matrix: (Units=GPa)
#
#
# Indices 1 2 3 4 5 6 
#
# 1 188.3289 49.5899 25.7301 10.3502 -21.5688 -8.5905
# 2 49.5899 105.7224 26.7474 -1.1484 -7.9695 -6.0504
# 3 25.7301 26.7474 135.1183 5.7976 -18.6555 -10.9102
# 4 10.3502 -1.1484 5.7976 51.0647 -23.5235 -3.2224
# 5 -21.5688 -7.9695 -18.6555 -23.5235 42.0051 4.0269
# 6 -8.5905 -6.0504 -10.9102 -3.2224 4.0269 61.0907
#
#
#
# Elastic Compliance Matrix: (Units=1/GPa)
#
#
# Indices 1 2 3 4 5 6 
#
# 1 0.006376 -0.002705 -0.000293 -0.000135 0.002516 0.000403
# 2 -0.002705 0.011236 -0.001628 0.001353 0.000732 0.000465
# 3 -0.000293 -0.001628 0.008327 0.000795 0.003580 0.001091
# 4 -0.000135 0.001353 0.000795 0.026700 0.015430 0.000648
# 5 0.002516 0.000732 0.003580 0.015430 0.035513 -0.000461
# 6 0.000403 0.000465 0.001091 0.000648 -0.000461 0.016731
#
#
# Mechanical properties :
#
#
# Convention : Reuss Voigt Hill
#
# Bulk Modulus (GPa) = 59.93000 70.36716 65.14858
# Shear Modulus (GPa) = 41.77142 52.63892 47.20517
#
# Velocity S-wave (km/s) = 3.84500 4.31628 4.08744
# Velocity P-wave (km/s) = 6.39709 7.05302 6.73305
#
# Compressibility (1/GPa) = 0.01668613
#
# Stress axis : x y z
#
# Youngs Moduli (GPa) = 156.83136 88.99778 120.08755
#
# Poissons Ratio (x) = 0.24078 0.03517
# Poissons Ratio (y) = 0.42430 0.19556
# Poissons Ratio (z) = 0.04593 0.14493
#
# Static dielectric constant tensor:
#      x y z
#    x 2.195660 -0.027230 0.032940 
#    y -0.027230 2.400950 -0.068080 
#    z 0.032940 -0.068080 2.211080 
# 
# From -- ./inp_files/459569.got.cif
#   From: 2010.05.17/outbox.cif.g08.bks.cpg/sg2_230_cif.got.tgz:459569.got - 2010.06.03 11:33:40.
