data_PCOD9050180
_publ_section_title
;
Structure prediction by ZEFSAII (Michael W. Deem and Ramdas Pophale) SiO2 
 PCOD9050180
Probable space group: P -1
;
_chemical_formula_sum "Si O2"
_cell_formula_units_Z 16
_cell_length_a 5.956019
_cell_length_b 14.981998
_cell_length_c 15.201484
_cell_angle_alpha 35.385721
_cell_angle_beta 60.611157
_cell_angle_gamma 66.797619
_cell_volume 684.367700
_symmetry_space_group_name_H-M "P -1"
_symmetry_group_IT_number 2
_symmetry_cell_setting 'triclinic'
loop_
_space_group_symop_operation_xyz
x,y,z
-x,-y,-z
loop_
_atom_site_type_symbol
_atom_site_label
_atom_site_fract_x
_atom_site_fract_y
_atom_site_fract_z
Si Si1 0.363606 0.701128 0.355331
Si Si2 0.254705 0.331831 0.163923
Si Si3 0.099230 0.102389 0.235878
Si Si4 0.471917 0.125452 0.647508
Si Si5 0.159622 0.627626 0.034947
Si Si6 0.911053 0.577121 0.311254
Si Si7 0.349276 0.134038 0.470423
Si Si8 0.053224 0.868282 0.164931
O O1 0.428654 0.747708 0.404864
O O2 0.609100 0.623094 0.325771
O O3 0.116375 0.587627 0.503130
O O4 0.305017 0.852328 0.188387
O O5 0.093733 0.202256 0.246686
O O6 0.114988 0.492201 0.080437
O O7 0.324820 0.271632 0.296329
O O8 0.529321 0.350621 0.045741
O O9 0.385143 0.034086 0.230386
O O10 0.926228 0.947846 0.395021
O O11 0.986717 0.218162 0.091773
O O12 0.490535 0.168449 0.507247
O O13 0.173585 0.111367 0.738303
O O14 0.052452 0.577468 0.190636
O O15 0.035766 0.708948 0.241890
O O16 0.500000 0.000000 0.500000
O O17 0.000000 0.000000 0.000000
#
# Coordination Sequence:
#
# PCOD9050180 Si02
#       8
#     2   2   2   2   2   2   2   2
#     4  10  24  49  68 104 135 180 234 272 347 413
#     4  11  26  46  65 103 138 184 233 281 341 405
#     4  12  24  43  70  96 140 179 230 280 340 407
#     4  11  26  41  72 101 134 180 227 281 341 410
#     4  11  26  44  67 100 141 182 229 281 345 402
#     4  10  25  45  72  98 139 184 226 283 336 409
#     4  12  24  44  70  99 137 178 232 284 337 401
#     4  11  26  43  73 104 138 171 224 289 345 409
#
# _framework density 23.379242000000001
#
# number of rings (size 3 to 8) (size 9 to 14) (size 15 to 20)
#    0.000    1.000    2.500    1.875   10.500    1.000 
#    4.500    0.000    0.000    0.000    0.000    0.000 
#    0.000    0.000    0.000    0.000    0.000    0.000 
#
# Total GULP energy -89464.616733 kJ/mol
# GULP energy per Si atom -5591.538546 kJ/mol
# Density = 2.332603 g / cm^3
# Si number density = 23.379242 Si / 1000 Ang^3
#
#
#
# Elastic Constant Matrix: (Units=GPa)
#
#
# Indices 1 2 3 4 5 6 
#
# 1 57.0434 28.7671 31.2560 11.7179 14.4029 4.1973
# 2 28.7671 119.3181 41.3492 17.4104 -2.7194 2.3684
# 3 31.2560 41.3492 112.1168 15.9858 16.2566 6.7463
# 4 11.7179 17.4104 15.9858 36.8504 3.6019 4.1234
# 5 14.4029 -2.7194 16.2566 3.6019 26.1933 -4.5241
# 6 4.1973 2.3684 6.7463 4.1234 -4.5241 43.2553
#
#
#
# Elastic Compliance Matrix: (Units=1/GPa)
#
#
# Indices 1 2 3 4 5 6 
#
# 1 0.025719 -0.005021 -0.002838 -0.002987 -0.012984 -0.002851
# 2 -0.005021 0.011348 -0.003401 -0.003102 0.006717 0.001395
# 3 -0.002838 -0.003401 0.012306 -0.001976 -0.006495 -0.001948
# 4 -0.002987 -0.003102 -0.001976 0.030884 -0.002114 -0.002397
# 5 -0.012984 0.006717 -0.006495 -0.002114 0.051633 0.007507
# 6 -0.002851 0.001395 -0.001948 -0.002397 0.007507 0.024636
#
#
# Mechanical properties :
#
#
# Convention : Reuss Voigt Hill
#
# Bulk Modulus (GPa) = 37.24026 54.58032 45.91029
# Shear Modulus (GPa) = 26.59610 33.73353 30.16482
#
# Velocity S-wave (km/s) = 3.37648 3.80265 3.59589
# Velocity P-wave (km/s) = 5.58249 6.53273 6.07621
#
# Compressibility (1/GPa) = 0.02685266
#
# Stress axis : x y z
#
# Youngs Moduli (GPa) = 38.88134 88.12012 81.26404
#
# Poissons Ratio (x) = 0.44242 0.23066
# Poissons Ratio (y) = 0.19521 0.27639
# Poissons Ratio (z) = 0.11036 0.29971
#
# Static dielectric constant tensor:
#      x y z
#    x 2.005710 -0.000940 -0.056730 
#    y -0.000940 1.871400 -0.023980 
#    z -0.056730 -0.023980 1.969290 
# 
# From -- ./inp_files/484204.got.cif
#   From: 2010.05.17/outbox.cif.g08.bks.cpg/sg2_243_cif.got.tgz:484204.got - 2010.06.03 11:33:40.
