data_PCOD9050463
_publ_section_title
;
Structure prediction by ZEFSAII (Michael W. Deem and Ramdas Pophale) SiO2 
 PCOD9050463
Probable space group: P -1
;
_chemical_formula_sum "Si O2"
_cell_formula_units_Z 16
_cell_length_a 7.775358
_cell_length_b 13.303625
_cell_length_c 15.359446
_cell_angle_alpha 151.598276
_cell_angle_beta 113.018775
_cell_angle_gamma 82.203567
_cell_volume 611.746460
_symmetry_space_group_name_H-M "P -1"
_symmetry_group_IT_number 2
_symmetry_cell_setting 'triclinic'
loop_
_space_group_symop_operation_xyz
x,y,z
-x,-y,-z
loop_
_atom_site_type_symbol
_atom_site_label
_atom_site_fract_x
_atom_site_fract_y
_atom_site_fract_z
Si Si1 0.100172 0.940361 0.059909
Si Si2 0.585208 0.316256 0.435463
Si Si3 0.794327 0.303158 0.723335
Si Si4 0.401537 0.713833 0.780968
Si Si5 0.965920 0.581774 0.401410
Si Si6 0.533447 0.176069 0.746433
Si Si7 0.745916 0.689055 0.912861
Si Si8 0.210651 0.358921 0.755214
O O1 0.346540 0.116890 0.255299
O O2 0.074435 0.675105 0.842432
O O3 0.953047 0.924254 0.100100
O O4 0.000000 0.000000 0.000000
O O5 0.578774 0.382369 0.383072
O O6 0.669490 0.509846 0.677152
O O7 0.781749 0.255204 0.420551
O O8 0.713837 0.231415 0.751306
O O9 0.802868 0.557168 0.898826
O O10 0.005975 0.296982 0.729223
O O11 0.598249 0.105092 0.476888
O O12 0.165261 0.520006 0.614265
O O13 0.538259 0.719489 0.897555
O O14 0.500000 0.000000 0.000000
O O15 0.870608 0.694894 0.400004
O O16 0.354263 0.238198 0.718671
O O17 0.639579 0.357027 0.983507
#
# Coordination Sequence:
#
# PCOD9050463 Si02
#       8
#     2   2   2   2   2   2   2   2
#     4  11  21  40  62  89 124 170 218 255 315 379
#     4  11  23  41  63  87 128 179 210 261 323 377
#     4  11  22  44  67  99 134 163 223 269 333 399
#     4  12  23  41  62  92 136 169 216 272 318 378
#     4  11  24  39  63  93 127 166 217 267 315 388
#     4  10  25  41  72  97 128 176 208 276 343 395
#     4  11  24  40  67  95 126 174 219 265 318 397
#     4  11  22  45  68  97 132 168 221 270 333 396
#
# _framework density 26.154627999999999
#
# number of rings (size 3 to 8) (size 9 to 14) (size 15 to 20)
#    0.000    1.000    5.000    2.250    3.500    0.000 
#    2.250    0.000    5.500    0.000    0.000    0.000 
#    0.000    0.000    0.000    0.000    0.000    0.000 
#
# Total GULP energy -89430.704437 kJ/mol
# GULP energy per Si atom -5589.419027 kJ/mol
# Density = 2.609510 g / cm^3
# Si number density = 26.154628 Si / 1000 Ang^3
#
#
#
# Elastic Constant Matrix: (Units=GPa)
#
#
# Indices 1 2 3 4 5 6 
#
# 1 99.2833 42.1047 28.7710 -10.3623 40.6239 2.1807
# 2 42.1047 88.7327 19.3616 -0.4389 19.7211 -9.0662
# 3 28.7710 19.3616 113.3801 -11.3046 36.9257 7.2153
# 4 -10.3623 -0.4389 -11.3046 23.4843 4.5983 0.9052
# 5 40.6239 19.7211 36.9257 4.5983 53.9155 4.0137
# 6 2.1807 -9.0662 7.2153 0.9052 4.0137 22.1464
#
#
#
# Elastic Compliance Matrix: (Units=1/GPa)
#
#
# Indices 1 2 3 4 5 6 
#
# 1 0.019827 -0.006915 0.002538 0.012908 -0.014994 -0.003420
# 2 -0.006915 0.015623 -0.002044 -0.004175 0.000672 0.007792
# 3 0.002538 -0.002044 0.013250 0.009719 -0.010782 -0.003847
# 4 0.012908 -0.004175 0.009719 0.056855 -0.019335 -0.004966
# 5 -0.014994 0.000672 -0.010782 -0.019335 0.038704 -0.000960
# 6 -0.003420 0.007792 -0.003847 -0.004966 -0.000960 0.050311
#
#
# Mechanical properties :
#
#
# Convention : Reuss Voigt Hill
#
# Bulk Modulus (GPa) = 27.88814 53.54119 40.71467
# Shear Modulus (GPa) = 22.79297 33.98647 28.38972
#
# Velocity S-wave (km/s) = 2.95527 3.60869 3.29820
# Velocity P-wave (km/s) = 4.72554 6.15459 5.48679
#
# Compressibility (1/GPa) = 0.03585754
#
# Stress axis : x y z
#
# Youngs Moduli (GPa) = 50.43667 64.00723 75.47014
#
# Poissons Ratio (x) = 0.44261 -0.19151
# Poissons Ratio (y) = 0.34877 0.15426
# Poissons Ratio (z) = -0.12799 0.13083
#
# Static dielectric constant tensor:
#      x y z
#    x 3.062130 0.047640 0.115930 
#    y 0.047640 2.111410 0.051020 
#    z 0.115930 0.051020 2.108600 
# 
# From -- ./inp_files/561437.got.cif
#   From: 2010.05.17/outbox.cif.g08.bks.cpg/sg2_281_cif.got.tgz:561437.got - 2010.06.03 11:33:40.
