data_PCOD9050213
_publ_section_title
;
Structure prediction by ZEFSAII (Michael W. Deem and Ramdas Pophale) SiO2 
 PCOD9050213
Probable space group: P -1
;
_chemical_formula_sum "Si O2"
_cell_formula_units_Z 15
_cell_length_a 6.182937
_cell_length_b 8.199478
_cell_length_c 14.462185
_cell_angle_alpha 106.881002
_cell_angle_beta 98.229865
_cell_angle_gamma 115.614855
_cell_volume 601.189193
_symmetry_space_group_name_H-M "P -1"
_symmetry_group_IT_number 2
_symmetry_cell_setting 'triclinic'
loop_
_space_group_symop_operation_xyz
x,y,z
-x,-y,-z
loop_
_atom_site_type_symbol
_atom_site_label
_atom_site_fract_x
_atom_site_fract_y
_atom_site_fract_z
Si Si1 0.993156 0.167636 0.228926
Si Si2 0.000000 0.500000 0.500000
Si Si3 0.600705 0.221692 0.572962
Si Si4 0.564066 0.486371 0.359785
Si Si5 0.489045 0.139615 0.763699
Si Si6 0.711728 0.224105 0.064598
Si Si7 0.082336 0.845698 0.108507
Si Si8 0.641126 0.552487 0.158864
O O1 0.862556 0.263402 0.176391
O O2 0.265402 0.323562 0.309819
O O3 0.804424 0.031033 0.276137
O O4 0.013755 0.017405 0.133600
O O5 0.139910 0.638810 0.440285
O O6 0.276608 0.581081 0.580920
O O7 0.421676 0.317847 0.563553
O O8 0.605974 0.207597 0.681898
O O9 0.500000 0.000000 0.500000
O O10 0.649539 0.533986 0.266445
O O11 0.637958 0.058303 0.816856
O O12 0.512030 0.332799 0.846166
O O13 0.562032 0.343742 0.075522
O O14 0.910828 0.259834 0.001717
O O15 0.500000 0.000000 0.000000
O O16 0.905549 0.689827 0.147964
#
# Coordination Sequence:
#
# PCOD9050213 Si02
#       8
#     2   1   2   2   2   2   2   2
#     4  11  26  45  76 104 151 193 243 301 362 436
#     4  12  28  52  78 108 146 184 250 302 374 442
#     4  11  28  49  79 112 147 186 248 308 372 448
#     4  11  27  51  75 109 145 197 241 300 377 436
#     4  10  24  49  72 105 149 193 241 297 374 432
#     4  12  24  44  71 109 145 192 247 299 356 424
#     4  11  23  45  70 107 145 198 245 298 355 430
#     4  10  25  44  70 103 151 191 242 300 362 436
#
# _framework density 24.950548999999999
#
# number of rings (size 3 to 8) (size 9 to 14) (size 15 to 20)
#    0.000    1.067    1.333    2.800    9.333    1.067 
#    0.000    0.000    0.000    0.000    0.000    0.000 
#    0.000    0.000    0.000    0.000    0.000    0.000 
#
# Total GULP energy -83712.778776 kJ/mol
# GULP energy per Si atom -5580.851918 kJ/mol
# Density = 2.489376 g / cm^3
# Si number density = 24.950549 Si / 1000 Ang^3
#
#
#
# Elastic Constant Matrix: (Units=GPa)
#
#
# Indices 1 2 3 4 5 6 
#
# 1 70.6586 49.8363 40.1946 7.0352 -11.6043 13.8542
# 2 49.8363 113.6914 52.1949 -6.8688 -22.4687 32.9312
# 3 40.1946 52.1949 88.1781 -8.3768 -14.6133 12.3708
# 4 7.0352 -6.8688 -8.3768 49.8778 -3.4156 -17.8579
# 5 -11.6043 -22.4687 -14.6133 -3.4156 60.7156 3.6122
# 6 13.8542 32.9312 12.3708 -17.8579 3.6122 45.8001
#
#
#
# Elastic Compliance Matrix: (Units=1/GPa)
#
#
# Indices 1 2 3 4 5 6 
#
# 1 0.024410 -0.006823 -0.007249 -0.006715 0.000205 -0.003154
# 2 -0.006823 0.018120 -0.005497 -0.000782 0.004638 -0.010151
# 3 -0.007249 -0.005497 0.018077 0.004410 0.001007 0.002902
# 4 -0.006715 -0.000782 0.004410 0.025734 0.000257 0.011416
# 5 0.000205 0.004638 0.001007 0.000257 0.018783 -0.005050
# 6 -0.003154 -0.010151 0.002902 0.011416 -0.005050 0.034152
#
#
# Mechanical properties :
#
#
# Convention : Reuss Voigt Hill
#
# Bulk Modulus (GPa) = 46.58091 61.88664 54.23377
# Shear Modulus (GPa) = 26.94376 39.96551 33.45463
#
# Velocity S-wave (km/s) = 3.28973 4.00658 3.66572
# Velocity P-wave (km/s) = 5.75670 6.80155 6.30082
#
# Compressibility (1/GPa) = 0.02146802
#
# Stress axis : x y z
#
# Youngs Moduli (GPa) = 40.96720 55.18798 55.31753
#
# Poissons Ratio (x) = 0.37657 0.40101
# Poissons Ratio (y) = 0.27953 0.30407
# Poissons Ratio (z) = 0.29698 0.30336
#
# Static dielectric constant tensor:
#      x y z
#    x 1.978950 -0.009720 -0.065340 
#    y -0.009720 1.956050 0.028130 
#    z -0.065340 0.028130 1.982560 
# 
# From -- ./inp_files/480763.got.cif
#   From: 2010.05.17/outbox.cif.g08.bks.cpg/sg2_241_cif.got.tgz:480763.got - 2010.06.03 11:33:40.
