data_PCOD9050760
_publ_section_title
;
Structure prediction by ZEFSAII (Michael W. Deem and Ramdas Pophale) SiO2 
 PCOD9050760
Probable space group: P -1
;
_chemical_formula_sum "Si O2"
_cell_formula_units_Z 12
_cell_length_a 24.503366
_cell_length_b 30.888699
_cell_length_c 4.907354
_cell_angle_alpha 123.030118
_cell_angle_beta 124.512070
_cell_angle_gamma 9.418487
_cell_volume 498.192676
_symmetry_space_group_name_H-M "P -1"
_symmetry_group_IT_number 2
_symmetry_cell_setting 'triclinic'
loop_
_space_group_symop_operation_xyz
x,y,z
-x,-y,-z
loop_
_atom_site_type_symbol
_atom_site_label
_atom_site_fract_x
_atom_site_fract_y
_atom_site_fract_z
Si Si1 0.728314 0.950227 0.023859
Si Si2 0.709609 0.689773 0.478964
Si Si3 0.185689 0.509176 0.880492
Si Si4 0.705933 0.424683 0.309539
Si Si5 0.473475 0.706097 0.384939
Si Si6 0.811038 0.242765 0.681778
O O1 0.037428 0.746313 0.332759
O O2 0.424362 0.184949 0.187692
O O3 0.860625 0.790508 0.828245
O O4 0.604054 0.068356 0.793269
O O5 0.829476 0.540024 0.358338
O O6 0.000000 0.500000 0.500000
O O7 0.486357 0.302909 0.834408
O O8 0.267463 0.460704 0.257545
O O9 0.593216 0.555427 0.229666
O O10 0.356428 0.672283 0.308650
O O11 0.887658 0.235723 0.047643
O O12 0.109548 0.994085 0.480929
O O13 0.500000 0.500000 0.500000
#
# Coordination Sequence:
#
# PCOD9050760 Si02
#       6
#     2   2   2   2   2   2
#     4  11  25  47  73 100 142 181 231 282 343 419
#     4  12  27  46  76 107 138 176 224 289 353 419
#     4  11  26  44  72 103 135 187 227 279 346 408
#     4  10  25  44  65  98 136 189 231 281 342 393
#     4  11  25  44  67  97 140 182 233 279 331 405
#     4  11  26  39  66 100 139 183 234 286 334 392
#
# _framework density 24.087064000000002
#
# number of rings (size 3 to 8) (size 9 to 14) (size 15 to 20)
#    0.000    1.000    0.000    5.000   16.333    2.000 
#    0.000    0.000    0.000    0.000    0.000    0.000 
#    0.000    0.000    0.000    0.000    0.000    0.000 
#
# Total GULP energy -67305.630488 kJ/mol
# GULP energy per Si atom -5608.802541 kJ/mol
# Density = 2.403224 g / cm^3
# Si number density = 24.087064 Si / 1000 Ang^3
#
#
#
# Elastic Constant Matrix: (Units=GPa)
#
#
# Indices 1 2 3 4 5 6 
#
# 1 136.7474 53.6009 41.0609 17.2562 21.3862 10.7796
# 2 53.6009 73.7775 66.6388 36.7677 31.8810 -8.5528
# 3 41.0609 66.6388 41.0447 15.5302 -13.1721 20.4320
# 4 17.2562 36.7677 15.5302 36.9670 1.5311 -3.3378
# 5 21.3862 31.8810 -13.1721 1.5311 41.7296 7.7989
# 6 10.7796 -8.5528 20.4320 -3.3378 7.7989 35.5638
#
#
#
# Elastic Compliance Matrix: (Units=1/GPa)
#
#
# Indices 1 2 3 4 5 6 
#
# 1 0.010415 -0.004699 -0.002848 0.000917 -0.002295 -0.002062
# 2 -0.004699 -0.000502 0.016162 -0.005482 0.010096 -0.010710
# 3 -0.002848 0.016162 -0.001691 -0.012875 -0.012297 0.007210
# 4 0.000917 -0.005482 -0.012875 0.038560 -0.003671 0.010224
# 5 -0.002295 0.010096 -0.012297 -0.003671 0.012346 0.007136
# 6 -0.002062 -0.010710 0.007210 0.010224 0.007136 0.021420
#
#
# Mechanical properties :
#
#
# Convention : Reuss Voigt Hill
#
# Bulk Modulus (GPa) = 39.28864 63.79676 51.54270
# Shear Modulus (GPa) = 69.63452 28.87001 49.25226
#
# Velocity S-wave (km/s) = 5.38259 3.46579 4.52681
# Velocity P-wave (km/s) = 7.41459 6.52373 6.98338
#
# Compressibility (1/GPa) = 0.02545265
#
# Stress axis : x y z
#
# Youngs Moduli (GPa) = 96.01122 -1991.95009 -591.48263
#
# Poissons Ratio (x) = -9.36008 -1.68444
# Poissons Ratio (y) = 0.45115 9.55937
# Poissons Ratio (z) = 0.27342 32.19333
#
# Static dielectric constant tensor:
#      x y z
#    x 1.896350 -0.012660 -0.012250 
#    y -0.012660 1.960520 -0.045170 
#    z -0.012250 -0.045170 1.932280 
# 
# From -- ./inp_files/32680.got.cif
#   From: 2010.05.17/outbox.cif.g08.bks.cpg/sg2_17_cif.got.tgz:32680.got - 2010.06.03 11:33:40.
