data_PCOD9050960
_publ_section_title
;
Structure prediction by ZEFSAII (Michael W. Deem and Ramdas Pophale) SiO2 
 PCOD9050960
Probable space group: P -1
;
_chemical_formula_sum "Si O2"
_cell_formula_units_Z 14
_cell_length_a 28.761505
_cell_length_b 5.326502
_cell_length_c 9.334360
_cell_angle_alpha 55.689397
_cell_angle_beta 28.199295
_cell_angle_gamma 61.308180
_cell_volume 557.643762
_symmetry_space_group_name_H-M "P -1"
_symmetry_group_IT_number 2
_symmetry_cell_setting 'triclinic'
loop_
_space_group_symop_operation_xyz
x,y,z
-x,-y,-z
loop_
_atom_site_type_symbol
_atom_site_label
_atom_site_fract_x
_atom_site_fract_y
_atom_site_fract_z
Si Si1 0.095452 0.032481 0.630589
Si Si2 0.401192 0.790509 0.052873
Si Si3 0.191824 0.482517 0.656606
Si Si4 0.721822 0.691484 0.779746
Si Si5 0.419441 0.545001 0.389370
Si Si6 0.307281 0.915416 0.811797
Si Si7 0.903402 0.861532 0.732514
O O1 0.130804 0.686725 0.648490
O O2 0.189832 0.220109 0.379479
O O3 0.076687 0.163414 0.482327
O O4 0.000000 0.000000 0.000000
O O5 0.292714 0.638081 0.386752
O O6 0.435262 0.745703 0.138165
O O7 0.377090 0.135307 0.973606
O O8 0.477940 0.612724 0.807093
O O9 0.231955 0.219495 0.529833
O O10 0.127385 0.418876 0.991779
O O11 0.695889 0.332812 0.973684
O O12 0.373528 0.759681 0.562644
O O13 0.347555 0.249130 0.642771
O O14 0.195458 0.946356 0.052347
O O15 0.000000 0.000000 0.500000
#
# Coordination Sequence:
#
# PCOD9050960 Si02
#       7
#     2   2   2   2   2   2   2
#     4  11  26  47  71 108 150 200 258 317 385 460
#     4  10  25  44  74 107 150 203 254 316 386 446
#     4  11  24  47  72 106 149 199 258 310 386 461
#     4  11  25  45  73 102 160 194 256 324 378 457
#     4  11  26  47  76 111 153 203 259 321 376 470
#     4  12  26  48  74 110 155 198 260 313 385 455
#     4  12  26  47  77 108 150 202 254 318 390 459
#
# _framework density 25.105633000000001
#
# number of rings (size 3 to 8) (size 9 to 14) (size 15 to 20)
#    0.000    0.857    2.857    2.571    6.000    5.143 
#    0.000    0.000    0.000    0.000    0.000    0.000 
#    0.000    0.000    0.000    0.000    0.000    0.000 
#
# Total GULP energy -78322.322406 kJ/mol
# GULP energy per Si atom -5594.451600 kJ/mol
# Density = 2.504849 g / cm^3
# Si number density = 25.105633 Si / 1000 Ang^3
#
#
#
# Elastic Constant Matrix: (Units=GPa)
#
#
# Indices 1 2 3 4 5 6 
#
# 1 97.8125 19.2847 29.6269 -4.8004 13.0669 -1.0527
# 2 19.2847 60.7716 22.1546 -2.1701 -8.0805 11.8091
# 3 29.6269 22.1546 124.2404 17.3321 6.0933 9.4378
# 4 -4.8004 -2.1701 17.3321 40.3912 -0.9258 11.5831
# 5 13.0669 -8.0805 6.0933 -0.9258 56.5604 9.4837
# 6 -1.0527 11.8091 9.4378 11.5831 9.4837 21.1465
#
#
#
# Elastic Compliance Matrix: (Units=1/GPa)
#
#
# Indices 1 2 3 4 5 6 
#
# 1 0.012596 -0.004870 -0.002448 0.000416 -0.004370 0.006171
# 2 -0.004870 0.024738 -0.003244 0.008392 0.008684 -0.021101
# 3 -0.002448 -0.003244 0.009912 -0.004869 -0.001118 0.000434
# 4 0.000416 0.008392 -0.004869 0.034413 0.006238 -0.024141
# 5 -0.004370 0.008684 -0.001118 0.006238 0.023239 -0.018407
# 6 0.006171 -0.021101 0.000434 -0.024141 -0.018407 0.080665
#
#
# Mechanical properties :
#
#
# Convention : Reuss Voigt Hill
#
# Bulk Modulus (GPa) = 38.28095 47.21743 42.74919
# Shear Modulus (GPa) = 23.21334 37.73684 30.47509
#
# Velocity S-wave (km/s) = 3.04407 3.88122 3.48785
# Velocity P-wave (km/s) = 5.25701 6.23967 5.76930
#
# Compressibility (1/GPa) = 0.02612265
#
# Stress axis : x y z
#
# Youngs Moduli (GPa) = 79.39125 40.42418 100.88713
#
# Poissons Ratio (x) = 0.19687 0.24694
# Poissons Ratio (y) = 0.38665 0.32724
# Poissons Ratio (z) = 0.19432 0.13112
#
# Static dielectric constant tensor:
#      x y z
#    x 2.008300 0.044040 0.069730 
#    y 0.044040 2.120370 0.017630 
#    z 0.069730 0.017630 2.029930 
# 
# From -- ./inp_files/56432.got.cif
#   From: 2010.05.17/outbox.cif.g08.bks.cpg/sg2_29_cif.got.tgz:56432.got - 2010.06.03 11:33:40.
