data_PCOD9050230
_publ_section_title
;
Structure prediction by ZEFSAII (Michael W. Deem and Ramdas Pophale) SiO2 
 PCOD9050230
Probable space group: P -1
;
_chemical_formula_sum "Si O2"
_cell_formula_units_Z 14
_cell_length_a 11.827167
_cell_length_b 10.941235
_cell_length_c 11.812713
_cell_angle_alpha 108.160213
_cell_angle_beta 36.266861
_cell_angle_gamma 80.569142
_cell_volume 579.228869
_symmetry_space_group_name_H-M "P -1"
_symmetry_group_IT_number 2
_symmetry_cell_setting 'triclinic'
loop_
_space_group_symop_operation_xyz
x,y,z
-x,-y,-z
loop_
_atom_site_type_symbol
_atom_site_label
_atom_site_fract_x
_atom_site_fract_y
_atom_site_fract_z
Si Si1 0.322448 0.527999 0.906229
Si Si2 0.761366 0.287375 0.774240
Si Si3 0.371491 0.087371 0.251099
Si Si4 0.776678 0.361962 0.315688
Si Si5 0.388361 0.839841 0.316710
Si Si6 0.230800 0.344140 0.627453
Si Si7 0.689037 0.032965 0.338672
O O1 0.625143 0.394847 0.562950
O O2 0.370910 0.381389 0.907055
O O3 0.282123 0.685373 0.047083
O O4 0.024554 0.627612 0.120371
O O5 0.782994 0.151418 0.639807
O O6 0.045031 0.227122 0.524207
O O7 0.500000 0.500000 0.000000
O O8 0.374936 0.214146 0.360121
O O9 0.479242 0.924823 0.205152
O O10 0.500000 0.000000 0.000000
O O11 0.500000 0.500000 0.500000
O O12 0.878663 0.458972 0.254871
O O13 0.027021 0.145616 0.009080
O O14 0.247855 0.944957 0.580529
O O15 0.473675 0.226869 0.494124
O O16 0.500000 0.000000 0.500000
#
# Coordination Sequence:
#
# PCOD9050230 Si02
#       7
#     2   2   2   2   2   2   2
#     4  10  24  49  74 108 147 192 245 300 374 430
#     4   9  22  45  69  99 138 188 236 300 362 422
#     4  11  25  44  73 108 140 191 245 299 371 430
#     4  12  28  44  73 111 144 198 247 292 360 446
#     4  11  23  45  74 102 148 192 238 304 364 429
#     4  11  26  50  74 107 154 193 239 311 363 432
#     4  12  25  47  72 109 152 194 242 295 369 433
#
# _framework density 24.170067
#
# number of rings (size 3 to 8) (size 9 to 14) (size 15 to 20)
#    0.000    1.143    1.429    3.000    4.000    7.429 
#    0.000    2.143    0.000    0.000    0.000    0.000 
#    0.000    0.000    0.000    0.000    0.000    0.000 
#
# Total GULP energy -78129.434681 kJ/mol
# GULP energy per Si atom -5580.673906 kJ/mol
# Density = 2.411505 g / cm^3
# Si number density = 24.170067 Si / 1000 Ang^3
#
#
#
# Elastic Constant Matrix: (Units=GPa)
#
#
# Indices 1 2 3 4 5 6 
#
# 1 131.6148 37.3390 50.0896 4.3848 29.6959 13.1838
# 2 37.3390 98.4072 28.0410 14.9165 16.5888 -0.6697
# 3 50.0896 28.0410 160.4720 -2.5182 39.4539 -6.6122
# 4 4.3848 14.9165 -2.5182 33.5036 -2.7831 -0.9369
# 5 29.6959 16.5888 39.4539 -2.7831 53.4595 11.1276
# 6 13.1838 -0.6697 -6.6122 -0.9369 11.1276 35.3234
#
#
#
# Elastic Compliance Matrix: (Units=1/GPa)
#
#
# Indices 1 2 3 4 5 6 
#
# 1 0.010148 -0.002737 -0.002246 -0.000578 -0.002430 -0.003510
# 2 -0.002737 0.012687 -0.000759 -0.005506 -0.002510 0.001765
# 3 -0.002246 -0.000759 0.008673 0.000925 -0.005762 0.004287
# 4 -0.000578 -0.005506 0.000925 0.032700 0.003007 0.000205
# 5 -0.002430 -0.002510 -0.005762 0.003007 0.027046 -0.008660
# 6 -0.003510 0.001765 0.004287 0.000205 -0.008660 0.033189
#
#
# Mechanical properties :
#
#
# Convention : Reuss Voigt Hill
#
# Bulk Modulus (GPa) = 49.94002 69.04812 59.49407
# Shear Modulus (GPa) = 35.06285 42.79226 38.92756
#
# Velocity S-wave (km/s) = 3.81290 4.21225 4.01754
# Velocity P-wave (km/s) = 6.33175 7.23098 6.79625
#
# Compressibility (1/GPa) = 0.02002402
#
# Stress axis : x y z
#
# Youngs Moduli (GPa) = 98.53939 78.82372 115.30030
#
# Poissons Ratio (x) = 0.21576 0.25891
# Poissons Ratio (y) = 0.26973 0.08751
# Poissons Ratio (z) = 0.22128 0.05983
#
# Static dielectric constant tensor:
#      x y z
#    x 2.085980 -0.002850 0.157970 
#    y -0.002850 1.954250 -0.004060 
#    z 0.157970 -0.004060 2.161290 
# 
# From -- ./inp_files/426280.got.cif
#   From: 2010.05.17/outbox.cif.g08.bks.cpg/sg2_214_cif.got.tgz:426280.got - 2010.06.03 11:33:40.
