data_PCOD9050645
_publ_section_title
;
Structure prediction by ZEFSAII (Michael W. Deem and Ramdas Pophale) SiO2 
 PCOD9050645
Probable space group: P -1
;
_chemical_formula_sum "Si O2"
_cell_formula_units_Z 14
_cell_length_a 4.889362
_cell_length_b 15.174623
_cell_length_c 9.142961
_cell_angle_alpha 124.971983
_cell_angle_beta 84.910354
_cell_angle_gamma 80.935224
_cell_volume 535.322328
_symmetry_space_group_name_H-M "P -1"
_symmetry_group_IT_number 2
_symmetry_cell_setting 'triclinic'
loop_
_space_group_symop_operation_xyz
x,y,z
-x,-y,-z
loop_
_atom_site_type_symbol
_atom_site_label
_atom_site_fract_x
_atom_site_fract_y
_atom_site_fract_z
Si Si1 0.748593 0.083637 0.974734
Si Si2 0.089053 0.698703 0.196818
Si Si3 0.157039 0.059326 0.666073
Si Si4 0.503772 0.892016 0.694867
Si Si5 0.504286 0.682571 0.889085
Si Si6 0.125684 0.553055 0.680392
Si Si7 0.613536 0.655733 0.340843
O O1 0.741494 0.103883 0.167666
O O2 0.510885 0.189491 0.023727
O O3 0.003523 0.086651 0.857466
O O4 0.684005 0.965858 0.835190
O O5 0.881238 0.819283 0.283736
O O6 0.302508 0.690712 0.316716
O O7 0.864848 0.630261 0.184551
O O8 0.312216 0.671359 0.027458
O O9 0.000000 0.000000 0.500000
O O10 0.421803 0.960941 0.612915
O O11 0.643412 0.764178 0.532384
O O12 0.330086 0.635686 0.725893
O O13 0.830247 0.618831 0.831637
O O14 0.322838 0.452994 0.667555
O O15 0.000000 0.500000 0.500000
#
# Coordination Sequence:
#
# PCOD9050645 Si02
#       7
#     2   2   2   2   2   2   2
#     4  10  25  43  69 104 141 188 237 291 356 420
#     4  11  26  43  72 107 140 186 231 295 360 416
#     4  11  22  41  67 101 145 187 232 288 355 425
#     4  11  24  43  69 103 143 188 234 294 352 425
#     4  11  26  48  74 103 143 185 237 295 351 421
#     4  12  27  49  75 102 139 190 237 293 352 421
#     4  12  26  46  71 106 142 183 240 290 352 425
#
# _framework density 26.152463999999998
#
# number of rings (size 3 to 8) (size 9 to 14) (size 15 to 20)
#    0.000    0.857    1.429    4.286    8.000    5.714 
#    0.000    0.000    0.000    0.000    0.000    0.000 
#    0.000    0.000    0.000    0.000    0.000    0.000 
#
# Total GULP energy -78303.492367 kJ/mol
# GULP energy per Si atom -5593.106598 kJ/mol
# Density = 2.609294 g / cm^3
# Si number density = 26.152464 Si / 1000 Ang^3
#
#
#
# Elastic Constant Matrix: (Units=GPa)
#
#
# Indices 1 2 3 4 5 6 
#
# 1 128.2926 28.7431 31.8718 4.2972 -10.1841 -13.4516
# 2 28.7431 114.9509 38.4640 17.1150 -4.7222 -22.7136
# 3 31.8718 38.4640 95.0968 12.7154 -8.5298 -16.7882
# 4 4.2972 17.1150 12.7154 44.5503 0.5717 -2.6633
# 5 -10.1841 -4.7222 -8.5298 0.5717 31.1573 7.7138
# 6 -13.4516 -22.7136 -16.7882 -2.6633 7.7138 31.8739
#
#
#
# Elastic Compliance Matrix: (Units=1/GPa)
#
#
# Indices 1 2 3 4 5 6 
#
# 1 0.008867 -0.001207 -0.002120 0.000271 0.001795 0.001354
# 2 -0.001207 0.011618 -0.002856 -0.003148 -0.000898 0.006219
# 3 -0.002120 -0.002856 0.013479 -0.002355 0.001727 0.003555
# 4 0.000271 -0.003148 -0.002355 0.024255 -0.001219 -0.001048
# 5 0.001795 -0.000898 0.001727 -0.001219 0.034903 -0.007521
# 6 0.001354 0.006219 0.003555 -0.001048 -0.007521 0.039982
#
#
# Mechanical properties :
#
#
# Convention : Reuss Voigt Hill
#
# Bulk Modulus (GPa) = 46.30210 59.61089 52.95649
# Shear Modulus (GPa) = 32.75073 37.46706 35.10890
#
# Velocity S-wave (km/s) = 3.54262 3.78913 3.66795
# Velocity P-wave (km/s) = 5.87169 6.47969 6.18317
#
# Compressibility (1/GPa) = 0.02159729
#
# Stress axis : x y z
#
# Youngs Moduli (GPa) = 112.77659 86.07617 74.19144
#
# Poissons Ratio (x) = 0.10390 0.15728
# Poissons Ratio (y) = 0.13612 0.21190
# Poissons Ratio (z) = 0.23908 0.24584
#
# Static dielectric constant tensor:
#      x y z
#    x 2.089460 -0.019470 -0.048260 
#    y -0.019470 2.074370 -0.039210 
#    z -0.048260 -0.039210 2.160410 
# 
# From -- ./inp_files/85073.got.cif
#   From: 2010.05.17/outbox.cif.g08.bks.cpg/sg2_43_cif.got.tgz:85073.got - 2010.06.03 11:33:40.
