data_PCOD9050224
_publ_section_title
;
Structure prediction by ZEFSAII (Michael W. Deem and Ramdas Pophale) SiO2 
 PCOD9050224
Probable space group: P -1
;
_chemical_formula_sum "Si O2"
_cell_formula_units_Z 14
_cell_length_a 18.122314
_cell_length_b 12.055593
_cell_length_c 12.048607
_cell_angle_alpha 25.928893
_cell_angle_beta 140.749962
_cell_angle_gamma 150.251142
_cell_volume 570.873705
_symmetry_space_group_name_H-M "P -1"
_symmetry_group_IT_number 2
_symmetry_cell_setting 'triclinic'
loop_
_space_group_symop_operation_xyz
x,y,z
-x,-y,-z
loop_
_atom_site_type_symbol
_atom_site_label
_atom_site_fract_x
_atom_site_fract_y
_atom_site_fract_z
Si Si1 0.740430 0.789671 0.060511
Si Si2 0.445445 0.259541 0.754723
Si Si3 0.982358 0.687123 0.214250
Si Si4 0.085831 0.349890 0.228758
Si Si5 0.259423 0.598975 0.993118
Si Si6 0.477475 0.831840 0.743144
Si Si7 0.322121 0.530557 0.502731
O O1 0.676211 0.525009 0.124908
O O2 0.760967 0.634281 0.329880
O O3 0.606421 0.795532 0.933179
O O4 0.878718 0.136916 0.867663
O O5 0.500000 0.500000 0.500000
O O6 0.598091 0.384593 0.881485
O O7 0.346762 0.295833 0.686178
O O8 0.343326 0.918792 0.879659
O O9 0.000000 0.500000 0.500000
O O10 0.833739 0.451590 0.178519
O O11 0.000000 0.000000 0.000000
O O12 0.138439 0.337842 0.177658
O O13 0.228616 0.573586 0.272347
O O14 0.000000 0.000000 0.500000
O O15 0.000000 0.500000 0.000000
O O16 0.500000 0.000000 0.500000
O O17 0.519041 0.115852 0.617216
#
# Coordination Sequence:
#
# PCOD9050224 Si02
#       7
#     2   2   2   2   2   2   2
#     4  10  24  49  73 110 153 196 261 317 383 460
#     4  11  25  49  77 115 158 202 257 326 395 467
#     4  12  32  52  79 111 155 215 262 322 397 465
#     4  12  27  45  77 114 153 202 251 318 392 466
#     4  11  28  51  75 112 161 202 265 320 394 473
#     4   9  22  42  72 110 148 194 258 320 377 450
#     4  11  24  43  79 115 149 202 255 320 397 459
#
# _framework density 24.523814000000002
#
# number of rings (size 3 to 8) (size 9 to 14) (size 15 to 20)
#    0.000    1.143    1.429    1.714   12.000    4.571 
#    0.000    0.000    0.000    0.000    0.000    0.000 
#    0.000    0.000    0.000    0.000    0.000    0.000 
#
# Total GULP energy -78301.462837 kJ/mol
# GULP energy per Si atom -5592.961631 kJ/mol
# Density = 2.446800 g / cm^3
# Si number density = 24.523814 Si / 1000 Ang^3
#
#
#
# Elastic Constant Matrix: (Units=GPa)
#
#
# Indices 1 2 3 4 5 6 
#
# 1 76.5807 31.6493 33.3328 13.0938 -3.0914 4.6639
# 2 31.6493 162.2382 61.2394 29.0844 -4.3190 1.4151
# 3 33.3328 61.2394 149.9128 21.8490 -15.6570 2.3478
# 4 13.0938 29.0844 21.8490 54.7223 -1.5145 -6.6093
# 5 -3.0914 -4.3190 -15.6570 -1.5145 48.2906 -2.8581
# 6 4.6639 1.4151 2.3478 -6.6093 -2.8581 30.7048
#
#
#
# Elastic Compliance Matrix: (Units=1/GPa)
#
#
# Indices 1 2 3 4 5 6 
#
# 1 0.015303 -0.001688 -0.002380 -0.002125 -0.000160 -0.002537
# 2 -0.001688 0.007944 -0.002470 -0.002910 -0.000324 -0.000577
# 3 -0.002380 -0.002470 0.008689 -0.001558 0.002377 -0.000303
# 4 -0.002125 -0.002910 -0.001558 0.021585 0.000085 0.005230
# 5 -0.000160 -0.000324 0.002377 0.000085 0.021553 0.001882
# 6 -0.002537 -0.000577 -0.000303 0.005230 0.001882 0.034304
#
#
# Mechanical properties :
#
#
# Convention : Reuss Voigt Hill
#
# Bulk Modulus (GPa) = 53.02635 71.24162 62.13398
# Shear Modulus (GPa) = 38.83721 44.24424 41.54072
#
# Velocity S-wave (km/s) = 3.98383 4.25212 4.12016
# Velocity P-wave (km/s) = 6.54450 7.29523 6.93004
#
# Compressibility (1/GPa) = 0.01885855
#
# Stress axis : x y z
#
# Youngs Moduli (GPa) = 65.34587 125.88604 115.08906
#
# Poissons Ratio (x) = 0.21250 0.27395
# Poissons Ratio (y) = 0.11031 0.28430
# Poissons Ratio (z) = 0.15554 0.31097
#
# Static dielectric constant tensor:
#      x y z
#    x 1.975220 -0.040410 0.006190 
#    y -0.040410 2.236410 -0.052340 
#    z 0.006190 -0.052340 1.986170 
# 
# From -- ./inp_files/465000.got.cif
#   From: 2010.05.17/outbox.cif.g08.bks.cpg/sg2_233_cif.got.tgz:465000.got - 2010.06.03 11:33:40.
