data_PCOD9050955
_publ_section_title
;
Structure prediction by ZEFSAII (Michael W. Deem and Ramdas Pophale) SiO2 
 PCOD9050955
Probable space group: P -1
;
_chemical_formula_sum "Si O2"
_cell_formula_units_Z 14
_cell_length_a 12.556526
_cell_length_b 9.590558
_cell_length_c 9.005931
_cell_angle_alpha 82.614869
_cell_angle_beta 47.059857
_cell_angle_gamma 61.118742
_cell_volume 660.318073
_symmetry_space_group_name_H-M "P -1"
_symmetry_group_IT_number 2
_symmetry_cell_setting 'triclinic'
loop_
_space_group_symop_operation_xyz
x,y,z
-x,-y,-z
loop_
_atom_site_type_symbol
_atom_site_label
_atom_site_fract_x
_atom_site_fract_y
_atom_site_fract_z
Si Si1 0.833266 0.381119 0.297463
Si Si2 0.167323 0.839656 0.429532
Si Si3 0.027162 0.709656 0.377295
Si Si4 0.134408 0.351290 0.199261
Si Si5 0.113191 0.823788 0.000693
Si Si6 0.504948 0.381382 0.228698
Si Si7 0.470730 0.306141 0.940143
O O1 0.849250 0.222156 0.387796
O O2 0.652550 0.540685 0.511263
O O3 0.001774 0.377632 0.192881
O O4 0.845892 0.332775 0.121355
O O5 0.334808 0.844928 0.256221
O O6 0.185748 0.695194 0.321256
O O7 0.000000 0.000000 0.500000
O O8 0.889738 0.748970 0.631398
O O9 0.073498 0.534463 0.292754
O O10 0.004404 0.825468 0.245619
O O11 0.335100 0.275520 0.994097
O O12 0.306014 0.772572 0.875064
O O13 0.000000 0.000000 0.000000
O O14 0.535849 0.531543 0.142812
O O15 0.452360 0.329406 0.133245
#
# Coordination Sequence:
#
# PCOD9050955 Si02
#       7
#     2   2   2   2   2   2   2
#     4  10  23  35  59  90 122 153 199 248 296 353
#     4  10  19  35  59  89 118 153 204 245 289 346
#     4  10  19  36  59  84 114 155 199 239 293 340
#     4  10  19  37  62  89 114 153 201 252 291 338
#     4  12  23  38  61  88 125 160 194 243 305 359
#     4  10  19  37  60  92 111 153 212 246 283 341
#     4  10  17  34  66  88 113 149 206 255 282 338
#
# _framework density 21.201905
#
# number of rings (size 3 to 8) (size 9 to 14) (size 15 to 20)
#    0.000    1.714    2.857    4.714    0.000    0.571 
#    0.000    2.857    3.143    3.429    0.000    0.000 
#    0.000    0.000    0.000    0.000    0.000    0.000 
#
# Total GULP energy -78061.949165 kJ/mol
# GULP energy per Si atom -5575.853512 kJ/mol
# Density = 2.115365 g / cm^3
# Si number density = 21.201905 Si / 1000 Ang^3
#
#
#
# Elastic Constant Matrix: (Units=GPa)
#
#
# Indices 1 2 3 4 5 6 
#
# 1 112.3127 0.4286 37.6932 1.5570 -17.9296 -5.9048
# 2 0.4286 81.4503 5.9613 4.4017 -13.1549 -17.8957
# 3 37.6932 5.9613 50.5001 0.8157 -25.0559 -6.4954
# 4 1.5570 4.4017 0.8157 31.3513 -10.5611 -4.1340
# 5 -17.9296 -13.1549 -25.0559 -10.5611 46.1689 3.0589
# 6 -5.9048 -17.8957 -6.4954 -4.1340 3.0589 24.4025
#
#
#
# Elastic Compliance Matrix: (Units=1/GPa)
#
#
# Indices 1 2 3 4 5 6 
#
# 1 0.011938 0.000825 -0.008930 -0.000380 -0.000133 0.001069
# 2 0.000825 0.015434 0.001494 0.000943 0.004985 0.011450
# 3 -0.008930 0.001494 0.035679 0.006071 0.017225 0.007301
# 4 -0.000380 0.000943 0.006071 0.036338 0.011267 0.006959
# 5 -0.000133 0.004985 0.017225 0.011267 0.034571 0.005784
# 6 0.001069 0.011450 0.007301 0.006959 0.005784 0.052032
#
#
# Mechanical properties :
#
#
# Convention : Reuss Voigt Hill
#
# Bulk Modulus (GPa) = 20.06971 36.93660 28.50316
# Shear Modulus (GPa) = 23.16704 33.72988 28.44846
#
# Velocity S-wave (km/s) = 3.30917 3.99292 3.66702
# Velocity P-wave (km/s) = 4.90788 6.22231 5.60377
#
# Compressibility (1/GPa) = 0.04982632
#
# Stress axis : x y z
#
# Youngs Moduli (GPa) = 83.76737 64.79281 28.02804
#
# Poissons Ratio (x) = -0.05343 0.25030
# Poissons Ratio (y) = -0.06907 -0.04187
# Poissons Ratio (z) = 0.74806 -0.09678
#
# Static dielectric constant tensor:
#      x y z
#    x 1.811720 0.011340 0.009380 
#    y 0.011340 1.824670 0.047100 
#    z 0.009380 0.047100 1.872220 
# 
# From -- ./inp_files/183218.got.cif
#   From: 2010.05.17/outbox.cif.g08.bks.cpg/sg2_92_cif.got.tgz:183218.got - 2010.06.03 11:33:40.
