data_PCOD9050980
_publ_section_title
;
Structure prediction by ZEFSAII (Michael W. Deem and Ramdas Pophale) SiO2 
 PCOD9050980
Probable space group: P -1
;
_chemical_formula_sum "Si O2"
_cell_formula_units_Z 12
_cell_length_a 5.360246
_cell_length_b 18.871253
_cell_length_c 6.888515
_cell_angle_alpha 59.128621
_cell_angle_beta 103.137068
_cell_angle_gamma 69.461998
_cell_volume 482.835923
_symmetry_space_group_name_H-M "P -1"
_symmetry_group_IT_number 2
_symmetry_cell_setting 'triclinic'
loop_
_space_group_symop_operation_xyz
x,y,z
-x,-y,-z
loop_
_atom_site_type_symbol
_atom_site_label
_atom_site_fract_x
_atom_site_fract_y
_atom_site_fract_z
Si Si1 0.313423 0.984687 0.656873
Si Si2 0.330242 0.224540 0.770751
Si Si3 0.691958 0.467029 0.882391
Si Si4 0.002629 0.806636 0.547052
Si Si5 0.664479 0.592720 0.368538
Si Si6 0.655391 0.727182 0.707044
O O1 0.192783 0.074764 0.662493
O O2 0.500000 0.000000 0.500000
O O3 0.355168 0.758369 0.728197
O O4 0.000000 0.000000 0.500000
O O5 0.304761 0.314271 0.754128
O O6 0.492402 0.223008 0.599622
O O7 0.025957 0.241900 0.587290
O O8 0.492107 0.122496 0.057455
O O9 0.426803 0.587602 0.194928
O O10 0.061338 0.388336 0.088256
O O11 0.384947 0.436711 0.385383
O O12 0.500000 0.500000 0.000000
O O13 0.829099 0.781143 0.711836
O O14 0.000000 0.500000 0.500000
#
# Coordination Sequence:
#
# PCOD9050980 Si02
#       6
#     2   2   2   2   2   2
#     4  12  28  48  76 113 158 201 257 326 394 470
#     4  10  27  46  79 107 156 200 268 311 398 461
#     4  11  27  49  78 115 163 208 269 323 407 459
#     4  10  25  48  73 112 144 205 250 322 381 463
#     4  11  27  48  78 117 158 209 266 333 383 490
#     4  10  25  44  83 103 154 199 262 311 395 458
#
# _framework density 24.853161
#
# number of rings (size 3 to 8) (size 9 to 14) (size 15 to 20)
#    1.000    0.333    0.000    2.500    9.333    4.667 
#    3.000    0.833    0.000    0.000    0.000    0.000 
#    0.000    0.000    0.000    0.000    0.000    0.000 
#
# Total GULP energy -67076.916608 kJ/mol
# GULP energy per Si atom -5589.743051 kJ/mol
# Density = 2.479659 g / cm^3
# Si number density = 24.853161 Si / 1000 Ang^3
#
#
#
# Elastic Constant Matrix: (Units=GPa)
#
#
# Indices 1 2 3 4 5 6 
#
# 1 190.0288 69.3900 59.5521 -6.6590 11.5725 11.4465
# 2 69.3900 195.4162 71.9367 -20.3800 3.0826 19.4012
# 3 59.5521 71.9367 135.2025 -12.8866 -6.9321 6.2874
# 4 -6.6590 -20.3800 -12.8866 43.7758 11.5898 -1.8640
# 5 11.5725 3.0826 -6.9321 11.5898 30.7261 1.9289
# 6 11.4465 19.4012 6.2874 -1.8640 1.9289 35.5016
#
#
#
# Elastic Compliance Matrix: (Units=1/GPa)
#
#
# Indices 1 2 3 4 5 6 
#
# 1 0.006737 -0.001359 -0.002317 0.000484 -0.003054 -0.000828
# 2 -0.001359 0.007274 -0.002979 0.002638 -0.001711 -0.002778
# 3 -0.002317 -0.002979 0.010190 0.000407 0.003291 0.000413
# 4 0.000484 0.002638 0.000407 0.027083 -0.010591 0.000328
# 5 -0.003054 -0.001711 0.003291 -0.010591 0.038688 -0.001321
# 6 -0.000828 -0.002778 0.000413 0.000328 -0.001321 0.029969
#
#
# Mechanical properties :
#
#
# Convention : Reuss Voigt Hill
#
# Bulk Modulus (GPa) = 91.80295 102.48945 97.14620
# Shear Modulus (GPa) = 36.52800 43.31861 39.92331
#
# Velocity S-wave (km/s) = 3.83789 4.17943 4.01230
# Velocity P-wave (km/s) = 7.52712 8.03852 7.78702
#
# Compressibility (1/GPa) = 0.01089290
#
# Stress axis : x y z
#
# Youngs Moduli (GPa) = 148.42673 137.47090 98.13479
#
# Poissons Ratio (x) = 0.18678 0.22734
# Poissons Ratio (y) = 0.20167 0.29235
# Poissons Ratio (z) = 0.34385 0.40953
#
# Static dielectric constant tensor:
#      x y z
#    x 1.877960 0.025330 -0.025480 
#    y 0.025330 1.977270 0.016950 
#    z -0.025480 0.016950 2.031900 
# 
# From -- ./inp_files/6749.got.cif
#   From: 2010.05.17/outbox.cif.g08.bks.cpg/sg2_4_cif.got.tgz:6749.got - 2010.06.03 11:33:40.
