data_PCOD9050654
_publ_section_title
;
Structure prediction by ZEFSAII (Michael W. Deem and Ramdas Pophale) SiO2 
 PCOD9050654
Probable space group: P -1
;
_chemical_formula_sum "Si O2"
_cell_formula_units_Z 16
_cell_length_a 20.635510
_cell_length_b 5.058122
_cell_length_c 7.947229
_cell_angle_alpha 61.412091
_cell_angle_beta 119.915439
_cell_angle_gamma 102.012991
_cell_volume 630.822476
_symmetry_space_group_name_H-M "P -1"
_symmetry_group_IT_number 2
_symmetry_cell_setting 'triclinic'
loop_
_space_group_symop_operation_xyz
x,y,z
-x,-y,-z
loop_
_atom_site_type_symbol
_atom_site_label
_atom_site_fract_x
_atom_site_fract_y
_atom_site_fract_z
Si Si1 0.410513 0.637200 0.459862
Si Si2 0.046733 0.937734 0.342436
Si Si3 0.213272 0.926420 0.617252
Si Si4 0.269029 0.548072 0.484943
Si Si5 0.794679 0.519581 0.950267
Si Si6 0.356785 0.286692 0.184564
Si Si7 0.962937 0.468194 0.207747
Si Si8 0.531086 0.335167 0.927724
O O1 0.352772 0.650919 0.536092
O O2 0.380460 0.391298 0.369048
O O3 0.489277 0.512119 0.666161
O O4 0.399714 0.978905 0.273124
O O5 0.129646 0.054501 0.427840
O O6 0.039412 0.730535 0.563114
O O7 0.025661 0.710196 0.239004
O O8 0.987696 0.216037 0.183529
O O9 0.232618 0.720348 0.543256
O O10 0.208583 0.757047 0.839691
O O11 0.268925 0.193494 0.628175
O O12 0.228834 0.568869 0.242433
O O13 0.880201 0.614940 0.032882
O O14 0.732023 0.743455 0.889866
O O15 0.382993 0.569007 0.019006
O O16 0.500000 0.500000 0.000000
O O17 0.500000 0.000000 0.000000
#
# Coordination Sequence:
#
# PCOD9050654 Si02
#       8
#     2   2   2   2   2   2   2   2
#     4  11  24  45  68  94 137 180 217 280 332 396
#     4   9  18  35  59  90 125 173 221 272 347 394
#     4  11  24  42  68  96 136 180 226 289 340 408
#     4  11  25  42  66  99 137 173 234 277 344 403
#     4  10  25  43  69  98 134 180 229 282 345 402
#     4  11  24  44  69  96 132 179 226 266 343 406
#     4   9  18  35  60  88 127 170 221 279 332 406
#     4  12  26  42  70 103 136 171 221 274 329 405
#
# _framework density 25.363712
#
# number of rings (size 3 to 8) (size 9 to 14) (size 15 to 20)
#    0.000    1.500    0.000    4.500    3.500    9.000 
#    0.000    3.750    0.000    0.000    0.000    0.000 
#    0.000    0.000    0.000    0.000    0.000    0.000 
#
# Total GULP energy -89467.681294 kJ/mol
# GULP energy per Si atom -5591.730081 kJ/mol
# Density = 2.530598 g / cm^3
# Si number density = 25.363712 Si / 1000 Ang^3
#
#
#
# Elastic Constant Matrix: (Units=GPa)
#
#
# Indices 1 2 3 4 5 6 
#
# 1 -52.5796 -11.7795 40.3563 -10.8687 9.8012 -26.9474
# 2 -11.7795 105.1469 -6.8039 -24.2368 3.1062 -5.8670
# 3 40.3563 -6.8039 54.5842 -15.1738 -6.0852 1.3529
# 4 -10.8687 -24.2368 -15.1738 28.2965 -4.0303 -10.9628
# 5 9.8012 3.1062 -6.0852 -4.0303 49.3148 1.8054
# 6 -26.9474 -5.8670 1.3529 -10.9628 1.8054 29.8610
#
#
#
# Elastic Compliance Matrix: (Units=1/GPa)
#
#
# Indices 1 2 3 4 5 6 
#
# 1 -0.007922 -0.002992 0.003929 -0.007372 0.002039 -0.010745
# 2 -0.002992 0.014536 0.009457 0.019266 0.002177 0.006669
# 3 0.003929 0.009457 0.024700 0.029066 0.003507 0.014743
# 4 -0.007372 0.019266 0.029066 0.074683 0.009111 0.022683
# 5 0.002039 0.002177 0.003507 0.009111 0.020759 0.004198
# 6 -0.010745 0.006669 0.014743 0.022683 0.004198 0.032508
#
#
# Mechanical properties :
#
#
# Convention : Reuss Voigt Hill
#
# Bulk Modulus (GPa) = 19.19328 16.74415 17.96871
# Shear Modulus (GPa) = 32.08327 27.18635 29.63481
#
# Velocity S-wave (km/s) = 3.56044 3.27748 3.42189
# Velocity P-wave (km/s) = 4.94833 4.57585 4.76573
#
# Compressibility (1/GPa) = 0.05210158
#
# Stress axis : x y z
#
# Youngs Moduli (GPa) = -126.22500 68.79441 40.48543
#
# Poissons Ratio (x) = 0.20585 -0.15905
# Poissons Ratio (y) = -0.37770 -0.38289
# Poissons Ratio (z) = 0.49590 -0.65062
#
# Static dielectric constant tensor:
#      x y z
#    x 2.034330 0.051060 0.074190 
#    y 0.051060 1.900600 -0.069870 
#    z 0.074190 -0.069870 2.015200 
# 
# From -- ./inp_files/340162.got.cif
#   From: 2010.05.17/outbox.cif.g08.bks.cpg/sg2_171_cif.got.tgz:340162.got - 2010.06.03 11:33:40.
