data_PCOD9050258
_publ_section_title
;
Structure prediction by ZEFSAII (Michael W. Deem and Ramdas Pophale) SiO2 
 PCOD9050258
Probable space group: P -1
;
_chemical_formula_sum "Si O2"
_cell_formula_units_Z 12
_cell_length_a 11.835828
_cell_length_b 10.139038
_cell_length_c 13.043683
_cell_angle_alpha 145.873899
_cell_angle_beta 51.908449
_cell_angle_gamma 142.409867
_cell_volume 532.187091
_symmetry_space_group_name_H-M "P -1"
_symmetry_group_IT_number 2
_symmetry_cell_setting 'triclinic'
loop_
_space_group_symop_operation_xyz
x,y,z
-x,-y,-z
loop_
_atom_site_type_symbol
_atom_site_label
_atom_site_fract_x
_atom_site_fract_y
_atom_site_fract_z
Si Si1 0.006809 0.333715 0.666344
Si Si2 0.563286 0.322269 0.400426
Si Si3 0.612111 0.345116 0.989368
Si Si4 0.694439 0.637555 0.737838
Si Si5 0.041203 0.177087 0.756723
Si Si6 0.844846 0.637076 0.857443
O O1 0.227617 0.526403 0.653040
O O2 0.973912 0.283036 0.773648
O O3 0.939233 0.499092 0.757492
O O4 0.914626 0.016414 0.455623
O O5 0.500000 0.500000 0.500000
O O6 0.577408 0.379221 0.550743
O O7 0.434936 0.973836 0.213894
O O8 0.430704 0.289246 0.095870
O O9 0.776085 0.547725 0.110349
O O10 0.688348 0.534944 0.963133
O O11 0.760698 0.536127 0.726192
O O12 0.874460 0.939304 0.774951
O O13 0.000000 0.000000 0.000000
#
# Coordination Sequence:
#
# PCOD9050258 Si02
#       6
#     2   2   2   2   2   2
#     4  10  25  48  77 108 154 190 248 307 367 436
#     4  11  27  48  75 114 148 190 249 307 368 435
#     4  12  27  47  79 106 149 195 249 305 361 442
#     4  11  26  50  74 109 152 192 247 299 370 438
#     4  10  24  49  78 107 146 198 247 304 371 425
#     4  12  26  48  75 111 147 198 249 298 370 441
#
# _framework density 22.548462000000001
#
# number of rings (size 3 to 8) (size 9 to 14) (size 15 to 20)
#    0.000    1.000    1.667    2.500    9.333    8.000 
#    3.000    0.000    0.000    0.000    0.000    0.000 
#    0.000    0.000    0.000    0.000    0.000    0.000 
#
# Total GULP energy -67267.836143 kJ/mol
# GULP energy per Si atom -5605.653012 kJ/mol
# Density = 2.249714 g / cm^3
# Si number density = 22.548462 Si / 1000 Ang^3
#
#
#
# Elastic Constant Matrix: (Units=GPa)
#
#
# Indices 1 2 3 4 5 6 
#
# 1 191.5656 68.6072 74.4277 -4.3031 8.7096 -33.3932
# 2 68.6072 109.4914 51.7457 -11.5017 4.0714 -22.7862
# 3 74.4277 51.7457 111.3486 20.9671 25.0380 -19.1890
# 4 -4.3031 -11.5017 20.9671 44.5544 3.1510 5.3312
# 5 8.7096 4.0714 25.0380 3.1510 47.5943 -5.3100
# 6 -33.3932 -22.7862 -19.1890 5.3312 -5.3100 40.3319
#
#
#
# Elastic Compliance Matrix: (Units=1/GPa)
#
#
# Indices 1 2 3 4 5 6 
#
# 1 0.008399 -0.002185 -0.004684 0.001946 0.001366 0.003414
# 2 -0.002185 0.014819 -0.006673 0.006227 0.002554 0.002901
# 3 -0.004684 -0.006673 0.019383 -0.010982 -0.007819 0.001996
# 4 0.001946 0.006227 -0.010982 0.029672 0.002513 -0.003687
# 5 0.001366 0.002554 -0.007819 0.002513 0.024687 0.001772
# 6 0.003414 0.002901 0.001996 -0.003687 0.001772 0.030930
#
#
# Mechanical properties :
#
#
# Convention : Reuss Voigt Hill
#
# Bulk Modulus (GPa) = 64.44630 89.10743 76.77687
# Shear Modulus (GPa) = 31.22137 41.00447 36.11292
#
# Velocity S-wave (km/s) = 3.72510 4.26902 4.00630
# Velocity P-wave (km/s) = 6.86623 7.99396 7.45146
#
# Compressibility (1/GPa) = 0.01551679
#
# Stress axis : x y z
#
# Youngs Moduli (GPa) = 119.05696 67.48144 51.59169
#
# Poissons Ratio (x) = 0.14746 0.24167
# Poissons Ratio (y) = 0.26016 0.34426
# Poissons Ratio (z) = 0.55769 0.45029
#
# Static dielectric constant tensor:
#      x y z
#    x 1.816320 0.017150 0.004550 
#    y 0.017150 1.843250 -0.014870 
#    z 0.004550 -0.014870 1.836660 
# 
# From -- ./inp_files/392773.got.cif
#   From: 2010.05.17/outbox.cif.g08.bks.cpg/sg2_197_cif.got.tgz:392773.got - 2010.06.03 11:33:40.
