data_PCOD9050576
_publ_section_title
;
Structure prediction by ZEFSAII (Michael W. Deem and Ramdas Pophale) SiO2 
 PCOD9050576
Probable space group: P -1
;
_chemical_formula_sum "Si O2"
_cell_formula_units_Z 14
_cell_length_a 20.248606
_cell_length_b 13.004157
_cell_length_c 11.558837
_cell_angle_alpha 45.961615
_cell_angle_beta 34.391916
_cell_angle_gamma 22.609159
_cell_volume 629.044834
_symmetry_space_group_name_H-M "P -1"
_symmetry_group_IT_number 2
_symmetry_cell_setting 'triclinic'
loop_
_space_group_symop_operation_xyz
x,y,z
-x,-y,-z
loop_
_atom_site_type_symbol
_atom_site_label
_atom_site_fract_x
_atom_site_fract_y
_atom_site_fract_z
Si Si1 0.083312 0.284983 0.965961
Si Si2 0.274525 0.756456 0.538896
Si Si3 0.586307 0.818218 0.185867
Si Si4 0.896099 0.248699 0.401336
Si Si5 0.559696 0.169105 0.373930
Si Si6 0.829734 0.190281 0.989654
Si Si7 0.522328 0.198331 0.896105
O O1 0.856091 0.499980 0.050567
O O2 0.095956 0.135499 0.149249
O O3 0.000000 0.500000 0.000000
O O4 0.295622 0.072873 0.740232
O O5 0.500000 0.500000 0.500000
O O6 0.272689 0.627293 0.554856
O O7 0.284076 0.889672 0.344674
O O8 0.018833 0.018978 0.753180
O O9 0.455527 0.896528 0.428038
O O10 0.516871 0.821065 0.162335
O O11 0.559380 0.018358 0.059017
O O12 0.701604 0.539067 0.524627
O O13 0.000000 0.000000 0.500000
O O14 0.691833 0.185739 0.175486
O O15 0.668886 0.495727 0.010720
O O16 0.000000 0.000000 0.000000
#
# Coordination Sequence:
#
# PCOD9050576 Si02
#       7
#     2   2   2   2   2   2   2
#     4  11  25  45  68  92 135 183 226 278 340 404
#     4  12  22  41  69 100 135 174 221 281 340 401
#     4  10  25  43  64  99 141 175 224 277 338 410
#     4  11  25  44  68 104 137 173 228 289 339 407
#     4  11  23  45  69  97 132 182 227 277 339 412
#     4  12  21  36  71 100 128 177 226 274 345 400
#     4  11  23  41  66 102 139 174 219 282 340 403
#
# _framework density 22.255966000000001
#
# number of rings (size 3 to 8) (size 9 to 14) (size 15 to 20)
#    0.000    0.857    4.286    3.429    2.000    4.000 
#    2.571    3.571    0.000    0.000    0.000    0.000 
#    0.000    0.000    0.000    0.000    0.000    0.000 
#
# Total GULP energy -78057.656196 kJ/mol
# GULP energy per Si atom -5575.546871 kJ/mol
# Density = 2.220531 g / cm^3
# Si number density = 22.255966 Si / 1000 Ang^3
#
#
#
# Elastic Constant Matrix: (Units=GPa)
#
#
# Indices 1 2 3 4 5 6 
#
# 1 39.5610 13.1692 18.2408 -4.0402 2.1740 11.5261
# 2 13.1692 119.8485 91.4347 -14.9174 18.3938 17.9159
# 3 18.2408 91.4347 205.0008 6.0267 14.4236 18.8542
# 4 -4.0402 -14.9174 6.0267 55.4536 10.0025 -2.2257
# 5 2.1740 18.3938 14.4236 10.0025 26.8010 1.7000
# 6 11.5261 17.9159 18.8542 -2.2257 1.7000 30.1215
#
#
#
# Elastic Compliance Matrix: (Units=1/GPa)
#
#
# Indices 1 2 3 4 5 6 
#
# 1 0.029237 0.000100 -0.001676 0.002256 -0.001751 -0.009933
# 2 0.000100 0.016181 -0.006295 0.006644 -0.009909 -0.004673
# 3 -0.001676 -0.006295 0.007905 -0.002954 0.001359 -0.000858
# 4 0.002256 0.006644 -0.002954 0.022344 -0.011450 -0.000669
# 5 -0.001751 -0.009909 0.001359 -0.011450 0.047659 0.002178
# 6 -0.009933 -0.004673 -0.000858 -0.000669 0.002178 0.040143
#
#
# Mechanical properties :
#
#
# Convention : Reuss Voigt Hill
#
# Bulk Modulus (GPa) = 26.60766 67.78887 47.19826
# Shear Modulus (GPa) = 26.07723 38.57961 32.32842
#
# Velocity S-wave (km/s) = 3.42672 4.16799 3.81540
# Velocity P-wave (km/s) = 5.25716 7.32719 6.37673
#
# Compressibility (1/GPa) = 0.03758317
#
# Stress axis : x y z
#
# Youngs Moduli (GPa) = 34.20289 61.79922 126.50585
#
# Poissons Ratio (x) = -0.00619 0.21200
# Poissons Ratio (y) = -0.00343 0.79630
# Poissons Ratio (z) = 0.05732 0.38900
#
# Static dielectric constant tensor:
#      x y z
#    x 1.946770 -0.024310 -0.156040 
#    y -0.024310 1.917910 0.048120 
#    z -0.156040 0.048120 1.943510 
# 
# From -- ./inp_files/475140.got.cif
#   From: 2010.05.17/outbox.cif.g08.bks.cpg/sg2_238_cif.got.tgz:475140.got - 2010.06.03 11:33:40.
