data_PCOD9050987
_publ_section_title
;
Structure prediction by ZEFSAII (Michael W. Deem and Ramdas Pophale) SiO2 
 PCOD9050987
Probable space group: P -1
;
_chemical_formula_sum "Si O2"
_cell_formula_units_Z 14
_cell_length_a 13.438300
_cell_length_b 9.623885
_cell_length_c 9.458896
_cell_angle_alpha 48.344164
_cell_angle_beta 44.485739
_cell_angle_gamma 44.618372
_cell_volume 570.700626
_symmetry_space_group_name_H-M "P -1"
_symmetry_group_IT_number 2
_symmetry_cell_setting 'triclinic'
loop_
_space_group_symop_operation_xyz
x,y,z
-x,-y,-z
loop_
_atom_site_type_symbol
_atom_site_label
_atom_site_fract_x
_atom_site_fract_y
_atom_site_fract_z
Si Si1 0.672442 0.484612 0.361119
Si Si2 0.883525 0.341457 0.965554
Si Si3 0.384651 0.896278 0.959824
Si Si4 0.630370 0.512229 0.681282
Si Si5 0.141050 0.280481 0.949385
Si Si6 0.271442 0.258647 0.332755
Si Si7 0.703252 0.099192 0.259788
O O1 0.500000 0.500000 0.500000
O O2 0.778582 0.377000 0.190573
O O3 0.729386 0.394755 0.520954
O O4 0.699850 0.688516 0.217348
O O5 0.830606 0.188219 0.039131
O O6 0.843141 0.556001 0.779107
O O7 0.060629 0.258510 0.900691
O O8 0.561328 0.858499 0.843292
O O9 0.354317 0.970680 0.776923
O O10 0.220295 0.053372 0.096498
O O11 0.401826 0.664500 0.094039
O O12 0.705426 0.614341 0.643469
O O13 0.463573 0.698178 0.670714
O O14 0.000000 0.500000 0.000000
O O15 0.238350 0.077821 0.558441
#
# Coordination Sequence:
#
# PCOD9050987 Si02
#       7
#     2   2   2   2   2   2   2
#     4  11  21  42  68  90 128 177 220 269 317 392
#     4  11  23  45  63 101 143 167 217 279 329 395
#     4  11  20  40  68  96 133 178 220 275 328 387
#     4  11  20  40  67 104 130 166 228 281 317 389
#     4  10  25  45  62  93 142 174 215 277 334 392
#     4  11  21  40  72 100 131 175 222 273 330 388
#     4  11  20  38  69 100 133 170 222 276 324 392
#
# _framework density 24.531251000000001
#
# number of rings (size 3 to 8) (size 9 to 14) (size 15 to 20)
#    0.000    1.143    4.286    4.286    0.000    0.571 
#    7.714    7.143    0.000    0.000    0.000    0.000 
#    0.000    0.000    0.000    0.000    0.000    0.000 
#
# Total GULP energy -77955.890842 kJ/mol
# GULP energy per Si atom -5568.277917 kJ/mol
# Density = 2.447542 g / cm^3
# Si number density = 24.531251 Si / 1000 Ang^3
#
#
#
# Elastic Constant Matrix: (Units=GPa)
#
#
# Indices 1 2 3 4 5 6 
#
# 1 63.9678 8.5119 -3.4813 9.4687 -15.4525 -0.2039
# 2 8.5119 99.5015 34.6135 -20.6029 -2.3047 -12.9808
# 3 -3.4813 34.6135 78.9934 -22.0162 1.2245 -12.4130
# 4 9.4687 -20.6029 -22.0162 36.4354 8.2368 6.6207
# 5 -15.4525 -2.3047 1.2245 8.2368 39.4421 1.4628
# 6 -0.2039 -12.9808 -12.4130 6.6207 1.4628 27.3959
#
#
#
# Elastic Compliance Matrix: (Units=1/GPa)
#
#
# Indices 1 2 3 4 5 6 
#
# 1 0.019732 -0.003236 -0.000457 -0.009416 0.009515 0.000174
# 2 -0.003236 0.013231 -0.003781 0.005842 -0.001716 0.003212
# 3 -0.000457 -0.003781 0.017318 0.008324 -0.002832 0.004192
# 4 -0.009416 0.005842 0.008324 0.041506 -0.012166 -0.002911
# 5 0.009515 -0.001716 -0.002832 -0.012166 0.031639 -0.000775
# 6 0.000174 0.003212 0.004192 -0.002911 -0.000775 0.040669
#
#
# Mechanical properties :
#
#
# Convention : Reuss Voigt Hill
#
# Bulk Modulus (GPa) = 28.30114 35.75011 32.02562
# Shear Modulus (GPa) = 26.20286 34.17592 30.18939
#
# Velocity S-wave (km/s) = 3.27179 3.73655 3.51187
# Velocity P-wave (km/s) = 5.08278 5.76374 5.43394
#
# Compressibility (1/GPa) = 0.03533427
#
# Stress axis : x y z
#
# Youngs Moduli (GPa) = 50.68030 75.57992 57.74239
#
# Poissons Ratio (x) = 0.24454 0.02640
# Poissons Ratio (y) = 0.16398 0.21830
# Poissons Ratio (z) = 0.02317 0.28573
#
# Static dielectric constant tensor:
#      x y z
#    x 1.959690 0.095860 0.006240 
#    y 0.095860 2.183540 0.069630 
#    z 0.006240 0.069630 2.119220 
# 
# From -- ./inp_files/449619.got.cif
#   From: 2010.05.17/outbox.cif.g08.bks.cpg/sg2_225_cif.got.tgz:449619.got - 2010.06.03 11:33:40.
