data_PCOD9050948
_publ_section_title
;
Structure prediction by ZEFSAII (Michael W. Deem and Ramdas Pophale) SiO2 
 PCOD9050948
Probable space group: P -1
;
_chemical_formula_sum "Si O2"
_cell_formula_units_Z 16
_cell_length_a 9.348615
_cell_length_b 20.533712
_cell_length_c 10.891113
_cell_angle_alpha 38.668634
_cell_angle_beta 109.887074
_cell_angle_gamma 139.151438
_cell_volume 675.158720
_symmetry_space_group_name_H-M "P -1"
_symmetry_group_IT_number 2
_symmetry_cell_setting 'triclinic'
loop_
_space_group_symop_operation_xyz
x,y,z
-x,-y,-z
loop_
_atom_site_type_symbol
_atom_site_label
_atom_site_fract_x
_atom_site_fract_y
_atom_site_fract_z
Si Si1 0.299516 0.973705 0.616618
Si Si2 0.308197 0.202882 0.241975
Si Si3 0.115760 0.593861 0.592492
Si Si4 0.962045 0.794107 0.011559
Si Si5 0.849583 0.570838 0.967983
Si Si6 0.307962 0.569344 0.485007
Si Si7 0.896397 0.824155 0.223125
Si Si8 0.160066 0.799186 0.488021
O O1 0.223669 0.960062 0.755308
O O2 0.017271 0.766344 0.782028
O O3 0.410030 0.142682 0.336424
O O4 0.542108 0.027731 0.614464
O O5 0.266108 0.257171 0.036445
O O6 0.516573 0.376117 0.144416
O O7 0.000000 0.000000 0.500000
O O8 0.844055 0.462204 0.625895
O O9 0.342066 0.676414 0.442010
O O10 0.188696 0.742454 0.461536
O O11 0.071533 0.481825 0.848093
O O12 0.889825 0.631050 0.217949
O O13 0.978843 0.825104 0.114438
O O14 0.954745 0.625908 0.778157
O O15 0.569068 0.651087 0.399927
O O16 0.031554 0.833403 0.356271
O O17 0.000000 0.000000 0.000000
#
# Coordination Sequence:
#
# PCOD9050948 Si02
#       8
#     2   2   2   2   2   2   2   2
#     4  11  26  46  75 111 149 198 260 305 369 456
#     4  10  25  44  73 112 148 194 247 311 375 449
#     4  11  25  46  80 103 144 198 252 304 375 446
#     4  11  24  48  72 102 150 196 241 312 374 447
#     4  12  25  47  75 109 149 198 246 316 374 434
#     4  11  25  49  73 108 143 200 250 305 378 457
#     4  12  30  45  72 109 152 191 247 314 377 444
#     4  12  27  48  75 111 150 202 250 311 374 449
#
# _framework density 23.698129999999999
#
# number of rings (size 3 to 8) (size 9 to 14) (size 15 to 20)
#    0.000    0.750    3.750    1.875    7.000    2.500 
#    2.250    0.000    0.000    0.000    0.000    0.000 
#    0.000    0.000    0.000    0.000    0.000    0.000 
#
# Total GULP energy -89448.940861 kJ/mol
# GULP energy per Si atom -5590.558804 kJ/mol
# Density = 2.364419 g / cm^3
# Si number density = 23.698130 Si / 1000 Ang^3
#
#
#
# Elastic Constant Matrix: (Units=GPa)
#
#
# Indices 1 2 3 4 5 6 
#
# 1 92.2216 46.5990 22.6480 3.5944 3.9891 14.0389
# 2 46.5990 132.0786 53.3141 11.5083 9.4406 24.5435
# 3 22.6480 53.3141 72.6351 8.0312 15.0310 24.0492
# 4 3.5944 11.5083 8.0312 45.0122 6.8741 16.0591
# 5 3.9891 9.4406 15.0310 6.8741 40.2338 6.3444
# 6 14.0389 24.5435 24.0492 16.0591 6.3444 52.8924
#
#
#
# Elastic Compliance Matrix: (Units=1/GPa)
#
#
# Indices 1 2 3 4 5 6 
#
# 1 0.013338 -0.004230 -0.000640 0.000657 0.000032 -0.001490
# 2 -0.004230 0.012278 -0.007388 -0.001258 0.000657 -0.000912
# 3 -0.000640 -0.007388 0.022557 0.001043 -0.005818 -0.006277
# 4 0.000657 -0.001258 0.001043 0.025446 -0.003342 -0.007390
# 5 0.000032 0.000657 -0.005818 -0.003342 0.027433 0.000056
# 6 -0.001490 -0.000912 -0.006277 -0.007390 0.000056 0.024816
#
#
# Mechanical properties :
#
#
# Convention : Reuss Voigt Hill
#
# Bulk Modulus (GPa) = 42.27160 60.22860 51.25010
# Shear Modulus (GPa) = 31.59165 39.25262 35.42214
#
# Velocity S-wave (km/s) = 3.65511 4.07425 3.87036
# Velocity P-wave (km/s) = 5.97405 6.89948 6.45338
#
# Compressibility (1/GPa) = 0.02365655
#
# Stress axis : x y z
#
# Youngs Moduli (GPa) = 74.97450 81.44617 44.33273
#
# Poissons Ratio (x) = 0.34453 0.02837
# Poissons Ratio (y) = 0.31716 0.32753
# Poissons Ratio (z) = 0.04797 0.60172
#
# Static dielectric constant tensor:
#      x y z
#    x 2.073320 0.033920 -0.178070 
#    y 0.033920 1.949340 -0.128240 
#    z -0.178070 -0.128240 2.221990 
# 
# From -- ./inp_files/405426.got.cif
#   From: 2010.05.17/outbox.cif.g08.bks.cpg/sg2_203_cif.got.tgz:405426.got - 2010.06.03 11:33:40.
