data_PCOD9050420
_publ_section_title
;
Structure prediction by ZEFSAII (Michael W. Deem and Ramdas Pophale) SiO2 
 PCOD9050420
Probable space group: P -1
;
_chemical_formula_sum "Si O2"
_cell_formula_units_Z 14
_cell_length_a 8.224904
_cell_length_b 8.384085
_cell_length_c 11.283687
_cell_angle_alpha 80.181205
_cell_angle_beta 115.022326
_cell_angle_gamma 116.589113
_cell_volume 630.334857
_symmetry_space_group_name_H-M "P -1"
_symmetry_group_IT_number 2
_symmetry_cell_setting 'triclinic'
loop_
_space_group_symop_operation_xyz
x,y,z
-x,-y,-z
loop_
_atom_site_type_symbol
_atom_site_label
_atom_site_fract_x
_atom_site_fract_y
_atom_site_fract_z
Si Si1 0.100430 0.704889 0.053366
Si Si2 0.812706 0.767608 0.795197
Si Si3 0.659361 0.442257 0.612621
Si Si4 0.551735 0.453335 0.152414
Si Si5 0.966229 0.950674 0.359015
Si Si6 0.986130 0.612146 0.302523
Si Si7 0.531725 0.798185 0.220023
O O1 0.051468 0.694405 0.179494
O O2 0.337408 0.796885 0.098201
O O3 0.000000 0.500000 0.000000
O O4 0.991888 0.803890 0.935432
O O5 0.770947 0.587784 0.730219
O O6 0.618931 0.721218 0.821302
O O7 0.868866 0.917284 0.694756
O O8 0.500000 0.500000 0.500000
O O9 0.839331 0.438825 0.592848
O O10 0.534986 0.249919 0.657992
O O11 0.551554 0.621372 0.203106
O O12 0.767621 0.457895 0.232446
O O13 0.500000 0.500000 0.000000
O O14 0.965204 0.758761 0.360858
O O15 0.752619 0.947388 0.258493
O O16 0.000000 0.000000 0.500000
#
# Coordination Sequence:
#
# PCOD9050420 Si02
#       7
#     2   2   2   2   2   2   2
#     4  11  17  38  68  98 128 159 216 278 333 383
#     4  11  22  37  67  92 129 171 211 274 325 381
#     4  10  20  40  67  92 121 171 230 266 311 388
#     4  10  17  34  62  96 127 157 205 266 328 390
#     4  11  25  45  59  89 140 181 218 266 313 387
#     4  10  21  39  68  93 131 172 208 274 338 377
#     4   9  20  36  60  87 128 170 202 271 326 369
#
# _framework density 22.210415999999999
#
# number of rings (size 3 to 8) (size 9 to 14) (size 15 to 20)
#    0.000    1.714    5.714    0.857    0.000    1.143 
#    0.000   20.714    0.000    0.000    0.000    0.000 
#    0.000    0.000    0.000    0.000    0.000    0.000 
#
# Total GULP energy -78109.239726 kJ/mol
# GULP energy per Si atom -5579.231409 kJ/mol
# Density = 2.215986 g / cm^3
# Si number density = 22.210416 Si / 1000 Ang^3
#
#
#
# Elastic Constant Matrix: (Units=GPa)
#
#
# Indices 1 2 3 4 5 6 
#
# 1 158.3398 30.2691 61.8159 4.4704 33.6720 24.8957
# 2 30.2691 39.3187 25.1258 -2.3667 -3.1243 22.3082
# 3 61.8159 25.1258 107.4750 -0.6098 18.5880 6.4453
# 4 4.4704 -2.3667 -0.6098 25.5439 -0.3919 -7.4633
# 5 33.6720 -3.1243 18.5880 -0.3919 37.5843 2.0003
# 6 24.8957 22.3082 6.4453 -7.4633 2.0003 37.0660
#
#
#
# Elastic Compliance Matrix: (Units=1/GPa)
#
#
# Indices 1 2 3 4 5 6 
#
# 1 0.011254 -0.004737 -0.003658 -0.003912 -0.008473 -0.004402
# 2 -0.004737 0.052917 -0.010631 -0.002512 0.015373 -0.028153
# 3 -0.003658 -0.010631 0.014359 0.001974 -0.005062 0.007029
# 4 -0.003912 -0.002512 0.001974 0.043303 0.002111 0.012401
# 5 -0.008473 0.015373 -0.005062 0.002111 0.038231 -0.004319
# 6 -0.004402 -0.028153 0.007029 0.012401 -0.004319 0.048387
#
#
# Mechanical properties :
#
#
# Convention : Reuss Voigt Hill
#
# Bulk Modulus (GPa) = 24.70529 59.95057 42.32793
# Shear Modulus (GPa) = 19.23103 32.56704 25.89903
#
# Velocity S-wave (km/s) = 2.94574 3.83338 3.41849
# Velocity P-wave (km/s) = 4.76626 6.82962 5.88902
#
# Compressibility (1/GPa) = 0.04047716
#
# Stress axis : x y z
#
# Youngs Moduli (GPa) = 88.85980 18.89735 69.64359
#
# Poissons Ratio (x) = 0.08952 0.25475
# Poissons Ratio (y) = 0.42096 0.74039
# Poissons Ratio (z) = 0.32504 0.20090
#
# Static dielectric constant tensor:
#      x y z
#    x 1.893120 0.038140 -0.008440 
#    y 0.038140 1.890870 -0.018130 
#    z -0.008440 -0.018130 1.876080 
# 
# From -- ./inp_files/382067.got.cif
#   From: 2010.05.17/outbox.cif.g08.bks.cpg/sg2_192_cif.got.tgz:382067.got - 2010.06.03 11:33:40.
