data_PCOD9050668
_publ_section_title
;
Structure prediction by ZEFSAII (Michael W. Deem and Ramdas Pophale) SiO2 
 PCOD9050668
Probable space group: P -1
;
_chemical_formula_sum "Si O2"
_cell_formula_units_Z 14
_cell_length_a 16.306122
_cell_length_b 9.552437
_cell_length_c 11.960584
_cell_angle_alpha 61.171382
_cell_angle_beta 157.319025
_cell_angle_gamma 129.608947
_cell_volume 516.983220
_symmetry_space_group_name_H-M "P -1"
_symmetry_group_IT_number 2
_symmetry_cell_setting 'triclinic'
loop_
_space_group_symop_operation_xyz
x,y,z
-x,-y,-z
loop_
_atom_site_type_symbol
_atom_site_label
_atom_site_fract_x
_atom_site_fract_y
_atom_site_fract_z
Si Si1 0.313077 0.181378 0.485474
Si Si2 0.988934 0.300881 0.149201
Si Si3 0.515941 0.831735 0.529876
Si Si4 0.257556 0.069573 0.863299
Si Si5 0.504747 0.414434 0.206102
Si Si6 0.779885 0.179784 0.387965
Si Si7 0.803191 0.438698 0.140183
O O1 0.196338 0.997250 0.492573
O O2 0.839236 0.721769 0.717338
O O3 0.309835 0.114078 0.381760
O O4 0.615816 0.335065 0.839763
O O5 0.187701 0.448189 0.437409
O O6 0.779693 0.325158 0.819592
O O7 0.594230 0.735215 0.756508
O O8 0.500000 0.000000 0.500000
O O9 0.186291 0.907873 0.928810
O O10 0.478772 0.087658 0.058411
O O11 0.390629 0.280119 0.006696
O O12 0.000000 0.000000 0.500000
O O13 0.387377 0.539300 0.026639
O O14 0.868168 0.301886 0.337770
O O15 0.942415 0.342876 0.625604
#
# Coordination Sequence:
#
# PCOD9050668 Si02
#       7
#     2   2   2   2   2   2   2
#     4  11  24  46  74 103 144 189 234 299 356 419
#     4  11  25  46  72 110 140 191 241 289 364 418
#     4  12  25  49  71 108 145 190 242 291 358 428
#     4  12  25  44  71 105 146 190 236 294 363 420
#     4  11  25  48  68 105 146 183 245 297 343 437
#     4  11  23  44  70 103 146 186 235 299 351 428
#     4  10  25  43  70 107 137 192 241 288 365 416
#
# _framework density 27.080182000000001
#
# number of rings (size 3 to 8) (size 9 to 14) (size 15 to 20)
#    0.000    0.857    2.857    3.429    2.000    7.429 
#    5.143    0.000    0.000    0.000    0.000    0.000 
#    0.000    0.000    0.000    0.000    0.000    0.000 
#
# Total GULP energy -78558.526749 kJ/mol
# GULP energy per Si atom -5611.323339 kJ/mol
# Density = 2.701855 g / cm^3
# Si number density = 27.080182 Si / 1000 Ang^3
#
#
#
# Elastic Constant Matrix: (Units=GPa)
#
#
# Indices 1 2 3 4 5 6 
#
# 1 89.9036 21.5273 21.1997 -2.6761 -15.6246 -17.9733
# 2 21.5273 112.1417 27.6178 8.3657 -13.2416 -16.2631
# 3 21.1997 27.6178 170.2249 10.4394 10.0868 -9.8874
# 4 -2.6761 8.3657 10.4394 57.5149 -1.2594 -3.5747
# 5 -15.6246 -13.2416 10.0868 -1.2594 32.9824 5.9267
# 6 -17.9733 -16.2631 -9.8874 -3.5747 5.9267 39.6373
#
#
#
# Elastic Compliance Matrix: (Units=1/GPa)
#
#
# Indices 1 2 3 4 5 6 
#
# 1 0.013761 -0.000957 -0.001728 0.001512 0.005882 0.004673
# 2 -0.000957 0.010400 -0.001559 -0.001020 0.003656 0.002806
# 3 -0.001728 -0.001559 0.006666 -0.001101 -0.003649 0.000686
# 4 0.001512 -0.001020 -0.001101 0.017919 0.001068 0.001449
# 5 0.005882 0.003656 -0.003649 0.001068 0.036097 -0.002044
# 6 0.004673 0.002806 0.000686 0.001449 -0.002044 0.029106
#
#
# Mechanical properties :
#
#
# Convention : Reuss Voigt Hill
#
# Bulk Modulus (GPa) = 44.76579 56.99554 50.88067
# Shear Modulus (GPa) = 38.49587 46.15527 42.32557
#
# Velocity S-wave (km/s) = 3.77444 4.13291 3.95773
# Velocity P-wave (km/s) = 5.96338 6.62323 6.30195
#
# Compressibility (1/GPa) = 0.02233849
#
# Stress axis : x y z
#
# Youngs Moduli (GPa) = 72.66862 96.15809 150.00659
#
# Poissons Ratio (x) = 0.09198 0.25928
# Poissons Ratio (y) = 0.06951 0.23390
# Poissons Ratio (z) = 0.12560 0.14993
#
# Static dielectric constant tensor:
#      x y z
#    x 2.102600 -0.011420 -0.015720 
#    y -0.011420 2.093740 0.054550 
#    z -0.015720 0.054550 2.098220 
# 
# From -- ./inp_files/540468.got.cif
#   From: 2010.05.17/outbox.cif.g08.bks.cpg/sg2_271_cif.got.tgz:540468.got - 2010.06.03 11:33:40.
