data_PCOD9050478
_publ_section_title
;
Structure prediction by ZEFSAII (Michael W. Deem and Ramdas Pophale) SiO2 
 PCOD9050478
Probable space group: P -1
;
_chemical_formula_sum "Si O2"
_cell_formula_units_Z 16
_cell_length_a 14.150300
_cell_length_b 12.990341
_cell_length_c 8.046779
_cell_angle_alpha 132.596280
_cell_angle_beta 100.175337
_cell_angle_gamma 117.230631
_cell_volume 647.952575
_symmetry_space_group_name_H-M "P -1"
_symmetry_group_IT_number 2
_symmetry_cell_setting 'triclinic'
loop_
_space_group_symop_operation_xyz
x,y,z
-x,-y,-z
loop_
_atom_site_type_symbol
_atom_site_label
_atom_site_fract_x
_atom_site_fract_y
_atom_site_fract_z
Si Si1 0.922860 0.787986 0.522812
Si Si2 0.675351 0.680998 0.176745
Si Si3 0.576124 0.732539 0.894525
Si Si4 0.779802 0.671111 0.717014
Si Si5 0.194077 0.569373 0.326111
Si Si6 0.143561 0.815171 0.724059
Si Si7 0.135626 0.840821 0.134839
Si Si8 0.377688 0.937420 0.508552
O O1 0.781395 0.664713 0.216547
O O2 0.842190 0.711701 0.595233
O O3 0.003778 0.729045 0.483191
O O4 0.075543 0.070482 0.877066
O O5 0.776845 0.911124 0.560264
O O6 0.500000 0.500000 0.000000
O O7 0.660389 0.717678 0.024720
O O8 0.398306 0.476955 0.519985
O O9 0.693050 0.916801 0.984174
O O10 0.561125 0.857351 0.141750
O O11 0.749392 0.493382 0.614451
O O12 0.172512 0.688573 0.551329
O O13 0.303820 0.740437 0.396782
O O14 0.012059 0.319812 0.962495
O O15 0.099095 0.776202 0.860186
O O16 0.246343 0.849449 0.249988
O O17 0.500000 0.000000 0.500000
#
# Coordination Sequence:
#
# PCOD9050478 Si02
#       8
#     2   2   2   2   2   2   2   2
#     4  11  22  42  70 101 134 185 234 281 345 414
#     4  11  22  45  69  94 141 185 232 295 345 400
#     4  10  25  42  66 101 141 179 227 294 348 402
#     4  11  22  41  72 100 132 184 234 286 338 407
#     4  11  23  43  70  99 142 181 228 291 341 411
#     4  11  25  41  69 105 138 179 236 287 340 418
#     4  11  22  43  67  98 135 182 230 284 351 404
#     4  10  25  42  64 100 139 182 225 284 353 417
#
# _framework density 24.693166000000002
#
# number of rings (size 3 to 8) (size 9 to 14) (size 15 to 20)
#    0.000    1.250    3.750    1.500    3.500    2.000 
#    0.000    0.000    0.000    0.000    0.000    0.000 
#    0.000    0.000    0.000    0.000    0.000    0.000 
#
# Total GULP energy -89585.553895 kJ/mol
# GULP energy per Si atom -5599.097118 kJ/mol
# Density = 2.463696 g / cm^3
# Si number density = 24.693166 Si / 1000 Ang^3
#
#
#
# Elastic Constant Matrix: (Units=GPa)
#
#
# Indices 1 2 3 4 5 6 
#
# 1 109.3340 54.3746 35.7772 -10.3215 23.3557 -1.0026
# 2 54.3746 154.3982 38.1412 -0.4248 1.1865 10.2150
# 3 35.7772 38.1412 84.8233 8.6682 10.2173 3.9055
# 4 -10.3215 -0.4248 8.6682 30.3815 -2.9280 15.1177
# 5 23.3557 1.1865 10.2173 -2.9280 41.4330 7.7946
# 6 -1.0026 10.2150 3.9055 15.1177 7.7946 55.6209
#
#
#
# Elastic Compliance Matrix: (Units=1/GPa)
#
#
# Indices 1 2 3 4 5 6 
#
# 1 0.014405 -0.004094 -0.003945 0.004834 -0.006864 0.000937
# 2 -0.004094 0.008665 -0.002534 0.000828 0.003148 -0.002154
# 3 -0.003945 -0.002534 0.015488 -0.006739 -0.002273 0.001457
# 4 0.004834 0.000828 -0.006739 0.042762 0.004154 -0.011797
# 5 -0.006864 0.003148 -0.002273 0.004154 0.029871 -0.005857
# 6 0.000937 -0.002154 0.001457 -0.011797 -0.005857 0.022316
#
#
# Mechanical properties :
#
#
# Convention : Reuss Voigt Hill
#
# Bulk Modulus (GPa) = 57.43479 67.23794 62.33637
# Shear Modulus (GPa) = 31.16100 40.17124 35.66612
#
# Velocity S-wave (km/s) = 3.55622 4.03776 3.80461
# Velocity P-wave (km/s) = 6.33815 7.00189 6.67827
#
# Compressibility (1/GPa) = 0.01741105
#
# Stress axis : x y z
#
# Youngs Moduli (GPa) = 69.42164 115.40346 64.56605
#
# Poissons Ratio (x) = 0.47250 0.25471
# Poissons Ratio (y) = 0.28423 0.16362
# Poissons Ratio (z) = 0.27387 0.29245
#
# Static dielectric constant tensor:
#      x y z
#    x 1.963420 -0.001120 -0.017470 
#    y -0.001120 1.899670 -0.014170 
#    z -0.017470 -0.014170 1.989940 
# 
# From -- ./inp_files/308574.got.cif
#   From: 2010.05.17/outbox.cif.g08.bks.cpg/sg2_155_cif.got.tgz:308574.got - 2010.06.03 11:33:40.
