data_PCOD9050393
_publ_section_title
;
Structure prediction by ZEFSAII (Michael W. Deem and Ramdas Pophale) SiO2 
 PCOD9050393
Probable space group: P -1
;
_chemical_formula_sum "Si O2"
_cell_formula_units_Z 14
_cell_length_a 15.890130
_cell_length_b 14.001195
_cell_length_c 5.272948
_cell_angle_alpha 94.620294
_cell_angle_beta 101.339429
_cell_angle_gamma 144.003468
_cell_volume 614.811375
_symmetry_space_group_name_H-M "P -1"
_symmetry_group_IT_number 2
_symmetry_cell_setting 'triclinic'
loop_
_space_group_symop_operation_xyz
x,y,z
-x,-y,-z
loop_
_atom_site_type_symbol
_atom_site_label
_atom_site_fract_x
_atom_site_fract_y
_atom_site_fract_z
Si Si1 0.843518 0.616010 0.830429
Si Si2 0.466680 0.882567 0.762900
Si Si3 0.298660 0.892837 0.442268
Si Si4 0.956960 0.221917 0.509049
Si Si5 0.704399 0.811992 0.220550
Si Si6 0.811190 0.804451 0.791445
Si Si7 0.444913 0.717354 0.099241
O O1 0.942938 0.667352 0.664663
O O2 0.789839 0.671035 0.724480
O O3 0.691167 0.415965 0.801835
O O4 0.946352 0.724205 0.175233
O O5 0.347913 0.828380 0.492299
O O6 0.645154 0.029365 0.792653
O O7 0.391330 0.718214 0.809397
O O8 0.500000 0.000000 0.000000
O O9 0.130567 0.765952 0.428390
O O10 0.420345 0.081216 0.689573
O O11 0.830356 0.018998 0.319971
O O12 0.751963 0.800789 0.501327
O O13 0.530010 0.696098 0.108181
O O14 0.721223 0.762416 0.973037
O O15 0.000000 0.000000 0.000000
#
# Coordination Sequence:
#
# PCOD9050393 Si02
#       7
#     2   2   2   2   2   2   2
#     4  12  26  40  62  93 135 164 205 266 320 358
#     4   9  19  40  68  93 121 158 211 256 309 371
#     4   9  21  40  70  91 120 164 215 252 303 386
#     4  11  23  40  65  94 123 169 214 254 309 377
#     4  11  23  40  67  89 120 171 222 254 297 376
#     4  12  22  40  63  92 124 167 216 261 305 361
#     4  10  25  39  63  94 128 163 205 261 319 367
#
# _framework density 22.771208999999999
#
# number of rings (size 3 to 8) (size 9 to 14) (size 15 to 20)
#    0.000    1.429    2.857    1.286   12.000    1.143 
#    0.000    1.429    0.000    0.000    0.000    0.000 
#    0.000    0.000    0.000    0.000    0.000    0.000 
#
# Total GULP energy -78159.585744 kJ/mol
# GULP energy per Si atom -5582.827553 kJ/mol
# Density = 2.271938 g / cm^3
# Si number density = 22.771209 Si / 1000 Ang^3
#
#
#
# Elastic Constant Matrix: (Units=GPa)
#
#
# Indices 1 2 3 4 5 6 
#
# 1 135.6394 66.4640 24.3029 -31.3020 3.5145 25.9358
# 2 66.4640 119.9259 51.4905 -50.7616 16.4229 15.4256
# 3 24.3029 51.4905 56.4101 -37.3711 -6.8338 14.8620
# 4 -31.3020 -50.7616 -37.3711 40.6070 1.1648 -12.9900
# 5 3.5145 16.4229 -6.8338 1.1648 31.8911 -18.2441
# 6 25.9358 15.4256 14.8620 -12.9900 -18.2441 32.3272
#
#
#
# Elastic Compliance Matrix: (Units=1/GPa)
#
#
# Indices 1 2 3 4 5 6 
#
# 1 0.011854 -0.005172 0.003925 0.003396 -0.003258 -0.009321
# 2 -0.005172 0.028184 -0.011818 0.018043 -0.022446 -0.009283
# 3 0.003925 -0.011818 0.052927 0.037416 0.017328 0.002971
# 4 0.003396 0.018043 0.037416 0.085829 -0.002034 0.004805
# 5 -0.003258 -0.022446 0.017328 -0.002034 0.073336 0.045928
# 6 -0.009321 -0.009283 0.002971 0.004805 0.045928 0.069326
#
#
# Mechanical properties :
#
#
# Convention : Reuss Voigt Hill
#
# Bulk Modulus (GPa) = 14.96221 66.27669 40.61945
# Shear Modulus (GPa) = 13.51846 32.27959 22.89902
#
# Velocity S-wave (km/s) = 2.43917 3.76914 3.17458
# Velocity P-wave (km/s) = 3.81020 6.93617 5.59590
#
# Compressibility (1/GPa) = 0.06683506
#
# Stress axis : x y z
#
# Youngs Moduli (GPa) = 84.35913 35.48111 18.89385
#
# Poissons Ratio (x) = 0.18352 -0.07416
# Poissons Ratio (y) = 0.43634 0.22328
# Poissons Ratio (z) = -0.33112 0.41931
#
# Static dielectric constant tensor:
#      x y z
#    x 1.852180 0.033480 0.014390 
#    y 0.033480 1.891840 -0.070120 
#    z 0.014390 -0.070120 2.111020 
# 
# From -- ./inp_files/35234.got.cif
#   From: 2010.05.17/outbox.cif.g08.bks.cpg/sg2_18_cif.got.tgz:35234.got - 2010.06.03 11:33:40.
