data_PCOD9050221
_publ_section_title
;
Structure prediction by ZEFSAII (Michael W. Deem and Ramdas Pophale) SiO2 
 PCOD9050221
Probable space group: P -1
;
_chemical_formula_sum "Si O2"
_cell_formula_units_Z 14
_cell_length_a 15.901948
_cell_length_b 8.784779
_cell_length_c 5.018907
_cell_angle_alpha 61.422207
_cell_angle_beta 106.246869
_cell_angle_gamma 128.636580
_cell_volume 480.753193
_symmetry_space_group_name_H-M "P -1"
_symmetry_group_IT_number 2
_symmetry_cell_setting 'triclinic'
loop_
_space_group_symop_operation_xyz
x,y,z
-x,-y,-z
loop_
_atom_site_type_symbol
_atom_site_label
_atom_site_fract_x
_atom_site_fract_y
_atom_site_fract_z
Si Si1 0.899374 0.489803 0.546934
Si Si2 0.749009 0.483353 0.035701
Si Si3 0.039930 0.856063 0.712884
Si Si4 0.323991 0.288049 0.452557
Si Si5 0.816215 0.052803 0.743651
Si Si6 0.545172 0.380337 0.281521
Si Si7 0.399526 0.997861 0.798121
O O1 0.852896 0.582362 0.233222
O O2 0.806394 0.238656 0.672193
O O3 0.000000 0.500000 0.500000
O O4 0.942059 0.611110 0.762606
O O5 0.646597 0.422747 0.178149
O O6 0.702305 0.248206 0.084998
O O7 0.762306 0.649652 0.687229
O O8 0.127575 0.896873 0.537894
O O9 0.101446 0.927714 0.985443
O O10 0.000000 0.000000 0.500000
O O11 0.415941 0.512819 0.480699
O O12 0.351173 0.130723 0.743085
O O13 0.289730 0.176815 0.220159
O O14 0.455541 0.130896 0.461887
O O15 0.500000 0.500000 0.000000
O O16 0.500000 0.000000 0.000000
#
# Coordination Sequence:
#
# PCOD9050221 Si02
#       7
#     2   2   2   2   2   2   2
#     4  10  24  49  73 108 151 199 258 316 385 469
#     4  12  25  48  76 110 148 200 257 311 394 459
#     4  11  24  45  75 105 149 195 255 316 393 457
#     4  12  26  46  74 109 154 191 260 313 386 468
#     4  11  25  46  71 109 148 200 248 324 380 469
#     4  12  26  46  77 108 152 199 254 327 382 468
#     4  12  24  49  73 107 153 198 250 316 392 463
#
# _framework density 29.120971000000001
#
# number of rings (size 3 to 8) (size 9 to 14) (size 15 to 20)
#    0.000    0.571    4.286    3.429    4.000    1.143 
#    7.714    0.000    0.000    0.000    0.000    0.000 
#    0.000    0.000    0.000    0.000    0.000    0.000 
#
# Total GULP energy -78149.695699 kJ/mol
# GULP energy per Si atom -5582.121121 kJ/mol
# Density = 2.905469 g / cm^3
# Si number density = 29.120971 Si / 1000 Ang^3
#
#
#
# Elastic Constant Matrix: (Units=GPa)
#
#
# Indices 1 2 3 4 5 6 
#
# 1 137.7450 14.3348 44.2382 6.0822 16.7781 -4.8994
# 2 14.3348 205.3501 27.3347 -2.3927 -1.4437 -13.2296
# 3 44.2382 27.3347 139.5728 5.0324 56.1852 6.7190
# 4 6.0822 -2.3927 5.0324 63.7048 -0.2688 12.6853
# 5 16.7781 -1.4437 56.1852 -0.2688 71.5167 -2.2093
# 6 -4.8994 -13.2296 6.7190 12.6853 -2.2093 41.3015
#
#
#
# Elastic Compliance Matrix: (Units=1/GPa)
#
#
# Indices 1 2 3 4 5 6 
#
# 1 0.008218 -0.000109 -0.002741 -0.000905 0.000271 0.001678
# 2 -0.000109 0.005247 -0.001708 -0.000058 0.001536 0.002045
# 3 -0.002741 -0.001708 0.012180 -0.000147 -0.009062 -0.003293
# 4 -0.000905 -0.000058 -0.000147 0.016842 0.000227 -0.005263
# 5 0.000271 0.001536 -0.009062 0.000227 0.021165 0.003061
# 6 0.001678 0.002045 -0.003293 -0.005263 0.003061 0.027382
#
#
# Mechanical properties :
#
#
# Convention : Reuss Voigt Hill
#
# Bulk Modulus (GPa) = 60.49958 72.72038 66.60998
# Shear Modulus (GPa) = 47.32202 61.75527 54.53865
#
# Velocity S-wave (km/s) = 4.03552 4.61004 4.33232
# Velocity P-wave (km/s) = 6.52183 7.30498 6.92448
#
# Compressibility (1/GPa) = 0.01652904
#
# Stress axis : x y z
#
# Youngs Moduli (GPa) = 121.68429 190.60107 82.10339
#
# Poissons Ratio (x) = 0.02084 0.22502
# Poissons Ratio (y) = 0.01331 0.14019
# Poissons Ratio (z) = 0.33350 0.32546
#
# Static dielectric constant tensor:
#      x y z
#    x 2.452940 0.160270 -0.151040 
#    y 0.160270 2.373600 -0.144640 
#    z -0.151040 -0.144640 2.406320 
# 
# From -- ./inp_files/106407.got.cif
#   From: 2010.05.17/outbox.cif.g08.bks.cpg/sg2_54_cif.got.tgz:106407.got - 2010.06.03 11:33:40.
