data_PCOD9050918
_publ_section_title
;
Structure prediction by ZEFSAII (Michael W. Deem and Ramdas Pophale) SiO2 
 PCOD9050918
Probable space group: P -1
;
_chemical_formula_sum "Si O2"
_cell_formula_units_Z 16
_cell_length_a 9.471556
_cell_length_b 8.523648
_cell_length_c 14.165523
_cell_angle_alpha 64.566965
_cell_angle_beta 55.054514
_cell_angle_gamma 44.804570
_cell_volume 660.063348
_symmetry_space_group_name_H-M "P -1"
_symmetry_group_IT_number 2
_symmetry_cell_setting 'triclinic'
loop_
_space_group_symop_operation_xyz
x,y,z
-x,-y,-z
loop_
_atom_site_type_symbol
_atom_site_label
_atom_site_fract_x
_atom_site_fract_y
_atom_site_fract_z
Si Si1 0.281204 0.517247 0.577316
Si Si2 0.556926 0.294126 0.269544
Si Si3 0.502756 0.794307 0.038751
Si Si4 0.828885 0.888018 0.601850
Si Si5 0.964564 0.066163 0.885333
Si Si6 0.238282 0.265318 0.499991
Si Si7 0.529735 0.654971 0.271948
Si Si8 0.243310 0.442445 0.185086
O O1 0.500000 0.500000 0.500000
O O2 0.279150 0.339355 0.563975
O O3 0.261614 0.475329 0.705352
O O4 0.082692 0.766322 0.557306
O O5 0.461188 0.180104 0.380485
O O6 0.455228 0.504366 0.321819
O O7 0.447655 0.383207 0.185761
O O8 0.817778 0.133213 0.201687
O O9 0.259276 0.880403 0.080710
O O10 0.577668 0.678349 0.141280
O O11 0.668723 0.640758 0.931700
O O12 0.500000 0.000000 0.000000
O O13 0.795067 0.899281 0.497942
O O14 0.813436 0.702867 0.704138
O O15 0.651731 0.111057 0.669077
O O16 0.935820 0.290825 0.818499
O O17 0.000000 0.000000 0.000000
O O18 0.000000 0.500000 0.500000
#
# Coordination Sequence:
#
# PCOD9050918 Si02
#       8
#     2   2   2   2   2   2   2   2
#     4  11  24  45  69 102 141 180 236 291 346 421
#     4  11  23  43  73 103 139 183 239 283 349 423
#     4  12  25  45  68 104 149 184 225 292 356 414
#     4  10  25  44  72 102 138 188 229 286 359 412
#     4  12  25  43  75 101 136 192 238 285 350 420
#     4   9  21  47  70  97 141 182 232 288 348 413
#     4  12  25  42  71 103 143 179 231 287 351 418
#     4  11  23  47  69  99 149 183 234 286 347 427
#
# _framework density 24.240096000000001
#
# number of rings (size 3 to 8) (size 9 to 14) (size 15 to 20)
#    0.000    1.000    5.000    1.125    1.750    4.000 
#    0.000    4.375    0.000    0.000    0.000    0.000 
#    0.000    0.000    0.000    0.000    0.000    0.000 
#
# Total GULP energy -89351.711080 kJ/mol
# GULP energy per Si atom -5584.481942 kJ/mol
# Density = 2.418492 g / cm^3
# Si number density = 24.240096 Si / 1000 Ang^3
#
#
#
# Elastic Constant Matrix: (Units=GPa)
#
#
# Indices 1 2 3 4 5 6 
#
# 1 112.7344 28.1625 41.2520 -2.2877 30.2521 2.3701
# 2 28.1625 113.5785 12.0417 14.6967 6.1291 11.3819
# 3 41.2520 12.0417 94.7917 8.0446 30.9078 -6.2606
# 4 -2.2877 14.6967 8.0446 47.1984 0.7570 7.3498
# 5 30.2521 6.1291 30.9078 0.7570 61.8117 0.5431
# 6 2.3701 11.3819 -6.2606 7.3498 0.5431 41.3675
#
#
#
# Elastic Compliance Matrix: (Units=1/GPa)
#
#
# Indices 1 2 3 4 5 6 
#
# 1 0.012007 -0.002558 -0.003959 0.002258 -0.003662 -0.000936
# 2 -0.002558 0.010024 -0.000188 -0.002888 0.000406 -0.002132
# 3 -0.003959 -0.000188 0.014472 -0.002993 -0.005270 0.003070
# 4 0.002258 -0.002888 -0.002993 0.023312 0.000427 -0.003935
# 5 -0.003662 0.000406 -0.005270 0.000427 0.020569 -0.001045
# 6 -0.000936 -0.002132 0.003070 -0.003935 -0.001045 0.025991
#
#
# Mechanical properties :
#
#
# Convention : Reuss Voigt Hill
#
# Bulk Modulus (GPa) = 43.30796 53.77966 48.54381
# Shear Modulus (GPa) = 39.22068 46.05208 42.63638
#
# Velocity S-wave (km/s) = 4.02681 4.36343 4.19850
# Velocity P-wave (km/s) = 6.28692 6.90076 6.60098
#
# Compressibility (1/GPa) = 0.02309044
#
# Stress axis : x y z
#
# Youngs Moduli (GPa) = 83.28794 99.75916 69.10072
#
# Poissons Ratio (x) = 0.25519 0.27360
# Poissons Ratio (y) = 0.21305 0.01302
# Poissons Ratio (z) = 0.32978 0.01880
#
# Static dielectric constant tensor:
#      x y z
#    x 1.790660 -0.172190 0.387390 
#    y -0.172190 1.831230 0.287900 
#    z 0.387390 0.287900 1.140250 
# 
# From -- ./inp_files/352002.got.cif
#   From: 2010.05.17/outbox.cif.g08.bks.cpg/sg2_177_cif.got.tgz:352002.got - 2010.06.03 11:33:40.
