data_PCOD9050282
_publ_section_title
;
Structure prediction by ZEFSAII (Michael W. Deem and Ramdas Pophale) SiO2 
 PCOD9050282
Probable space group: P -1
;
_chemical_formula_sum "Si O2"
_cell_formula_units_Z 10
_cell_length_a 16.779164
_cell_length_b 9.896352
_cell_length_c 4.956697
_cell_angle_alpha 122.627711
_cell_angle_beta 131.586808
_cell_angle_gamma 38.120727
_cell_volume 379.775766
_symmetry_space_group_name_H-M "P -1"
_symmetry_group_IT_number 2
_symmetry_cell_setting 'triclinic'
loop_
_space_group_symop_operation_xyz
x,y,z
-x,-y,-z
loop_
_atom_site_type_symbol
_atom_site_label
_atom_site_fract_x
_atom_site_fract_y
_atom_site_fract_z
Si Si1 0.182055 0.522662 0.209190
Si Si2 0.192489 0.806022 0.181204
Si Si3 0.361770 0.044082 0.130699
Si Si4 0.557557 0.563307 0.969516
Si Si5 0.880219 0.907458 0.162053
O O1 0.148954 0.677390 0.057235
O O2 0.251348 0.284496 0.008844
O O3 0.032552 0.663219 0.191996
O O4 0.307618 0.479305 0.624313
O O5 0.361470 0.605924 0.276951
O O6 0.148962 0.979913 0.494879
O O7 0.128022 0.939145 0.903758
O O8 0.500000 0.000000 0.500000
O O9 0.259296 0.066261 0.151116
O O10 0.440079 0.819616 0.907479
O O11 0.500000 0.500000 0.000000
#
# Coordination Sequence:
#
# PCOD9050282 Si02
#       5
#     2   2   2   2   2
#     4  11  25  44  75 106 146 183 238 293 353 417
#     4  12  25  46  77 106 140 186 241 289 349 421
#     4  10  24  50  70 106 145 188 234 293 358 415
#     4  11  23  46  73 105 143 190 235 289 350 424
#     4  12  26  48  75 105 141 190 237 290 351 422
#
# _framework density 26.331326000000001
#
# number of rings (size 3 to 8) (size 9 to 14) (size 15 to 20)
#    0.000    0.800    4.000    1.800    2.800    4.000 
#    7.200    2.000    0.000    0.000    0.000    0.000 
#    0.000    0.000    0.000    0.000    0.000    0.000 
#
# Total GULP energy -55998.508143 kJ/mol
# GULP energy per Si atom -5599.850814 kJ/mol
# Density = 2.627139 g / cm^3
# Si number density = 26.331326 Si / 1000 Ang^3
#
#
#
# Elastic Constant Matrix: (Units=GPa)
#
#
# Indices 1 2 3 4 5 6 
#
# 1 146.6953 77.4335 53.8226 0.2927 23.0110 -40.4953
# 2 77.4335 241.6199 58.1173 9.9668 26.4945 -37.4159
# 3 53.8226 58.1173 73.8292 7.4872 -7.7337 -8.2273
# 4 0.2927 9.9668 7.4872 44.2440 -5.5379 4.9809
# 5 23.0110 26.4945 -7.7337 -5.5379 40.6152 -4.2699
# 6 -40.4953 -37.4159 -8.2273 4.9809 -4.2699 60.4514
#
#
#
# Elastic Compliance Matrix: (Units=1/GPa)
#
#
# Indices 1 2 3 4 5 6 
#
# 1 0.014153 0.000239 -0.010617 -0.000384 -0.009455 0.007548
# 2 0.000239 0.006475 -0.005304 -0.001580 -0.005248 0.003206
# 3 -0.010617 -0.005304 0.026342 -0.000820 0.013772 -0.005769
# 4 -0.000384 -0.001580 -0.000820 0.023946 0.004039 -0.003035
# 5 -0.009455 -0.005248 0.013772 0.004039 0.035997 -0.005498
# 6 0.007548 0.003206 -0.005769 -0.003035 -0.005498 0.022659
#
#
# Mechanical properties :
#
#
# Convention : Reuss Voigt Hill
#
# Bulk Modulus (GPa) = 64.06760 93.43235 78.74998
# Shear Modulus (GPa) = 30.09550 47.24686 38.67118
#
# Velocity S-wave (km/s) = 3.38443 4.24054 3.83644
# Velocity P-wave (km/s) = 6.29735 7.71600 7.04249
#
# Compressibility (1/GPa) = 0.01560851
#
# Stress axis : x y z
#
# Youngs Moduli (GPa) = 70.65395 154.44768 37.96162
#
# Poissons Ratio (x) = -0.03697 0.40304
# Poissons Ratio (y) = -0.01691 0.20133
# Poissons Ratio (z) = 0.75013 0.81911
#
# Static dielectric constant tensor:
#      x y z
#    x 2.043880 -0.014340 0.093980 
#    y -0.014340 2.054030 -0.020200 
#    z 0.093980 -0.020200 2.215380 
# 
# From -- ./inp_files/19772.got.cif
#   From: 2010.05.17/outbox.cif.g08.bks.cpg/sg2_10_cif.got.tgz:19772.got - 2010.06.03 11:33:40.
