data_PCOD9050837
_publ_section_title
;
Structure prediction by ZEFSAII (Michael W. Deem and Ramdas Pophale) SiO2 
 PCOD9050837
Probable space group: P -1
;
_chemical_formula_sum "Si O2"
_cell_formula_units_Z 14
_cell_length_a 7.836839
_cell_length_b 10.340975
_cell_length_c 11.253856
_cell_angle_alpha 52.225268
_cell_angle_beta 57.480172
_cell_angle_gamma 85.660568
_cell_volume 562.114529
_symmetry_space_group_name_H-M "P -1"
_symmetry_group_IT_number 2
_symmetry_cell_setting 'triclinic'
loop_
_space_group_symop_operation_xyz
x,y,z
-x,-y,-z
loop_
_atom_site_type_symbol
_atom_site_label
_atom_site_fract_x
_atom_site_fract_y
_atom_site_fract_z
Si Si1 0.299677 0.983914 0.669750
Si Si2 0.943358 0.359308 0.396586
Si Si3 0.509172 0.359321 0.470297
Si Si4 0.905319 0.840494 0.717523
Si Si5 0.039641 0.764038 0.087865
Si Si6 0.267868 0.833585 0.190741
Si Si7 0.379774 0.312880 0.879860
O O1 0.321112 0.173232 0.611024
O O2 0.500000 0.000000 0.500000
O O3 0.093244 0.894458 0.714092
O O4 0.244541 0.845205 0.876707
O O5 0.700426 0.293401 0.469970
O O6 0.106809 0.325711 0.262987
O O7 0.901867 0.237388 0.597008
O O8 0.002056 0.568171 0.260665
O O9 0.500000 0.500000 0.500000
O O10 0.577617 0.480035 0.259222
O O11 0.000000 0.000000 0.500000
O O12 0.694826 0.786619 0.910990
O O13 0.128786 0.868001 0.116871
O O14 0.820987 0.758816 0.102970
O O15 0.380789 0.688006 0.234300
O O16 0.500000 0.000000 0.000000
#
# Coordination Sequence:
#
# PCOD9050837 Si02
#       7
#     2   2   2   2   2   2   2
#     4  11  24  43  73 102 136 191 238 286 360 426
#     4  11  23  45  70 101 147 185 230 297 364 416
#     4  11  22  44  72 104 140 181 239 293 354 427
#     4  11  25  46  67 104 144 182 236 298 352 428
#     4  10  26  43  68 103 140 182 240 294 355 422
#     4  12  24  44  71 100 143 189 236 295 357 424
#     4  10  25  44  69 102 137 184 234 292 360 419
#
# _framework density 24.905954999999999
#
# number of rings (size 3 to 8) (size 9 to 14) (size 15 to 20)
#    0.000    1.143    2.857    2.143    4.000    3.429 
#   12.857    1.429    0.000    0.000    0.000    0.000 
#    0.000    0.000    0.000    0.000    0.000    0.000 
#
# Total GULP energy -77974.206110 kJ/mol
# GULP energy per Si atom -5569.586151 kJ/mol
# Density = 2.484927 g / cm^3
# Si number density = 24.905955 Si / 1000 Ang^3
#
#
#
# Elastic Constant Matrix: (Units=GPa)
#
#
# Indices 1 2 3 4 5 6 
#
# 1 67.4299 5.1118 21.5083 18.3271 2.4616 0.2581
# 2 5.1118 77.8319 39.4611 14.1103 -8.7906 0.8293
# 3 21.5083 39.4611 186.1691 12.9860 17.0127 12.8536
# 4 18.3271 14.1103 12.9860 41.5927 -1.8034 -6.6090
# 5 2.4616 -8.7906 17.0127 -1.8034 45.2248 2.7688
# 6 0.2581 0.8293 12.8536 -6.6090 2.7688 19.0174
#
#
#
# Elastic Compliance Matrix: (Units=1/GPa)
#
#
# Indices 1 2 3 4 5 6 
#
# 1 0.017393 0.001028 -0.001511 -0.007865 -0.000374 -0.001939
# 2 0.001028 0.015882 -0.003505 -0.004654 0.004199 -0.000566
# 3 -0.001511 -0.003505 0.006953 -0.001160 -0.002986 -0.004494
# 4 -0.007865 -0.004654 -0.001160 0.031365 0.000480 0.011924
# 5 -0.000374 0.004199 -0.002986 0.000480 0.024183 -0.001514
# 6 -0.001939 -0.000566 -0.004494 0.011924 -0.001514 0.060036
#
#
# Mechanical properties :
#
#
# Convention : Reuss Voigt Hill
#
# Bulk Modulus (GPa) = 31.00559 51.51035 41.25797
# Shear Modulus (GPa) = 28.64700 38.85698 33.75199
#
# Velocity S-wave (km/s) = 3.39515 3.95416 3.68527
# Velocity P-wave (km/s) = 5.27688 6.44779 5.89150
#
# Compressibility (1/GPa) = 0.03225224
#
# Stress axis : x y z
#
# Youngs Moduli (GPa) = 57.49460 62.96500 143.82335
#
# Poissons Ratio (x) = -0.06473 0.21727
# Poissons Ratio (y) = -0.05910 0.50411
# Poissons Ratio (z) = 0.08686 0.22070
#
# Static dielectric constant tensor:
#      x y z
#    x 1.888460 -0.196940 -0.011200 
#    y -0.196940 1.791870 -0.031560 
#    z -0.011200 -0.031560 2.083910 
# 
# From -- ./inp_files/392027.got.cif
#   From: 2010.05.17/outbox.cif.g08.bks.cpg/sg2_197_cif.got.tgz:392027.got - 2010.06.03 11:33:40.
