data_PCOD9050381
_publ_section_title
;
Structure prediction by ZEFSAII (Michael W. Deem and Ramdas Pophale) SiO2 
 PCOD9050381
Probable space group: P -1
;
_chemical_formula_sum "Si O2"
_cell_formula_units_Z 12
_cell_length_a 8.700731
_cell_length_b 6.870920
_cell_length_c 16.701841
_cell_angle_alpha 116.069032
_cell_angle_beta 43.715265
_cell_angle_gamma 124.808607
_cell_volume 565.912994
_symmetry_space_group_name_H-M "P -1"
_symmetry_group_IT_number 2
_symmetry_cell_setting 'triclinic'
loop_
_space_group_symop_operation_xyz
x,y,z
-x,-y,-z
loop_
_atom_site_type_symbol
_atom_site_label
_atom_site_fract_x
_atom_site_fract_y
_atom_site_fract_z
Si Si1 0.155953 0.287460 0.653041
Si Si2 0.285517 0.502777 0.473656
Si Si3 0.427112 0.304351 0.090051
Si Si4 0.030970 0.460689 0.108516
Si Si5 0.090339 0.265165 0.338682
Si Si6 0.784351 0.140406 0.010476
O O1 0.176897 0.324683 0.556704
O O2 0.428578 0.357694 0.594907
O O3 0.060417 0.470563 0.763255
O O4 0.992351 0.016531 0.687615
O O5 0.145677 0.675831 0.558334
O O6 0.233243 0.365016 0.384914
O O7 0.262948 0.392927 0.221696
O O8 0.263557 0.113322 0.052900
O O9 0.682402 0.482508 0.988800
O O10 0.534105 0.169533 0.089939
O O11 0.021739 0.659788 0.084207
O O12 0.871795 0.212373 0.080829
#
# Coordination Sequence:
#
# PCOD9050381 Si02
#       6
#     2   2   2   2   2   2
#     4  11  20  39  56  77 111 141 177 224 260 314
#     4  10  25  35  54  82 105 145 185 213 262 313
#     4   9  15  27  50  77  99 130 171 211 262 311
#     4   9  16  27  51  78  99 132 173 211 263 313
#     4  11  20  38  57  78 109 141 178 222 263 317
#     4   8  14  25  44  83  95 128 175 199 262 318
#
# _framework density 21.204673
#
# number of rings (size 3 to 8) (size 9 to 14) (size 15 to 20)
#    1.000    1.333    1.667    2.000    0.000    0.000 
#    0.000    0.833    0.000    1.000    0.000    0.000 
#    0.000    0.000    0.000    0.000    0.000    0.000 
#
# Total GULP energy -66929.580827 kJ/mol
# GULP energy per Si atom -5577.465069 kJ/mol
# Density = 2.115641 g / cm^3
# Si number density = 21.204673 Si / 1000 Ang^3
#
#
#
# Elastic Constant Matrix: (Units=GPa)
#
#
# Indices 1 2 3 4 5 6 
#
# 1 31.5120 17.6824 -18.9008 48.7645 -26.5567 8.3283
# 2 17.6824 61.3875 16.7359 22.6823 -3.6889 19.9325
# 3 -18.9008 16.7359 67.5482 52.4377 -29.1140 13.3395
# 4 48.7645 22.6823 52.4377 -0.9800 35.9481 18.1708
# 5 -26.5567 -3.6889 -29.1140 35.9481 -23.5332 -4.9402
# 6 8.3283 19.9325 13.3395 18.1708 -4.9402 22.4302
#
#
#
# Elastic Compliance Matrix: (Units=1/GPa)
#
#
# Indices 1 2 3 4 5 6 
#
# 1 0.019563 -0.004238 -0.000344 -0.000102 -0.019564 -0.007520
# 2 -0.004238 0.024565 -0.001080 -0.003691 0.000113 -0.016599
# 3 -0.000344 -0.001080 0.011500 0.000379 -0.011297 -0.008547
# 4 -0.000102 -0.003691 0.000379 0.020944 0.033578 -0.006479
# 5 -0.019564 0.000113 -0.011297 0.033578 0.045526 -0.003293
# 6 -0.007520 -0.016599 -0.008547 -0.006479 -0.003293 0.071732
#
#
# Mechanical properties :
#
#
# Convention : Reuss Voigt Hill
#
# Bulk Modulus (GPa) = 22.57035 21.27585 21.92310
# Shear Modulus (GPa) = 22.73532 9.24541 15.99037
#
# Velocity S-wave (km/s) = 3.27798 2.09035 2.74906
# Velocity P-wave (km/s) = 4.99940 3.98515 4.52081
#
# Compressibility (1/GPa) = 0.04430591
#
# Stress axis : x y z
#
# Youngs Moduli (GPa) = 51.11659 40.70764 86.95496
#
# Poissons Ratio (x) = 0.17250 0.02992
# Poissons Ratio (y) = 0.21661 0.09389
# Poissons Ratio (z) = 0.01759 0.04395
#
# Static dielectric constant tensor:
#      x y z
#    x 1.803640 -0.048330 0.007560 
#    y -0.048330 1.765600 0.008540 
#    z 0.007560 0.008540 1.773030 
# 
# From -- ./inp_files/526417.got.cif
#   From: 2010.05.17/outbox.cif.g08.bks.cpg/sg2_264_cif.got.tgz:526417.got - 2010.06.03 11:33:40.
