data_PCOD9050600
_publ_section_title
;
Structure prediction by ZEFSAII (Michael W. Deem and Ramdas Pophale) SiO2 
 PCOD9050600
Probable space group: P -1
;
_chemical_formula_sum "Si O2"
_cell_formula_units_Z 12
_cell_length_a 12.771173
_cell_length_b 9.455439
_cell_length_c 4.915795
_cell_angle_alpha 111.816727
_cell_angle_beta 66.892585
_cell_angle_gamma 109.623837
_cell_volume 494.179815
_symmetry_space_group_name_H-M "P -1"
_symmetry_group_IT_number 2
_symmetry_cell_setting 'triclinic'
loop_
_space_group_symop_operation_xyz
x,y,z
-x,-y,-z
loop_
_atom_site_type_symbol
_atom_site_label
_atom_site_fract_x
_atom_site_fract_y
_atom_site_fract_z
Si Si1 0.476603 0.747879 0.215825
Si Si2 0.846101 0.729554 0.382546
Si Si3 0.364616 0.943815 0.873308
Si Si4 0.982365 0.672217 0.701859
Si Si5 0.796436 0.055249 0.469457
Si Si6 0.386387 0.458934 0.777327
O O1 0.419999 0.812540 0.580240
O O2 0.581368 0.668141 0.142686
O O3 0.535970 0.897793 0.085257
O O4 0.384928 0.613804 0.059894
O O5 0.877985 0.706308 0.644175
O O6 0.727193 0.612148 0.329409
O O7 0.835606 0.904237 0.442009
O O8 0.948356 0.690640 0.061796
O O9 0.276162 0.981942 0.760383
O O10 0.290654 0.900213 0.187166
O O11 0.000000 0.500000 0.500000
O O12 0.095215 0.803623 0.600537
O O13 0.500000 0.500000 0.500000
#
# Coordination Sequence:
#
# PCOD9050600 Si02
#       6
#     2   2   2   2   2   2
#     4  10  25  43  66 111 145 188 233 292 349 430
#     4  12  26  49  75 105 147 189 239 295 361 431
#     4  11  25  44  75 105 146 185 241 289 353 423
#     4  12  29  49  74 108 142 184 246 305 363 419
#     4  12  25  48  76 105 140 195 240 294 359 428
#     4  11  25  42  73 103 148 190 235 282 366 425
#
# _framework density 24.28266
#
# number of rings (size 3 to 8) (size 9 to 14) (size 15 to 20)
#    0.000    0.667    1.667    4.500    9.333    1.333 
#    0.000    0.000    0.000    0.000    0.000    0.000 
#    0.000    0.000    0.000    0.000    0.000    0.000 
#
# Total GULP energy -67364.469246 kJ/mol
# GULP energy per Si atom -5613.705770 kJ/mol
# Density = 2.422739 g / cm^3
# Si number density = 24.282660 Si / 1000 Ang^3
#
#
#
# Elastic Constant Matrix: (Units=GPa)
#
#
# Indices 1 2 3 4 5 6 
#
# 1 73.6665 42.3764 -13.0658 -0.9614 0.4214 3.3541
# 2 42.3764 141.9714 32.6368 25.3225 -9.4001 20.1450
# 3 -13.0658 32.6368 94.5232 -3.9236 -14.1438 14.8334
# 4 -0.9614 25.3225 -3.9236 44.4241 -5.5923 -8.3837
# 5 0.4214 -9.4001 -14.1438 -5.5923 37.9664 -5.4438
# 6 3.3541 20.1450 14.8334 -8.3837 -5.4438 52.8384
#
#
#
# Elastic Compliance Matrix: (Units=1/GPa)
#
#
# Indices 1 2 3 4 5 6 
#
# 1 0.019383 -0.008314 0.005725 0.006046 0.000949 0.001389
# 2 -0.008314 0.012939 -0.005400 -0.008941 -0.000660 -0.004376
# 3 0.005725 -0.005400 0.014275 0.004821 0.004472 -0.001086
# 4 0.006046 -0.008941 0.004821 0.030099 0.004946 0.006957
# 5 0.000949 -0.000660 0.004472 0.004946 0.028947 0.002703
# 6 0.001389 -0.004376 -0.001086 0.006957 0.002703 0.022193
#
#
# Mechanical properties :
#
#
# Convention : Reuss Voigt Hill
#
# Bulk Modulus (GPa) = 32.66045 48.22843 40.44444
# Shear Modulus (GPa) = 32.46312 43.59336 38.02824
#
# Velocity S-wave (km/s) = 3.66031 4.24163 3.96165
# Velocity P-wave (km/s) = 5.59849 6.62518 6.13336
#
# Compressibility (1/GPa) = 0.03061807
#
# Stress axis : x y z
#
# Youngs Moduli (GPa) = 51.59125 77.28730 70.05265
#
# Poissons Ratio (x) = 0.64260 -0.40105
# Poissons Ratio (y) = 0.42895 0.37828
# Poissons Ratio (z) = -0.29536 0.41735
#
# Static dielectric constant tensor:
#      x y z
#    x 1.964680 -0.044360 0.010270 
#    y -0.044360 1.907260 -0.001460 
#    z 0.010270 -0.001460 1.887570 
# 
# From -- ./inp_files/28582.got.cif
#   From: 2010.05.17/outbox.cif.g08.bks.cpg/sg2_15_cif.got.tgz:28582.got - 2010.06.03 11:33:40.
