data_PCOD9050296
_publ_section_title
;
Structure prediction by ZEFSAII (Michael W. Deem and Ramdas Pophale) SiO2 
 PCOD9050296
Probable space group: P -1
;
_chemical_formula_sum "Si O2"
_cell_formula_units_Z 10
_cell_length_a 10.987848
_cell_length_b 5.323480
_cell_length_c 13.048720
_cell_angle_alpha 57.637752
_cell_angle_beta 145.638116
_cell_angle_gamma 118.147513
_cell_volume 363.174046
_symmetry_space_group_name_H-M "P -1"
_symmetry_group_IT_number 2
_symmetry_cell_setting 'triclinic'
loop_
_space_group_symop_operation_xyz
x,y,z
-x,-y,-z
loop_
_atom_site_type_symbol
_atom_site_label
_atom_site_fract_x
_atom_site_fract_y
_atom_site_fract_z
Si Si1 0.986748 0.911746 0.345620
Si Si2 0.964936 0.543369 0.086112
Si Si3 0.320739 0.294833 0.979668
Si Si4 0.630692 0.301776 0.556426
Si Si5 0.339982 0.138064 0.682978
O O1 0.741551 0.624681 0.966017
O O2 0.209061 0.910364 0.562640
O O3 0.847665 0.233311 0.783557
O O4 0.896039 0.692048 0.242100
O O5 0.009241 0.227580 0.236589
O O6 0.000000 0.500000 0.000000
O O7 0.420968 0.973560 0.117514
O O8 0.794387 0.896965 0.298288
O O9 0.500000 0.500000 0.000000
O O10 0.666122 0.528973 0.436494
O O11 0.500000 0.000000 0.500000
O O12 0.500000 0.500000 0.500000
#
# Coordination Sequence:
#
# PCOD9050296 Si02
#       5
#     2   2   2   2   2
#     4  10  24  50  73 120 159 211 277 336 420 495
#     4  11  28  52  76 117 172 215 278 349 415 503
#     4  12  26  47  83 123 160 215 277 343 420 495
#     4  11  29  54  81 121 166 227 278 341 428 499
#     4  10  24  50  82 114 166 209 277 343 414 497
#
# _framework density 27.535008000000001
#
# number of rings (size 3 to 8) (size 9 to 14) (size 15 to 20)
#    0.000    1.200    2.000    0.600    8.400    4.800 
#    0.000    2.000    0.000    0.000    0.000    0.000 
#    0.000    0.000    0.000    0.000    0.000    0.000 
#
# Total GULP energy -56120.036170 kJ/mol
# GULP energy per Si atom -5612.003617 kJ/mol
# Density = 2.747234 g / cm^3
# Si number density = 27.535008 Si / 1000 Ang^3
#
#
#
# Elastic Constant Matrix: (Units=GPa)
#
#
# Indices 1 2 3 4 5 6 
#
# 1 184.7626 46.9424 72.5557 4.6811 -38.6945 9.9807
# 2 46.9424 162.8536 73.1799 8.7912 -25.0587 7.7346
# 3 72.5557 73.1799 163.1741 8.1567 -26.6648 11.9893
# 4 4.6811 8.7912 8.1567 65.1032 8.8460 -5.9156
# 5 -38.6945 -25.0587 -26.6648 8.8460 61.2896 -5.1652
# 6 9.9807 7.7346 11.9893 -5.9156 -5.1652 30.5737
#
#
#
# Elastic Compliance Matrix: (Units=1/GPa)
#
#
# Indices 1 2 3 4 5 6 
#
# 1 0.007224 -0.000415 -0.002372 -0.000707 0.003387 -0.000888
# 2 -0.000415 0.007964 -0.003006 -0.000964 0.001776 -0.000587
# 3 -0.002372 -0.003006 0.008897 -0.000864 0.001106 -0.001935
# 4 -0.000707 -0.000964 -0.000864 0.016409 -0.003296 0.003432
# 5 0.003387 0.001776 0.001106 -0.003296 0.020203 0.000787
# 6 -0.000888 -0.000587 -0.001935 0.003432 0.000787 0.034702
#
#
# Mechanical properties :
#
#
# Convention : Reuss Voigt Hill
#
# Bulk Modulus (GPa) = 80.00016 99.57184 89.78600
# Shear Modulus (GPa) = 44.98334 52.60078 48.79206
#
# Velocity S-wave (km/s) = 4.04626 4.37547 4.21408
# Velocity P-wave (km/s) = 7.13770 7.85918 7.50711
#
# Compressibility (1/GPa) = 0.01249997
#
# Stress axis : x y z
#
# Youngs Moduli (GPa) = 138.41804 125.56702 112.39393
#
# Poissons Ratio (x) = 0.05211 0.26663
# Poissons Ratio (y) = 0.05745 0.33780
# Poissons Ratio (z) = 0.32837 0.37740
#
# Static dielectric constant tensor:
#      x y z
#    x 2.168320 0.023700 -0.019150 
#    y 0.023700 2.206620 0.039730 
#    z -0.019150 0.039730 2.152800 
# 
# From -- ./inp_files/459737.got.cif
#   From: 2010.05.17/outbox.cif.g08.bks.cpg/sg2_230_cif.got.tgz:459737.got - 2010.06.03 11:33:40.
