data_PCOD9050392
_publ_section_title
;
Structure prediction by ZEFSAII (Michael W. Deem and Ramdas Pophale) SiO2 
 PCOD9050392
Probable space group: P -1
;
_chemical_formula_sum "Si O2"
_cell_formula_units_Z 14
_cell_length_a 12.722499
_cell_length_b 7.824821
_cell_length_c 14.803153
_cell_angle_alpha 34.915974
_cell_angle_beta 46.464096
_cell_angle_gamma 55.645662
_cell_volume 611.483592
_symmetry_space_group_name_H-M "P -1"
_symmetry_group_IT_number 2
_symmetry_cell_setting 'triclinic'
loop_
_space_group_symop_operation_xyz
x,y,z
-x,-y,-z
loop_
_atom_site_type_symbol
_atom_site_label
_atom_site_fract_x
_atom_site_fract_y
_atom_site_fract_z
Si Si1 0.914501 0.678947 0.132372
Si Si2 0.655453 0.457158 0.274953
Si Si3 0.305135 0.175699 0.459945
Si Si4 0.825108 0.735928 0.879798
Si Si5 0.061336 0.177919 0.745128
Si Si6 0.954945 0.844241 0.498229
Si Si7 0.590403 0.193336 0.792360
O O1 0.784675 0.477431 0.261839
O O2 0.876931 0.801072 0.198978
O O3 0.072750 0.521152 0.112253
O O4 0.933191 0.941150 0.935108
O O5 0.521100 0.682699 0.269678
O O6 0.595706 0.118897 0.465866
O O7 0.734719 0.574066 0.083814
O O8 0.187871 0.090113 0.642553
O O9 0.213497 0.177490 0.420248
O O10 0.358722 0.504329 0.315708
O O11 0.714898 0.955494 0.795540
O O12 0.954796 0.979621 0.709312
O O13 0.009454 0.507369 0.610518
O O14 0.000000 0.000000 0.500000
O O15 0.500000 0.000000 0.000000
#
# Coordination Sequence:
#
# PCOD9050392 Si02
#       7
#     2   2   2   2   2   2   2
#     4  11  22  39  64  95 126 159 203 262 306 363
#     4  11  22  41  63  89 126 168 208 248 306 372
#     4  12  22  39  66  90 124 170 203 253 312 366
#     4  11  20  39  62  92 125 162 200 261 309 359
#     4  11  23  36  63 100 125 155 207 258 315 366
#     4  12  23  37  64  99 126 153 206 264 310 364
#     4  10  25  39  62  91 126 167 211 250 306 368
#
# _framework density 22.895133999999999
#
# number of rings (size 3 to 8) (size 9 to 14) (size 15 to 20)
#    0.000    0.857    5.714    2.143    4.000    0.000 
#    0.000    0.714    3.143    5.143    0.000    0.000 
#    0.000    0.000    0.000    0.000    0.000    0.000 
#
# Total GULP energy -77970.932098 kJ/mol
# GULP energy per Si atom -5569.352293 kJ/mol
# Density = 2.284302 g / cm^3
# Si number density = 22.895134 Si / 1000 Ang^3
#
#
#
# Elastic Constant Matrix: (Units=GPa)
#
#
# Indices 1 2 3 4 5 6 
#
# 1 81.2392 42.5936 9.7884 -3.1553 -2.1802 -9.4702
# 2 42.5936 71.6046 -7.0645 -18.9166 10.3697 -20.8431
# 3 9.7884 -7.0645 105.4491 -31.2336 3.3622 8.0314
# 4 -3.1553 -18.9166 -31.2336 41.0369 -6.7320 10.6025
# 5 -2.1802 10.3697 3.3622 -6.7320 30.8707 -3.7377
# 6 -9.4702 -20.8431 8.0314 10.6025 -3.7377 33.6377
#
#
#
# Elastic Compliance Matrix: (Units=1/GPa)
#
#
# Indices 1 2 3 4 5 6 
#
# 1 0.021830 -0.016877 -0.006515 -0.010412 0.005792 0.001169
# 2 -0.016877 0.032645 0.008513 0.016987 -0.008515 0.007143
# 3 -0.006515 0.008513 0.016209 0.016967 -0.002113 -0.006012
# 4 -0.010412 0.016987 0.016967 0.047341 0.000666 -0.011304
# 5 0.005792 -0.008515 -0.002113 0.000666 0.036118 0.000662
# 6 0.001169 0.007143 -0.006012 -0.011304 0.000662 0.039556
#
#
# Mechanical properties :
#
#
# Convention : Reuss Voigt Hill
#
# Bulk Modulus (GPa) = 24.43472 38.76976 31.60224
# Shear Modulus (GPa) = 21.08808 35.30743 28.19776
#
# Velocity S-wave (km/s) = 3.03821 3.93127 3.51323
# Velocity P-wave (km/s) = 4.79617 6.13000 5.50364
#
# Compressibility (1/GPa) = 0.04092537
#
# Stress axis : x y z
#
# Youngs Moduli (GPa) = 45.80773 30.63254 61.69417
#
# Poissons Ratio (x) = 0.51700 0.40192
# Poissons Ratio (y) = 0.77312 -0.52518
# Poissons Ratio (z) = 0.29842 -0.26076
#
# Static dielectric constant tensor:
#      x y z
#    x 1.903990 -0.017480 0.000800 
#    y -0.017480 1.918920 -0.028980 
#    z 0.000800 -0.028980 1.905460 
# 
# From -- ./inp_files/196976.got.cif
#   From: 2010.05.17/outbox.cif.g08.bks.cpg/sg2_99_cif.got.tgz:196976.got - 2010.06.03 11:33:40.
