data_PCOD9050912
_publ_section_title
;
Structure prediction by ZEFSAII (Michael W. Deem and Ramdas Pophale) SiO2 
 PCOD9050912
Probable space group: P -1
;
_chemical_formula_sum "Si O2"
_cell_formula_units_Z 16
_cell_length_a 11.824828
_cell_length_b 16.772476
_cell_length_c 8.858679
_cell_angle_alpha 145.975093
_cell_angle_beta 130.059132
_cell_angle_gamma 62.702990
_cell_volume 740.891257
_symmetry_space_group_name_H-M "P -1"
_symmetry_group_IT_number 2
_symmetry_cell_setting 'triclinic'
loop_
_space_group_symop_operation_xyz
x,y,z
-x,-y,-z
loop_
_atom_site_type_symbol
_atom_site_label
_atom_site_fract_x
_atom_site_fract_y
_atom_site_fract_z
Si Si1 0.913710 0.299755 0.231039
Si Si2 0.967277 0.849864 0.647112
Si Si3 0.175948 0.708309 0.400837
Si Si4 0.553898 0.351010 0.280877
Si Si5 0.070104 0.378436 0.176683
Si Si6 0.740486 0.828340 0.146709
Si Si7 0.369594 0.907758 0.647333
Si Si8 0.415313 0.850104 0.266459
O O1 0.034741 0.271439 0.415318
O O2 0.870058 0.457982 0.463963
O O3 0.979577 0.300889 0.121096
O O4 0.766676 0.178923 0.944050
O O5 0.103000 0.827094 0.616483
O O6 0.823841 0.834597 0.390120
O O7 0.000000 0.000000 0.000000
O O8 0.278466 0.638391 0.494606
O O9 0.284520 0.779988 0.474899
O O10 0.039433 0.612041 0.045024
O O11 0.500000 0.500000 0.500000
O O12 0.435391 0.231856 0.079505
O O13 0.542963 0.285948 0.001118
O O14 0.187661 0.281010 0.068099
O O15 0.747804 0.987394 0.334905
O O16 0.441634 0.855953 0.476306
O O17 0.500000 0.000000 0.000000
O O18 0.500000 0.000000 0.500000
#
# Coordination Sequence:
#
# PCOD9050912 Si02
#       8
#     2   2   2   2   2   2   2   2
#     4  11  23  46  69 100 141 182 233 285 353 420
#     4  11  26  40  67 101 134 177 234 287 350 409
#     4  11  24  44  71  97 138 187 227 292 352 410
#     4  12  26  45  70 103 143 184 238 287 352 425
#     4  10  25  44  71  99 139 188 229 288 353 419
#     4  11  25  42  65 101 136 181 234 286 347 418
#     4  12  24  44  68  99 140 179 234 289 353 412
#     4  12  23  45  73 101 138 186 233 290 349 415
#
# _framework density 21.595611999999999
#
# number of rings (size 3 to 8) (size 9 to 14) (size 15 to 20)
#    0.000    0.750    5.000    1.500    3.500    2.000 
#    0.000    0.625    0.000    0.000    0.000    0.000 
#    0.000    0.000    0.000    0.000    0.000    0.000 
#
# Total GULP energy -89419.341185 kJ/mol
# GULP energy per Si atom -5588.708824 kJ/mol
# Density = 2.154646 g / cm^3
# Si number density = 21.595612 Si / 1000 Ang^3
#
#
#
# Elastic Constant Matrix: (Units=GPa)
#
#
# Indices 1 2 3 4 5 6 
#
# 1 106.1130 17.3959 45.9058 -7.3621 -23.5259 4.5421
# 2 17.3959 81.8441 22.1988 -9.6024 -15.2217 -3.5604
# 3 45.9058 22.1988 89.7743 -6.3500 -30.9034 -2.0033
# 4 -7.3621 -9.6024 -6.3500 36.7040 -1.8638 -4.0613
# 5 -23.5259 -15.2217 -30.9034 -1.8638 52.8721 -0.1857
# 6 4.5421 -3.5604 -2.0033 -4.0613 -0.1857 35.5398
#
#
#
# Elastic Compliance Matrix: (Units=1/GPa)
#
#
# Indices 1 2 3 4 5 6 
#
# 1 0.012551 -0.000705 -0.005415 0.001310 0.002257 -0.001818
# 2 -0.000705 0.013864 -0.001839 0.003504 0.002733 0.001790
# 3 -0.005415 -0.001839 0.016963 0.001916 0.007050 0.001720
# 4 0.001310 0.003504 0.001916 0.029352 0.003759 0.003666
# 5 0.002257 0.002733 0.007050 0.003759 0.024961 0.000943
# 6 -0.001818 0.001790 0.001720 0.003666 0.000943 0.029070
#
#
# Mechanical properties :
#
#
# Convention : Reuss Voigt Hill
#
# Bulk Modulus (GPa) = 36.41576 49.85916 43.13746
# Shear Modulus (GPa) = 32.93095 37.83859 35.38477
#
# Velocity S-wave (km/s) = 3.90922 4.19040 4.05225
# Velocity P-wave (km/s) = 6.10534 6.82278 6.47401
#
# Compressibility (1/GPa) = 0.02746064
#
# Stress axis : x y z
#
# Youngs Moduli (GPa) = 79.67524 72.12774 58.95085
#
# Poissons Ratio (x) = 0.05083 0.31920
# Poissons Ratio (y) = 0.05615 0.10843
# Poissons Ratio (z) = 0.43142 0.13267
#
# Static dielectric constant tensor:
#      x y z
#    x 1.798690 0.016270 0.016570 
#    y 0.016270 1.780370 -0.000370 
#    z 0.016570 -0.000370 1.826260 
# 
# From -- ./inp_files/207348.got.cif
#   From: 2010.05.17/outbox.cif.g08.bks.cpg/sg2_104_cif.got.tgz:207348.got - 2010.06.03 11:33:40.
