data_PCOD9050558
_publ_section_title
;
Structure prediction by ZEFSAII (Michael W. Deem and Ramdas Pophale) SiO2 
 PCOD9050558
Probable space group: P -1
;
_chemical_formula_sum "Si O2"
_cell_formula_units_Z 12
_cell_length_a 8.961823
_cell_length_b 15.434108
_cell_length_c 9.258986
_cell_angle_alpha 139.447731
_cell_angle_beta 48.308282
_cell_angle_gamma 149.815725
_cell_volume 418.493266
_symmetry_space_group_name_H-M "P -1"
_symmetry_group_IT_number 2
_symmetry_cell_setting 'triclinic'
loop_
_space_group_symop_operation_xyz
x,y,z
-x,-y,-z
loop_
_atom_site_type_symbol
_atom_site_label
_atom_site_fract_x
_atom_site_fract_y
_atom_site_fract_z
Si Si1 0.359563 0.193303 0.997958
Si Si2 0.783346 0.701947 0.155640
Si Si3 0.102814 0.318482 0.390193
Si Si4 0.936946 0.067602 0.461222
Si Si5 0.933486 0.487353 0.859013
Si Si6 0.435417 0.972791 0.839100
O O1 0.471901 0.142447 0.976479
O O2 0.083375 0.102441 0.765145
O O3 0.382018 0.361483 0.231306
O O4 0.000000 0.000000 0.000000
O O5 0.423517 0.725039 0.175143
O O6 0.787552 0.767602 0.398339
O O7 0.500000 0.500000 0.000000
O O8 0.960242 0.651865 0.001981
O O9 0.959069 0.171080 0.436004
O O10 0.119930 0.477755 0.631839
O O11 0.891632 0.220451 0.260932
O O12 0.654731 0.982062 0.624028
O O13 0.000000 0.500000 0.000000
O O14 0.500000 0.000000 0.000000
#
# Coordination Sequence:
#
# PCOD9050558 Si02
#       6
#     2   2   2   2   2   2
#     4  10  25  42  75 111 150 199 260 312 391 467
#     4  11  26  41  75 113 152 195 265 318 383 464
#     4  11  24  47  79 109 153 210 256 316 398 472
#     4  11  24  48  77 109 153 212 255 317 405 461
#     4  12  24  49  74 113 154 205 260 326 386 467
#     4  11  24  41  73 113 149 197 262 318 380 467
#
# _framework density 28.674294
#
# number of rings (size 3 to 8) (size 9 to 14) (size 15 to 20)
#    0.000    1.000    3.333    1.500   11.667    2.000 
#    0.000    1.667    0.000    6.000    0.000    0.000 
#    0.000    0.000    0.000    0.000    0.000    0.000 
#
# Total GULP energy -67130.128962 kJ/mol
# GULP energy per Si atom -5594.177413 kJ/mol
# Density = 2.860903 g / cm^3
# Si number density = 28.674294 Si / 1000 Ang^3
#
#
#
# Elastic Constant Matrix: (Units=GPa)
#
#
# Indices 1 2 3 4 5 6 
#
# 1 227.4470 42.6452 80.0993 20.1474 -9.5963 -1.9401
# 2 42.6452 117.2496 35.0233 16.4821 -6.7736 -13.2246
# 3 80.0993 35.0233 213.1619 23.1471 -19.2201 2.3100
# 4 20.1474 16.4821 23.1471 63.4485 -5.5050 -8.1066
# 5 -9.5963 -6.7736 -19.2201 -5.5050 78.8949 3.9041
# 6 -1.9401 -13.2246 2.3100 -8.1066 3.9041 46.8871
#
#
#
# Elastic Compliance Matrix: (Units=1/GPa)
#
#
# Indices 1 2 3 4 5 6 
#
# 1 0.005309 -0.001343 -0.001684 -0.000743 0.000079 -0.000211
# 2 -0.001343 0.009798 -0.000957 -0.001433 0.000222 0.002489
# 3 -0.001684 -0.000957 0.005732 -0.001336 0.001063 -0.000941
# 4 -0.000743 -0.001433 -0.001336 0.017231 0.000537 0.002565
# 5 0.000079 0.000222 0.001063 0.000537 0.013049 -0.000980
# 6 -0.000211 0.002489 -0.000941 0.002565 -0.000980 0.022593
#
#
# Mechanical properties :
#
#
# Convention : Reuss Voigt Hill
#
# Bulk Modulus (GPa) = 77.68851 97.04380 87.36615
# Shear Modulus (GPa) = 58.16066 64.51880 61.33973
#
# Velocity S-wave (km/s) = 4.50857 4.74862 4.63015
# Velocity P-wave (km/s) = 7.36582 7.99893 7.68889
#
# Compressibility (1/GPa) = 0.01287192
#
# Stress axis : x y z
#
# Youngs Moduli (GPa) = 188.36610 102.06318 174.44508
#
# Poissons Ratio (x) = 0.13703 0.29381
# Poissons Ratio (y) = 0.25291 0.16690
# Poissons Ratio (z) = 0.31725 0.09765
#
# Static dielectric constant tensor:
#      x y z
#    x 2.234650 0.136430 0.078640 
#    y 0.136430 2.508950 0.127410 
#    z 0.078640 0.127410 2.318300 
# 
# From -- ./inp_files/222544.got.cif
#   From: 2010.05.17/outbox.cif.g08.bks.cpg/sg2_112_cif.got.tgz:222544.got - 2010.06.03 11:33:40.
