data_PCOD9050793
_publ_section_title
;
Structure prediction by ZEFSAII (Michael W. Deem and Ramdas Pophale) SiO2 
 PCOD9050793
Probable space group: P -1
;
_chemical_formula_sum "Si O2"
_cell_formula_units_Z 14
_cell_length_a 6.788442
_cell_length_b 20.192178
_cell_length_c 7.266288
_cell_angle_alpha 44.416040
_cell_angle_beta 56.816922
_cell_angle_gamma 72.844762
_cell_volume 575.515014
_symmetry_space_group_name_H-M "P -1"
_symmetry_group_IT_number 2
_symmetry_cell_setting 'triclinic'
loop_
_space_group_symop_operation_xyz
x,y,z
-x,-y,-z
loop_
_atom_site_type_symbol
_atom_site_label
_atom_site_fract_x
_atom_site_fract_y
_atom_site_fract_z
Si Si1 0.937800 0.947666 0.831059
Si Si2 0.765403 0.362116 0.422512
Si Si3 0.641976 0.800128 0.074742
Si Si4 0.732058 0.070733 0.973801
Si Si5 0.001647 0.255941 0.261351
Si Si6 0.399989 0.484059 0.287817
Si Si7 0.882194 0.348982 0.797152
O O1 0.746300 0.991231 0.968537
O O2 0.841353 0.837334 0.048813
O O3 0.000000 0.000000 0.500000
O O4 0.161002 0.958384 0.832318
O O5 0.555674 0.286193 0.588758
O O6 0.982955 0.353670 0.189423
O O7 0.628761 0.452431 0.336006
O O8 0.839503 0.325063 0.653544
O O9 0.513476 0.892378 0.935659
O O10 0.747883 0.764457 0.904521
O O11 0.901258 0.164714 0.617157
O O12 0.854440 0.266171 0.128352
O O13 0.304173 0.579532 0.207391
O O14 0.155886 0.404962 0.572259
O O15 0.500000 0.500000 0.000000
#
# Coordination Sequence:
#
# PCOD9050793 Si02
#       7
#     2   2   2   2   2   2   2
#     4  11  23  47  70  98 136 172 223 277 323 399
#     4  11  25  43  66  98 134 178 221 271 341 386
#     4  11  24  43  66  98 134 175 219 269 335 391
#     4  10  25  44  67  98 135 175 220 273 335 388
#     4  11  23  44  63 100 134 172 225 270 323 402
#     4  11  23  45  69 100 132 175 227 274 332 393
#     4  11  25  44  68  96 139 172 223 280 323 401
#
# _framework density 24.326035999999998
#
# number of rings (size 3 to 8) (size 9 to 14) (size 15 to 20)
#    0.000    1.143    4.286    0.857    4.000    2.286 
#    7.714    0.000    0.000    0.000    0.000    0.000 
#    0.000    0.000    0.000    0.000    0.000    0.000 
#
# Total GULP energy -78179.993469 kJ/mol
# GULP energy per Si atom -5584.285248 kJ/mol
# Density = 2.427067 g / cm^3
# Si number density = 24.326036 Si / 1000 Ang^3
#
#
#
# Elastic Constant Matrix: (Units=GPa)
#
#
# Indices 1 2 3 4 5 6 
#
# 1 73.6395 50.8706 39.4890 21.4727 21.7648 -19.6461
# 2 50.8706 123.7922 25.3308 34.6431 -4.9115 -26.8711
# 3 39.4890 25.3308 113.9818 23.0485 21.1701 -0.0134
# 4 21.4727 34.6431 23.0485 45.8887 0.7994 -11.4766
# 5 21.7648 -4.9115 21.1701 0.7994 50.8479 0.8120
# 6 -19.6461 -26.8711 -0.0134 -11.4766 0.8120 48.9932
#
#
#
# Elastic Compliance Matrix: (Units=1/GPa)
#
#
# Indices 1 2 3 4 5 6 
#
# 1 0.027960 -0.008977 -0.005311 -0.001950 -0.010689 0.006007
# 2 -0.008977 0.014205 0.000215 -0.006049 0.005177 0.002688
# 3 -0.005311 0.000215 0.011923 -0.004369 -0.002553 -0.002990
# 4 -0.001950 -0.006049 -0.004369 0.030174 0.001548 0.002942
# 5 -0.010689 0.005177 -0.002553 0.001548 0.025805 -0.001512
# 6 0.006007 0.002688 -0.002990 0.002942 -0.001512 0.025008
#
#
# Mechanical properties :
#
#
# Convention : Reuss Voigt Hill
#
# Bulk Modulus (GPa) = 38.54955 60.31049 49.43002
# Shear Modulus (GPa) = 29.09213 42.19415 35.64314
#
# Velocity S-wave (km/s) = 3.46197 4.16928 3.83198
# Velocity P-wave (km/s) = 5.64462 6.92991 6.32002
#
# Compressibility (1/GPa) = 0.02594064
#
# Stress axis : x y z
#
# Youngs Moduli (GPa) = 35.76562 70.39831 83.87193
#
# Poissons Ratio (x) = 0.63200 0.44548
# Poissons Ratio (y) = 0.32108 -0.01806
# Poissons Ratio (z) = 0.18996 -0.01516
#
# Static dielectric constant tensor:
#      x y z
#    x 1.982650 -0.055920 -0.022780 
#    y -0.055920 2.012510 -0.012520 
#    z -0.022780 -0.012520 1.930760 
# 
# From -- ./inp_files/10168.got.cif
#   From: 2010.05.17/outbox.cif.g08.bks.cpg/sg2_6_cif.got.tgz:10168.got - 2010.06.03 11:33:40.
