data_PCOD9050537
_publ_section_title
;
Structure prediction by ZEFSAII (Michael W. Deem and Ramdas Pophale) SiO2 
 PCOD9050537
Probable space group: P -1
;
_chemical_formula_sum "Si O2"
_cell_formula_units_Z 14
_cell_length_a 9.737751
_cell_length_b 13.016313
_cell_length_c 11.500837
_cell_angle_alpha 146.847415
_cell_angle_beta 116.874304
_cell_angle_gamma 84.924210
_cell_volume 571.812202
_symmetry_space_group_name_H-M "P -1"
_symmetry_group_IT_number 2
_symmetry_cell_setting 'triclinic'
loop_
_space_group_symop_operation_xyz
x,y,z
-x,-y,-z
loop_
_atom_site_type_symbol
_atom_site_label
_atom_site_fract_x
_atom_site_fract_y
_atom_site_fract_z
Si Si1 0.642131 0.772832 0.660063
Si Si2 0.126443 0.364080 0.919094
Si Si3 0.117857 0.733133 0.686694
Si Si4 0.056112 0.559575 0.876046
Si Si5 0.423312 0.983846 0.326775
Si Si6 0.712218 0.913019 0.250446
Si Si7 0.448905 0.691488 0.746248
O O1 0.484661 0.681832 0.615722
O O2 0.659784 0.559877 0.467687
O O3 0.564665 0.816149 0.554266
O O4 0.830912 0.026916 0.012696
O O5 0.177573 0.550164 0.016541
O O6 0.261003 0.282656 0.887516
O O7 0.910654 0.148749 0.590997
O O8 0.098047 0.433606 0.101591
O O9 0.324863 0.785798 0.803649
O O10 0.000000 0.500000 0.500000
O O11 0.023563 0.649307 0.443559
O O12 0.196086 0.790117 0.073457
O O13 0.535131 0.902014 0.222406
O O14 0.500000 0.000000 0.500000
O O15 0.656970 0.861518 0.045619
#
# Coordination Sequence:
#
# PCOD9050537 Si02
#       7
#     2   2   2   2   2   2   2
#     4  11  26  46  70 105 138 186 240 292 342 425
#     4  10  25  42  71 102 139 183 238 291 347 423
#     4  12  24  46  69 104 146 183 233 293 356 415
#     4  11  24  44  69 102 140 188 230 291 356 417
#     4  12  25  46  70 100 144 187 228 290 359 418
#     4  11  23  46  69 104 138 183 240 291 349 417
#     4  11  26  44  76 103 135 190 241 287 349 421
#
# _framework density 24.483563
#
# number of rings (size 3 to 8) (size 9 to 14) (size 15 to 20)
#    0.000    0.857    4.286    1.286    8.000    1.143 
#    2.571    0.000    0.000    0.000    0.000    0.000 
#    0.000    0.000    0.000    0.000    0.000    0.000 
#
# Total GULP energy -78231.623013 kJ/mol
# GULP energy per Si atom -5587.973072 kJ/mol
# Density = 2.442784 g / cm^3
# Si number density = 24.483563 Si / 1000 Ang^3
#
#
#
# Elastic Constant Matrix: (Units=GPa)
#
#
# Indices 1 2 3 4 5 6 
#
# 1 48.5219 32.4923 -4.4016 15.9062 -5.0112 -8.7238
# 2 32.4923 151.3666 43.2872 7.4539 -0.9722 8.4388
# 3 -4.4016 43.2872 110.4912 5.0702 -2.6556 12.7849
# 4 15.9062 7.4539 5.0702 59.2178 -0.7481 -4.4527
# 5 -5.0112 -0.9722 -2.6556 -0.7481 26.0229 5.4391
# 6 -8.7238 8.4388 12.7849 -4.4527 5.4391 28.6362
#
#
#
# Elastic Compliance Matrix: (Units=1/GPa)
#
#
# Indices 1 2 3 4 5 6 
#
# 1 0.030097 -0.007590 0.003661 -0.006794 0.004029 0.007949
# 2 -0.007590 0.009415 -0.003689 0.000923 -0.000803 -0.003144
# 3 0.003661 -0.003689 0.011184 -0.001710 0.002393 -0.003511
# 4 -0.006794 0.000923 -0.001710 0.018846 -0.001238 0.001588
# 5 0.004029 -0.000803 0.002393 -0.001238 0.040966 -0.007578
# 6 0.007949 -0.003144 -0.003511 0.001588 -0.007578 0.041523
#
#
# Mechanical properties :
#
#
# Convention : Reuss Voigt Hill
#
# Bulk Modulus (GPa) = 28.20075 50.34839 39.27457
# Shear Modulus (GPa) = 27.91955 38.70884 33.31419
#
# Velocity S-wave (km/s) = 3.38055 3.98051 3.69274
# Velocity P-wave (km/s) = 5.17501 6.46024 5.85301
#
# Compressibility (1/GPa) = 0.03546005
#
# Stress axis : x y z
#
# Youngs Moduli (GPa) = 33.22644 106.20865 89.41472
#
# Poissons Ratio (x) = 0.80616 -0.32738
# Poissons Ratio (y) = 0.25220 0.32984
# Poissons Ratio (z) = -0.12165 0.39179
#
# Static dielectric constant tensor:
#      x y z
#    x 1.949950 0.088410 -0.036650 
#    y 0.088410 1.981610 -0.026040 
#    z -0.036650 -0.026040 2.091920 
# 
# From -- ./inp_files/427031.got.cif
#   From: 2010.05.17/outbox.cif.g08.bks.cpg/sg2_214_cif.got.tgz:427031.got - 2010.06.03 11:33:40.
