data_PCOD9050936
_publ_section_title
;
Structure prediction by ZEFSAII (Michael W. Deem and Ramdas Pophale) SiO2 
 PCOD9050936
Probable space group: P -1
;
_chemical_formula_sum "Si O2"
_cell_formula_units_Z 14
_cell_length_a 11.805521
_cell_length_b 14.340586
_cell_length_c 12.254828
_cell_angle_alpha 153.164439
_cell_angle_beta 37.846811
_cell_angle_gamma 129.168086
_cell_volume 554.322598
_symmetry_space_group_name_H-M "P -1"
_symmetry_group_IT_number 2
_symmetry_cell_setting 'triclinic'
loop_
_space_group_symop_operation_xyz
x,y,z
-x,-y,-z
loop_
_atom_site_type_symbol
_atom_site_label
_atom_site_fract_x
_atom_site_fract_y
_atom_site_fract_z
Si Si1 0.219988 0.491038 0.297912
Si Si2 0.063345 0.532120 0.864339
Si Si3 0.949722 0.111320 0.272111
Si Si4 0.629837 0.335798 0.144922
Si Si5 0.242271 0.205979 0.796747
Si Si6 0.525299 0.321190 0.541052
Si Si7 0.313471 0.112267 0.124017
O O1 0.210532 0.672083 0.402803
O O2 0.327139 0.564260 0.393791
O O3 0.000000 0.500000 0.500000
O O4 0.299561 0.274485 0.944778
O O5 0.169119 0.719964 0.006011
O O6 0.200352 0.295845 0.484774
O O7 0.000000 0.500000 0.000000
O O8 0.919591 0.617310 0.963169
O O9 0.151817 0.152054 0.195064
O O10 0.863190 0.978213 0.286993
O O11 0.000000 0.000000 0.000000
O O12 0.500000 0.500000 0.500000
O O13 0.628150 0.483805 0.194588
O O14 0.519650 0.163187 0.015197
O O15 0.427548 0.192545 0.566531
O O16 0.627099 0.146000 0.190746
#
# Coordination Sequence:
#
# PCOD9050936 Si02
#       7
#     2   2   2   2   2   2   2
#     4  12  24  45  76 102 145 190 232 292 360 430
#     4  11  24  50  71 100 144 190 236 290 359 419
#     4  12  24  44  73 108 140 189 237 283 365 431
#     4  10  25  44  72  99 141 187 239 293 351 412
#     4  12  27  45  71 107 148 183 234 301 356 423
#     4  12  26  45  71 113 136 184 244 292 360 418
#     4  11  25  44  74  99 140 183 241 288 346 425
#
# _framework density 25.256052
#
# number of rings (size 3 to 8) (size 9 to 14) (size 15 to 20)
#    0.000    0.571    5.714    1.286    6.000    5.143 
#    0.000    1.429    0.000    0.000    0.000    0.000 
#    0.000    0.000    0.000    0.000    0.000    0.000 
#
# Total GULP energy -78074.275458 kJ/mol
# GULP energy per Si atom -5576.733961 kJ/mol
# Density = 2.519857 g / cm^3
# Si number density = 25.256052 Si / 1000 Ang^3
#
#
#
# Elastic Constant Matrix: (Units=GPa)
#
#
# Indices 1 2 3 4 5 6 
#
# 1 137.7763 51.8696 27.8265 18.7800 26.4482 46.2708
# 2 51.8696 116.4421 21.8605 -19.8518 23.3558 3.4747
# 3 27.8265 21.8605 53.4468 6.2129 23.5122 11.2307
# 4 18.7800 -19.8518 6.2129 31.8123 -0.9078 1.8609
# 5 26.4482 23.3558 23.5122 -0.9078 37.8771 11.1409
# 6 46.2708 3.4747 11.2307 1.8609 11.1409 48.3902
#
#
#
# Elastic Compliance Matrix: (Units=1/GPa)
#
#
# Indices 1 2 3 4 5 6 
#
# 1 0.020059 -0.011076 0.001276 -0.018091 -0.003339 -0.017217
# 2 -0.011076 0.017667 -0.004336 0.017716 -0.003091 0.010359
# 3 0.001276 -0.004336 0.028195 -0.009174 -0.014857 -0.003679
# 4 -0.018091 0.017716 -0.009174 0.054200 0.004264 0.015089
# 5 -0.003339 -0.003091 -0.014857 0.004264 0.040752 -0.002684
# 6 -0.017217 0.010359 -0.003679 0.015089 -0.002684 0.037276
#
#
# Mechanical properties :
#
#
# Convention : Reuss Voigt Hill
#
# Bulk Modulus (GPa) = 26.56088 56.75316 41.65702
# Shear Modulus (GPa) = 20.92314 37.35649 29.13981
#
# Velocity S-wave (km/s) = 2.88139 3.85009 3.40041
# Velocity P-wave (km/s) = 4.64858 6.50263 5.65215
#
# Compressibility (1/GPa) = 0.03764935
#
# Stress axis : x y z
#
# Youngs Moduli (GPa) = 49.85240 56.60334 35.46775
#
# Poissons Ratio (x) = 0.62693 -0.04526
# Poissons Ratio (y) = 0.55215 0.15378
# Poissons Ratio (z) = -0.06361 0.24542
#
# Static dielectric constant tensor:
#      x y z
#    x 2.011590 0.032020 -0.000300 
#    y 0.032020 2.115370 0.018810 
#    z -0.000300 0.018810 2.046080 
# 
# From -- ./inp_files/433412.got.cif
#   From: 2010.05.17/outbox.cif.g08.bks.cpg/sg2_217_cif.got.tgz:433412.got - 2010.06.03 11:33:40.
