data_PCOD9050996
_publ_section_title
;
Structure prediction by ZEFSAII (Michael W. Deem and Ramdas Pophale) SiO2 
 PCOD9050996
Probable space group: P -1
;
_chemical_formula_sum "Si O2"
_cell_formula_units_Z 16
_cell_length_a 9.490925
_cell_length_b 9.744643
_cell_length_c 15.839576
_cell_angle_alpha 70.101539
_cell_angle_beta 144.193452
_cell_angle_gamma 108.517308
_cell_volume 803.587701
_symmetry_space_group_name_H-M "P -1"
_symmetry_group_IT_number 2
_symmetry_cell_setting 'triclinic'
loop_
_space_group_symop_operation_xyz
x,y,z
-x,-y,-z
loop_
_atom_site_type_symbol
_atom_site_label
_atom_site_fract_x
_atom_site_fract_y
_atom_site_fract_z
Si Si1 0.275580 0.339975 0.138079
Si Si2 0.194227 0.639062 0.662769
Si Si3 0.389931 0.745513 0.393747
Si Si4 0.776640 0.967214 0.148631
Si Si5 0.888622 0.989563 0.855442
Si Si6 0.037403 0.244846 0.308301
Si Si7 0.854300 0.482807 0.806368
Si Si8 0.025980 0.693139 0.383011
O O1 0.516608 0.352800 0.197576
O O2 0.224621 0.174594 0.179804
O O3 0.295994 0.449178 0.205264
O O4 0.046640 0.383410 0.963545
O O5 0.120741 0.700666 0.523140
O O6 0.081508 0.724092 0.666495
O O7 0.090049 0.470669 0.653077
O O8 0.674524 0.757680 0.543130
O O9 0.307700 0.611186 0.319756
O O10 0.242430 0.723772 0.414298
O O11 0.305142 0.892559 0.279201
O O12 0.831614 0.811598 0.247417
O O13 0.896980 0.972998 0.113880
O O14 0.919282 0.095349 0.244237
O O15 0.500000 0.000000 0.000000
O O16 0.000000 0.000000 0.000000
O O17 0.004077 0.381314 0.201034
#
# Coordination Sequence:
#
# PCOD9050996 Si02
#       8
#     2   2   2   2   2   2   2   2
#     4  11  25  42  69  98 135 171 220 267 326 394
#     4  11  26  42  68  97 134 169 219 275 326 384
#     4  11  24  44  70  94 134 173 223 267 319 400
#     4  11  28  46  67  96 136 172 218 272 327 393
#     4  11  24  45  68  97 130 177 216 269 330 381
#     4  12  26  43  68  99 129 179 218 267 331 384
#     4  11  23  43  67  99 131 174 220 266 321 390
#     4  10  25  45  65  98 132 176 213 273 332 374
#
# _framework density 19.910706999999999
#
# number of rings (size 3 to 8) (size 9 to 14) (size 15 to 20)
#    0.000    1.000    3.750    1.125    8.750    3.000 
#    0.000    0.000    0.000    0.000    0.000    0.000 
#    0.000    0.000    0.000    0.000    0.000    0.000 
#
# Total GULP energy -89539.277185 kJ/mol
# GULP energy per Si atom -5596.204824 kJ/mol
# Density = 1.986539 g / cm^3
# Si number density = 19.910707 Si / 1000 Ang^3
#
#
#
# Elastic Constant Matrix: (Units=GPa)
#
#
# Indices 1 2 3 4 5 6 
#
# 1 94.7282 36.2094 47.3551 -8.7173 3.5198 -6.2728
# 2 36.2094 77.7787 55.9413 -20.5083 -9.5740 -9.6277
# 3 47.3551 55.9413 80.8324 -7.1975 1.1698 -3.7251
# 4 -8.7173 -20.5083 -7.1975 26.7035 0.1452 -5.4939
# 5 3.5198 -9.5740 1.1698 0.1452 37.6249 1.5837
# 6 -6.2728 -9.6277 -3.7251 -5.4939 1.5837 24.3019
#
#
#
# Elastic Compliance Matrix: (Units=1/GPa)
#
#
# Indices 1 2 3 4 5 6 
#
# 1 0.015441 0.000528 -0.008878 0.003838 -0.001208 0.003780
# 2 0.000528 0.044305 -0.027483 0.030786 0.011131 0.019710
# 3 -0.008878 -0.027483 0.034662 -0.016943 -0.006701 -0.011260
# 4 0.003838 0.030786 -0.016943 0.062748 0.006735 0.024336
# 5 -0.001208 0.011131 -0.006701 0.006735 0.029594 0.002665
# 6 0.003780 0.019710 -0.011260 0.024336 0.002665 0.053536
#
#
# Mechanical properties :
#
#
# Convention : Reuss Voigt Hill
#
# Bulk Modulus (GPa) = 43.97103 59.15009 51.56056
# Shear Modulus (GPa) = 15.64786 25.31495 20.48141
#
# Velocity S-wave (km/s) = 2.80644 3.56957 3.21076
# Velocity P-wave (km/s) = 5.71257 6.83822 6.30059
#
# Compressibility (1/GPa) = 0.02274225
#
# Stress axis : x y z
#
# Youngs Moduli (GPa) = 64.76128 22.57073 28.85007
#
# Poissons Ratio (x) = -0.01192 0.25614
# Poissons Ratio (y) = -0.03420 0.79288
# Poissons Ratio (z) = 0.57497 0.62031
#
# Static dielectric constant tensor:
#      x y z
#    x 1.672520 -0.007770 -0.014250 
#    y -0.007770 1.690020 -0.009840 
#    z -0.014250 -0.009840 1.687050 
# 
# From -- ./inp_files/205524.got.cif
#   From: 2010.05.17/outbox.cif.g08.bks.cpg/sg2_103_cif.got.tgz:205524.got - 2010.06.03 11:33:40.
