data_PCOD9050350
_publ_section_title
;
Structure prediction by ZEFSAII (Michael W. Deem and Ramdas Pophale) SiO2 
 PCOD9050350
Probable space group: P -1
;
_chemical_formula_sum "Si O2"
_cell_formula_units_Z 14
_cell_length_a 10.465010
_cell_length_b 11.499148
_cell_length_c 5.291293
_cell_angle_alpha 101.039257
_cell_angle_beta 92.147460
_cell_angle_gamma 127.920170
_cell_volume 483.015547
_symmetry_space_group_name_H-M "P -1"
_symmetry_group_IT_number 2
_symmetry_cell_setting 'triclinic'
loop_
_space_group_symop_operation_xyz
x,y,z
-x,-y,-z
loop_
_atom_site_type_symbol
_atom_site_label
_atom_site_fract_x
_atom_site_fract_y
_atom_site_fract_z
Si Si1 0.845776 0.944876 0.786071
Si Si2 0.834098 0.349178 0.309649
Si Si3 0.037267 0.721502 0.094308
Si Si4 0.292523 0.523916 0.328912
Si Si5 0.777723 0.685372 0.368288
Si Si6 0.401321 0.982791 0.729746
Si Si7 0.423138 0.263976 0.946258
O O1 0.862295 0.856133 0.534852
O O2 0.863372 0.096931 0.826023
O O3 0.660262 0.808087 0.817481
O O4 0.000000 0.000000 0.000000
O O5 0.702174 0.361549 0.428164
O O6 0.000000 0.500000 0.500000
O O7 0.772661 0.187451 0.344329
O O8 0.853032 0.328539 0.001650
O O9 0.914917 0.669115 0.297961
O O10 0.892509 0.622306 0.832239
O O11 0.334876 0.441145 0.483146
O O12 0.398876 0.612644 0.122879
O O13 0.673108 0.675380 0.125891
O O14 0.375036 0.107267 0.761977
O O15 0.500000 0.000000 0.500000
O O16 0.500000 0.000000 0.000000
#
# Coordination Sequence:
#
# PCOD9050350 Si02
#       7
#     2   2   2   2   2   2   2
#     4  12  24  46  69 109 148 201 263 322 397 471
#     4  10  24  51  78 113 158 211 266 332 409 477
#     4  11  24  46  72 105 152 200 261 325 391 473
#     4  11  25  48  71 113 156 199 262 317 403 475
#     4  12  26  43  76 108 154 205 264 321 399 472
#     4  12  28  54  81 118 164 213 273 341 411 493
#     4  12  27  45  79 107 156 199 263 324 404 478
#
# _framework density 28.984573000000001
#
# number of rings (size 3 to 8) (size 9 to 14) (size 15 to 20)
#    0.000    0.571    5.714    0.857    2.000    5.143 
#    5.143    0.000    0.000    0.000    0.000    0.000 
#    0.000    0.000    0.000    0.000    0.000    0.000 
#
# Total GULP energy -78300.870957 kJ/mol
# GULP energy per Si atom -5592.919354 kJ/mol
# Density = 2.891860 g / cm^3
# Si number density = 28.984573 Si / 1000 Ang^3
#
#
#
# Elastic Constant Matrix: (Units=GPa)
#
#
# Indices 1 2 3 4 5 6 
#
# 1 133.0447 49.1961 52.3119 8.5701 -17.9357 6.4414
# 2 49.1961 224.1625 44.0171 13.7899 -1.2252 9.1186
# 3 52.3119 44.0171 141.1245 7.7903 -43.2433 -0.0024
# 4 8.5701 13.7899 7.7903 53.6314 -15.8252 -16.2210
# 5 -17.9357 -1.2252 -43.2433 -15.8252 50.0454 -0.3928
# 6 6.4414 9.1186 -0.0024 -16.2210 -0.3928 56.6387
#
#
#
# Elastic Compliance Matrix: (Units=1/GPa)
#
#
# Indices 1 2 3 4 5 6 
#
# 1 0.009318 -0.001398 -0.002780 -0.000869 0.000620 -0.001079
# 2 -0.001398 0.005287 -0.001812 -0.002027 -0.002588 -0.001291
# 3 -0.002780 -0.001812 0.011522 0.002530 0.009727 0.001400
# 4 -0.000869 -0.002027 0.002530 0.023952 0.009457 0.007351
# 5 0.000620 -0.002588 0.009727 0.009457 0.031561 0.003274
# 6 -0.001079 -0.001291 0.001400 0.007351 0.003274 0.020114
#
#
# Mechanical properties :
#
#
# Convention : Reuss Voigt Hill
#
# Bulk Modulus (GPa) = 70.68746 87.70910 79.19828
# Shear Modulus (GPa) = 42.21154 55.58354 48.89754
#
# Velocity S-wave (km/s) = 3.82035 4.38390 4.11179
# Velocity P-wave (km/s) = 6.62578 7.48004 7.06584
#
# Compressibility (1/GPa) = 0.01414678
#
# Stress axis : x y z
#
# Youngs Moduli (GPa) = 107.31639 189.15156 86.78779
#
# Poissons Ratio (x) = 0.26450 0.24127
# Poissons Ratio (y) = 0.15007 0.15725
# Poissons Ratio (z) = 0.29834 0.34272
#
# Static dielectric constant tensor:
#      x y z
#    x 2.366550 0.086910 -0.007030 
#    y 0.086910 2.215940 -0.088530 
#    z -0.007030 -0.088530 2.400220 
# 
# From -- ./inp_files/71800.got.cif
#   From: 2010.05.17/outbox.cif.g08.bks.cpg/sg2_36_cif.got.tgz:71800.got - 2010.06.03 11:33:40.
