data_PCOD9050845
_publ_section_title
;
Structure prediction by ZEFSAII (Michael W. Deem and Ramdas Pophale) SiO2 
 PCOD9050845
Probable space group: P -1
;
_chemical_formula_sum "Si O2"
_cell_formula_units_Z 15
_cell_length_a 22.106477
_cell_length_b 13.229822
_cell_length_c 9.582184
_cell_angle_alpha 33.614752
_cell_angle_beta 146.307817
_cell_angle_gamma 154.181552
_cell_volume 635.026316
_symmetry_space_group_name_H-M "P -1"
_symmetry_group_IT_number 2
_symmetry_cell_setting 'triclinic'
loop_
_space_group_symop_operation_xyz
x,y,z
-x,-y,-z
loop_
_atom_site_type_symbol
_atom_site_label
_atom_site_fract_x
_atom_site_fract_y
_atom_site_fract_z
Si Si1 0.802268 0.901947 0.360452
Si Si2 0.163089 0.161290 0.190912
Si Si3 0.500000 0.500000 0.000000
Si Si4 0.589148 0.998768 0.476343
Si Si5 0.835521 0.252828 0.423114
Si Si6 0.671642 0.477395 0.139751
Si Si7 0.280946 0.795607 0.039628
Si Si8 0.143749 0.319909 0.487338
O O1 0.967571 0.121227 0.366247
O O2 0.821619 0.809829 0.646199
O O3 0.748081 0.707067 0.354846
O O4 0.728611 0.008634 0.142028
O O5 0.189963 0.983911 0.401729
O O6 0.280185 0.425947 0.035957
O O7 0.000000 0.000000 0.000000
O O8 0.443508 0.510706 0.033562
O O9 0.559900 0.779427 0.753095
O O10 0.728246 0.149665 0.466748
O O11 0.622833 0.217470 0.379324
O O12 0.444645 0.899952 0.228051
O O13 0.000000 0.500000 0.500000
O O14 0.791716 0.305054 0.136309
O O15 0.819163 0.671528 0.291437
O O16 0.193398 0.568752 0.238673
#
# Coordination Sequence:
#
# PCOD9050845 Si02
#       8
#     2   2   1   2   2   2   2   2
#     4  10  25  44  69 107 151 198 247 309 375 439
#     4  11  22  45  72 108 144 193 255 309 367 450
#     4  12  26  50  70 108 148 200 250 302 388 448
#     4  12  27  48  76 110 150 198 248 319 373 459
#     4  11  26  47  76 109 150 199 252 314 377 451
#     4  12  26  44  77 108 147 196 255 308 373 450
#     4  11  26  46  70 108 150 195 253 310 377 446
#     4  11  24  44  72 106 150 202 246 313 366 450
#
# _framework density 23.621068000000001
#
# number of rings (size 3 to 8) (size 9 to 14) (size 15 to 20)
#    0.000    0.800    4.000    2.000    7.467    0.000 
#    0.000    1.333    0.000    0.000    0.000    0.000 
#    0.000    0.000    0.000    0.000    0.000    0.000 
#
# Total GULP energy -83617.654342 kJ/mol
# GULP energy per Si atom -5574.510289 kJ/mol
# Density = 2.356731 g / cm^3
# Si number density = 23.621068 Si / 1000 Ang^3
#
#
#
# Elastic Constant Matrix: (Units=GPa)
#
#
# Indices 1 2 3 4 5 6 
#
# 1 94.2960 33.3838 39.4369 -20.1533 -13.4840 8.3425
# 2 33.3838 74.2947 24.2325 -24.3626 -7.8119 13.0420
# 3 39.4369 24.2325 105.8588 -27.6426 -9.7328 3.9232
# 4 -20.1533 -24.3626 -27.6426 40.1120 -4.1830 4.3221
# 5 -13.4840 -7.8119 -9.7328 -4.1830 42.7638 -6.0128
# 6 8.3425 13.0420 3.9232 4.3221 -6.0128 46.0104
#
#
#
# Elastic Compliance Matrix: (Units=1/GPa)
#
#
# Indices 1 2 3 4 5 6 
#
# 1 0.014644 -0.003914 -0.003410 0.003092 0.003272 -0.001118
# 2 -0.003914 0.020162 0.000289 0.011391 0.002823 -0.005731
# 3 -0.003410 0.000289 0.012945 0.007752 0.002547 -0.000963
# 4 0.003092 0.011391 0.007752 0.040331 0.007749 -0.007226
# 5 0.003272 0.002823 0.002547 0.007749 0.026426 0.001115
# 6 -0.001118 -0.005731 -0.000963 -0.007226 0.001115 0.024468
#
#
# Mechanical properties :
#
#
# Convention : Reuss Voigt Hill
#
# Bulk Modulus (GPa) = 29.68940 52.06178 40.87559
# Shear Modulus (GPa) = 30.43694 37.60364 34.02029
#
# Velocity S-wave (km/s) = 3.59353 3.99426 3.79918
# Velocity P-wave (km/s) = 5.46025 6.58486 6.04875
#
# Compressibility (1/GPa) = 0.03368206
#
# Stress axis : x y z
#
# Youngs Moduli (GPa) = 68.28585 49.59718 77.25016
#
# Poissons Ratio (x) = 0.19411 0.26342
# Poissons Ratio (y) = 0.26726 -0.02232
# Poissons Ratio (z) = 0.23285 -0.01433
#
# Static dielectric constant tensor:
#      x y z
#    x 1.842370 0.321610 0.623530 
#    y 0.321610 7.191720 9.183560 
#    z 0.623530 9.183560 17.690040 
# 
# From -- ./inp_files/345018.got.cif
#   From: 2010.05.17/outbox.cif.g08.bks.cpg/sg2_173_cif.got.tgz:345018.got - 2010.06.03 11:33:40.
