data_PCOD9050635
_publ_section_title
;
Structure prediction by ZEFSAII (Michael W. Deem and Ramdas Pophale) SiO2 
 PCOD9050635
Probable space group: P -1
;
_chemical_formula_sum "Si O2"
_cell_formula_units_Z 16
_cell_length_a 8.826129
_cell_length_b 9.057225
_cell_length_c 16.254289
_cell_angle_alpha 136.344768
_cell_angle_beta 79.650804
_cell_angle_gamma 76.525673
_cell_volume 745.753617
_symmetry_space_group_name_H-M "P -1"
_symmetry_group_IT_number 2
_symmetry_cell_setting 'triclinic'
loop_
_space_group_symop_operation_xyz
x,y,z
-x,-y,-z
loop_
_atom_site_type_symbol
_atom_site_label
_atom_site_fract_x
_atom_site_fract_y
_atom_site_fract_z
Si Si1 0.304718 0.634282 0.618922
Si Si2 0.503772 0.379319 0.255978
Si Si3 0.773253 0.764326 0.717044
Si Si4 0.595616 0.263831 0.010438
Si Si5 0.719282 0.584881 0.029596
Si Si6 0.127902 0.157091 0.771137
Si Si7 0.159128 0.264898 0.481889
Si Si8 0.325052 0.973558 0.508938
O O1 0.500000 0.500000 0.500000
O O2 0.321572 0.712180 0.740746
O O3 0.252748 0.427011 0.545376
O O4 0.165303 0.884879 0.683768
O O5 0.394790 0.265606 0.260858
O O6 0.541364 0.311566 0.129741
O O7 0.391229 0.682777 0.396819
O O8 0.779908 0.860513 0.664025
O O9 0.947146 0.481223 0.592321
O O10 0.757715 0.972620 0.864559
O O11 0.429457 0.307221 0.985428
O O12 0.655481 0.450310 0.045988
O O13 0.917609 0.374399 0.890041
O O14 0.751028 0.781401 0.155645
O O15 0.198805 0.132911 0.661874
O O16 0.220892 0.073408 0.473216
O O17 0.500000 0.000000 0.500000
#
# Coordination Sequence:
#
# PCOD9050635 Si02
#       8
#     2   2   2   2   2   2   2   2
#     4  12  21  43  68  94 130 170 214 265 327 382
#     4  12  25  41  67  98 125 174 220 259 324 389
#     4  11  25  45  65  95 135 171 212 267 329 387
#     4  11  25  44  66  93 134 172 217 263 329 385
#     4  10  25  43  68  94 129 174 216 269 325 384
#     4  11  23  44  69  97 128 169 222 269 321 381
#     4  11  25  42  68  99 128 170 216 270 326 378
#     4  12  24  41  71  99 132 164 222 272 317 386
#
# _framework density 21.454806000000001
#
# number of rings (size 3 to 8) (size 9 to 14) (size 15 to 20)
#    0.000    0.750    3.750    2.625    7.000    1.500 
#    2.250    1.250    0.000    0.000    0.000    0.000 
#    0.000    0.000    0.000    0.000    0.000    0.000 
#
# Total GULP energy -89561.273262 kJ/mol
# GULP energy per Si atom -5597.579579 kJ/mol
# Density = 2.140597 g / cm^3
# Si number density = 21.454806 Si / 1000 Ang^3
#
#
#
# Elastic Constant Matrix: (Units=GPa)
#
#
# Indices 1 2 3 4 5 6 
#
# 1 57.0056 5.2895 13.7580 -12.3508 -2.5135 4.6826
# 2 5.2895 93.8654 33.3797 -12.9026 -6.6876 -5.9873
# 3 13.7580 33.3797 110.6852 -25.2355 -5.7333 -3.0877
# 4 -12.3508 -12.9026 -25.2355 37.2462 6.1741 14.6273
# 5 -2.5135 -6.6876 -5.7333 6.1741 24.6806 0.7147
# 6 4.6826 -5.9873 -3.0877 14.6273 0.7147 18.1749
#
#
#
# Elastic Compliance Matrix: (Units=1/GPa)
#
#
# Indices 1 2 3 4 5 6 
#
# 1 0.021965 -0.000495 0.000094 0.014021 -0.000889 -0.017056
# 2 -0.000495 0.012292 -0.003423 0.000007 0.002382 0.003496
# 3 0.000094 -0.003423 0.012086 0.009849 -0.000371 -0.007010
# 4 0.014021 0.000007 0.009849 0.059043 -0.009631 -0.049077
# 5 -0.000889 0.002382 -0.000371 -0.009631 0.043193 0.007004
# 6 -0.017056 0.003496 -0.007010 -0.049077 0.007004 0.098598
#
#
# Mechanical properties :
#
#
# Convention : Reuss Voigt Hill
#
# Bulk Modulus (GPa) = 25.84313 40.71228 33.27770
# Shear Modulus (GPa) = 18.67598 29.96229 24.31913
#
# Velocity S-wave (km/s) = 2.95359 3.74107 3.37041
# Velocity P-wave (km/s) = 4.86859 6.13823 5.53990
#
# Compressibility (1/GPa) = 0.03869501
#
# Stress axis : x y z
#
# Youngs Moduli (GPa) = 45.52704 81.35106 82.74133
#
# Poissons Ratio (x) = 0.04028 -0.00778
# Poissons Ratio (y) = 0.02254 0.28322
# Poissons Ratio (z) = -0.00428 0.27847
#
# Static dielectric constant tensor:
#      x y z
#    x 1.811070 -0.031920 -0.002190 
#    y -0.031920 1.743040 0.001080 
#    z -0.002190 0.001080 1.763480 
# 
# From -- ./inp_files/185063.got.cif
#   From: 2010.05.17/outbox.cif.g08.bks.cpg/sg2_93_cif.got.tgz:185063.got - 2010.06.03 11:33:40.
