data_PCOD9050771
_publ_section_title
;
Structure prediction by ZEFSAII (Michael W. Deem and Ramdas Pophale) SiO2 
 PCOD9050771
Probable space group: P -1
;
_chemical_formula_sum "Si O2"
_cell_formula_units_Z 16
_cell_length_a 7.769688
_cell_length_b 13.712589
_cell_length_c 20.869190
_cell_angle_alpha 25.220633
_cell_angle_beta 40.607009
_cell_angle_gamma 40.745699
_cell_volume 596.220448
_symmetry_space_group_name_H-M "P -1"
_symmetry_group_IT_number 2
_symmetry_cell_setting 'triclinic'
loop_
_space_group_symop_operation_xyz
x,y,z
-x,-y,-z
loop_
_atom_site_type_symbol
_atom_site_label
_atom_site_fract_x
_atom_site_fract_y
_atom_site_fract_z
Si Si1 0.525188 0.489645 0.312406
Si Si2 0.278410 0.753584 0.419514
Si Si3 0.629312 0.299983 0.134592
Si Si4 0.433003 0.450823 0.874681
Si Si5 0.039336 0.253928 0.821679
Si Si6 0.380033 0.930376 0.166514
Si Si7 0.274098 0.169854 0.671663
Si Si8 0.934780 0.768040 0.627499
O O1 0.553749 0.412590 0.276372
O O2 0.392743 0.771458 0.194110
O O3 0.357083 0.345723 0.490910
O O4 0.843745 0.433625 0.277389
O O5 0.500000 0.500000 0.500000
O O6 0.174330 0.862845 0.316234
O O7 0.443554 0.913837 0.316532
O O8 0.036645 0.732620 0.546635
O O9 0.738546 0.417074 0.095285
O O10 0.379860 0.202052 0.289256
O O11 0.811017 0.062717 0.191021
O O12 0.500000 0.500000 0.000000
O O13 0.745292 0.400446 0.842342
O O14 0.368970 0.205423 0.014930
O O15 0.332664 0.215165 0.795281
O O16 0.069214 0.292031 0.714034
O O17 0.000000 0.000000 0.000000
O O18 0.000000 0.000000 0.500000
#
# Coordination Sequence:
#
# PCOD9050771 Si02
#       8
#     2   2   2   2   2   2   2   2
#     4  11  22  40  62  92 130 163 214 267 317 382
#     4  10  17  34  64  95 116 150 217 266 295 359
#     4  12  24  43  65  93 129 166 218 264 316 383
#     4  11  25  37  63  94 128 170 204 264 334 372
#     4   9  19  37  61  91 116 161 218 259 312 371
#     4  10  19  38  63  89 125 158 215 264 306 376
#     4  10  21  37  58  90 127 163 208 269 309 369
#     4  11  22  41  69  94 120 175 218 258 313 380
#
# _framework density 26.835712000000001
#
# number of rings (size 3 to 8) (size 9 to 14) (size 15 to 20)
#    0.000    1.500    5.000    3.375    1.750    2.000 
#    0.000    0.625    0.000    0.000    0.000    0.000 
#    0.000    0.000    0.000    0.000    0.000    0.000 
#
# Total GULP energy -89317.938329 kJ/mol
# GULP energy per Si atom -5582.371146 kJ/mol
# Density = 2.677463 g / cm^3
# Si number density = 26.835712 Si / 1000 Ang^3
#
#
#
# Elastic Constant Matrix: (Units=GPa)
#
#
# Indices 1 2 3 4 5 6 
#
# 1 65.9945 12.4114 -6.7959 0.8607 3.7483 14.2929
# 2 12.4114 146.3185 16.2888 -21.2905 8.8003 28.0485
# 3 -6.7959 16.2888 78.2293 -11.4199 -5.8862 16.3693
# 4 0.8607 -21.2905 -11.4199 48.6972 9.9597 -5.6246
# 5 3.7483 8.8003 -5.8862 9.9597 27.1380 3.6623
# 6 14.2929 28.0485 16.3693 -5.6246 3.6623 53.9466
#
#
#
# Elastic Compliance Matrix: (Units=1/GPa)
#
#
# Indices 1 2 3 4 5 6 
#
# 1 0.016633 -0.000805 0.002485 -0.000472 -0.000684 -0.004745
# 2 -0.000805 0.008414 -0.000862 0.003893 -0.003796 -0.003236
# 3 0.002485 -0.000862 0.014657 0.001849 0.003067 -0.004673
# 4 -0.000472 0.003893 0.001849 0.024821 -0.010014 0.000807
# 5 -0.000684 -0.003796 0.003067 -0.010014 0.042883 -0.002731
# 6 -0.004745 -0.003236 -0.004673 0.000807 -0.002731 0.023164
#
#
# Mechanical properties :
#
#
# Convention : Reuss Voigt Hill
#
# Bulk Modulus (GPa) = 24.19035 37.15011 30.67023
# Shear Modulus (GPa) = 35.03465 43.86557 39.45011
#
# Velocity S-wave (km/s) = 3.61712 4.04740 3.83830
# Velocity P-wave (km/s) = 5.14573 5.97625 5.57647
#
# Compressibility (1/GPa) = 0.04133880
#
# Stress axis : x y z
#
# Youngs Moduli (GPa) = 60.12232 118.85154 68.22727
#
# Poissons Ratio (x) = 0.09573 -0.16956
# Poissons Ratio (y) = 0.04843 0.05882
# Poissons Ratio (z) = -0.14941 0.10246
#
# Static dielectric constant tensor:
#      x y z
#    x 2.171500 -0.024270 -0.037650 
#    y -0.024270 2.405670 -0.145700 
#    z -0.037650 -0.145700 2.201290 
# 
# From -- ./inp_files/588826.got.cif
#   From: 2010.05.17/outbox.cif.g08.bks.cpg/sg2_295_cif.got.tgz:588826.got - 2010.06.03 11:33:40.
