data_PCOD9050424
_publ_section_title
;
Structure prediction by ZEFSAII (Michael W. Deem and Ramdas Pophale) SiO2 
 PCOD9050424
Probable space group: P -1
;
_chemical_formula_sum "Si O2"
_cell_formula_units_Z 14
_cell_length_a 16.358107
_cell_length_b 13.715324
_cell_length_c 9.966813
_cell_angle_alpha 29.191607
_cell_angle_beta 50.976040
_cell_angle_gamma 35.944962
_cell_volume 616.547465
_symmetry_space_group_name_H-M "P -1"
_symmetry_group_IT_number 2
_symmetry_cell_setting 'triclinic'
loop_
_space_group_symop_operation_xyz
x,y,z
-x,-y,-z
loop_
_atom_site_type_symbol
_atom_site_label
_atom_site_fract_x
_atom_site_fract_y
_atom_site_fract_z
Si Si1 0.047865 0.243166 0.578829
Si Si2 0.010976 0.859371 0.950387
Si Si3 0.410620 0.091826 0.683989
Si Si4 0.290901 0.842584 0.237959
Si Si5 0.627416 0.678974 0.282530
Si Si6 0.134170 0.338248 0.959192
Si Si7 0.276482 0.276195 0.306819
O O1 0.200149 0.159468 0.513753
O O2 0.930313 0.533144 0.276522
O O3 0.045824 0.036842 0.750289
O O4 0.003345 0.256800 0.760806
O O5 0.144268 0.602763 0.033974
O O6 0.856030 0.045678 0.815905
O O7 0.583841 0.877671 0.745168
O O8 0.360657 0.323827 0.564499
O O9 0.336863 0.222964 0.459501
O O10 0.362411 0.936586 0.973587
O O11 0.390188 0.517462 0.520911
O O12 0.234750 0.012507 0.231082
O O13 0.769080 0.600987 0.172441
O O14 0.500000 0.000000 0.000000
O O15 0.000000 0.500000 0.000000
#
# Coordination Sequence:
#
# PCOD9050424 Si02
#       7
#     2   2   2   2   2   2   2
#     4  11  22  38  67 101 131 166 211 274 330 384
#     4  11  21  37  71 100 125 169 219 266 340 380
#     4  10  25  41  64  97 135 172 218 261 329 393
#     4  11  22  45  69  93 128 174 218 274 327 389
#     4  11  26  46  65  90 131 180 220 267 323 391
#     4  11  25  43  66 101 131 167 221 270 322 396
#     4  11  22  40  64 100 137 168 207 275 325 390
#
# _framework density 22.707091999999999
#
# number of rings (size 3 to 8) (size 9 to 14) (size 15 to 20)
#    0.000    1.143    4.286    2.143    4.000    4.000 
#    2.571    2.857    0.000    0.000    0.000    0.000 
#    0.000    0.000    0.000    0.000    0.000    0.000 
#
# Total GULP energy -78336.133700 kJ/mol
# GULP energy per Si atom -5595.438121 kJ/mol
# Density = 2.265541 g / cm^3
# Si number density = 22.707092 Si / 1000 Ang^3
#
#
#
# Elastic Constant Matrix: (Units=GPa)
#
#
# Indices 1 2 3 4 5 6 
#
# 1 105.2766 32.8402 23.8276 1.3651 -27.7103 -16.8979
# 2 32.8402 151.8412 32.4482 -13.3781 -29.2326 -28.0095
# 3 23.8276 32.4482 87.2644 -20.3284 -28.0796 3.4047
# 4 1.3651 -13.3781 -20.3284 16.6265 5.6326 0.6914
# 5 -27.7103 -29.2326 -28.0796 5.6326 51.5337 -4.5352
# 6 -16.8979 -28.0095 3.4047 0.6914 -4.5352 42.9278
#
#
#
# Elastic Compliance Matrix: (Units=1/GPa)
#
#
# Indices 1 2 3 4 5 6 
#
# 1 0.013166 -0.000513 -0.003515 -0.008167 0.006287 0.005922
# 2 -0.000513 0.009377 -0.001110 0.004432 0.004518 0.006410
# 3 -0.003515 -0.001110 0.019886 0.021951 0.005613 -0.003446
# 4 -0.008167 0.004432 0.021951 0.091444 -0.000225 -0.003561
# 5 0.006287 0.004518 0.005613 -0.000225 0.029141 0.008060
# 6 0.005922 0.006410 -0.003446 -0.003561 0.008060 0.030991
#
#
# Mechanical properties :
#
#
# Convention : Reuss Voigt Hill
#
# Bulk Modulus (GPa) = 31.10233 58.06827 44.58530
# Shear Modulus (GPa) = 23.25604 39.23534 31.24569
#
# Velocity S-wave (km/s) = 3.20375 4.16130 3.71352
# Velocity P-wave (km/s) = 5.23567 6.97974 6.16965
#
# Compressibility (1/GPa) = 0.03215193
#
# Stress axis : x y z
#
# Youngs Moduli (GPa) = 75.95519 106.64589 50.28631
#
# Poissons Ratio (x) = 0.05473 0.17674
# Poissons Ratio (y) = 0.03898 0.05584
# Poissons Ratio (z) = 0.26696 0.11842
#
# Static dielectric constant tensor:
#      x y z
#    x 1.892810 0.020110 0.040150 
#    y 0.020110 1.847430 -0.029760 
#    z 0.040150 -0.029760 1.890810 
# 
# From -- ./inp_files/277352.got.cif
#   From: 2010.05.17/outbox.cif.g08.bks.cpg/sg2_139_cif.got.tgz:277352.got - 2010.06.03 11:33:40.
