data_PCOD9050057
_publ_section_title
;
Structure prediction by ZEFSAII (Michael W. Deem and Ramdas Pophale) SiO2 
 PCOD9050057
Probable space group: P -1
;
_chemical_formula_sum "Si O2"
_cell_formula_units_Z 13
_cell_length_a 19.238982
_cell_length_b 5.170913
_cell_length_c 8.904773
_cell_angle_alpha 54.216910
_cell_angle_beta 52.601235
_cell_angle_gamma 85.018042
_cell_volume 519.094808
_symmetry_space_group_name_H-M "P -1"
_symmetry_group_IT_number 2
_symmetry_cell_setting 'triclinic'
loop_
_space_group_symop_operation_xyz
x,y,z
-x,-y,-z
loop_
_atom_site_type_symbol
_atom_site_label
_atom_site_fract_x
_atom_site_fract_y
_atom_site_fract_z
Si Si1 0.205729 0.683035 0.731314
Si Si2 0.958511 0.294674 0.468845
Si Si3 0.701114 0.834266 0.294147
Si Si4 0.587486 0.318064 0.851770
Si Si5 0.591628 0.235860 0.202244
Si Si6 0.000000 0.500000 0.000000
Si Si7 0.258918 0.000367 0.237822
O O1 0.267777 0.457927 0.711268
O O2 0.218121 0.868513 0.812922
O O3 0.232769 0.971069 0.462307
O O4 0.096076 0.436625 0.925575
O O5 0.984651 0.509093 0.204882
O O6 0.000000 0.500000 0.500000
O O7 0.841030 0.126342 0.678013
O O8 0.000000 0.000000 0.500000
O O9 0.619488 0.647153 0.590276
O O10 0.654296 0.008930 0.181908
O O11 0.683002 0.241559 0.762909
O O12 0.559599 0.333166 0.053560
O O13 0.500000 0.000000 0.000000
O O14 0.500000 0.000000 0.500000
O O15 0.667169 0.609832 0.034218
#
# Coordination Sequence:
#
# PCOD9050057 Si02
#       7
#     2   2   2   2   2   1   2
#     4  10  24  48  74 108 146 204 244 315 378 453
#     4  11  28  49  81 118 156 205 263 323 393 466
#     4  11  26  45  74 103 150 195 251 303 389 442
#     4  11  26  47  73 101 151 199 251 318 381 455
#     4  12  28  44  75 109 148 198 263 310 388 467
#     4  10  26  48  78 114 156 198 264 312 386 466
#     4  10  25  47  75 106 156 201 252 319 387 464
#
# _framework density 25.043592
#
# number of rings (size 3 to 8) (size 9 to 14) (size 15 to 20)
#    0.000    1.231    1.538    0.923   10.769    8.615 
#    0.000    0.000    0.000    0.000    0.000    0.000 
#    0.000    0.000    0.000    0.000    0.000    0.000 
#
# Total GULP energy -72493.456540 kJ/mol
# GULP energy per Si atom -5576.419734 kJ/mol
# Density = 2.498659 g / cm^3
# Si number density = 25.043592 Si / 1000 Ang^3
#
#
#
# Elastic Constant Matrix: (Units=GPa)
#
#
# Indices 1 2 3 4 5 6 
#
# 1 164.7135 54.1798 47.2046 -4.1176 1.7295 18.4771
# 2 54.1798 103.3760 37.1409 -10.1010 -5.6476 19.5993
# 3 47.2046 37.1409 79.6639 10.3563 15.4157 10.5342
# 4 -4.1176 -10.1010 10.3563 31.3642 -0.9866 10.3907
# 5 1.7295 -5.6476 15.4157 -0.9866 49.1056 15.2525
# 6 18.4771 19.5993 10.5342 10.3907 15.2525 54.8008
#
#
#
# Elastic Compliance Matrix: (Units=1/GPa)
#
#
# Indices 1 2 3 4 5 6 
#
# 1 0.008265 -0.002038 -0.004301 0.002612 0.001547 -0.002157
# 2 -0.002038 0.016591 -0.008276 0.010570 0.007168 -0.007655
# 3 -0.004301 -0.008276 0.021722 -0.012436 -0.009496 0.005236
# 4 0.002612 0.010570 -0.012436 0.044539 0.010126 -0.013534
# 5 0.001547 0.007168 -0.009496 0.010126 0.027701 -0.010890
# 6 -0.002157 -0.007655 0.005236 -0.013534 -0.010890 0.026304
#
#
# Mechanical properties :
#
#
# Convention : Reuss Voigt Hill
#
# Bulk Modulus (GPa) = 57.64708 69.42267 63.53487
# Shear Modulus (GPa) = 27.75704 41.00266 34.37985
#
# Velocity S-wave (km/s) = 3.33280 4.05069 3.70915
# Velocity P-wave (km/s) = 6.15457 7.04687 6.61578
#
# Compressibility (1/GPa) = 0.01734693
#
# Stress axis : x y z
#
# Youngs Moduli (GPa) = 120.99020 60.27515 46.03643
#
# Poissons Ratio (x) = 0.12282 0.19802
# Poissons Ratio (y) = 0.24653 0.38102
# Poissons Ratio (z) = 0.52041 0.49886
#
# Static dielectric constant tensor:
#      x y z
#    x 1.853750 -0.003580 0.130330 
#    y -0.003580 1.989330 0.103140 
#    z 0.130330 0.103140 1.871830 
# 
# From -- ./inp_files/322095.got.cif
#   From: 2010.05.17/outbox.cif.g08.bks.cpg/sg2_162_cif.got.tgz:322095.got - 2010.06.03 11:33:40.
