data_PCOD9050240
_publ_section_title
;
Structure prediction by ZEFSAII (Michael W. Deem and Ramdas Pophale) SiO2 
 PCOD9050240
Probable space group: P -1
;
_chemical_formula_sum "Si O2"
_cell_formula_units_Z 14
_cell_length_a 10.328059
_cell_length_b 11.650019
_cell_length_c 5.037798
_cell_angle_alpha 80.225609
_cell_angle_beta 108.205388
_cell_angle_gamma 67.730737
_cell_volume 503.425014
_symmetry_space_group_name_H-M "P -1"
_symmetry_group_IT_number 2
_symmetry_cell_setting 'triclinic'
loop_
_space_group_symop_operation_xyz
x,y,z
-x,-y,-z
loop_
_atom_site_type_symbol
_atom_site_label
_atom_site_fract_x
_atom_site_fract_y
_atom_site_fract_z
Si Si1 0.039392 0.350207 0.140203
Si Si2 0.139625 0.982956 0.784199
Si Si3 0.136973 0.645599 0.462705
Si Si4 0.704648 0.173087 0.516602
Si Si5 0.275652 0.139114 0.011617
Si Si6 0.544771 0.560366 0.250463
Si Si7 0.492403 0.174930 0.741890
O O1 0.989084 0.345233 0.409387
O O2 0.204686 0.239711 0.173618
O O3 0.000000 0.500000 0.000000
O O4 0.918816 0.329128 0.885077
O O5 0.266720 0.931353 0.654808
O O6 0.133158 0.115558 0.832060
O O7 0.191065 0.895469 0.120032
O O8 0.000000 0.000000 0.500000
O O9 0.225404 0.730632 0.559240
O O10 0.272380 0.495920 0.610733
O O11 0.526991 0.223072 0.461210
O O12 0.347120 0.188868 0.806918
O O13 0.405521 0.984377 0.185836
O O14 0.500000 0.500000 0.500000
O O15 0.468537 0.716770 0.126524
O O16 0.500000 0.500000 0.000000
#
# Coordination Sequence:
#
# PCOD9050240 Si02
#       7
#     2   2   2   2   2   2   2
#     4  12  27  50  76 111 158 206 262 318 396 475
#     4  11  24  44  70 109 155 202 255 309 389 465
#     4  12  26  47  78 114 150 200 265 323 393 461
#     4  11  24  42  73 109 149 191 253 324 379 458
#     4  10  25  48  77 112 156 208 252 325 390 466
#     4  12  26  47  79 109 152 201 259 325 385 461
#     4  10  24  49  75 111 156 200 266 315 392 464
#
# _framework density 27.809505999999999
#
# number of rings (size 3 to 8) (size 9 to 14) (size 15 to 20)
#    0.000    0.857    1.429    4.286    4.000    6.286 
#    0.000    7.143    0.000    0.000    0.000    0.000 
#    0.000    0.000    0.000    0.000    0.000    0.000 
#
# Total GULP energy -78109.072453 kJ/mol
# GULP energy per Si atom -5579.219461 kJ/mol
# Density = 2.774621 g / cm^3
# Si number density = 27.809506 Si / 1000 Ang^3
#
#
#
# Elastic Constant Matrix: (Units=GPa)
#
#
# Indices 1 2 3 4 5 6 
#
# 1 134.7172 50.6825 20.0895 -16.1503 -36.4308 -4.3356
# 2 50.6825 166.5932 37.6545 2.2340 -24.1919 -1.1551
# 3 20.0895 37.6545 128.4777 2.8825 -22.6942 -4.4231
# 4 -16.1503 2.2340 2.8825 43.9101 -1.5838 -5.4091
# 5 -36.4308 -24.1919 -22.6942 -1.5838 51.6815 -0.8503
# 6 -4.3356 -1.1551 -4.4231 -5.4091 -0.8503 58.7649
#
#
#
# Elastic Compliance Matrix: (Units=1/GPa)
#
#
# Indices 1 2 3 4 5 6 
#
# 1 0.010651 -0.002361 0.000140 0.004422 0.006620 0.001253
# 2 -0.002361 0.007231 -0.001557 -0.001128 0.000998 -0.000239
# 3 0.000140 -0.001557 0.008820 -0.000249 0.003246 0.000668
# 4 0.004422 -0.001128 -0.000249 0.024916 0.003286 0.002626
# 5 0.006620 0.000998 0.003246 0.003286 0.026033 0.001432
# 6 0.001253 -0.000239 0.000668 0.002626 0.001432 0.017417
#
#
# Mechanical properties :
#
#
# Convention : Reuss Voigt Hill
#
# Bulk Modulus (GPa) = 52.22981 71.84903 62.03942
# Shear Modulus (GPa) = 45.86872 52.29539 49.08205
#
# Velocity S-wave (km/s) = 4.06567 4.34116 4.20567
# Velocity P-wave (km/s) = 6.39231 7.14282 6.77796
#
# Compressibility (1/GPa) = 0.01914616
#
# Stress axis : x y z
#
# Youngs Moduli (GPa) = 93.88684 138.28745 113.38129
#
# Poissons Ratio (x) = 0.32653 -0.01586
# Poissons Ratio (y) = 0.22169 0.17650
# Poissons Ratio (z) = -0.01314 0.21527
#
# Static dielectric constant tensor:
#      x y z
#    x 2.419090 -0.111500 0.222930 
#    y -0.111500 2.246770 -0.043890 
#    z 0.222930 -0.043890 2.278810 
# 
# From -- ./inp_files/62007.got.cif
#   From: 2010.05.17/outbox.cif.g08.bks.cpg/sg2_32_cif.got.tgz:62007.got - 2010.06.03 11:33:40.
