data_PCOD9050104
_publ_section_title
;
Structure prediction by ZEFSAII (Michael W. Deem and Ramdas Pophale) SiO2 
 PCOD9050104
Probable space group: P -1
;
_chemical_formula_sum "Si O2"
_cell_formula_units_Z 15
_cell_length_a 14.494897
_cell_length_b 13.624232
_cell_length_c 6.523854
_cell_angle_alpha 106.829410
_cell_angle_beta 120.450910
_cell_angle_gamma 34.170289
_cell_volume 600.963096
_symmetry_space_group_name_H-M "P -1"
_symmetry_group_IT_number 2
_symmetry_cell_setting 'triclinic'
loop_
_space_group_symop_operation_xyz
x,y,z
-x,-y,-z
loop_
_atom_site_type_symbol
_atom_site_label
_atom_site_fract_x
_atom_site_fract_y
_atom_site_fract_z
Si Si1 0.694541 0.465667 0.626709
Si Si2 0.840702 0.185370 0.296872
Si Si3 0.786958 0.691832 0.922697
Si Si4 0.592687 0.208327 0.812400
Si Si5 0.500000 0.000000 0.500000
Si Si6 0.017780 0.193060 0.153130
Si Si7 0.241912 0.123469 0.646134
Si Si8 0.515782 0.745180 0.859628
O O1 0.739072 0.339664 0.440418
O O2 0.567566 0.638250 0.438585
O O3 0.555321 0.596268 0.746741
O O4 0.892209 0.314166 0.884842
O O5 0.930456 0.175535 0.196085
O O6 0.693134 0.225063 0.046249
O O7 0.000000 0.000000 0.500000
O O8 0.682441 0.679955 0.908318
O O9 0.693184 0.793397 0.664308
O O10 0.780220 0.794488 0.126562
O O11 0.000000 0.500000 0.000000
O O12 0.770079 0.004063 0.802505
O O13 0.487674 0.233122 0.890440
O O14 0.405749 0.041636 0.642609
O O15 0.051404 0.261526 0.384505
O O16 0.316892 0.950221 0.687133
#
# Coordination Sequence:
#
# PCOD9050104 Si02
#       8
#     2   2   2   2   1   2   2   2
#     4  12  28  47  78 108 150 196 256 298 378 438
#     4  12  27  49  78 110 150 198 248 307 375 440
#     4  11  28  49  77 111 149 194 250 307 370 444
#     4  12  27  50  76 106 157 194 246 314 368 441
#     4  10  24  48  76 108 144 200 240 302 374 436
#     4  12  28  48  76 113 149 197 249 305 371 444
#     4  11  26  48  78 105 156 194 245 310 372 437
#     4  11  26  48  76 111 143 199 248 302 375 441
#
# _framework density 24.959937
#
# number of rings (size 3 to 8) (size 9 to 14) (size 15 to 20)
#    0.000    0.533    2.667    4.000    7.467    1.600 
#    2.400    0.000    0.000    0.000    0.000    0.000 
#    0.000    0.000    0.000    0.000    0.000    0.000 
#
# Total GULP energy -83566.491080 kJ/mol
# GULP energy per Si atom -5571.099405 kJ/mol
# Density = 2.490313 g / cm^3
# Si number density = 24.959937 Si / 1000 Ang^3
#
#
#
# Elastic Constant Matrix: (Units=GPa)
#
#
# Indices 1 2 3 4 5 6 
#
# 1 68.8059 30.6950 40.8016 -7.7792 -11.8037 -20.2324
# 2 30.6950 162.0489 57.8746 -7.9423 -9.5706 4.6791
# 3 40.8016 57.8746 172.4632 -32.0963 -2.6567 1.6493
# 4 -7.7792 -7.9423 -32.0963 58.4748 14.6357 3.4737
# 5 -11.8037 -9.5706 -2.6567 14.6357 28.7056 3.6211
# 6 -20.2324 4.6791 1.6493 3.4737 3.6211 16.8744
#
#
#
# Elastic Compliance Matrix: (Units=1/GPa)
#
#
# Indices 1 2 3 4 5 6 
#
# 1 0.035105 -0.004765 -0.007953 -0.005247 0.009328 0.043268
# 2 -0.004765 0.007925 -0.001489 -0.000329 0.001730 -0.008069
# 3 -0.007953 -0.001489 0.009238 0.005529 -0.004443 -0.010210
# 4 -0.005247 -0.000329 0.005529 0.023015 -0.012377 -0.008822
# 5 0.009328 0.001730 -0.004443 -0.012377 0.044630 0.004109
# 6 0.043268 -0.008069 -0.010210 -0.008822 0.004109 0.115309
#
#
# Mechanical properties :
#
#
# Convention : Reuss Voigt Hill
#
# Bulk Modulus (GPa) = 41.92310 73.56225 57.74268
# Shear Modulus (GPa) = 18.41030 39.07409 28.74220
#
# Velocity S-wave (km/s) = 2.71881 3.96090 3.39711
# Velocity P-wave (km/s) = 5.16610 7.10313 6.21059
#
# Compressibility (1/GPa) = 0.02385320
#
# Stress axis : x y z
#
# Youngs Moduli (GPa) = 28.48582 126.19077 108.25131
#
# Poissons Ratio (x) = 0.60128 0.86091
# Poissons Ratio (y) = 0.13573 0.16123
# Poissons Ratio (z) = 0.22654 0.18795
#
# Static dielectric constant tensor:
#      x y z
#    x 2.436350 0.047350 0.557980 
#    y 0.047350 1.995720 0.026110 
#    z 0.557980 0.026110 2.671650 
# 
# From -- ./inp_files/98362.got.cif
#   From: 2010.05.17/outbox.cif.g08.bks.cpg/sg2_50_cif.got.tgz:98362.got - 2010.06.03 11:33:40.
