data_PCOD9050676
_publ_section_title
;
Structure prediction by ZEFSAII (Michael W. Deem and Ramdas Pophale) SiO2 
 PCOD9050676
Probable space group: P -1
;
_chemical_formula_sum "Si O2"
_cell_formula_units_Z 12
_cell_length_a 8.898843
_cell_length_b 12.839910
_cell_length_c 8.679906
_cell_angle_alpha 116.017291
_cell_angle_beta 50.322577
_cell_angle_gamma 133.983005
_cell_volume 549.220913
_symmetry_space_group_name_H-M "P -1"
_symmetry_group_IT_number 2
_symmetry_cell_setting 'triclinic'
loop_
_space_group_symop_operation_xyz
x,y,z
-x,-y,-z
loop_
_atom_site_type_symbol
_atom_site_label
_atom_site_fract_x
_atom_site_fract_y
_atom_site_fract_z
Si Si1 0.308388 0.402497 0.427438
Si Si2 0.210447 0.774539 0.432665
Si Si3 0.530184 0.672533 0.261019
Si Si4 0.565647 0.047604 0.161630
Si Si5 0.983035 0.854312 0.902486
Si Si6 0.744135 0.843519 0.540196
O O1 0.500000 0.500000 0.500000
O O2 0.402169 0.508143 0.288709
O O3 0.292966 0.258374 0.360681
O O4 0.026094 0.341150 0.590410
O O5 0.333848 0.705667 0.383774
O O6 0.103676 0.831478 0.661910
O O7 0.416182 0.910166 0.284419
O O8 0.709852 0.770060 0.349699
O O9 0.703328 0.724787 0.033634
O O10 0.471656 0.141840 0.314099
O O11 0.847615 0.133411 0.064366
O O12 0.500000 0.000000 0.000000
O O13 0.000000 0.000000 0.000000
O O14 0.000000 0.000000 0.500000
#
# Coordination Sequence:
#
# PCOD9050676 Si02
#       6
#     2   2   2   2   2   2
#     4  10  25  43  71 100 139 186 226 285 353 407
#     4  12  24  46  72  99 140 184 232 284 345 411
#     4  11  24  46  69 101 143 181 230 284 344 413
#     4  12  25  40  69 109 137 176 232 289 342 405
#     4  12  25  42  72 107 139 177 234 286 343 408
#     4  11  21  42  70 101 139 181 229 284 342 406
#
# _framework density 21.849132999999998
#
# number of rings (size 3 to 8) (size 9 to 14) (size 15 to 20)
#    0.000    0.667    5.000    3.000    4.667    0.667 
#    0.000    2.500    0.000    0.000    0.000    0.000 
#    0.000    0.000    0.000    0.000    0.000    0.000 
#
# Total GULP energy -67008.076039 kJ/mol
# GULP energy per Si atom -5584.006337 kJ/mol
# Density = 2.179940 g / cm^3
# Si number density = 21.849133 Si / 1000 Ang^3
#
#
#
# Elastic Constant Matrix: (Units=GPa)
#
#
# Indices 1 2 3 4 5 6 
#
# 1 148.8358 48.7638 23.6951 4.7061 -24.1958 -12.3045
# 2 48.7638 135.9238 39.8171 -15.1568 -12.1835 -34.0333
# 3 23.6951 39.8171 99.1523 1.4618 -11.3866 -11.5450
# 4 4.7061 -15.1568 1.4618 27.2027 7.9844 12.0922
# 5 -24.1958 -12.1835 -11.3866 7.9844 39.1422 -2.3600
# 6 -12.3045 -34.0333 -11.5450 12.0922 -2.3600 52.4218
#
#
#
# Elastic Compliance Matrix: (Units=1/GPa)
#
#
# Indices 1 2 3 4 5 6 
#
# 1 0.008946 -0.002852 -0.000019 -0.005678 0.005905 0.001819
# 2 -0.002852 0.011044 -0.003272 0.004725 0.000042 0.004692
# 3 -0.000019 -0.003272 0.012053 -0.004210 0.003434 0.001651
# 4 -0.005678 0.004725 -0.004210 0.049766 -0.014097 -0.011306
# 5 0.005905 0.000042 0.003434 -0.014097 0.033503 0.006929
# 6 0.001819 0.004692 0.001651 -0.011306 0.006929 0.025833
#
#
# Mechanical properties :
#
#
# Convention : Reuss Voigt Hill
#
# Bulk Modulus (GPa) = 50.61546 67.60708 59.11127
# Shear Modulus (GPa) = 31.24669 41.86239 36.55454
#
# Velocity S-wave (km/s) = 3.78578 4.38193 4.09472
# Velocity P-wave (km/s) = 6.50582 7.52407 7.03340
#
# Compressibility (1/GPa) = 0.01975681
#
# Stress axis : x y z
#
# Youngs Moduli (GPa) = 111.77957 90.54464 82.96902
#
# Poissons Ratio (x) = 0.25826 0.00157
# Poissons Ratio (y) = 0.31883 0.27148
# Poissons Ratio (z) = 0.00211 0.29626
#
# Static dielectric constant tensor:
#      x y z
#    x 1.796210 0.025370 0.067910 
#    y 0.025370 1.837500 0.049620 
#    z 0.067910 0.049620 1.937750 
# 
# From -- ./inp_files/162682.got.cif
#   From: 2010.05.17/outbox.cif.g08.bks.cpg/sg2_82_cif.got.tgz:162682.got - 2010.06.03 11:33:40.
