data_PCOD9050168
_publ_section_title
;
Structure prediction by ZEFSAII (Michael W. Deem and Ramdas Pophale) SiO2 
 PCOD9050168
Probable space group: P -1
;
_chemical_formula_sum "Si O2"
_cell_formula_units_Z 13
_cell_length_a 10.113493
_cell_length_b 8.726042
_cell_length_c 9.181058
_cell_angle_alpha 74.373541
_cell_angle_beta 137.214126
_cell_angle_gamma 83.356158
_cell_volume 465.238904
_symmetry_space_group_name_H-M "P -1"
_symmetry_group_IT_number 2
_symmetry_cell_setting 'triclinic'
loop_
_space_group_symop_operation_xyz
x,y,z
-x,-y,-z
loop_
_atom_site_type_symbol
_atom_site_label
_atom_site_fract_x
_atom_site_fract_y
_atom_site_fract_z
Si Si1 0.038792 0.301207 0.737026
Si Si2 0.295282 0.016615 0.233430
Si Si3 0.500000 0.000000 0.000000
Si Si4 0.441094 0.344021 0.034429
Si Si5 0.049495 0.165773 0.466706
Si Si6 0.909352 0.356830 0.998997
Si Si7 0.595515 0.354159 0.468847
O O1 0.985538 0.276647 0.536737
O O2 0.803457 0.390091 0.603039
O O3 0.229244 0.096731 0.994378
O O4 0.184065 0.400706 0.844502
O O5 0.078990 0.175838 0.094815
O O6 0.500000 0.000000 0.500000
O O7 0.327178 0.817154 0.319145
O O8 0.503293 0.804007 0.008725
O O9 0.311320 0.098309 0.694610
O O10 0.561302 0.276918 0.304650
O O11 0.500000 0.500000 0.000000
O O12 0.939729 0.270780 0.205847
O O13 0.000000 0.000000 0.500000
O O14 0.643273 0.478263 0.733711
O O15 0.000000 0.500000 0.000000
#
# Coordination Sequence:
#
# PCOD9050168 Si02
#       7
#     2   2   1   2   2   2   2
#     4  11  26  50  85 126 166 245 295 360 470 535
#     4  12  24  53  83 117 183 232 293 378 461 542
#     4  10  24  48  82 120 174 236 284 366 470 516
#     4  11  25  48  79 126 177 225 296 377 440 541
#     4  11  26  49  83 124 174 228 303 369 448 548
#     4  12  27  49  82 126 175 236 295 378 455 537
#     4  12  27  50  86 121 182 228 303 378 444 550
#
# _framework density 27.942630999999999
#
# number of rings (size 3 to 8) (size 9 to 14) (size 15 to 20)
#    0.000    0.615    3.077    3.231    6.462    1.231 
#    8.308    0.000    0.000    0.000    0.000    0.000 
#    0.000    0.000    0.000    0.000    0.000    0.000 
#
# Total GULP energy -72590.269759 kJ/mol
# GULP energy per Si atom -5583.866905 kJ/mol
# Density = 2.787903 g / cm^3
# Si number density = 27.942631 Si / 1000 Ang^3
#
#
#
# Elastic Constant Matrix: (Units=GPa)
#
#
# Indices 1 2 3 4 5 6 
#
# 1 126.6788 52.0763 72.3557 -13.2355 56.9173 23.2774
# 2 52.0763 208.7242 71.4350 -14.9729 11.7720 24.3255
# 3 72.3557 71.4350 237.9931 -32.4222 35.6277 27.5009
# 4 -13.2355 -14.9729 -32.4222 61.5166 12.7349 1.2209
# 5 56.9173 11.7720 35.6277 12.7349 69.7129 -8.0682
# 6 23.2774 24.3255 27.5009 1.2209 -8.0682 50.3960
#
#
#
# Elastic Compliance Matrix: (Units=1/GPa)
#
#
# Indices 1 2 3 4 5 6 
#
# 1 0.020251 -0.001981 -0.000382 0.007779 -0.018742 -0.011378
# 2 -0.001981 0.005751 -0.001137 0.000174 0.001071 -0.001074
# 3 -0.000382 -0.001137 0.006084 0.003669 -0.003654 -0.003269
# 4 0.007779 0.000174 0.003669 0.022846 -0.013399 -0.008378
# 5 -0.018742 0.001071 -0.003654 -0.013399 0.035652 0.016166
# 6 -0.011378 -0.001074 -0.003269 -0.008378 0.016166 0.030191
#
#
# Mechanical properties :
#
#
# Convention : Reuss Voigt Hill
#
# Bulk Modulus (GPa) = 39.86046 107.23666 73.54856
# Shear Modulus (GPa) = 36.72801 61.49371 49.11086
#
# Velocity S-wave (km/s) = 3.62941 4.69626 4.19687
# Velocity P-wave (km/s) = 5.64443 8.23816 7.06140
#
# Compressibility (1/GPa) = 0.02508752
#
# Stress axis : x y z
#
# Youngs Moduli (GPa) = 49.38050 173.86895 164.37770
#
# Poissons Ratio (x) = 0.34438 0.06278
# Poissons Ratio (y) = 0.09781 0.18683
# Poissons Ratio (z) = 0.01886 0.19762
#
# Static dielectric constant tensor:
#      x y z
#    x 5.260870 -1.008070 -0.108550 
#    y -1.008070 2.444050 0.031520 
#    z -0.108550 0.031520 2.213840 
# 
# From -- ./inp_files/238066.got.cif
#   From: 2010.05.17/outbox.cif.g08.bks.cpg/sg2_120_cif.got.tgz:238066.got - 2010.06.03 11:33:40.
