data_PCOD9050567
_publ_section_title
;
Structure prediction by ZEFSAII (Michael W. Deem and Ramdas Pophale) SiO2 
 PCOD9050567
Probable space group: P -1
;
_chemical_formula_sum "Si O2"
_cell_formula_units_Z 14
_cell_length_a 10.756953
_cell_length_b 12.247188
_cell_length_c 20.707793
_cell_angle_alpha 22.293553
_cell_angle_beta 142.863674
_cell_angle_gamma 143.454180
_cell_volume 598.471244
_symmetry_space_group_name_H-M "P -1"
_symmetry_group_IT_number 2
_symmetry_cell_setting 'triclinic'
loop_
_space_group_symop_operation_xyz
x,y,z
-x,-y,-z
loop_
_atom_site_type_symbol
_atom_site_label
_atom_site_fract_x
_atom_site_fract_y
_atom_site_fract_z
Si Si1 0.005420 0.319055 0.799555
Si Si2 0.698940 0.849469 0.162435
Si Si3 0.619368 0.314689 0.730777
Si Si4 0.563319 0.595425 0.120417
Si Si5 0.170142 0.346316 0.538068
Si Si6 0.920577 0.588036 0.989896
Si Si7 0.930534 0.839325 0.628231
O O1 0.836442 0.406330 0.728570
O O2 0.894047 0.349549 0.667936
O O3 0.260320 0.475558 0.814064
O O4 0.000000 0.000000 0.000000
O O5 0.635944 0.584654 0.230050
O O6 0.776528 0.745886 0.318479
O O7 0.903320 0.112942 0.079590
O O8 0.500000 0.000000 0.000000
O O9 0.392156 0.342370 0.597244
O O10 0.699007 0.584263 0.669599
O O11 0.576550 0.954693 0.922028
O O12 0.320803 0.399803 0.120897
O O13 0.971509 0.101673 0.555453
O O14 0.000000 0.500000 0.000000
O O15 0.917931 0.346046 0.176962
O O16 0.000000 0.000000 0.500000
#
# Coordination Sequence:
#
# PCOD9050567 Si02
#       7
#     2   2   2   2   2   2   2
#     4  10  25  43  62  91 139 175 212 268 331 396
#     4  12  21  39  70 100 126 166 225 275 323 387
#     4  11  21  42  68  92 128 172 220 269 323 384
#     4  11  23  42  64  95 134 173 211 272 331 386
#     4  12  23  41  69  99 124 172 228 270 321 392
#     4  12  21  39  66  98 127 170 217 272 328 385
#     4  12  23  35  66 102 126 161 229 276 319 376
#
# _framework density 23.392937
#
# number of rings (size 3 to 8) (size 9 to 14) (size 15 to 20)
#    0.000    0.571    8.571    0.429    0.000    0.571 
#    0.000    4.286    0.000    0.000    0.000    0.000 
#    0.000    0.000    0.000    0.000    0.000    0.000 
#
# Total GULP energy -77972.463526 kJ/mol
# GULP energy per Si atom -5569.461680 kJ/mol
# Density = 2.333969 g / cm^3
# Si number density = 23.392937 Si / 1000 Ang^3
#
#
#
# Elastic Constant Matrix: (Units=GPa)
#
#
# Indices 1 2 3 4 5 6 
#
# 1 68.0153 19.8564 28.3997 15.4898 -1.2187 28.7638
# 2 19.8564 140.9298 34.2856 15.4482 10.8189 19.6876
# 3 28.3997 34.2856 152.5183 22.7122 -19.7091 1.6910
# 4 15.4898 15.4482 22.7122 28.1180 3.3584 3.4841
# 5 -1.2187 10.8189 -19.7091 3.3584 40.5304 13.2367
# 6 28.7638 19.6876 1.6910 3.4841 13.2367 40.5837
#
#
#
# Elastic Compliance Matrix: (Units=1/GPa)
#
#
# Indices 1 2 3 4 5 6 
#
# 1 0.027021 0.000314 -0.002194 -0.011610 0.007356 -0.020615
# 2 0.000314 0.008381 -0.001715 -0.002764 -0.001716 -0.003420
# 3 -0.002194 -0.001715 0.008808 -0.005657 0.004841 0.000926
# 4 -0.011610 -0.002764 -0.005657 0.048070 -0.009177 0.008672
# 5 0.007356 -0.001716 0.004841 -0.009177 0.033248 -0.014639
# 6 -0.020615 -0.003420 0.000926 0.008672 -0.014639 0.044902
#
#
# Mechanical properties :
#
#
# Convention : Reuss Voigt Hill
#
# Bulk Modulus (GPa) = 27.01131 58.50519 42.75825
# Shear Modulus (GPa) = 26.32147 40.44122 33.38134
#
# Velocity S-wave (km/s) = 3.35802 4.16237 3.78164
# Velocity P-wave (km/s) = 5.15819 6.94006 6.11439
#
# Compressibility (1/GPa) = 0.03702152
#
# Stress axis : x y z
#
# Youngs Moduli (GPa) = 37.00859 119.31631 113.52836
#
# Poissons Ratio (x) = -0.03752 0.24908
# Poissons Ratio (y) = -0.01164 0.19467
# Poissons Ratio (z) = 0.08120 0.20460
#
# Static dielectric constant tensor:
#      x y z
#    x 2.073640 -0.079330 -0.063630 
#    y -0.079330 1.919870 -0.055430 
#    z -0.063630 -0.055430 1.989440 
# 
# From -- ./inp_files/498633.got.cif
#   From: 2010.05.17/outbox.cif.g08.bks.cpg/sg2_250_cif.got.tgz:498633.got - 2010.06.03 11:33:40.
