data_PCOD9050967
_publ_section_title
;
Structure prediction by ZEFSAII (Michael W. Deem and Ramdas Pophale) SiO2 
 PCOD9050967
Probable space group: P -1
;
_chemical_formula_sum "Si O2"
_cell_formula_units_Z 16
_cell_length_a 8.703148
_cell_length_b 11.573267
_cell_length_c 9.121462
_cell_angle_alpha 54.629981
_cell_angle_beta 120.630778
_cell_angle_gamma 110.814882
_cell_volume 642.247804
_symmetry_space_group_name_H-M "P -1"
_symmetry_group_IT_number 2
_symmetry_cell_setting 'triclinic'
loop_
_space_group_symop_operation_xyz
x,y,z
-x,-y,-z
loop_
_atom_site_type_symbol
_atom_site_label
_atom_site_fract_x
_atom_site_fract_y
_atom_site_fract_z
Si Si1 0.329919 0.101663 0.467569
Si Si2 0.690320 0.268095 0.433185
Si Si3 0.681792 0.507566 0.495193
Si Si4 0.154968 0.373500 0.246517
Si Si5 0.849680 0.891776 0.932710
Si Si6 0.260299 0.634047 0.940842
Si Si7 0.477178 0.903728 0.915037
Si Si8 0.943543 0.662569 0.335998
O O1 0.529710 0.147849 0.467665
O O2 0.259022 0.235088 0.421531
O O3 0.196923 0.083701 0.277136
O O4 0.346277 0.974326 0.682233
O O5 0.668001 0.375320 0.477583
O O6 0.680389 0.339101 0.217747
O O7 0.899598 0.241245 0.574941
O O8 0.500000 0.500000 0.500000
O O9 0.829534 0.519098 0.686858
O O10 0.750850 0.645228 0.333014
O O11 0.945282 0.334550 0.153558
O O12 0.257424 0.468316 0.100907
O O13 0.666780 0.903282 0.925666
O O14 0.915325 0.735167 0.113431
O O15 0.000000 0.000000 0.000000
O O16 0.386317 0.745337 0.014649
O O17 0.500000 0.000000 0.000000
O O18 0.000000 0.500000 0.500000
#
# Coordination Sequence:
#
# PCOD9050967 Si02
#       8
#     2   2   2   2   2   2   2   2
#     4  12  28  49  77 110 150 201 258 316 379 458
#     4  11  23  44  76 106 154 190 251 310 380 454
#     4  11  23  39  68 108 147 186 241 308 378 443
#     4  11  27  45  75 111 152 195 253 320 385 445
#     4  12  29  50  77 109 154 202 255 315 384 453
#     4  11  27  48  73 111 152 198 253 315 385 454
#     4  12  31  52  77 110 154 207 259 313 382 457
#     4  10  25  44  75 110 146 193 249 307 381 448
#
# _framework density 24.912503999999998
#
# number of rings (size 3 to 8) (size 9 to 14) (size 15 to 20)
#    0.000    0.750    3.750    1.125   12.250    2.000 
#    0.000    0.000    0.000    0.000    0.000    0.000 
#    0.000    0.000    0.000    0.000    0.000    0.000 
#
# Total GULP energy -89491.777175 kJ/mol
# GULP energy per Si atom -5593.236073 kJ/mol
# Density = 2.485580 g / cm^3
# Si number density = 24.912504 Si / 1000 Ang^3
#
#
#
# Elastic Constant Matrix: (Units=GPa)
#
#
# Indices 1 2 3 4 5 6 
#
# 1 94.1674 56.3482 14.1240 -2.5199 6.5741 16.5953
# 2 56.3482 131.9851 41.9410 25.8898 1.9139 11.5465
# 3 14.1240 41.9410 125.9064 0.4155 4.3462 -2.6599
# 4 -2.5199 25.8898 0.4155 48.9583 -2.8576 5.1078
# 5 6.5741 1.9139 4.3462 -2.8576 39.5596 10.2246
# 6 16.5953 11.5465 -2.6599 5.1078 10.2246 47.7871
#
#
#
# Elastic Compliance Matrix: (Units=1/GPa)
#
#
# Indices 1 2 3 4 5 6 
#
# 1 0.016074 -0.007760 0.000712 0.005290 -0.000950 -0.004030
# 2 -0.007760 0.013507 -0.003624 -0.007472 0.000516 -0.000082
# 3 0.000712 -0.003624 0.009129 0.001684 -0.001134 0.001199
# 4 0.005290 -0.007472 0.001684 0.025060 0.001888 -0.003020
# 5 -0.000950 0.000516 -0.001134 0.001888 0.027191 -0.005877
# 6 -0.004030 -0.000082 0.001199 -0.003020 -0.005877 0.023992
#
#
# Mechanical properties :
#
#
# Convention : Reuss Voigt Hill
#
# Bulk Modulus (GPa) = 57.58398 64.09837 60.84118
# Shear Modulus (GPa) = 35.19014 43.23740 39.21377
#
# Velocity S-wave (km/s) = 3.76247 4.17054 3.97175
# Velocity P-wave (km/s) = 6.48379 6.99832 6.74596
#
# Compressibility (1/GPa) = 0.01736594
#
# Stress axis : x y z
#
# Youngs Moduli (GPa) = 62.21171 74.03824 109.54701
#
# Poissons Ratio (x) = 0.57454 -0.07800
# Poissons Ratio (y) = 0.48277 0.39695
# Poissons Ratio (z) = -0.04430 0.26828
#
# Static dielectric constant tensor:
#      x y z
#    x 1.996480 -0.021650 0.044850 
#    y -0.021650 2.011100 -0.014250 
#    z 0.044850 -0.014250 2.013790 
# 
# From -- ./inp_files/185402.got.cif
#   From: 2010.05.17/outbox.cif.g08.bks.cpg/sg2_93_cif.got.tgz:185402.got - 2010.06.03 11:33:40.
