data_PCOD9050972
_publ_section_title
;
Structure prediction by ZEFSAII (Michael W. Deem and Ramdas Pophale) SiO2 
 PCOD9050972
Probable space group: P -1
;
_chemical_formula_sum "Si O2"
_cell_formula_units_Z 14
_cell_length_a 16.777644
_cell_length_b 9.015802
_cell_length_c 10.184560
_cell_angle_alpha 125.944397
_cell_angle_beta 128.083490
_cell_angle_gamma 26.955400
_cell_volume 546.668023
_symmetry_space_group_name_H-M "P -1"
_symmetry_group_IT_number 2
_symmetry_cell_setting 'triclinic'
loop_
_space_group_symop_operation_xyz
x,y,z
-x,-y,-z
loop_
_atom_site_type_symbol
_atom_site_label
_atom_site_fract_x
_atom_site_fract_y
_atom_site_fract_z
Si Si1 0.339306 0.809313 0.712354
Si Si2 0.812643 0.209943 0.225460
Si Si3 0.304189 0.254249 0.994474
Si Si4 0.680885 0.790409 0.498643
Si Si5 0.826424 0.884874 0.555132
Si Si6 0.125301 0.469129 0.177264
Si Si7 0.239769 0.741166 0.109991
O O1 0.305714 0.726219 0.756575
O O2 0.552753 0.526890 0.774989
O O3 0.246539 0.146003 0.822115
O O4 0.246202 0.889836 0.524812
O O5 0.773987 0.478862 0.358549
O O6 0.767073 0.233391 0.040516
O O7 0.012976 0.826992 0.252984
O O8 0.296937 0.236196 0.134032
O O9 0.193649 0.602843 0.031152
O O10 0.500000 0.000000 0.000000
O O11 0.667575 0.978970 0.483084
O O12 0.811078 0.667537 0.683435
O O13 0.500000 0.000000 0.500000
O O14 0.000000 0.500000 0.500000
O O15 0.869754 0.952952 0.754294
O O16 0.000000 0.500000 0.000000
#
# Coordination Sequence:
#
# PCOD9050972 Si02
#       7
#     2   2   2   2   2   2   2
#     4  11  24  46  75 105 152 195 248 311 374 446
#     4  12  26  46  76 110 148 193 253 308 376 441
#     4  10  25  44  77 105 148 189 255 299 376 438
#     4  12  30  49  77 110 155 199 253 305 375 452
#     4  12  28  47  72 111 153 196 250 315 375 437
#     4  12  26  48  78 111 154 197 247 315 379 436
#     4  11  26  45  75 108 149 198 251 302 377 450
#
# _framework density 25.609693
#
# number of rings (size 3 to 8) (size 9 to 14) (size 15 to 20)
#    0.000    0.571    1.429    4.714   14.000    0.571 
#    0.000    0.000    0.000    0.000    0.000    0.000 
#    0.000    0.000    0.000    0.000    0.000    0.000 
#
# Total GULP energy -78501.679455 kJ/mol
# GULP energy per Si atom -5607.262818 kJ/mol
# Density = 2.555140 g / cm^3
# Si number density = 25.609693 Si / 1000 Ang^3
#
#
#
# Elastic Constant Matrix: (Units=GPa)
#
#
# Indices 1 2 3 4 5 6 
#
# 1 96.5929 6.4945 45.7308 9.6147 -2.7383 13.6877
# 2 6.4945 63.7840 44.2668 14.4638 -2.2083 7.0771
# 3 45.7308 44.2668 170.6083 8.6466 -16.0172 11.7264
# 4 9.6147 14.4638 8.6466 52.6500 7.1782 1.9615
# 5 -2.7383 -2.2083 -16.0172 7.1782 42.5924 4.3153
# 6 13.6877 7.0771 11.7264 1.9615 4.3153 52.1970
#
#
#
# Elastic Compliance Matrix: (Units=1/GPa)
#
#
# Indices 1 2 3 4 5 6 
#
# 1 0.012505 0.001992 -0.003554 -0.002176 0.000209 -0.002686
# 2 0.001992 0.020656 -0.005486 -0.005092 0.000188 -0.001915
# 3 -0.003554 -0.005486 0.008498 0.000415 0.002661 -0.000469
# 4 -0.002176 -0.005092 0.000415 0.021226 -0.003895 0.000692
# 5 0.000209 0.000188 0.002661 -0.003895 0.025425 -0.002634
# 6 -0.002686 -0.001915 -0.000469 0.000692 -0.002634 0.020419
#
#
# Mechanical properties :
#
#
# Convention : Reuss Voigt Hill
#
# Bulk Modulus (GPa) = 36.28101 58.21883 47.24992
# Shear Modulus (GPa) = 37.87466 45.12077 41.49771
#
# Velocity S-wave (km/s) = 3.84984 4.20201 4.02977
# Velocity P-wave (km/s) = 5.82747 6.80625 6.33579
#
# Compressibility (1/GPa) = 0.02756263
#
# Stress axis : x y z
#
# Youngs Moduli (GPa) = 79.97066 48.41189 117.66811
#
# Poissons Ratio (x) = -0.09644 0.41820
# Poissons Ratio (y) = -0.15930 0.64555
# Poissons Ratio (z) = 0.28422 0.26560
#
# Static dielectric constant tensor:
#      x y z
#    x 2.028930 -0.039990 -0.016470 
#    y -0.039990 2.045330 0.026640 
#    z -0.016470 0.026640 1.988930 
# 
# From -- ./inp_files/159917.got.cif
#   From: 2010.05.17/outbox.cif.g08.bks.cpg/sg2_80_cif.got.tgz:159917.got - 2010.06.03 11:33:40.
