data_PCOD9050646
_publ_section_title
;
Structure prediction by ZEFSAII (Michael W. Deem and Ramdas Pophale) SiO2 
 PCOD9050646
Probable space group: P -1
;
_chemical_formula_sum "Si O2"
_cell_formula_units_Z 14
_cell_length_a 8.573096
_cell_length_b 14.111484
_cell_length_c 11.502666
_cell_angle_alpha 147.542112
_cell_angle_beta 60.176876
_cell_angle_gamma 127.484564
_cell_volume 592.198718
_symmetry_space_group_name_H-M "P -1"
_symmetry_group_IT_number 2
_symmetry_cell_setting 'triclinic'
loop_
_space_group_symop_operation_xyz
x,y,z
-x,-y,-z
loop_
_atom_site_type_symbol
_atom_site_label
_atom_site_fract_x
_atom_site_fract_y
_atom_site_fract_z
Si Si1 0.785460 0.716007 0.810948
Si Si2 0.922378 0.370799 0.777302
Si Si3 0.799496 0.940748 0.440938
Si Si4 0.028765 0.878654 0.088548
Si Si5 0.168416 0.528803 0.645660
Si Si6 0.580172 0.832545 0.804813
Si Si7 0.592511 0.413559 0.777659
O O1 0.904677 0.629031 0.592179
O O2 0.649235 0.788596 0.859349
O O3 0.668148 0.551638 0.780313
O O4 0.933827 0.888310 0.011729
O O5 0.805138 0.149790 0.628267
O O6 0.772662 0.396883 0.764994
O O7 0.116414 0.422475 0.678993
O O8 0.000000 0.500000 0.000000
O O9 0.585632 0.789454 0.403758
O O10 0.000000 0.000000 0.500000
O O11 0.860759 0.848139 0.211431
O O12 0.219721 0.072335 0.244151
O O13 0.095565 0.701721 0.865931
O O14 0.398091 0.636755 0.639282
O O15 0.500000 0.000000 0.000000
O O16 0.500000 0.500000 0.000000
#
# Coordination Sequence:
#
# PCOD9050646 Si02
#       7
#     2   2   2   2   2   2   2
#     4  12  24  45  75 103 153 187 245 308 367 444
#     4  12  27  49  76 105 150 197 252 307 371 445
#     4  12  27  47  74 105 149 196 252 305 368 446
#     4  11  23  47  69 108 141 191 241 305 370 437
#     4  11  24  45  72 106 141 191 245 304 373 433
#     4  10  25  43  69 104 143 187 242 298 372 437
#     4  12  26  49  73 109 148 201 251 302 374 436
#
# _framework density 23.640713000000002
#
# number of rings (size 3 to 8) (size 9 to 14) (size 15 to 20)
#    0.000    0.571    2.857    4.286    6.000    0.000 
#    5.143    0.000    0.000    0.000    0.000    0.000 
#    0.000    0.000    0.000    0.000    0.000    0.000 
#
# Total GULP energy -78111.570776 kJ/mol
# GULP energy per Si atom -5579.397913 kJ/mol
# Density = 2.358691 g / cm^3
# Si number density = 23.640713 Si / 1000 Ang^3
#
#
#
# Elastic Constant Matrix: (Units=GPa)
#
#
# Indices 1 2 3 4 5 6 
#
# 1 107.3911 23.3762 27.5648 24.4612 -2.8175 -13.9837
# 2 23.3762 145.0579 26.2919 15.7641 5.1068 9.2496
# 3 27.5648 26.2919 95.2154 -9.7311 3.9910 -6.6924
# 4 24.4612 15.7641 -9.7311 44.3587 -3.7563 8.9152
# 5 -2.8175 5.1068 3.9910 -3.7563 41.4787 14.0486
# 6 -13.9837 9.2496 -6.6924 8.9152 14.0486 46.8753
#
#
#
# Elastic Compliance Matrix: (Units=1/GPa)
#
#
# Indices 1 2 3 4 5 6 
#
# 1 0.013358 -0.000703 -0.004163 -0.009294 -0.001381 0.005711
# 2 -0.000703 0.007823 -0.002305 -0.002661 -0.000552 -0.001411
# 3 -0.004163 -0.002305 0.012989 0.005861 -0.000781 0.000187
# 4 -0.009294 -0.002661 0.005861 0.032153 0.005112 -0.009058
# 5 -0.001381 -0.000552 -0.000781 0.005112 0.027925 -0.009756
# 6 0.005711 -0.001411 0.000187 -0.009058 -0.009756 0.027989
#
#
# Mechanical properties :
#
#
# Convention : Reuss Voigt Hill
#
# Bulk Modulus (GPa) = 50.43538 55.79223 53.11380
# Shear Modulus (GPa) = 34.91854 44.57131 39.74493
#
# Velocity S-wave (km/s) = 3.84741 4.34679 4.10470
# Velocity P-wave (km/s) = 6.41227 6.98885 6.70676
#
# Compressibility (1/GPa) = 0.01982735
#
# Stress axis : x y z
#
# Youngs Moduli (GPa) = 74.86178 127.82004 76.98804
#
# Poissons Ratio (x) = 0.08992 0.32053
# Poissons Ratio (y) = 0.05267 0.17743
# Poissons Ratio (z) = 0.31168 0.29458
#
# Static dielectric constant tensor:
#      x y z
#    x 1.994270 -0.004680 0.050730 
#    y -0.004680 1.923140 0.074060 
#    z 0.050730 0.074060 1.869400 
# 
# From -- ./inp_files/399907.got.cif
#   From: 2010.05.17/outbox.cif.g08.bks.cpg/sg2_200_cif.got.tgz:399907.got - 2010.06.03 11:33:40.
