data_PCOD9050733
_publ_section_title
;
Structure prediction by ZEFSAII (Michael W. Deem and Ramdas Pophale) SiO2 
 PCOD9050733
Probable space group: P -1
;
_chemical_formula_sum "Si O2"
_cell_formula_units_Z 14
_cell_length_a 11.878473
_cell_length_b 7.910176
_cell_length_c 8.617859
_cell_angle_alpha 128.848699
_cell_angle_beta 116.737212
_cell_angle_gamma 67.777736
_cell_volume 557.813281
_symmetry_space_group_name_H-M "P -1"
_symmetry_group_IT_number 2
_symmetry_cell_setting 'triclinic'
loop_
_space_group_symop_operation_xyz
x,y,z
-x,-y,-z
loop_
_atom_site_type_symbol
_atom_site_label
_atom_site_fract_x
_atom_site_fract_y
_atom_site_fract_z
Si Si1 0.570202 0.526423 0.742967
Si Si2 0.918638 0.140584 0.400007
Si Si3 0.135825 0.105325 0.256831
Si Si4 0.027954 0.459178 0.175323
Si Si5 0.341326 0.849960 0.901379
Si Si6 0.377693 0.238508 0.380752
Si Si7 0.767091 0.396369 0.047859
O O1 0.460980 0.734430 0.814843
O O2 0.505561 0.302983 0.574644
O O3 0.639563 0.569819 0.650878
O O4 0.666517 0.518545 0.938914
O O5 0.889262 0.375986 0.598449
O O6 0.784962 0.061422 0.224099
O O7 0.016197 0.153021 0.324585
O O8 0.000000 0.000000 0.500000
O O9 0.087497 0.216164 0.125649
O O10 0.265971 0.212273 0.418882
O O11 0.179327 0.845427 0.127082
O O12 0.000000 0.500000 0.000000
O O13 0.890780 0.512631 0.202533
O O14 0.295203 0.653997 0.859443
O O15 0.380428 0.021411 0.150672
#
# Coordination Sequence:
#
# PCOD9050733 Si02
#       7
#     2   2   2   2   2   2   2
#     4  11  24  48  68 109 141 196 254 286 366 436
#     4  12  28  45  73 112 144 190 244 299 375 434
#     4  11  24  47  71 104 147 183 242 301 365 435
#     4  12  25  43  72 106 146 190 235 301 370 432
#     4  11  25  47  70 104 148 190 242 308 357 436
#     4  10  25  43  76  98 147 195 238 308 357 421
#     4  11  25  41  73 103 144 192 237 299 361 430
#
# _framework density 25.098001
#
# number of rings (size 3 to 8) (size 9 to 14) (size 15 to 20)
#    0.000    0.857    1.429    4.286   10.000    5.714 
#    2.571    0.000    0.000    0.000    0.000    0.000 
#    0.000    0.000    0.000    0.000    0.000    0.000 
#
# Total GULP energy -78307.833490 kJ/mol
# GULP energy per Si atom -5593.416678 kJ/mol
# Density = 2.504088 g / cm^3
# Si number density = 25.098001 Si / 1000 Ang^3
#
#
#
# Elastic Constant Matrix: (Units=GPa)
#
#
# Indices 1 2 3 4 5 6 
#
# 1 131.1776 21.0940 3.2223 15.6559 -1.0691 -17.8787
# 2 21.0940 76.5811 8.5085 -13.5946 -6.1389 -14.6725
# 3 3.2223 8.5085 83.2669 30.1316 8.0710 -24.2845
# 4 15.6559 -13.5946 30.1316 43.0212 5.3272 1.5331
# 5 -1.0691 -6.1389 8.0710 5.3272 37.6825 -2.1539
# 6 -17.8787 -14.6725 -24.2845 1.5331 -2.1539 35.0864
#
#
#
# Elastic Compliance Matrix: (Units=1/GPa)
#
#
# Indices 1 2 3 4 5 6 
#
# 1 0.010208 -0.003470 0.005513 -0.008990 0.000270 0.007975
# 2 -0.003470 0.016750 -0.004783 0.009549 0.002399 0.001656
# 3 0.005513 -0.004783 0.026447 -0.022509 -0.001963 0.019977
# 4 -0.008990 0.009549 -0.022509 0.046129 -0.001444 -0.018271
# 5 0.000270 0.002399 -0.001963 -0.001444 0.027649 0.001543
# 6 0.007975 0.001656 0.019977 -0.018271 0.001543 0.047977
#
#
# Mechanical properties :
#
#
# Convention : Reuss Voigt Hill
#
# Bulk Modulus (GPa) = 20.86636 39.63056 30.24846
# Shear Modulus (GPa) = 25.43039 40.37140 32.90089
#
# Velocity S-wave (km/s) = 3.18660 4.01502 3.62456
# Velocity P-wave (km/s) = 4.67667 6.10889 5.44012
#
# Compressibility (1/GPa) = 0.04792403
#
# Stress axis : x y z
#
# Youngs Moduli (GPa) = 97.96203 59.70084 37.81192
#
# Poissons Ratio (x) = 0.20719 -0.20844
# Poissons Ratio (y) = 0.33998 0.18084
# Poissons Ratio (z) = -0.54002 0.28552
#
# Static dielectric constant tensor:
#      x y z
#    x 2.031560 -0.010800 0.028200 
#    y -0.010800 2.009360 0.081100 
#    z 0.028200 0.081100 2.073140 
# 
# From -- ./inp_files/246163.got.cif
#   From: 2010.05.17/outbox.cif.g08.bks.cpg/sg2_124_cif.got.tgz:246163.got - 2010.06.03 11:33:40.
