data_PCOD9050375
_publ_section_title
;
Structure prediction by ZEFSAII (Michael W. Deem and Ramdas Pophale) SiO2 
 PCOD9050375
Probable space group: P -1
;
_chemical_formula_sum "Si O2"
_cell_formula_units_Z 16
_cell_length_a 6.473562
_cell_length_b 21.423044
_cell_length_c 17.981621
_cell_angle_alpha 162.251229
_cell_angle_beta 76.790291
_cell_angle_gamma 94.085633
_cell_volume 643.786763
_symmetry_space_group_name_H-M "P -1"
_symmetry_group_IT_number 2
_symmetry_cell_setting 'triclinic'
loop_
_space_group_symop_operation_xyz
x,y,z
-x,-y,-z
loop_
_atom_site_type_symbol
_atom_site_label
_atom_site_fract_x
_atom_site_fract_y
_atom_site_fract_z
Si Si1 0.061220 0.616459 0.368342
Si Si2 0.535584 0.741810 0.687449
Si Si3 0.994520 0.817821 0.154374
Si Si4 0.467025 0.463191 0.253681
Si Si5 0.965285 0.266932 0.658108
Si Si6 0.062846 0.958595 0.036151
Si Si7 0.253648 0.196910 0.701194
Si Si8 0.070192 0.379809 0.277307
O O1 0.463982 0.680359 0.543792
O O2 0.343288 0.542147 0.272777
O O3 0.942486 0.727045 0.425485
O O4 0.073733 0.363916 0.084777
O O5 0.341367 0.747429 0.769464
O O6 0.811558 0.540582 0.442393
O O7 0.500000 0.000000 0.000000
O O8 0.945404 0.820353 0.671144
O O9 0.963574 0.782116 0.203329
O O10 0.260999 0.737635 0.009611
O O11 0.848354 0.096671 0.470344
O O12 0.296588 0.390864 0.234395
O O13 0.175605 0.165409 0.589019
O O14 0.777203 0.541936 0.001004
O O15 0.902424 0.874279 0.999602
O O16 0.000000 0.000000 0.000000
O O17 0.500000 0.000000 0.500000
O O18 0.000000 0.500000 0.500000
#
# Coordination Sequence:
#
# PCOD9050375 Si02
#       8
#     2   2   2   2   2   2   2   2
#     4  11  26  49  73 116 160 210 268 331 403 473
#     4  12  25  44  73 102 146 200 273 336 392 465
#     4  11  26  49  78 116 165 202 258 326 394 486
#     4  12  26  47  71 106 160 206 264 336 401 465
#     4  10  25  49  81 125 155 206 260 310 408 478
#     4  12  24  49  71 107 150 212 274 336 400 453
#     4  10  24  53  87 124 163 203 256 322 398 492
#     4  12  26  44  72 104 140 206 271 338 404 463
#
# _framework density 24.85295
#
# number of rings (size 3 to 8) (size 9 to 14) (size 15 to 20)
#    0.000    0.750    2.500    3.750    7.000    0.500 
#   11.250    0.000    0.000    0.000    0.000    0.000 
#    0.000    0.000    0.000    0.000    0.000    0.000 
#
# Total GULP energy -89288.299521 kJ/mol
# GULP energy per Si atom -5580.518720 kJ/mol
# Density = 2.479638 g / cm^3
# Si number density = 24.852950 Si / 1000 Ang^3
#
#
#
# Elastic Constant Matrix: (Units=GPa)
#
#
# Indices 1 2 3 4 5 6 
#
# 1 126.8209 77.4500 70.2611 6.2823 19.2315 -14.5707
# 2 77.4500 108.6291 57.8442 5.8722 20.8175 -7.3682
# 3 70.2611 57.8442 147.3238 20.2591 41.2467 -10.4069
# 4 6.2823 5.8722 20.2591 46.3720 3.0475 7.4653
# 5 19.2315 20.8175 41.2467 3.0475 48.3703 -1.8048
# 6 -14.5707 -7.3682 -10.4069 7.4653 -1.8048 47.3299
#
#
#
# Elastic Compliance Matrix: (Units=1/GPa)
#
#
# Indices 1 2 3 4 5 6 
#
# 1 0.015912 -0.009199 -0.004209 0.000355 0.001294 0.002534
# 2 -0.009199 0.017075 -0.001755 0.000103 -0.002226 -0.000661
# 3 -0.004209 -0.001755 0.012372 -0.004349 -0.007790 0.001540
# 4 0.000355 0.000103 -0.004349 0.024015 0.001840 -0.004549
# 5 0.001294 -0.002226 -0.007790 0.001840 0.027611 -0.000898
# 6 0.002534 -0.000661 0.001540 -0.004549 -0.000898 0.022828
#
#
# Mechanical properties :
#
#
# Convention : Reuss Voigt Hill
#
# Bulk Modulus (GPa) = 66.51766 88.20938 77.36352
# Shear Modulus (GPa) = 32.22725 40.22901 36.22813
#
# Velocity S-wave (km/s) = 3.60490 4.02765 3.82212
# Velocity P-wave (km/s) = 6.64452 7.56299 7.11859
#
# Compressibility (1/GPa) = 0.01503360
#
# Stress axis : x y z
#
# Youngs Moduli (GPa) = 62.84444 58.56562 80.82949
#
# Poissons Ratio (x) = 0.53875 0.34021
# Poissons Ratio (y) = 0.57811 0.14182
# Poissons Ratio (z) = 0.26451 0.10276
#
# Static dielectric constant tensor:
#      x y z
#    x 2.081680 0.011490 -0.015230 
#    y 0.011490 1.948090 -0.038500 
#    z -0.015230 -0.038500 2.002340 
# 
# From -- ./inp_files/584447.got.cif
#   From: 2010.05.17/outbox.cif.g08.bks.cpg/sg2_293_cif.got.tgz:584447.got - 2010.06.03 11:33:40.
