data_PCOD9050399
_publ_section_title
;
Structure prediction by ZEFSAII (Michael W. Deem and Ramdas Pophale) SiO2 
 PCOD9050399
Probable space group: P -1
;
_chemical_formula_sum "Si O2"
_cell_formula_units_Z 16
_cell_length_a 9.390949
_cell_length_b 11.044863
_cell_length_c 13.684674
_cell_angle_alpha 149.775592
_cell_angle_beta 84.343823
_cell_angle_gamma 106.705065
_cell_volume 650.479490
_symmetry_space_group_name_H-M "P -1"
_symmetry_group_IT_number 2
_symmetry_cell_setting 'triclinic'
loop_
_space_group_symop_operation_xyz
x,y,z
-x,-y,-z
loop_
_atom_site_type_symbol
_atom_site_label
_atom_site_fract_x
_atom_site_fract_y
_atom_site_fract_z
Si Si1 0.242942 0.215136 0.590078
Si Si2 0.771458 0.287224 0.007159
Si Si3 0.412401 0.412204 0.140804
Si Si4 0.619841 0.826787 0.824581
Si Si5 0.494568 0.046891 0.739920
Si Si6 0.262343 0.796675 0.427089
Si Si7 0.301263 0.571097 0.563226
Si Si8 0.943817 0.554837 0.355446
O O1 0.429698 0.360783 0.666654
O O2 0.138927 0.247144 0.531254
O O3 0.202123 0.936508 0.446247
O O4 0.215989 0.420243 0.810683
O O5 0.646993 0.108425 0.973553
O O6 0.679106 0.120340 0.802339
O O7 0.917806 0.366328 0.128593
O O8 0.347414 0.198723 0.082893
O O9 0.297339 0.550403 0.220731
O O10 0.457232 0.275682 0.952785
O O11 0.442008 0.642290 0.681322
O O12 0.727127 0.713252 0.677253
O O13 0.422878 0.008232 0.610328
O O14 0.387855 0.779796 0.617993
O O15 0.127659 0.704825 0.454725
O O16 0.151591 0.577588 0.633381
#
# Coordination Sequence:
#
# PCOD9050399 Si02
#       8
#     2   2   2   2   2   2   2   2
#     4   9  21  40  65  82 118 170 203 236 293 361
#     4   8  19  36  61  87 111 161 199 242 289 353
#     4  11  21  39  62  93 119 157 201 252 298 347
#     4  10  17  34  62  94 117 150 211 250 282 363
#     4  10  21  38  62  89 122 157 197 251 296 354
#     4  12  24  40  60  92 126 157 200 246 303 356
#     4  10  18  34  62  90 121 155 204 243 299 359
#     4  10  21  40  60  86 121 166 194 246 305 350
#
# _framework density 24.597238000000001
#
# number of rings (size 3 to 8) (size 9 to 14) (size 15 to 20)
#    0.750    1.250    2.500    1.500    0.000    5.000 
#    2.250    2.500    0.000    2.250    0.000    0.000 
#    0.000    0.000    0.000    0.000    0.000    0.000 
#
# Total GULP energy -89086.209104 kJ/mol
# GULP energy per Si atom -5567.888069 kJ/mol
# Density = 2.454125 g / cm^3
# Si number density = 24.597238 Si / 1000 Ang^3
#
#
#
# Elastic Constant Matrix: (Units=GPa)
#
#
# Indices 1 2 3 4 5 6 
#
# 1 63.2889 6.0572 28.7745 4.1923 3.1764 5.4566
# 2 6.0572 71.5721 20.0324 5.1279 -0.3924 2.7495
# 3 28.7745 20.0324 61.4348 -6.0273 -9.5328 -5.2571
# 4 4.1923 5.1279 -6.0273 32.3829 -11.3966 -4.3977
# 5 3.1764 -0.3924 -9.5328 -11.3966 30.5173 -2.5775
# 6 5.4566 2.7495 -5.2571 -4.3977 -2.5775 29.3598
#
#
#
# Elastic Compliance Matrix: (Units=1/GPa)
#
#
# Indices 1 2 3 4 5 6 
#
# 1 0.026691 0.004429 -0.018768 -0.014620 -0.015078 -0.012250
# 2 0.004429 0.017255 -0.010173 -0.008546 -0.007129 -0.006167
# 3 -0.018768 -0.010173 0.035089 0.020338 0.021703 0.015676
# 4 -0.014620 -0.008546 0.020338 0.050055 0.027903 0.017106
# 5 -0.015078 -0.007129 0.021703 0.027903 0.052812 0.016172
# 6 -0.012250 -0.006167 0.015676 0.017106 0.016172 0.043703
#
#
# Mechanical properties :
#
#
# Convention : Reuss Voigt Hill
#
# Bulk Modulus (GPa) = 33.32056 34.00266 33.66161
# Shear Modulus (GPa) = 17.56656 27.88077 22.72367
#
# Velocity S-wave (km/s) = 2.67529 3.37039 3.04275
# Velocity P-wave (km/s) = 4.80820 5.38515 5.10483
#
# Compressibility (1/GPa) = 0.03001150
#
# Stress axis : x y z
#
# Youngs Moduli (GPa) = 37.46611 57.95568 28.49858
#
# Poissons Ratio (x) = -0.25671 0.53486
# Poissons Ratio (y) = -0.16596 0.28992
# Poissons Ratio (z) = 0.70316 0.58960
#
# Static dielectric constant tensor:
#      x y z
#    x 1.961000 -0.002380 -0.000840 
#    y -0.002380 1.963760 -0.020980 
#    z -0.000840 -0.020980 2.044310 
# 
# From -- ./inp_files/501154.got.cif
#   From: 2010.05.17/outbox.cif.g08.bks.cpg/sg2_251_cif.got.tgz:501154.got - 2010.06.03 11:33:40.
