data_PCOD9050070
_publ_section_title
;
Structure prediction by ZEFSAII (Michael W. Deem and Ramdas Pophale) SiO2 
 PCOD9050070
Probable space group: P -1
;
_chemical_formula_sum "Si O2"
_cell_formula_units_Z 16
_cell_length_a 7.042918
_cell_length_b 10.457473
_cell_length_c 11.815276
_cell_angle_alpha 78.030522
_cell_angle_beta 58.501171
_cell_angle_gamma 54.271313
_cell_volume 596.304263
_symmetry_space_group_name_H-M "P -1"
_symmetry_group_IT_number 2
_symmetry_cell_setting 'triclinic'
loop_
_space_group_symop_operation_xyz
x,y,z
-x,-y,-z
loop_
_atom_site_type_symbol
_atom_site_label
_atom_site_fract_x
_atom_site_fract_y
_atom_site_fract_z
Si Si1 0.743728 0.936115 0.630820
Si Si2 0.459255 0.308741 0.415945
Si Si3 0.067056 0.043396 0.653107
Si Si4 0.762897 0.450367 0.254252
Si Si5 0.259694 0.298993 0.714122
Si Si6 0.308323 0.333563 0.214430
Si Si7 0.875625 0.787517 0.008095
Si Si8 0.323001 0.860311 0.051004
O O1 0.701041 0.818616 0.733265
O O2 0.879279 0.870442 0.478035
O O3 0.922879 0.971542 0.645605
O O4 0.471849 0.106851 0.665704
O O5 0.643908 0.372662 0.377763
O O6 0.258658 0.344685 0.573143
O O7 0.339622 0.387082 0.316675
O O8 0.652777 0.119639 0.366938
O O9 0.882474 0.139029 0.798973
O O10 0.571872 0.640019 0.281863
O O11 0.014114 0.453206 0.228146
O O12 0.888965 0.344996 0.123206
O O13 0.079872 0.286369 0.868815
O O14 0.553655 0.270483 0.062887
O O15 0.592112 0.823023 0.039686
O O16 0.831680 0.957985 0.980661
#
# Coordination Sequence:
#
# PCOD9050070 Si02
#       8
#     2   2   2   2   2   2   2   2
#     4  10  19  36  62  93 120 154 201 251 302 357
#     4  11  24  40  62  93 120 161 208 242 299 365
#     4  10  18  34  62  89 120 152 200 247 300 353
#     4  11  23  42  64  87 122 166 199 248 300 357
#     4  11  22  37  64  92 122 159 204 247 303 358
#     4  11  23  40  65  88 124 159 203 250 296 360
#     4  10  18  35  63  92 116 157 207 240 301 363
#     4  10  17  34  61  91 120 154 196 251 299 354
#
# _framework density 26.831941
#
# number of rings (size 3 to 8) (size 9 to 14) (size 15 to 20)
#    0.000    1.500    5.000    1.500    0.000    3.000 
#    0.000    0.000    2.750    6.750    0.000    0.000 
#    0.000    0.000    0.000    0.000    0.000    0.000 
#
# Total GULP energy -89483.897934 kJ/mol
# GULP energy per Si atom -5592.743621 kJ/mol
# Density = 2.677087 g / cm^3
# Si number density = 26.831941 Si / 1000 Ang^3
#
#
#
# Elastic Constant Matrix: (Units=GPa)
#
#
# Indices 1 2 3 4 5 6 
#
# 1 72.5443 8.2876 41.0059 7.5092 9.0384 0.8392
# 2 8.2876 52.9031 47.0500 12.1389 2.7310 9.3209
# 3 41.0059 47.0500 233.0157 23.5298 9.8138 -9.5707
# 4 7.5092 12.1389 23.5298 38.0073 -2.1733 4.0438
# 5 9.0384 2.7310 9.8138 -2.1733 22.1849 5.3668
# 6 0.8392 9.3209 -9.5707 4.0438 5.3668 25.4715
#
#
#
# Elastic Compliance Matrix: (Units=1/GPa)
#
#
# Indices 1 2 3 4 5 6 
#
# 1 0.016057 0.000480 -0.002474 -0.002108 -0.005688 -0.000101
# 2 0.000480 0.026668 -0.005620 -0.003819 0.001435 -0.011582
# 3 -0.002474 -0.005620 0.006452 -0.002455 -0.002732 0.005527
# 4 -0.002108 -0.003819 -0.002455 0.030463 0.006783 -0.005721
# 5 -0.005688 0.001435 -0.002732 0.006783 0.052348 -0.013471
# 6 -0.000101 -0.011582 0.005527 -0.005721 -0.013471 0.049325
#
#
# Mechanical properties :
#
#
# Convention : Reuss Voigt Hill
#
# Bulk Modulus (GPa) = 29.45598 61.23890 45.34744
# Shear Modulus (GPa) = 24.05510 34.60739 29.33125
#
# Velocity S-wave (km/s) = 2.99743 3.59525 3.30986
# Velocity P-wave (km/s) = 4.79387 6.33302 5.61642
#
# Compressibility (1/GPa) = 0.03394896
#
# Stress axis : x y z
#
# Youngs Moduli (GPa) = 62.27998 37.49785 154.99786
#
# Poissons Ratio (x) = -0.01802 0.38351
# Poissons Ratio (y) = -0.02992 0.87107
# Poissons Ratio (z) = 0.15410 0.21073
#
# Static dielectric constant tensor:
#      x y z
#    x 2.198060 -0.089850 0.032000 
#    y -0.089850 2.219420 0.013560 
#    z 0.032000 0.013560 2.057810 
# 
# From -- ./inp_files/392466.got.cif
#   From: 2010.05.17/outbox.cif.g08.bks.cpg/sg2_197_cif.got.tgz:392466.got - 2010.06.03 11:33:40.
