data_PCOD9050090
_publ_section_title
;
Structure prediction by ZEFSAII (Michael W. Deem and Ramdas Pophale) SiO2 
 PCOD9050090
Probable space group: P -1
;
_chemical_formula_sum "Si O2"
_cell_formula_units_Z 14
_cell_length_a 7.949465
_cell_length_b 16.522864
_cell_length_c 5.342684
_cell_angle_alpha 100.115483
_cell_angle_beta 120.893520
_cell_angle_gamma 102.244227
_cell_volume 553.583281
_symmetry_space_group_name_H-M "P -1"
_symmetry_group_IT_number 2
_symmetry_cell_setting 'triclinic'
loop_
_space_group_symop_operation_xyz
x,y,z
-x,-y,-z
loop_
_atom_site_type_symbol
_atom_site_label
_atom_site_fract_x
_atom_site_fract_y
_atom_site_fract_z
Si Si1 0.179235 0.269367 0.222310
Si Si2 0.812170 0.391249 0.213257
Si Si3 0.755279 0.949431 0.288018
Si Si4 0.525248 0.789601 0.321614
Si Si5 0.415706 0.910956 0.614016
Si Si6 0.714989 0.534532 0.514083
Si Si7 0.069261 0.747471 0.492265
O O1 0.348402 0.223273 0.347222
O O2 0.283284 0.367807 0.467583
O O3 0.016077 0.230743 0.299413
O O4 0.081426 0.267966 0.874288
O O5 0.023514 0.436746 0.229919
O O6 0.886524 0.343381 0.475001
O O7 0.636010 0.306217 0.916564
O O8 0.705605 0.460557 0.259545
O O9 0.690128 0.849387 0.279980
O O10 0.674040 0.012014 0.434030
O O11 0.641827 0.949019 0.937978
O O12 0.000000 0.000000 0.500000
O O13 0.404959 0.854014 0.331711
O O14 0.271375 0.832764 0.639980
O O15 0.500000 0.500000 0.500000
#
# Coordination Sequence:
#
# PCOD9050090 Si02
#       7
#     2   2   2   2   2   2   2
#     4  11  28  45  80 112 158 205 264 322 397 472
#     4  10  24  50  78 110 160 206 268 327 401 465
#     4  11  26  48  74 112 153 200 262 326 393 476
#     4  12  26  48  76 111 154 208 256 328 396 479
#     4  11  25  45  78 108 152 202 261 322 397 472
#     4  10  24  48  75 116 154 209 262 332 391 481
#     4  11  24  50  74 115 152 211 261 324 391 477
#
# _framework density 25.289783
#
# number of rings (size 3 to 8) (size 9 to 14) (size 15 to 20)
#    0.000    1.143    1.429    3.000    8.000    1.714 
#    7.714    0.000    0.000    0.000    0.000    0.000 
#    0.000    0.000    0.000    0.000    0.000    0.000 
#
# Total GULP energy -78069.090379 kJ/mol
# GULP energy per Si atom -5576.363598 kJ/mol
# Density = 2.523222 g / cm^3
# Si number density = 25.289783 Si / 1000 Ang^3
#
#
#
# Elastic Constant Matrix: (Units=GPa)
#
#
# Indices 1 2 3 4 5 6 
#
# 1 144.2938 56.3168 47.4309 20.5024 9.5472 -9.5528
# 2 56.3168 96.9490 58.5978 23.2124 16.9171 9.1391
# 3 47.4309 58.5978 166.2202 0.9997 13.0193 -0.0250
# 4 20.5024 23.2124 0.9997 51.1877 3.0512 4.6872
# 5 9.5472 16.9171 13.0193 3.0512 32.5548 13.0694
# 6 -9.5528 9.1391 -0.0250 4.6872 13.0694 62.8664
#
#
#
# Elastic Compliance Matrix: (Units=1/GPa)
#
#
# Indices 1 2 3 4 5 6 
#
# 1 0.009528 -0.004530 -0.001046 -0.001915 -0.000813 0.002418
# 2 -0.004530 0.018255 -0.004718 -0.005904 -0.004966 -0.001871
# 3 -0.001046 -0.004718 0.008034 0.002406 -0.000895 0.000537
# 4 -0.001915 -0.005904 0.002406 0.022995 0.001061 -0.001367
# 5 -0.000813 -0.004966 -0.000895 0.001061 0.036645 -0.007099
# 6 0.002418 -0.001871 0.000537 -0.001367 -0.007099 0.018124
#
#
# Mechanical properties :
#
#
# Convention : Reuss Voigt Hill
#
# Bulk Modulus (GPa) = 65.67337 81.35045 73.51191
# Shear Modulus (GPa) = 35.90761 45.66295 40.78528
#
# Velocity S-wave (km/s) = 3.77217 4.25383 4.02022
# Velocity P-wave (km/s) = 6.70799 7.50759 7.11902
#
# Compressibility (1/GPa) = 0.01522687
#
# Stress axis : x y z
#
# Youngs Moduli (GPa) = 104.95180 54.78054 124.47378
#
# Poissons Ratio (x) = 0.24816 0.13024
# Poissons Ratio (y) = 0.47544 0.58733
# Poissons Ratio (z) = 0.10981 0.25848
#
# Static dielectric constant tensor:
#      x y z
#    x 2.203640 0.156010 -0.000580 
#    y 0.156010 2.073850 -0.024820 
#    z -0.000580 -0.024820 2.023320 
# 
# From -- ./inp_files/47679.got.cif
#   From: 2010.05.17/outbox.cif.g08.bks.cpg/sg2_24_cif.got.tgz:47679.got - 2010.06.03 11:33:40.
