data_PCOD9050910
_publ_section_title
;
Structure prediction by ZEFSAII (Michael W. Deem and Ramdas Pophale) SiO2 
 PCOD9050910
Probable space group: P -1
;
_chemical_formula_sum "Si O2"
_cell_formula_units_Z 16
_cell_length_a 18.270094
_cell_length_b 8.041798
_cell_length_c 12.214766
_cell_angle_alpha 105.308141
_cell_angle_beta 143.411952
_cell_angle_gamma 49.318162
_cell_volume 664.339762
_symmetry_space_group_name_H-M "P -1"
_symmetry_group_IT_number 2
_symmetry_cell_setting 'triclinic'
loop_
_space_group_symop_operation_xyz
x,y,z
-x,-y,-z
loop_
_atom_site_type_symbol
_atom_site_label
_atom_site_fract_x
_atom_site_fract_y
_atom_site_fract_z
Si Si1 0.641039 0.905946 0.917064
Si Si2 0.151997 0.796025 0.947195
Si Si3 0.674389 0.516853 0.286666
Si Si4 0.782704 0.082054 0.487291
Si Si5 0.715576 0.223273 0.682877
Si Si6 0.983829 0.345394 0.769508
Si Si7 0.351024 0.096396 0.429105
Si Si8 0.423637 0.308343 0.047821
O O1 0.521948 0.208573 0.844934
O O2 0.493429 0.947664 0.677980
O O3 0.838670 0.724501 0.060911
O O4 0.657404 0.788828 0.030660
O O5 0.349507 0.533044 0.083130
O O6 0.074928 0.065915 0.866822
O O7 0.166718 0.781583 0.093560
O O8 0.007059 0.814709 0.722619
O O9 0.732288 0.272751 0.365529
O O10 0.639700 0.563478 0.124921
O O11 0.848267 0.453119 0.521281
O O12 0.745655 0.201461 0.585366
O O13 0.651120 0.063829 0.296367
O O14 0.500000 0.500000 0.500000
O O15 0.733159 0.004205 0.701595
O O16 0.831219 0.584922 0.714550
O O17 0.500000 0.000000 0.500000
#
# Coordination Sequence:
#
# PCOD9050910 Si02
#       8
#     2   2   2   2   2   2   2   2
#     4  11  23  43  67  97 137 172 223 277 331 397
#     4  11  25  42  69  96 136 173 224 272 334 396
#     4  10  25  44  71  95 135 179 223 275 336 391
#     4  11  24  44  65  97 133 175 222 274 330 394
#     4  12  24  43  68  97 135 173 218 273 336 397
#     4  10  25  45  66 101 133 177 224 269 337 399
#     4  11  25  43  68  97 137 176 222 271 333 401
#     4  12  24  44  68 103 132 175 226 279 332 391
#
# _framework density 24.084063
#
# number of rings (size 3 to 8) (size 9 to 14) (size 15 to 20)
#    0.000    1.000    2.500    2.625    7.000    5.500 
#    0.000    0.000    0.000    0.000    0.000    0.000 
#    0.000    0.000    0.000    0.000    0.000    0.000 
#
# Total GULP energy -89454.799154 kJ/mol
# GULP energy per Si atom -5590.924947 kJ/mol
# Density = 2.402925 g / cm^3
# Si number density = 24.084063 Si / 1000 Ang^3
#
#
#
# Elastic Constant Matrix: (Units=GPa)
#
#
# Indices 1 2 3 4 5 6 
#
# 1 66.2396 -20.1871 19.8826 -7.3610 -0.8273 -3.5304
# 2 -20.1871 49.8169 3.1317 -15.8867 9.8060 -1.6722
# 3 19.8826 3.1317 106.3442 -5.9148 5.3202 -11.6144
# 4 -7.3610 -15.8867 -5.9148 23.6408 -9.0754 -9.2253
# 5 -0.8273 9.8060 5.3202 -9.0754 41.9348 5.9655
# 6 -3.5304 -1.6722 -11.6144 -9.2253 5.9655 25.1570
#
#
#
# Elastic Compliance Matrix: (Units=1/GPa)
#
#
# Indices 1 2 3 4 5 6 
#
# 1 0.024813 0.018395 -0.002461 0.024345 -0.000009 0.012498
# 2 0.018395 0.041986 0.000103 0.040868 -0.003650 0.021272
# 3 -0.002461 0.000103 0.010867 0.003975 -0.001515 0.006495
# 4 0.024345 0.040868 0.003975 0.096878 0.005380 0.042219
# 5 -0.000009 -0.003650 -0.001515 0.005380 0.026814 -0.005329
# 6 0.012498 0.021272 0.006495 0.042219 -0.005329 0.062663
#
#
# Mechanical properties :
#
#
# Convention : Reuss Voigt Hill
#
# Bulk Modulus (GPa) = 9.11251 25.33943 17.22597
# Shear Modulus (GPa) = 18.62000 32.78475 25.70237
#
# Velocity S-wave (km/s) = 2.78353 3.69353 3.27034
# Velocity P-wave (km/s) = 3.75800 5.36038 4.62905
#
# Compressibility (1/GPa) = 0.10973926
#
# Stress axis : x y z
#
# Youngs Moduli (GPa) = 40.30173 23.81723 92.02310
#
# Poissons Ratio (x) = -0.43811 0.22650
# Poissons Ratio (y) = -0.74133 -0.00951
# Poissons Ratio (z) = 0.09919 -0.00246
#
# Static dielectric constant tensor:
#      x y z
#    x 2.015460 0.057150 0.032340 
#    y 0.057150 1.960580 0.038960 
#    z 0.032340 0.038960 1.930480 
# 
# From -- ./inp_files/333225.got.cif
#   From: 2010.05.17/outbox.cif.g08.bks.cpg/sg2_167_cif.got.tgz:333225.got - 2010.06.03 11:33:40.
