data_PCOD9050176
_publ_section_title
;
Structure prediction by ZEFSAII (Michael W. Deem and Ramdas Pophale) SiO2 
 PCOD9050176
Probable space group: P -1
;
_chemical_formula_sum "Si O2"
_cell_formula_units_Z 14
_cell_length_a 18.147212
_cell_length_b 8.247647
_cell_length_c 15.765663
_cell_angle_alpha 124.774476
_cell_angle_beta 22.307950
_cell_angle_gamma 136.249135
_cell_volume 574.662834
_symmetry_space_group_name_H-M "P -1"
_symmetry_group_IT_number 2
_symmetry_cell_setting 'triclinic'
loop_
_space_group_symop_operation_xyz
x,y,z
-x,-y,-z
loop_
_atom_site_type_symbol
_atom_site_label
_atom_site_fract_x
_atom_site_fract_y
_atom_site_fract_z
Si Si1 0.761297 0.277509 0.609276
Si Si2 0.089917 0.396915 0.071088
Si Si3 0.706683 0.532379 0.882994
Si Si4 0.233689 0.501685 0.761836
Si Si5 0.439733 0.932796 0.426097
Si Si6 0.096847 0.036364 0.084843
Si Si7 0.502656 0.163328 0.119748
O O1 0.660328 0.413141 0.803500
O O2 0.638830 0.159916 0.614871
O O3 0.058947 0.463818 0.340224
O O4 0.703351 0.050516 0.661685
O O5 0.257886 0.660237 0.021668
O O6 0.804841 0.279357 0.324158
O O7 0.227283 0.441810 0.850426
O O8 0.061281 0.189921 0.101329
O O9 0.495920 0.355397 0.125812
O O10 0.809997 0.811508 0.880289
O O11 0.473256 0.785434 0.571287
O O12 0.000000 0.500000 0.000000
O O13 0.148441 0.251922 0.728982
O O14 0.681315 0.952548 0.187429
O O15 0.500000 0.000000 0.000000
#
# Coordination Sequence:
#
# PCOD9050176 Si02
#       7
#     2   2   2   2   2   2   2
#     4  10  17  34  62  82 115 156 189 236 299 343
#     4  11  21  41  62  85 119 158 193 242 294 342
#     4   9  19  35  56  88 115 149 197 240 285 351
#     4  10  23  41  61  88 119 155 199 243 289 347
#     4  11  22  38  62  88 117 158 194 239 298 345
#     4  10  22  39  58  89 120 150 200 241 289 347
#     4   9  17  31  59  86 111 151 193 233 288 347
#
# _framework density 24.362112
#
# number of rings (size 3 to 8) (size 9 to 14) (size 15 to 20)
#    0.000    2.000    4.286    0.429    0.000    3.429 
#    0.000    8.571    0.000    4.286    0.000    0.000 
#    0.000    0.000    0.000    0.000    0.000    0.000 
#
# Total GULP energy -78109.194611 kJ/mol
# GULP energy per Si atom -5579.228187 kJ/mol
# Density = 2.430666 g / cm^3
# Si number density = 24.362112 Si / 1000 Ang^3
#
#
#
# Elastic Constant Matrix: (Units=GPa)
#
#
# Indices 1 2 3 4 5 6 
#
# 1 80.9620 28.9745 2.5369 0.0207 11.8605 30.5075
# 2 28.9745 166.1074 29.7261 -18.7309 3.3951 44.3276
# 3 2.5369 29.7261 70.6730 -9.6884 -4.6591 -1.3667
# 4 0.0207 -18.7309 -9.6884 37.7732 0.4650 -4.5320
# 5 11.8605 3.3951 -4.6591 0.4650 34.6840 1.6425
# 6 30.5075 44.3276 -1.3667 -4.5320 1.6425 37.6568
#
#
#
# Elastic Compliance Matrix: (Units=1/GPa)
#
#
# Indices 1 2 3 4 5 6 
#
# 1 0.019444 0.001716 -0.002431 -0.001842 -0.006275 -0.017809
# 2 0.001716 0.010419 -0.004478 0.002422 -0.001604 -0.013456
# 3 -0.002431 -0.004478 0.016900 0.003047 0.003116 0.008084
# 4 -0.001842 0.002422 0.003047 0.028717 0.000313 0.002194
# 5 -0.006275 -0.001604 0.003116 0.000313 0.031276 0.005758
# 6 -0.017809 -0.013456 0.008084 0.002194 0.005758 0.057130
#
#
# Mechanical properties :
#
#
# Convention : Reuss Voigt Hill
#
# Bulk Modulus (GPa) = 27.48871 48.91304 38.20088
# Shear Modulus (GPa) = 26.82459 39.12313 32.97386
#
# Velocity S-wave (km/s) = 3.32185 4.01172 3.68297
# Velocity P-wave (km/s) = 5.10106 6.44822 5.81379
#
# Compressibility (1/GPa) = 0.03637857
#
# Stress axis : x y z
#
# Youngs Moduli (GPa) = 51.43023 95.97810 59.17207
#
# Poissons Ratio (x) = -0.16473 0.14382
# Poissons Ratio (y) = -0.08827 0.26497
# Poissons Ratio (z) = 0.12500 0.42978
#
# Static dielectric constant tensor:
#      x y z
#    x 1.986560 0.009990 -0.013380 
#    y 0.009990 2.003580 0.000420 
#    z -0.013380 0.000420 1.977610 
# 
# From -- ./inp_files/216031.got.cif
#   From: 2010.05.17/outbox.cif.g08.bks.cpg/sg2_109_cif.got.tgz:216031.got - 2010.06.03 11:33:40.
