data_PCOD9050069
_publ_section_title
;
Structure prediction by ZEFSAII (Michael W. Deem and Ramdas Pophale) SiO2 
 PCOD9050069
Probable space group: P -1
;
_chemical_formula_sum "Si O2"
_cell_formula_units_Z 9
_cell_length_a 9.409485
_cell_length_b 9.337180
_cell_length_c 5.124733
_cell_angle_alpha 95.188963
_cell_angle_beta 49.366793
_cell_angle_gamma 89.776743
_cell_volume 339.114506
_symmetry_space_group_name_H-M "P -1"
_symmetry_group_IT_number 2
_symmetry_cell_setting 'triclinic'
loop_
_space_group_symop_operation_xyz
x,y,z
-x,-y,-z
loop_
_atom_site_type_symbol
_atom_site_label
_atom_site_fract_x
_atom_site_fract_y
_atom_site_fract_z
Si Si1 0.519514 0.233859 0.399086
Si Si2 0.500000 0.000000 0.000000
Si Si3 0.242451 0.696669 0.384774
Si Si4 0.894938 0.857428 0.656536
Si Si5 0.824720 0.590496 0.348615
O O1 0.629134 0.236736 0.538346
O O2 0.348420 0.358181 0.621943
O O3 0.668213 0.263585 0.992075
O O4 0.436111 0.094906 0.351090
O O5 0.679849 0.918055 0.939788
O O6 0.248780 0.525485 0.379660
O O7 0.033339 0.774038 0.687694
O O8 0.894733 0.728835 0.427134
O O9 0.000000 0.000000 0.500000
O O10 0.000000 0.500000 0.000000
#
# Coordination Sequence:
#
# PCOD9050069 Si02
#       5
#     2   1   2   2   2
#     4  11  26  48  79 113 152 202 257 316 381 461
#     4  10  24  48  74 112 152 200 252 310 390 446
#     4  12  25  48  80 111 153 199 260 314 384 451
#     4  11  24  48  75 110 156 198 256 313 381 455
#     4  11  26  48  76 116 154 202 256 319 383 456
#
# _framework density 26.539708000000001
#
# number of rings (size 3 to 8) (size 9 to 14) (size 15 to 20)
#    0.000    0.889    2.222    3.333    0.000    7.111 
#    0.000    0.000    0.000    0.000    0.000    0.000 
#    0.000    0.000    0.000    0.000    0.000    0.000 
#
# Total GULP energy -50153.401761 kJ/mol
# GULP energy per Si atom -5572.600196 kJ/mol
# Density = 2.647930 g / cm^3
# Si number density = 26.539708 Si / 1000 Ang^3
#
#
#
# Elastic Constant Matrix: (Units=GPa)
#
#
# Indices 1 2 3 4 5 6 
#
# 1 221.0780 70.7128 41.3517 4.5126 -6.7486 -32.1619
# 2 70.7128 142.2631 30.9662 32.4959 15.4619 3.2499
# 3 41.3517 30.9662 105.9652 24.3655 -40.6035 7.8380
# 4 4.5126 32.4959 24.3655 53.4407 -44.8420 -6.0658
# 5 -6.7486 15.4619 -40.6035 -44.8420 128.4975 -6.9065
# 6 -32.1619 3.2499 7.8380 -6.0658 -6.9065 71.5871
#
#
#
# Elastic Compliance Matrix: (Units=1/GPa)
#
#
# Indices 1 2 3 4 5 6 
#
# 1 0.007024 -0.004784 -0.002028 0.005917 0.002602 0.004347
# 2 -0.004784 0.013943 -0.001507 -0.014324 -0.007650 -0.004569
# 3 -0.002028 -0.001507 0.012543 -0.002228 0.003148 -0.002101
# 4 0.005917 -0.014324 -0.002228 0.043066 0.016833 0.008826
# 5 0.002602 -0.007650 0.003148 0.016833 0.015931 0.004135
# 6 0.004347 -0.004569 -0.002101 0.008826 0.004135 0.017506
#
#
# Mechanical properties :
#
#
# Convention : Reuss Voigt Hill
#
# Bulk Modulus (GPa) = 59.27096 83.92974 71.60035
# Shear Modulus (GPa) = 37.80049 72.45677 55.12863
#
# Velocity S-wave (km/s) = 3.77808 5.23073 4.56259
# Velocity P-wave (km/s) = 6.43532 8.25673 7.40226
#
# Compressibility (1/GPa) = 0.01687167
#
# Stress axis : x y z
#
# Youngs Moduli (GPa) = 142.37437 71.72184 79.72660
#
# Poissons Ratio (x) = 0.34308 0.16169
# Poissons Ratio (y) = 0.68105 0.12017
# Poissons Ratio (z) = 0.28875 0.10810
#
# Static dielectric constant tensor:
#      x y z
#    x 2.077140 -0.020320 0.000980 
#    y -0.020320 2.282920 -0.189760 
#    z 0.000980 -0.189760 2.107900 
# 
# From -- ./inp_files/16839.got.cif
#   From: 2010.05.17/outbox.cif.g08.bks.cpg/sg2_9_cif.got.tgz:16839.got - 2010.06.03 11:33:40.
