data_PCOD9050703
_publ_section_title
;
Structure prediction by ZEFSAII (Michael W. Deem and Ramdas Pophale) SiO2 
 PCOD9050703
Probable space group: P -1
;
_chemical_formula_sum "Si O2"
_cell_formula_units_Z 12
_cell_length_a 14.332104
_cell_length_b 8.185422
_cell_length_c 5.040322
_cell_angle_alpha 61.646334
_cell_angle_beta 118.056626
_cell_angle_gamma 84.473803
_cell_volume 418.505931
_symmetry_space_group_name_H-M "P -1"
_symmetry_group_IT_number 2
_symmetry_cell_setting 'triclinic'
loop_
_space_group_symop_operation_xyz
x,y,z
-x,-y,-z
loop_
_atom_site_type_symbol
_atom_site_label
_atom_site_fract_x
_atom_site_fract_y
_atom_site_fract_z
Si Si1 0.573892 0.739748 0.782842
Si Si2 0.410810 0.651828 0.040315
Si Si3 0.708963 0.970052 0.039397
Si Si4 0.045337 0.765321 0.832173
Si Si5 0.243172 0.382445 0.246110
Si Si6 0.906420 0.759573 0.170756
O O1 0.468310 0.729001 0.819244
O O2 0.607772 0.910528 0.832634
O O3 0.646950 0.486454 0.071390
O O4 0.618802 0.740752 0.538778
O O5 0.500000 0.500000 0.500000
O O6 0.335384 0.840876 0.972359
O O7 0.776417 0.771463 0.459416
O O8 0.800944 0.976276 0.941518
O O9 0.986042 0.678734 0.595335
O O10 0.988251 0.769136 0.037308
O O11 0.000000 0.000000 0.500000
O O12 0.180489 0.609312 0.102111
O O13 0.173979 0.358482 0.916215
#
# Coordination Sequence:
#
# PCOD9050703 Si02
#       6
#     2   2   2   2   2   2
#     4  10  25  43  72 104 137 191 239 295 370 425
#     4  11  25  46  70 104 146 183 243 302 365 436
#     4  11  25  45  73 105 145 191 239 302 359 435
#     4  12  27  45  71 106 146 190 241 299 357 429
#     4  11  25  44  72 100 145 186 248 290 362 430
#     4  11  25  47  71 103 145 194 238 292 366 425
#
# _framework density 28.673432999999999
#
# number of rings (size 3 to 8) (size 9 to 14) (size 15 to 20)
#    0.000    1.000    1.667    3.000    7.000    8.000 
#    3.000    0.000    0.000    0.000    0.000    0.000 
#    0.000    0.000    0.000    0.000    0.000    0.000 
#
# Total GULP energy -66915.067149 kJ/mol
# GULP energy per Si atom -5576.255596 kJ/mol
# Density = 2.860817 g / cm^3
# Si number density = 28.673433 Si / 1000 Ang^3
#
#
#
# Elastic Constant Matrix: (Units=GPa)
#
#
# Indices 1 2 3 4 5 6 
#
# 1 102.8119 21.7336 16.7115 19.4028 -34.0445 -39.4871
# 2 21.7336 123.2850 27.5693 -12.8428 -23.6230 -23.4485
# 3 16.7115 27.5693 96.0897 -1.4381 -16.9996 -8.9607
# 4 19.4028 -12.8428 -1.4381 54.6205 5.9579 0.1611
# 5 -34.0445 -23.6230 -16.9996 5.9579 42.5756 8.3484
# 6 -39.4871 -23.4485 -8.9607 0.1611 8.3484 79.9522
#
#
#
# Elastic Compliance Matrix: (Units=1/GPa)
#
#
# Indices 1 2 3 4 5 6 
#
# 1 0.019474 0.000153 -0.000112 -0.008570 0.015228 0.008078
# 2 0.000153 0.009937 -0.001895 0.001770 0.004173 0.002338
# 3 -0.000112 -0.001895 0.011612 -0.000483 0.003499 0.000326
# 4 -0.008570 0.001770 -0.000483 0.022710 -0.008671 -0.002908
# 5 0.015228 0.004173 0.003499 -0.008671 0.039606 0.005019
# 6 0.008078 0.002338 0.000326 -0.002908 0.005019 0.016701
#
#
# Mechanical properties :
#
#
# Convention : Reuss Voigt Hill
#
# Bulk Modulus (GPa) = 26.79738 50.46836 38.63287
# Shear Modulus (GPa) = 36.71439 52.50783 44.61111
#
# Velocity S-wave (km/s) = 3.58219 4.28394 3.94869
# Velocity P-wave (km/s) = 5.14543 6.48913 5.85595
#
# Compressibility (1/GPa) = 0.03731709
#
# Stress axis : x y z
#
# Youngs Moduli (GPa) = 51.34943 100.63661 86.11548
#
# Poissons Ratio (x) = -0.01544 0.00963
# Poissons Ratio (y) = -0.00788 0.16317
# Poissons Ratio (z) = 0.00574 0.19068
#
# Static dielectric constant tensor:
#      x y z
#    x 2.515620 -0.046890 0.227960 
#    y -0.046890 2.366040 0.009840 
#    z 0.227960 0.009840 2.668560 
# 
# From -- ./inp_files/86161.got.cif
#   From: 2010.05.17/outbox.cif.g08.bks.cpg/sg2_44_cif.got.tgz:86161.got - 2010.06.03 11:33:40.
