data_PCOD9050342
_publ_section_title
;
Structure prediction by ZEFSAII (Michael W. Deem and Ramdas Pophale) SiO2 
 PCOD9050342
Probable space group: P -1
;
_chemical_formula_sum "Si O2"
_cell_formula_units_Z 8
_cell_length_a 9.774487
_cell_length_b 5.572851
_cell_length_c 9.041221
_cell_angle_alpha 122.220855
_cell_angle_beta 126.359347
_cell_angle_gamma 70.565700
_cell_volume 335.432094
_symmetry_space_group_name_H-M "P -1"
_symmetry_group_IT_number 2
_symmetry_cell_setting 'triclinic'
loop_
_space_group_symop_operation_xyz
x,y,z
-x,-y,-z
loop_
_atom_site_type_symbol
_atom_site_label
_atom_site_fract_x
_atom_site_fract_y
_atom_site_fract_z
Si Si1 0.334175 0.879970 0.926437
Si Si2 0.972040 0.097806 0.731724
Si Si3 0.331097 0.963831 0.282388
Si Si4 0.165559 0.486619 0.462680
O O1 0.285759 0.618266 0.705690
O O2 0.171860 0.100222 0.890558
O O3 0.500000 0.000000 0.000000
O O4 0.364567 0.824418 0.100382
O O5 0.925200 0.267671 0.610293
O O6 0.829699 0.187519 0.792458
O O7 0.940407 0.757960 0.605061
O O8 0.265313 0.292030 0.341028
O O9 0.500000 0.000000 0.500000
#
# Coordination Sequence:
#
# PCOD9050342 Si02
#       4
#     2   2   2   2
#     4  12  25  45  75 109 139 191 234 290 356 418
#     4  10  24  51  72 103 145 184 234 293 349 418
#     4  10  25  47  73 103 145 184 239 287 352 415
#     4  10  25  49  74 101 146 182 237 292 348 416
#
# _framework density 23.849834999999999
#
# number of rings (size 3 to 8) (size 9 to 14) (size 15 to 20)
#    1.500    0.000    0.000    3.750    0.000    6.000 
#    9.000    0.000    0.000    0.000    0.000    0.000 
#    0.000    0.000    0.000    0.000    0.000    0.000 
#
# Total GULP energy -44634.241456 kJ/mol
# GULP energy per Si atom -5579.280182 kJ/mol
# Density = 2.379555 g / cm^3
# Si number density = 23.849835 Si / 1000 Ang^3
#
#
#
# Elastic Constant Matrix: (Units=GPa)
#
#
# Indices 1 2 3 4 5 6 
#
# 1 189.4939 24.6754 66.7736 -11.0093 11.8084 26.2428
# 2 24.6754 133.6444 34.5366 -13.7484 3.1201 11.8299
# 3 66.7736 34.5366 138.6672 -10.9087 -7.5130 11.2332
# 4 -11.0093 -13.7484 -10.9087 33.6422 -4.1859 -4.6652
# 5 11.8084 3.1201 -7.5130 -4.1859 54.5066 -9.7414
# 6 26.2428 11.8299 11.2332 -4.6652 -9.7414 26.4996
#
#
#
# Elastic Compliance Matrix: (Units=1/GPa)
#
#
# Indices 1 2 3 4 5 6 
#
# 1 0.007691 0.000194 -0.003325 0.000035 -0.003486 -0.007569
# 2 0.000194 0.008471 -0.001822 0.002342 -0.001174 -0.003221
# 3 -0.003325 -0.001822 0.009429 0.001719 0.002494 0.001328
# 4 0.000035 0.002342 0.001719 0.032407 0.003511 0.005187
# 5 -0.003486 -0.001174 0.002494 0.003511 0.021850 0.011569
# 6 -0.007569 -0.003221 0.001328 0.005187 0.011569 0.051273
#
#
# Mechanical properties :
#
#
# Convention : Reuss Voigt Hill
#
# Bulk Modulus (GPa) = 63.75072 79.30853 71.52962
# Shear Modulus (GPa) = 34.18724 45.31769 39.75246
#
# Velocity S-wave (km/s) = 3.79018 4.36377 4.08705
# Velocity P-wave (km/s) = 6.77806 7.66260 7.23386
#
# Compressibility (1/GPa) = 0.01568610
#
# Stress axis : x y z
#
# Youngs Moduli (GPa) = 130.02264 118.05135 106.05554
#
# Poissons Ratio (x) = -0.02292 0.35262
# Poissons Ratio (y) = -0.02524 0.19320
# Poissons Ratio (z) = 0.43230 0.21505
#
# Static dielectric constant tensor:
#      x y z
#    x 1.964810 -0.162250 -0.010550 
#    y -0.162250 1.901160 0.010090 
#    z -0.010550 0.010090 1.887530 
# 
# From -- ./inp_files/15377.got.cif
#   From: 2010.05.17/outbox.cif.g08.bks.cpg/sg2_8_cif.got.tgz:15377.got - 2010.06.03 11:33:40.
