data_PCOD9050622
_publ_section_title
;
Structure prediction by ZEFSAII (Michael W. Deem and Ramdas Pophale) SiO2 
 PCOD9050622
Probable space group: P -1
;
_chemical_formula_sum "Si O2"
_cell_formula_units_Z 12
_cell_length_a 6.843547
_cell_length_b 11.440404
_cell_length_c 9.615002
_cell_angle_alpha 53.509382
_cell_angle_beta 93.133480
_cell_angle_gamma 128.510390
_cell_volume 409.653622
_symmetry_space_group_name_H-M "P -1"
_symmetry_group_IT_number 2
_symmetry_cell_setting 'triclinic'
loop_
_space_group_symop_operation_xyz
x,y,z
-x,-y,-z
loop_
_atom_site_type_symbol
_atom_site_label
_atom_site_fract_x
_atom_site_fract_y
_atom_site_fract_z
Si Si1 0.346161 0.107541 0.196701
Si Si2 0.699110 0.428524 0.424668
Si Si3 0.816754 0.235937 0.960984
Si Si4 0.232123 0.257942 0.299132
Si Si5 0.817816 0.300802 0.293538
Si Si6 0.806173 0.895134 0.203358
O O1 0.352767 0.277572 0.136255
O O2 0.532924 0.133668 0.306694
O O3 0.008137 0.904987 0.301646
O O4 0.514083 0.151773 0.031846
O O5 0.018801 0.667250 0.249575
O O6 0.489448 0.389130 0.329036
O O7 0.736225 0.286612 0.462132
O O8 0.522106 0.335939 0.625520
O O9 0.024836 0.457132 0.898773
O O10 0.799890 0.061179 0.129968
O O11 0.046331 0.300734 0.276746
O O12 0.000000 0.000000 0.500000
O O13 0.000000 0.000000 0.000000
#
# Coordination Sequence:
#
# PCOD9050622 Si02
#       6
#     2   2   2   2   2   2
#     4  11  23  40  68 101 138 174 218 270 332 404
#     4   9  24  43  65  99 134 173 219 274 337 391
#     4  10  25  43  68 100 139 170 218 281 334 395
#     4  11  21  37  69 107 137 176 211 270 340 408
#     4   9  23  40  67 104 140 171 209 271 348 399
#     4  12  27  47  70  94 130 183 235 273 324 391
#
# _framework density 29.293040000000001
#
# number of rings (size 3 to 8) (size 9 to 14) (size 15 to 20)
#    1.000    0.667    1.667    1.500    4.667    4.000 
#    0.000    0.833    0.000    0.000    0.000    0.000 
#    0.000    0.000    0.000    0.000    0.000    0.000 
#
# Total GULP energy -67067.896392 kJ/mol
# GULP energy per Si atom -5588.991366 kJ/mol
# Density = 2.922637 g / cm^3
# Si number density = 29.293040 Si / 1000 Ang^3
#
#
#
# Elastic Constant Matrix: (Units=GPa)
#
#
# Indices 1 2 3 4 5 6 
#
# 1 241.1048 49.7271 71.4286 7.1092 -38.7660 -36.2113
# 2 49.7271 89.2227 31.7366 -3.3491 0.5851 -36.3602
# 3 71.4286 31.7366 163.8054 12.3785 -48.5405 -10.6204
# 4 7.1092 -3.3491 12.3785 46.5896 -9.4612 2.8779
# 5 -38.7660 0.5851 -48.5405 -9.4612 64.3826 2.6772
# 6 -36.2113 -36.3602 -10.6204 2.8779 2.6772 54.7156
#
#
#
# Elastic Compliance Matrix: (Units=1/GPa)
#
#
# Indices 1 2 3 4 5 6 
#
# 1 0.005596 -0.001830 -0.001235 -0.000319 0.002319 0.002151
# 2 -0.001830 0.017463 -0.003179 0.000969 -0.003928 0.009917
# 3 -0.001235 -0.003179 0.009026 -0.001136 0.005982 -0.001411
# 4 -0.000319 0.000969 -0.001136 0.022414 0.002281 -0.001078
# 5 0.002319 -0.003928 0.005982 0.002281 0.021855 -0.001104
# 6 0.002151 0.009917 -0.001411 -0.001078 -0.001104 0.026127
#
#
# Mechanical properties :
#
#
# Convention : Reuss Voigt Hill
#
# Bulk Modulus (GPa) = 51.03090 88.87972 69.95531
# Shear Modulus (GPa) = 41.15130 55.88694 48.51912
#
# Velocity S-wave (km/s) = 3.75215 4.37264 4.07423
# Velocity P-wave (km/s) = 6.01915 7.47668 6.78716
#
# Compressibility (1/GPa) = 0.01959597
#
# Stress axis : x y z
#
# Youngs Moduli (GPa) = 178.69189 57.26551 110.78566
#
# Poissons Ratio (x) = 0.10482 0.13681
# Poissons Ratio (y) = 0.32707 0.35222
# Poissons Ratio (z) = 0.22067 0.18207
#
# Static dielectric constant tensor:
#      x y z
#    x 2.173020 -0.029460 0.008780 
#    y -0.029460 2.292340 0.132740 
#    z 0.008780 0.132740 2.569750 
# 
# From -- ./inp_files/363638.got.cif
#   From: 2010.05.17/outbox.cif.g08.bks.cpg/sg2_182_cif.got.tgz:363638.got - 2010.06.03 11:33:40.
