data_PCOD9050497
_publ_section_title
;
Structure prediction by ZEFSAII (Michael W. Deem and Ramdas Pophale) SiO2 
 PCOD9050497
Probable space group: P -1
;
_chemical_formula_sum "Si O2"
_cell_formula_units_Z 14
_cell_length_a 8.155660
_cell_length_b 11.955790
_cell_length_c 10.136759
_cell_angle_alpha 121.827633
_cell_angle_beta 117.103663
_cell_angle_gamma 36.409955
_cell_volume 497.510850
_symmetry_space_group_name_H-M "P -1"
_symmetry_group_IT_number 2
_symmetry_cell_setting 'triclinic'
loop_
_space_group_symop_operation_xyz
x,y,z
-x,-y,-z
loop_
_atom_site_type_symbol
_atom_site_label
_atom_site_fract_x
_atom_site_fract_y
_atom_site_fract_z
Si Si1 0.533504 0.557021 0.325270
Si Si2 0.102567 0.259575 0.264449
Si Si3 0.084998 0.315103 0.745890
Si Si4 0.655773 0.146638 0.887805
Si Si5 0.899497 0.278014 0.924823
Si Si6 0.540352 0.276476 0.230080
Si Si7 0.312166 0.928771 0.585597
O O1 0.406636 0.547431 0.147218
O O2 0.597327 0.400921 0.345523
O O3 0.314812 0.786442 0.425440
O O4 0.825744 0.465385 0.350676
O O5 0.375607 0.185800 0.363893
O O6 0.157604 0.079581 0.213313
O O7 0.036522 0.278851 0.098010
O O8 0.348242 0.270259 0.799497
O O9 0.061553 0.268208 0.857548
O O10 0.793079 0.540140 0.749497
O O11 0.144976 0.139656 0.592404
O O12 0.818445 0.179365 0.900641
O O13 0.603926 0.190246 0.053346
O O14 0.718982 0.095891 0.286382
#
# Coordination Sequence:
#
# PCOD9050497 Si02
#       7
#     2   2   2   2   2   2   2
#     4  11  25  42  65 101 130 179 221 264 342 397
#     4  11  23  42  67  99 130 174 223 272 334 393
#     4  10  25  42  66 104 130 178 222 269 339 392
#     4  11  23  42  68 103 132 168 227 279 332 389
#     4  11  23  41  71  96 133 169 220 285 323 386
#     4  11  23  41  69  95 133 175 221 277 331 392
#     4  11  25  46  65  95 142 174 219 275 327 403
#
# _framework density 28.140090000000001
#
# number of rings (size 3 to 8) (size 9 to 14) (size 15 to 20)
#    0.000    1.143    1.429    3.857    6.000    4.571 
#    2.571    1.429    0.000    0.000    0.000    0.000 
#    0.000    0.000    0.000    0.000    0.000    0.000 
#
# Total GULP energy -78172.510688 kJ/mol
# GULP energy per Si atom -5583.750763 kJ/mol
# Density = 2.807604 g / cm^3
# Si number density = 28.140090 Si / 1000 Ang^3
#
#
#
# Elastic Constant Matrix: (Units=GPa)
#
#
# Indices 1 2 3 4 5 6 
#
# 1 114.4942 38.1674 22.1717 0.2154 30.9238 -16.0973
# 2 38.1674 112.6819 19.5872 -0.8894 16.6974 7.0247
# 3 22.1717 19.5872 71.3996 7.2748 14.1955 3.6853
# 4 0.2154 -0.8894 7.2748 29.4443 -5.0308 15.9694
# 5 30.9238 16.6974 14.1955 -5.0308 34.5775 2.2208
# 6 -16.0973 7.0247 3.6853 15.9694 2.2208 50.4370
#
#
#
# Elastic Compliance Matrix: (Units=1/GPa)
#
#
# Indices 1 2 3 4 5 6 
#
# 1 0.014477 -0.003457 -0.000852 -0.006282 -0.012337 0.007696
# 2 -0.003457 0.010689 -0.001780 0.002378 -0.000789 -0.003180
# 3 -0.000852 -0.001780 0.016480 -0.005582 -0.006008 0.000804
# 4 -0.006282 0.002378 -0.005582 0.047556 0.014813 -0.017638
# 5 -0.012337 -0.000789 -0.006008 0.014813 0.045604 -0.010087
# 6 0.007696 -0.003180 0.000804 -0.017638 -0.010087 0.028696
#
#
# Mechanical properties :
#
#
# Convention : Reuss Voigt Hill
#
# Bulk Modulus (GPa) = 33.93407 50.93648 42.43527
# Shear Modulus (GPa) = 26.95364 37.46838 32.21101
#
# Velocity S-wave (km/s) = 3.09825 3.65292 3.38696
# Velocity P-wave (km/s) = 4.98839 5.99434 5.51435
#
# Compressibility (1/GPa) = 0.02946891
#
# Stress axis : x y z
#
# Youngs Moduli (GPa) = 69.07322 93.55557 60.67861
#
# Poissons Ratio (x) = 0.32342 0.05168
# Poissons Ratio (y) = 0.23879 0.10801
# Poissons Ratio (z) = 0.05883 0.16654
#
# Static dielectric constant tensor:
#      x y z
#    x 2.245180 0.016940 -0.098520 
#    y 0.016940 2.199280 0.039820 
#    z -0.098520 0.039820 2.301210 
# 
# From -- ./inp_files/237447.got.cif
#   From: 2010.05.17/outbox.cif.g08.bks.cpg/sg2_119_cif.got.tgz:237447.got - 2010.06.03 11:33:40.
