data_PCOD9050315
_publ_section_title
;
Structure prediction by ZEFSAII (Michael W. Deem and Ramdas Pophale) SiO2 
 PCOD9050315
Probable space group: P -1
;
_chemical_formula_sum "Si O2"
_cell_formula_units_Z 15
_cell_length_a 9.328331
_cell_length_b 7.075045
_cell_length_c 23.061978
_cell_angle_alpha 112.075137
_cell_angle_beta 34.943714
_cell_angle_gamma 94.194059
_cell_volume 724.434716
_symmetry_space_group_name_H-M "P -1"
_symmetry_group_IT_number 2
_symmetry_cell_setting 'triclinic'
loop_
_space_group_symop_operation_xyz
x,y,z
-x,-y,-z
loop_
_atom_site_type_symbol
_atom_site_label
_atom_site_fract_x
_atom_site_fract_y
_atom_site_fract_z
Si Si1 0.114444 0.356241 0.387170
Si Si2 0.224676 0.210493 0.638337
Si Si3 0.335760 0.915837 0.998611
Si Si4 0.803324 0.957778 0.247737
Si Si5 0.300703 0.550228 0.238465
Si Si6 0.511827 0.512687 0.566216
Si Si7 0.607135 0.857104 0.189400
Si Si8 0.000000 0.000000 0.000000
O O1 0.237171 0.475870 0.314237
O O2 0.000000 0.500000 0.500000
O O3 0.833820 0.357759 0.455661
O O4 0.351785 0.105096 0.290914
O O5 0.143178 0.135493 0.716286
O O6 0.308821 0.413473 0.646543
O O7 0.988968 0.284436 0.676303
O O8 0.500000 0.000000 0.500000
O O9 0.093298 0.913012 0.118290
O O10 0.560994 0.673666 0.872293
O O11 0.173719 0.031943 0.005058
O O12 0.500000 0.000000 0.000000
O O13 0.669963 0.841182 0.235345
O O14 0.595649 0.227357 0.348904
O O15 0.508479 0.666766 0.184677
O O16 0.500000 0.500000 0.500000
O O17 0.863743 0.866851 0.070564
#
# Coordination Sequence:
#
# PCOD9050315 Si02
#       8
#     2   2   2   2   2   2   2   1
#     4  12  25  45  71 104 142 188 237 297 366 430
#     4  12  25  43  69 103 143 184 236 299 355 433
#     4  11  26  49  76 106 147 192 250 302 369 442
#     4  11  26  45  66 107 135 189 245 290 364 436
#     4  12  27  47  73 108 142 194 242 300 369 435
#     4  12  23  43  69  97 142 187 232 291 363 423
#     4  11  26  47  73 101 146 183 243 301 363 439
#     4  10  24  50  76 100 150 194 234 312 366 424
#
# _framework density 20.705798999999999
#
# number of rings (size 3 to 8) (size 9 to 14) (size 15 to 20)
#    0.000    0.533    5.333    1.600    3.733    3.200 
#    7.200    0.000    0.000    0.000    0.000    0.000 
#    0.000    0.000    0.000    0.000    0.000    0.000 
#
# Total GULP energy -83525.537604 kJ/mol
# GULP energy per Si atom -5568.369174 kJ/mol
# Density = 2.065867 g / cm^3
# Si number density = 20.705799 Si / 1000 Ang^3
#
#
#
# Elastic Constant Matrix: (Units=GPa)
#
#
# Indices 1 2 3 4 5 6 
#
# 1 147.4118 36.0257 30.2281 0.1398 11.1881 7.4230
# 2 36.0257 65.2144 38.5790 -2.2361 19.2840 13.1656
# 3 30.2281 38.5790 86.8578 -12.7950 15.8931 -11.1405
# 4 0.1398 -2.2361 -12.7950 25.0665 -2.9560 0.5273
# 5 11.1881 19.2840 15.8931 -2.9560 38.1251 -5.6153
# 6 7.4230 13.1656 -11.1405 0.5273 -5.6153 41.7699
#
#
#
# Elastic Compliance Matrix: (Units=1/GPa)
#
#
# Indices 1 2 3 4 5 6 
#
# 1 0.007964 -0.003301 -0.001532 -0.001132 -0.000234 -0.000801
# 2 -0.003301 0.031050 -0.013039 -0.004957 -0.011777 -0.014198
# 3 -0.001532 -0.013039 0.020297 0.009086 0.000728 0.009779
# 4 -0.001132 -0.004957 0.009086 0.044375 0.003088 0.004042
# 5 -0.000234 -0.011777 0.000728 0.003088 0.033428 0.008403
# 6 -0.000801 -0.014198 0.009779 0.004042 0.008403 0.032245
#
#
# Mechanical properties :
#
#
# Convention : Reuss Voigt Hill
#
# Bulk Modulus (GPa) = 42.43201 56.57218 49.50210
# Shear Modulus (GPa) = 23.47888 33.96905 28.72397
#
# Velocity S-wave (km/s) = 3.37104 4.05477 3.72861
# Velocity P-wave (km/s) = 5.97404 7.02160 6.51889
#
# Compressibility (1/GPa) = 0.02356711
#
# Stress axis : x y z
#
# Youngs Moduli (GPa) = 125.56922 32.20643 49.26853
#
# Poissons Ratio (x) = 0.10631 0.07547
# Poissons Ratio (y) = 0.41450 0.64240
# Poissons Ratio (z) = 0.19235 0.41993
#
# Static dielectric constant tensor:
#      x y z
#    x 1.735020 -0.010350 0.009320 
#    y -0.010350 1.755470 0.034520 
#    z 0.009320 0.034520 1.742410 
# 
# From -- ./inp_files/389670.got.cif
#   From: 2010.05.17/outbox.cif.g08.bks.cpg/sg2_195_cif.got.tgz:389670.got - 2010.06.03 11:33:40.
