data_PCOD9050865
_publ_section_title
;
Structure prediction by ZEFSAII (Michael W. Deem and Ramdas Pophale) SiO2 
 PCOD9050865
Probable space group: P -1
;
_chemical_formula_sum "Si O2"
_cell_formula_units_Z 13
_cell_length_a 8.195186
_cell_length_b 12.017974
_cell_length_c 6.811344
_cell_angle_alpha 53.621769
_cell_angle_beta 97.864317
_cell_angle_gamma 116.260468
_cell_volume 476.982743
_symmetry_space_group_name_H-M "P -1"
_symmetry_group_IT_number 2
_symmetry_cell_setting 'triclinic'
loop_
_space_group_symop_operation_xyz
x,y,z
-x,-y,-z
loop_
_atom_site_type_symbol
_atom_site_label
_atom_site_fract_x
_atom_site_fract_y
_atom_site_fract_z
Si Si1 0.359722 0.344463 0.750855
Si Si2 0.000000 0.000000 0.000000
Si Si3 0.489452 0.137035 0.478786
Si Si4 0.262693 0.852576 0.164381
Si Si5 0.062175 0.321543 0.440836
Si Si6 0.304240 0.680817 0.012322
Si Si7 0.153536 0.195505 0.219522
O O1 0.500000 0.500000 0.500000
O O2 0.183971 0.261529 0.663130
O O3 0.496269 0.275516 0.905274
O O4 0.270043 0.349121 0.941162
O O5 0.045304 0.069947 0.167883
O O6 0.188648 0.976503 0.058076
O O7 0.547289 0.117031 0.728188
O O8 0.303624 0.153725 0.397229
O O9 0.500000 0.000000 0.500000
O O10 0.651585 0.286266 0.242188
O O11 0.241364 0.790388 0.006261
O O12 0.109208 0.711574 0.416165
O O13 0.174344 0.502334 0.224299
O O14 0.039203 0.233551 0.325152
#
# Coordination Sequence:
#
# PCOD9050865 Si02
#       7
#     2   1   2   2   2   2   2
#     4   9  20  42  69 102 133 178 218 281 336 394
#     4  12  26  46  70  98 138 180 228 284 332 406
#     4  11  25  46  69 103 135 186 223 279 340 401
#     4  12  26  45  69 103 138 180 226 281 342 398
#     4  11  24  43  74 102 136 181 223 287 338 399
#     4  10  25  44  70 103 141 175 228 280 339 409
#     4  11  24  46  71 101 135 176 236 273 337 410
#
# _framework density 27.254657000000002
#
# number of rings (size 3 to 8) (size 9 to 14) (size 15 to 20)
#    0.000    1.231    3.077    1.385    2.154   11.077 
#    0.000    0.000    0.000    0.000    0.000    0.000 
#    0.000    0.000    0.000    0.000    0.000    0.000 
#
# Total GULP energy -72592.156771 kJ/mol
# GULP energy per Si atom -5584.012059 kJ/mol
# Density = 2.719262 g / cm^3
# Si number density = 27.254657 Si / 1000 Ang^3
#
#
#
# Elastic Constant Matrix: (Units=GPa)
#
#
# Indices 1 2 3 4 5 6 
#
# 1 65.8599 22.6481 19.1722 17.9507 1.6094 12.8314
# 2 22.6481 93.9586 21.1987 18.3900 2.2100 -5.2611
# 3 19.1722 21.1987 129.0040 11.9991 10.2142 10.9373
# 4 17.9507 18.3900 11.9991 54.3276 11.9023 -3.3591
# 5 1.6094 2.2100 10.2142 11.9023 59.9562 12.5027
# 6 12.8314 -5.2611 10.9373 -3.3591 12.5027 39.7120
#
#
#
# Elastic Compliance Matrix: (Units=1/GPa)
#
#
# Indices 1 2 3 4 5 6 
#
# 1 0.020050 -0.003850 -0.001314 -0.006120 0.002710 -0.007997
# 2 -0.003850 0.012568 -0.001521 -0.002381 -0.000300 0.003221
# 3 -0.001314 -0.001521 0.008506 -0.000880 -0.000777 -0.001949
# 4 -0.006120 -0.002381 -0.000880 0.022931 -0.005300 0.005512
# 5 0.002710 -0.000300 -0.000777 -0.005300 0.019309 -0.007229
# 6 -0.007997 0.003221 -0.001949 0.005512 -0.007229 0.031471
#
#
# Mechanical properties :
#
#
# Convention : Reuss Voigt Hill
#
# Bulk Modulus (GPa) = 36.03292 46.09562 41.06427
# Shear Modulus (GPa) = 36.37513 45.85272 41.11393
#
# Velocity S-wave (km/s) = 3.65723 4.10613 3.88817
# Velocity P-wave (km/s) = 5.57524 6.27934 5.93774
#
# Compressibility (1/GPa) = 0.02775240
#
# Stress axis : x y z
#
# Youngs Moduli (GPa) = 49.87467 79.56934 117.57030
#
# Poissons Ratio (x) = 0.30636 0.15454
# Poissons Ratio (y) = 0.19203 0.17880
# Poissons Ratio (z) = 0.06556 0.12101
#
# Static dielectric constant tensor:
#      x y z
#    x 2.098430 0.101830 -0.006830 
#    y 0.101830 2.048730 -0.017950 
#    z -0.006830 -0.017950 2.114350 
# 
# From -- ./inp_files/26298.got.cif
#   From: 2010.05.17/outbox.cif.g08.bks.cpg/sg2_14_cif.got.tgz:26298.got - 2010.06.03 11:33:40.
