data_PCOD9050604
_publ_section_title
;
Structure prediction by ZEFSAII (Michael W. Deem and Ramdas Pophale) SiO2 
 PCOD9050604
Probable space group: P -1
;
_chemical_formula_sum "Si O2"
_cell_formula_units_Z 14
_cell_length_a 12.328587
_cell_length_b 11.659494
_cell_length_c 9.593022
_cell_angle_alpha 47.648201
_cell_angle_beta 58.018665
_cell_angle_gamma 40.920944
_cell_volume 666.906609
_symmetry_space_group_name_H-M "P -1"
_symmetry_group_IT_number 2
_symmetry_cell_setting 'triclinic'
loop_
_space_group_symop_operation_xyz
x,y,z
-x,-y,-z
loop_
_atom_site_type_symbol
_atom_site_label
_atom_site_fract_x
_atom_site_fract_y
_atom_site_fract_z
Si Si1 0.807914 0.816997 0.585541
Si Si2 0.683942 0.343077 0.790263
Si Si3 0.672622 0.474237 0.163660
Si Si4 0.893649 0.208282 0.486374
Si Si5 0.755093 0.965074 0.196235
Si Si6 0.133662 0.591560 0.179085
Si Si7 0.467741 0.069017 0.123773
O O1 0.739654 0.949488 0.383911
O O2 0.844274 0.608733 0.695816
O O3 0.670960 0.927252 0.709830
O O4 0.975181 0.769705 0.561008
O O5 0.488724 0.508443 0.758343
O O6 0.786021 0.231239 0.671194
O O7 0.758661 0.434109 0.742251
O O8 0.713264 0.172955 0.010378
O O9 0.767318 0.375346 0.323346
O O10 0.798203 0.369572 0.034262
O O11 0.601950 0.702605 0.019401
O O12 0.000000 0.000000 0.500000
O O13 0.943913 0.780659 0.180061
O O14 0.631541 0.951099 0.203901
O O15 0.500000 0.000000 0.000000
#
# Coordination Sequence:
#
# PCOD9050604 Si02
#       7
#     2   2   2   2   2   2   2
#     4  11  26  44  67 102 133 177 225 276 338 392
#     4  11  24  45  69 100 133 179 223 273 338 394
#     4  10  25  43  66  98 135 176 222 275 335 398
#     4  12  27  44  67 100 138 178 227 273 334 401
#     4  11  23  43  69  99 136 174 227 271 334 401
#     4  11  23  43  70 100 130 174 227 280 331 394
#     4  10  25  43  69  99 136 178 217 279 339 396
#
# _framework density 20.992446999999999
#
# number of rings (size 3 to 8) (size 9 to 14) (size 15 to 20)
#    0.000    1.143    1.429    3.000   10.000    1.143 
#    2.571    0.000    0.000    0.000    0.000    0.000 
#    0.000    0.000    0.000    0.000    0.000    0.000 
#
# Total GULP energy -78348.653864 kJ/mol
# GULP energy per Si atom -5596.332419 kJ/mol
# Density = 2.094467 g / cm^3
# Si number density = 20.992447 Si / 1000 Ang^3
#
#
#
# Elastic Constant Matrix: (Units=GPa)
#
#
# Indices 1 2 3 4 5 6 
#
# 1 117.2106 31.7988 63.1531 -8.3059 20.3883 -25.6246
# 2 31.7988 48.8698 37.4502 20.0852 5.0660 -10.2760
# 3 63.1531 37.4502 102.7950 -2.0870 24.2414 -14.7726
# 4 -8.3059 20.0852 -2.0870 3.2623 -1.9567 1.5326
# 5 20.3883 5.0660 24.2414 -1.9567 35.6206 -0.4285
# 6 -25.6246 -10.2760 -14.7726 1.5326 -0.4285 39.9327
#
#
#
# Elastic Compliance Matrix: (Units=1/GPa)
#
#
# Indices 1 2 3 4 5 6 
#
# 1 0.012530 0.005754 -0.008382 -0.013919 -0.002967 0.006923
# 2 0.005754 -0.006806 -0.000154 0.057141 0.000915 -0.000299
# 3 -0.008382 -0.000154 0.016503 -0.014707 -0.007205 0.001174
# 4 -0.013919 0.057141 -0.014707 -0.088893 0.005012 0.003797
# 5 -0.002967 0.000915 -0.007205 0.005012 0.034771 -0.004153
# 6 0.006923 -0.000299 0.001174 0.003797 -0.004153 0.029651
#
#
# Mechanical properties :
#
#
# Convention : Reuss Voigt Hill
#
# Bulk Modulus (GPa) = 60.01379 59.29774 59.65576
# Shear Modulus (GPa) = 563.28499 24.86134 294.07317
#
# Velocity S-wave (km/s) = 16.39847 3.44510 11.84860
# Velocity P-wave (km/s) = 19.67732 6.64330 14.68554
#
# Compressibility (1/GPa) = 0.01666284
#
# Stress axis : x y z
#
# Youngs Moduli (GPa) = 79.80668 -146.93774 60.59372
#
# Poissons Ratio (x) = 0.84550 0.50793
# Poissons Ratio (y) = -0.45922 0.00935
# Poissons Ratio (z) = 0.66898 -0.02266
#
# Static dielectric constant tensor:
#      x y z
#    x 1.748250 0.000430 -0.017780 
#    y 0.000430 1.742540 0.012570 
#    z -0.017780 0.012570 1.748030 
# 
# From -- ./inp_files/154179.got.cif
#   From: 2010.05.17/outbox.cif.g08.bks.cpg/sg2_78_cif.got.tgz:154179.got - 2010.06.03 11:33:40.
