data_PCOD9050159
_publ_section_title
;
Structure prediction by ZEFSAII (Michael W. Deem and Ramdas Pophale) SiO2 
 PCOD9050159
Probable space group: P -1
;
_chemical_formula_sum "Si O2"
_cell_formula_units_Z 14
_cell_length_a 17.388030
_cell_length_b 6.854792
_cell_length_c 5.465312
_cell_angle_alpha 85.270340
_cell_angle_beta 83.168390
_cell_angle_gamma 118.371314
_cell_volume 561.857146
_symmetry_space_group_name_H-M "P -1"
_symmetry_group_IT_number 2
_symmetry_cell_setting 'triclinic'
loop_
_space_group_symop_operation_xyz
x,y,z
-x,-y,-z
loop_
_atom_site_type_symbol
_atom_site_label
_atom_site_fract_x
_atom_site_fract_y
_atom_site_fract_z
Si Si1 0.321559 0.234858 0.026309
Si Si2 0.098406 0.540386 0.526315
Si Si3 0.388216 0.941966 0.295207
Si Si4 0.191215 0.955853 0.740999
Si Si5 0.972566 0.162761 0.868853
Si Si6 0.600522 0.264459 0.187978
Si Si7 0.156609 0.214380 0.362357
O O1 0.356062 0.125534 0.229708
O O2 0.236492 0.250127 0.154868
O O3 0.281694 0.052766 0.842675
O O4 0.384818 0.482703 0.870494
O O5 0.132476 0.411299 0.352423
O O6 0.000000 0.500000 0.500000
O O7 0.064890 0.388373 0.795505
O O8 0.173278 0.786708 0.541752
O O9 0.495134 0.092873 0.250220
O O10 0.362189 0.789566 0.569112
O O11 0.365371 0.788258 0.075270
O O12 0.185485 0.169779 0.619830
O O13 0.106069 0.824727 0.963476
O O14 0.927797 0.025419 0.651633
O O15 0.000000 0.000000 0.000000
#
# Coordination Sequence:
#
# PCOD9050159 Si02
#       7
#     2   2   2   2   2   2   2
#     4  11  27  46  71 106 155 193 237 306 385 443
#     4  12  23  43  72  88 131 189 243 306 360 431
#     4  10  24  48  80 116 149 198 256 295 368 454
#     4  11  25  42  63 102 135 185 239 298 378 446
#     4  11  21  43  65  88 127 175 239 300 355 431
#     4  10  24  48  80 115 152 197 250 307 358 452
#     4  11  25  43  62 101 137 179 239 302 368 444
#
# _framework density 24.917363000000002
#
# number of rings (size 3 to 8) (size 9 to 14) (size 15 to 20)
#    0.000    1.143    2.857    2.143    4.000    2.286 
#    0.000    4.286    0.000    0.000    0.000    0.000 
#    0.000    0.000    0.000    0.000    0.000    0.000 
#
# Total GULP energy -78189.732985 kJ/mol
# GULP energy per Si atom -5584.980927 kJ/mol
# Density = 2.486065 g / cm^3
# Si number density = 24.917363 Si / 1000 Ang^3
#
#
#
# Elastic Constant Matrix: (Units=GPa)
#
#
# Indices 1 2 3 4 5 6 
#
# 1 54.5904 37.6609 35.1735 6.5443 25.8334 -19.6443
# 2 37.6609 143.1085 46.1337 1.1794 14.4243 -14.9746
# 3 35.1735 46.1337 117.4432 -2.3688 23.4765 -10.5349
# 4 6.5443 1.1794 -2.3688 42.2723 -7.8093 -4.2617
# 5 25.8334 14.4243 23.4765 -7.8093 41.3641 -8.2362
# 6 -19.6443 -14.9746 -10.5349 -4.2617 -8.2362 37.7307
#
#
#
# Elastic Compliance Matrix: (Units=1/GPa)
#
#
# Indices 1 2 3 4 5 6 
#
# 1 0.039933 -0.005627 -0.004971 -0.008686 -0.019416 0.011950
# 2 -0.005627 0.009030 -0.002169 0.000901 0.001878 0.000560
# 3 -0.004971 -0.002169 0.011314 0.000922 -0.002534 -0.000739
# 4 -0.008686 0.000901 0.000922 0.026997 0.009946 0.001313
# 5 -0.019416 0.001878 -0.002534 0.009946 0.038870 -0.000463
# 6 0.011950 0.000560 -0.000739 0.001313 -0.000463 0.032789
#
#
# Mechanical properties :
#
#
# Convention : Reuss Voigt Hill
#
# Bulk Modulus (GPa) = 28.78300 61.45314 45.11807
# Shear Modulus (GPa) = 25.50385 37.35168 31.42776
#
# Velocity S-wave (km/s) = 3.20275 3.87592 3.55530
# Velocity P-wave (km/s) = 5.02526 6.68930 5.91608
#
# Compressibility (1/GPa) = 0.03474273
#
# Stress axis : x y z
#
# Youngs Moduli (GPa) = 25.04173 110.74693 88.38393
#
# Poissons Ratio (x) = 0.62321 0.43938
# Poissons Ratio (y) = 0.14092 0.19167
# Poissons Ratio (z) = 0.12449 0.24017
#
# Static dielectric constant tensor:
#      x y z
#    x 2.092310 0.349680 0.068070 
#    y 0.349680 4.449110 -0.154510 
#    z 0.068070 -0.154510 2.220220 
# 
# From -- ./inp_files/102851.got.cif
#   From: 2010.05.17/outbox.cif.g08.bks.cpg/sg2_52_cif.got.tgz:102851.got - 2010.06.03 11:33:40.
