data_PCOD9050445
_publ_section_title
;
Structure prediction by ZEFSAII (Michael W. Deem and Ramdas Pophale) SiO2 
 PCOD9050445
Probable space group: P -1
;
_chemical_formula_sum "Si O2"
_cell_formula_units_Z 12
_cell_length_a 5.149776
_cell_length_b 10.019402
_cell_length_c 10.774673
_cell_angle_alpha 70.110091
_cell_angle_beta 78.388669
_cell_angle_gamma 56.341019
_cell_volume 435.083078
_symmetry_space_group_name_H-M "P -1"
_symmetry_group_IT_number 2
_symmetry_cell_setting 'triclinic'
loop_
_space_group_symop_operation_xyz
x,y,z
-x,-y,-z
loop_
_atom_site_type_symbol
_atom_site_label
_atom_site_fract_x
_atom_site_fract_y
_atom_site_fract_z
Si Si1 0.234795 0.730176 0.364846
Si Si2 0.572674 0.396063 0.340061
Si Si3 0.592483 0.073513 0.355815
Si Si4 0.176140 0.644763 0.928916
Si Si5 0.709266 0.064313 0.103798
Si Si6 0.303424 0.239657 0.858863
O O1 0.260606 0.578076 0.328673
O O2 0.266533 0.662680 0.523216
O O3 0.546766 0.719662 0.284369
O O4 0.952380 0.923194 0.340379
O O5 0.786229 0.394868 0.208873
O O6 0.516986 0.250684 0.353134
O O7 0.500000 0.000000 0.500000
O O8 0.446401 0.103611 0.222418
O O9 0.165983 0.819822 0.894770
O O10 0.075343 0.353881 0.955187
O O11 0.500000 0.500000 0.000000
O O12 0.842327 0.867457 0.139809
O O13 0.602063 0.122993 0.955332
#
# Coordination Sequence:
#
# PCOD9050445 Si02
#       6
#     2   2   2   2   2   2
#     4  11  25  46  71 101 143 182 233 286 349 409
#     4  10  25  46  67 102 139 183 229 286 345 413
#     4  11  25  44  72 102 142 184 235 284 345 417
#     4  11  25  45  69 102 141 178 233 284 345 417
#     4  10  25  41  69 101 136 183 228 282 344 410
#     4  11  25  43  72 101 139 182 228 288 348 405
#
# _framework density 27.580942
#
# number of rings (size 3 to 8) (size 9 to 14) (size 15 to 20)
#    0.000    1.333    0.000    3.000   16.333    3.333 
#    9.000    0.000    0.000    0.000    0.000    0.000 
#    0.000    0.000    0.000    0.000    0.000    0.000 
#
# Total GULP energy -66967.387893 kJ/mol
# GULP energy per Si atom -5580.615658 kJ/mol
# Density = 2.751817 g / cm^3
# Si number density = 27.580942 Si / 1000 Ang^3
#
#
#
# Elastic Constant Matrix: (Units=GPa)
#
#
# Indices 1 2 3 4 5 6 
#
# 1 64.4322 57.7879 49.6689 0.3281 -33.4142 -1.3023
# 2 57.7879 218.5349 67.8643 4.1865 -7.4768 -5.4133
# 3 49.6689 67.8643 225.7470 26.3887 -51.4846 -3.0028
# 4 0.3281 4.1865 26.3887 65.1601 -3.6761 -2.3275
# 5 -33.4142 -7.4768 -51.4846 -3.6761 42.0225 -0.0987
# 6 -1.3023 -5.4133 -3.0028 -2.3275 -0.0987 39.2023
#
#
#
# Elastic Compliance Matrix: (Units=1/GPa)
#
#
# Indices 1 2 3 4 5 6 
#
# 1 0.039712 -0.009821 0.001184 0.001733 0.031433 0.000236
# 2 -0.009821 0.007551 -0.002181 -0.000049 -0.009141 0.000523
# 3 0.001184 -0.002181 0.007177 -0.002250 0.009150 0.000177
# 4 0.001733 -0.000049 -0.002250 0.016285 0.000040 0.000845
# 5 0.031433 -0.009141 0.009150 0.000040 0.058379 0.000632
# 6 0.000236 0.000523 0.000177 0.000845 0.000632 0.025654
#
#
# Mechanical properties :
#
#
# Convention : Reuss Voigt Hill
#
# Bulk Modulus (GPa) = 30.48365 95.48405 62.98385
# Shear Modulus (GPa) = 26.69076 51.50319 39.09697
#
# Velocity S-wave (km/s) = 3.11420 4.32597 3.76910
# Velocity P-wave (km/s) = 4.89974 7.72313 6.46739
#
# Compressibility (1/GPa) = 0.03280447
#
# Stress axis : x y z
#
# Youngs Moduli (GPa) = 25.18111 132.42462 139.33065
#
# Poissons Ratio (x) = 1.30053 -0.16497
# Poissons Ratio (y) = 0.24730 0.30393
# Poissons Ratio (z) = -0.02981 0.28887
#
# Static dielectric constant tensor:
#      x y z
#    x 2.389790 -0.079420 0.076070 
#    y -0.079420 2.166000 -0.045660 
#    z 0.076070 -0.045660 2.218970 
# 
# From -- ./inp_files/59861.got.cif
#   From: 2010.05.17/outbox.cif.g08.bks.cpg/sg2_30_cif.got.tgz:59861.got - 2010.06.03 11:33:40.
