data_PCOD9050841
_publ_section_title
;
Structure prediction by ZEFSAII (Michael W. Deem and Ramdas Pophale) SiO2 
 PCOD9050841
Probable space group: P -1
;
_chemical_formula_sum "Si O2"
_cell_formula_units_Z 16
_cell_length_a 9.159606
_cell_length_b 5.139700
_cell_length_c 31.377220
_cell_angle_alpha 90.752245
_cell_angle_beta 25.923523
_cell_angle_gamma 85.782321
_cell_volume 633.289369
_symmetry_space_group_name_H-M "P -1"
_symmetry_group_IT_number 2
_symmetry_cell_setting 'triclinic'
loop_
_space_group_symop_operation_xyz
x,y,z
-x,-y,-z
loop_
_atom_site_type_symbol
_atom_site_label
_atom_site_fract_x
_atom_site_fract_y
_atom_site_fract_z
Si Si1 0.125794 0.975767 0.379664
Si Si2 0.434263 0.610462 0.439450
Si Si3 0.767499 0.132534 0.182701
Si Si4 0.298690 0.726414 0.084327
Si Si5 0.389950 0.442996 0.701661
Si Si6 0.247198 0.915792 0.607723
Si Si7 0.352949 0.301476 0.918453
Si Si8 0.449717 0.249964 0.180097
O O1 0.476886 0.956681 0.260877
O O2 0.953402 0.233338 0.452531
O O3 0.853089 0.983475 0.413508
O O4 0.257549 0.749977 0.378357
O O5 0.557746 0.493888 0.360850
O O6 0.492489 0.363438 0.455697
O O7 0.646340 0.843471 0.393961
O O8 0.670422 0.316715 0.249229
O O9 0.679327 0.279740 0.161539
O O10 0.137817 0.966330 0.095302
O O11 0.545292 0.748575 0.059163
O O12 0.952598 0.674066 0.198849
O O13 0.500000 0.500000 0.000000
O O14 0.908160 0.822160 0.713538
O O15 0.602602 0.478688 0.832053
O O16 0.370836 0.014439 0.892434
O O17 0.000000 0.500000 0.000000
#
# Coordination Sequence:
#
# PCOD9050841 Si02
#       8
#     2   2   2   2   2   2   2   2
#     4  10  25  44  69 103 142 189 238 293 347 420
#     4  12  26  44  72 106 145 186 243 295 349 419
#     4  10  26  44  73 100 142 194 232 288 358 418
#     4  11  26  47  71 103 142 182 235 292 357 428
#     4  11  26  45  70 100 141 191 235 287 360 419
#     4  11  25  43  72 103 141 191 236 291 353 413
#     4  12  27  46  75 107 136 181 235 295 357 419
#     4  11  25  47  71  99 146 182 238 289 350 421
#
# _framework density 25.264908999999999
#
# number of rings (size 3 to 8) (size 9 to 14) (size 15 to 20)
#    0.000    1.000    0.000    4.500   19.250    1.000 
#    0.000    0.000    0.000    0.000    0.000    0.000 
#    0.000    0.000    0.000    0.000    0.000    0.000 
#
# Total GULP energy -89448.600753 kJ/mol
# GULP energy per Si atom -5590.537547 kJ/mol
# Density = 2.520741 g / cm^3
# Si number density = 25.264909 Si / 1000 Ang^3
#
#
#
# Elastic Constant Matrix: (Units=GPa)
#
#
# Indices 1 2 3 4 5 6 
#
# 1 140.5474 50.5809 44.6928 19.1567 13.5228 -24.3305
# 2 50.5809 133.1700 45.4745 10.9467 1.9313 -17.6465
# 3 44.6928 45.4745 119.9258 23.0707 -6.6553 -12.7398
# 4 19.1567 10.9467 23.0707 64.7613 -3.3821 0.5196
# 5 13.5228 1.9313 -6.6553 -3.3821 48.2799 6.4430
# 6 -24.3305 -17.6465 -12.7398 0.5196 6.4430 43.4034
#
#
#
# Elastic Compliance Matrix: (Units=1/GPa)
#
#
# Indices 1 2 3 4 5 6 
#
# 1 0.010082 -0.002222 -0.002235 -0.002047 -0.003811 0.004682
# 2 -0.002222 0.009498 -0.002578 -0.000065 -0.000373 0.001915
# 3 -0.002235 -0.002578 0.010836 -0.002666 0.001953 0.000622
# 4 -0.002047 -0.000065 -0.002666 0.017117 0.001730 -0.002418
# 5 -0.003811 -0.000373 0.001953 0.001730 0.022870 -0.005130
# 6 0.004682 0.001915 0.000622 -0.002418 -0.005130 0.027416
#
#
# Mechanical properties :
#
#
# Convention : Reuss Voigt Hill
#
# Bulk Modulus (GPa) = 61.17797 75.01552 68.09675
# Shear Modulus (GPa) = 42.61160 48.14860 45.38010
#
# Velocity S-wave (km/s) = 4.11127 4.37023 4.24272
# Velocity P-wave (km/s) = 6.84134 7.43110 7.14231
#
# Compressibility (1/GPa) = 0.01634575
#
# Stress axis : x y z
#
# Youngs Moduli (GPa) = 99.18998 105.28360 92.28144
#
# Poissons Ratio (x) = 0.23395 0.20623
# Poissons Ratio (y) = 0.22041 0.23793
# Poissons Ratio (z) = 0.22167 0.27145
#
# Static dielectric constant tensor:
#      x y z
#    x 2.028040 0.048860 -0.100520 
#    y 0.048860 2.034670 -0.130420 
#    z -0.100520 -0.130420 2.152640 
# 
# From -- ./inp_files/37611.got.cif
#   From: 2010.05.17/outbox.cif.g08.bks.cpg/sg2_19_cif.got.tgz:37611.got - 2010.06.03 11:33:40.
