data_PCOD9050303
_publ_section_title
;
Structure prediction by ZEFSAII (Michael W. Deem and Ramdas Pophale) SiO2 
 PCOD9050303
Probable space group: P -1
;
_chemical_formula_sum "Si O2"
_cell_formula_units_Z 16
_cell_length_a 24.530141
_cell_length_b 5.104191
_cell_length_c 8.567958
_cell_angle_alpha 109.846309
_cell_angle_beta 140.094948
_cell_angle_gamma 80.982338
_cell_volume 637.693083
_symmetry_space_group_name_H-M "P -1"
_symmetry_group_IT_number 2
_symmetry_cell_setting 'triclinic'
loop_
_space_group_symop_operation_xyz
x,y,z
-x,-y,-z
loop_
_atom_site_type_symbol
_atom_site_label
_atom_site_fract_x
_atom_site_fract_y
_atom_site_fract_z
Si Si1 0.396945 0.955245 0.666775
Si Si2 0.340281 0.763841 0.848175
Si Si3 0.092211 0.199534 0.249083
Si Si4 0.677497 0.981443 0.801868
Si Si5 0.017789 0.220170 0.400507
Si Si6 0.520394 0.572656 0.260391
Si Si7 0.831275 0.345035 0.704693
Si Si8 0.139220 0.164891 0.914674
O O1 0.362872 0.930510 0.764375
O O2 0.466771 0.748316 0.764835
O O3 0.338471 0.854370 0.363517
O O4 0.432997 0.276757 0.762127
O O5 0.254029 0.575895 0.551526
O O6 0.425184 0.645443 0.068326
O O7 0.312406 0.894598 0.975842
O O8 0.083679 0.318596 0.426390
O O9 0.097457 0.470033 0.206973
O O10 0.161594 0.983865 0.349018
O O11 0.000000 0.000000 0.000000
O O12 0.587647 0.752019 0.567462
O O13 0.765804 0.883923 0.926386
O O14 0.079098 0.075743 0.617353
O O15 0.000000 0.500000 0.500000
O O16 0.924592 0.015106 0.132808
O O17 0.845740 0.507151 0.933260
#
# Coordination Sequence:
#
# PCOD9050303 Si02
#       8
#     2   2   2   2   2   2   2   2
#     4  10  25  46  75 103 147 196 248 306 375 436
#     4  12  25  48  76 111 151 196 253 307 375 445
#     4  12  26  49  74 108 143 191 250 297 371 444
#     4  10  26  47  72 110 149 196 252 309 370 448
#     4  11  26  43  79  99 148 193 243 306 379 437
#     4  10  24  50  74 107 149 199 244 313 369 445
#     4  12  29  46  75 109 147 193 242 309 365 439
#     4  11  25  48  68 108 144 193 243 306 373 441
#
# _framework density 25.090437999999999
#
# number of rings (size 3 to 8) (size 9 to 14) (size 15 to 20)
#    0.750    0.250    1.250    3.750    7.000    2.500 
#    4.500    0.000    0.000    0.000    0.000    0.000 
#    0.000    0.000    0.000    0.000    0.000    0.000 
#
# Total GULP energy -89073.066288 kJ/mol
# GULP energy per Si atom -5567.066643 kJ/mol
# Density = 2.503333 g / cm^3
# Si number density = 25.090438 Si / 1000 Ang^3
#
#
#
# Elastic Constant Matrix: (Units=GPa)
#
#
# Indices 1 2 3 4 5 6 
#
# 1 102.4394 30.1080 21.9976 -11.0444 -14.0362 -18.0143
# 2 30.1080 102.6623 15.4820 -0.4932 3.3776 -8.3017
# 3 21.9976 15.4820 110.1632 -12.7167 9.9978 -7.4314
# 4 -11.0444 -0.4932 -12.7167 36.2124 -0.6785 5.0238
# 5 -14.0362 3.3776 9.9978 -0.6785 50.6279 -9.9761
# 6 -18.0143 -8.3017 -7.4314 5.0238 -9.9761 32.0784
#
#
#
# Elastic Compliance Matrix: (Units=1/GPa)
#
#
# Indices 1 2 3 4 5 6 
#
# 1 0.013590 -0.003238 -0.001991 0.002431 0.005947 0.007801
# 2 -0.003238 0.010907 -0.000868 -0.001249 -0.001357 0.000576
# 3 -0.001991 -0.000868 0.010147 0.002929 -0.002504 -0.000230
# 4 0.002431 -0.001249 0.002929 0.029776 -0.000002 -0.002944
# 5 0.005947 -0.001357 -0.002504 -0.000002 0.023926 0.009850
# 6 0.007801 0.000576 -0.000230 -0.002944 0.009850 0.039175
#
#
# Mechanical properties :
#
#
# Convention : Reuss Voigt Hill
#
# Bulk Modulus (GPa) = 44.54878 50.04891 47.29884
# Shear Modulus (GPa) = 33.96750 40.29556 37.13153
#
# Velocity S-wave (km/s) = 3.68340 4.01186 3.85113
# Velocity P-wave (km/s) = 5.99030 6.43822 6.21830
#
# Compressibility (1/GPa) = 0.02244731
#
# Stress axis : x y z
#
# Youngs Moduli (GPa) = 73.58330 91.68746 98.55142
#
# Poissons Ratio (x) = 0.29692 0.19626
# Poissons Ratio (y) = 0.23829 0.08557
# Poissons Ratio (z) = 0.14654 0.07961
#
# Static dielectric constant tensor:
#      x y z
#    x 3.619140 0.318890 -0.835830 
#    y 0.318890 2.039400 -0.141700 
#    z -0.835830 -0.141700 2.645350 
# 
# From -- ./inp_files/356041.got.cif
#   From: 2010.05.17/outbox.cif.g08.bks.cpg/sg2_179_cif.got.tgz:356041.got - 2010.06.03 11:33:40.
