data_PCOD9050851
_publ_section_title
;
Structure prediction by ZEFSAII (Michael W. Deem and Ramdas Pophale) SiO2 
 PCOD9050851
Probable space group: P -1
;
_chemical_formula_sum "Si O2"
_cell_formula_units_Z 16
_cell_length_a 26.208898
_cell_length_b 8.805354
_cell_length_c 12.741425
_cell_angle_alpha 127.264603
_cell_angle_beta 159.263415
_cell_angle_gamma 42.350737
_cell_volume 654.585348
_symmetry_space_group_name_H-M "P -1"
_symmetry_group_IT_number 2
_symmetry_cell_setting 'triclinic'
loop_
_space_group_symop_operation_xyz
x,y,z
-x,-y,-z
loop_
_atom_site_type_symbol
_atom_site_label
_atom_site_fract_x
_atom_site_fract_y
_atom_site_fract_z
Si Si1 0.172033 0.343869 0.186802
Si Si2 0.781102 0.142191 0.944644
Si Si3 0.897913 0.600497 0.604756
Si Si4 0.539024 0.388125 0.388088
Si Si5 0.812745 0.078417 0.626288
Si Si6 0.336586 0.152958 0.931002
Si Si7 0.813187 0.067783 0.372754
Si Si8 0.632151 0.599698 0.238192
O O1 0.310157 0.372777 0.522707
O O2 0.222923 0.081329 0.172008
O O3 0.000000 0.500000 0.000000
O O4 0.100900 0.448907 0.977112
O O5 0.698450 0.298768 0.743057
O O6 0.629266 0.331490 0.813876
O O7 0.984938 0.044180 0.326352
O O8 0.842287 0.640385 0.393502
O O9 0.790051 0.527233 0.428448
O O10 0.803355 0.874296 0.570832
O O11 0.634454 0.319748 0.430755
O O12 0.454182 0.249991 0.199915
O O13 0.841898 0.060081 0.550954
O O14 0.000000 0.000000 0.000000
O O15 0.257427 0.090651 0.848833
O O16 0.466155 0.882135 0.013352
O O17 0.653826 0.353534 0.169229
#
# Coordination Sequence:
#
# PCOD9050851 Si02
#       8
#     2   2   2   2   2   2   2   2
#     4  10  17  34  65  88 112 158 218 250 294 365
#     4  11  21  40  63  94 115 173 216 247 302 387
#     4  10  20  33  63  87 124 159 209 251 317 361
#     4  11  23  39  63  86 134 168 203 251 317 378
#     4  11  20  36  60  95 122 158 210 261 304 361
#     4  11  23  38  57  96 131 160 199 265 319 358
#     4  11  23  35  64  95 122 156 215 262 302 362
#     4  11  19  36  61  95 121 162 208 261 302 363
#
# _framework density 24.442951999999998
#
# number of rings (size 3 to 8) (size 9 to 14) (size 15 to 20)
#    0.000    1.250    6.250    2.250    1.750    0.500 
#    0.000    0.625    0.000    6.000    0.000    0.000 
#    0.000    0.000    0.000    0.000    0.000    0.000 
#
# Total GULP energy -89199.597660 kJ/mol
# GULP energy per Si atom -5574.974854 kJ/mol
# Density = 2.438732 g / cm^3
# Si number density = 24.442952 Si / 1000 Ang^3
#
#
#
# Elastic Constant Matrix: (Units=GPa)
#
#
# Indices 1 2 3 4 5 6 
#
# 1 22.6699 15.0707 4.8025 -12.6666 2.9206 0.6832
# 2 15.0707 107.1329 28.7526 -17.8496 21.1384 1.4907
# 3 4.8025 28.7526 105.6684 -14.1531 5.3462 6.4207
# 4 -12.6666 -17.8496 -14.1531 40.5731 2.9765 7.8918
# 5 2.9206 21.1384 5.3462 2.9765 31.8235 -14.5288
# 6 0.6832 1.4907 6.4207 7.8918 -14.5288 31.6146
#
#
#
# Elastic Compliance Matrix: (Units=1/GPa)
#
#
# Indices 1 2 3 4 5 6 
#
# 1 0.059274 -0.003028 0.002266 0.021139 -0.011295 -0.012066
# 2 -0.003028 0.014127 -0.001559 0.007295 -0.013272 -0.008204
# 3 0.002266 -0.001559 0.011000 0.005179 -0.003927 -0.005307
# 4 0.021139 0.007295 0.005179 0.042229 -0.021848 -0.022434
# 5 -0.011295 -0.013272 -0.003927 -0.021848 0.059770 0.034589
# 6 -0.012066 -0.008204 -0.005307 -0.022434 0.034589 0.054853
#
#
# Mechanical properties :
#
#
# Convention : Reuss Voigt Hill
#
# Bulk Modulus (GPa) = 12.53787 36.96919 24.75353
# Shear Modulus (GPa) = 18.34991 33.25859 25.80425
#
# Velocity S-wave (km/s) = 2.74291 3.69272 3.25267
# Velocity P-wave (km/s) = 3.89512 5.77400 4.92499
#
# Compressibility (1/GPa) = 0.07975835
#
# Stress axis : x y z
#
# Youngs Moduli (GPa) = 16.87076 70.78701 90.91165
#
# Poissons Ratio (x) = 0.21433 -0.20600
# Poissons Ratio (y) = 0.05108 0.14175
# Poissons Ratio (z) = -0.03823 0.11037
#
# Static dielectric constant tensor:
#      x y z
#    x 1.983190 0.017990 -0.022880 
#    y 0.017990 2.004240 0.087190 
#    z -0.022880 0.087190 2.131770 
# 
# From -- ./inp_files/544890.got.cif
#   From: 2010.05.17/outbox.cif.g08.bks.cpg/sg2_273_cif.got.tgz:544890.got - 2010.06.03 11:33:40.
