data_PCOD9050113
_publ_section_title
;
Structure prediction by ZEFSAII (Michael W. Deem and Ramdas Pophale) SiO2 
 PCOD9050113
Probable space group: P -1
;
_chemical_formula_sum "Si O2"
_cell_formula_units_Z 15
_cell_length_a 22.096287
_cell_length_b 13.151044
_cell_length_c 4.798841
_cell_angle_alpha 91.028163
_cell_angle_beta 95.327808
_cell_angle_gamma 25.594716
_cell_volume 592.761822
_symmetry_space_group_name_H-M "P -1"
_symmetry_group_IT_number 2
_symmetry_cell_setting 'triclinic'
loop_
_space_group_symop_operation_xyz
x,y,z
-x,-y,-z
loop_
_atom_site_type_symbol
_atom_site_label
_atom_site_fract_x
_atom_site_fract_y
_atom_site_fract_z
Si Si1 0.736242 0.243370 0.454008
Si Si2 0.000000 0.500000 0.000000
Si Si3 0.197271 0.527949 0.422588
Si Si4 0.345186 0.753087 0.075401
Si Si5 0.914809 0.511374 0.397621
Si Si6 0.967966 0.151805 0.152743
Si Si7 0.651703 0.016727 0.021746
Si Si8 0.541150 0.734397 0.526500
O O1 0.664466 0.264872 0.611807
O O2 0.635037 0.495455 0.452851
O O3 0.961745 0.664321 0.787381
O O4 0.889553 0.027839 0.644628
O O5 0.956922 0.495283 0.708897
O O6 0.804201 0.746784 0.176181
O O7 0.141414 0.695240 0.631380
O O8 0.357261 0.321370 0.415999
O O9 0.164190 0.473528 0.564901
O O10 0.107234 0.666790 0.107563
O O11 0.322877 0.905154 0.031357
O O12 0.500000 0.500000 0.000000
O O13 0.249173 0.821606 0.853802
O O14 0.000000 0.000000 0.000000
O O15 0.590412 0.052303 0.729201
O O16 0.531219 0.184317 0.209878
#
# Coordination Sequence:
#
# PCOD9050113 Si02
#       8
#     2   1   2   2   2   2   2   2
#     4  12  24  40  67  97 135 175 225 282 351 408
#     4  10  24  48  76  92 144 176 236 290 338 386
#     4  12  27  45  72 101 141 183 232 290 345 415
#     4  12  23  40  63  95 133 176 226 276 342 408
#     4  11  26  48  73 105 138 184 233 286 343 412
#     4  12  26  44  70 102 137 181 234 284 351 417
#     4  12  26  42  69  99 139 182 231 280 340 413
#     4  12  24  42  68  99 138 184 219 286 346 410
#
# _framework density 25.305274000000001
#
# number of rings (size 3 to 8) (size 9 to 14) (size 15 to 20)
#    0.000    0.267    4.000    4.800    1.867    7.467 
#    0.000    0.000    0.000    0.000    0.000    0.000 
#    0.000    0.000    0.000    0.000    0.000    0.000 
#
# Total GULP energy -83866.117353 kJ/mol
# GULP energy per Si atom -5591.074490 kJ/mol
# Density = 2.524768 g / cm^3
# Si number density = 25.305274 Si / 1000 Ang^3
#
#
#
# Elastic Constant Matrix: (Units=GPa)
#
#
# Indices 1 2 3 4 5 6 
#
# 1 105.7186 8.4371 17.3373 -6.6338 0.2468 -3.3883
# 2 8.4371 68.3134 3.1744 -14.5701 2.7690 -10.5936
# 3 17.3373 3.1744 147.5966 -8.7207 -3.9965 4.5030
# 4 -6.6338 -14.5701 -8.7207 44.7824 -9.2676 -10.7968
# 5 0.2468 2.7690 -3.9965 -9.2676 40.8103 -1.8233
# 6 -3.3883 -10.5936 4.5030 -10.7968 -1.8233 18.7789
#
#
#
# Elastic Compliance Matrix: (Units=1/GPa)
#
#
# Indices 1 2 3 4 5 6 
#
# 1 0.009888 -0.000287 -0.001120 0.001985 0.000438 0.003075
# 2 -0.000287 0.019667 -0.000227 0.010946 0.001916 0.017577
# 3 -0.001120 -0.000227 0.007035 0.000981 0.000873 -0.001368
# 4 0.001985 0.010946 0.000981 0.034634 0.008414 0.027028
# 5 0.000438 0.001916 0.000873 0.008414 0.026742 0.008385
# 6 0.003075 0.017577 -0.001368 0.027028 0.008385 0.080403
#
#
# Mechanical properties :
#
#
# Convention : Reuss Voigt Hill
#
# Bulk Modulus (GPa) = 30.00938 42.16957 36.08947
# Shear Modulus (GPa) = 25.94118 40.38629 33.16374
#
# Velocity S-wave (km/s) = 3.20524 3.99929 3.62407
# Velocity P-wave (km/s) = 5.05794 6.16654 5.63955
#
# Compressibility (1/GPa) = 0.03332292
#
# Stress axis : x y z
#
# Youngs Moduli (GPa) = 101.13549 50.84631 142.14656
#
# Poissons Ratio (x) = 0.01457 0.15919
# Poissons Ratio (y) = 0.02899 0.03226
# Poissons Ratio (z) = 0.11326 0.01154
#
# Static dielectric constant tensor:
#      x y z
#    x 2.120090 0.046180 0.099790 
#    y 0.046180 1.955910 -0.131080 
#    z 0.099790 -0.131080 1.860360 
# 
# From -- ./inp_files/124047.got.cif
#   From: 2010.05.17/outbox.cif.g08.bks.cpg/sg2_63_cif.got.tgz:124047.got - 2010.06.03 11:33:40.
