data_PCOD9050264
_publ_section_title
;
Structure prediction by ZEFSAII (Michael W. Deem and Ramdas Pophale) SiO2 
 PCOD9050264
Probable space group: P -1
;
_chemical_formula_sum "Si O2"
_cell_formula_units_Z 16
_cell_length_a 10.670721
_cell_length_b 11.206844
_cell_length_c 11.254691
_cell_angle_alpha 118.229322
_cell_angle_beta 130.372712
_cell_angle_gamma 37.307380
_cell_volume 618.860729
_symmetry_space_group_name_H-M "P -1"
_symmetry_group_IT_number 2
_symmetry_cell_setting 'triclinic'
loop_
_space_group_symop_operation_xyz
x,y,z
-x,-y,-z
loop_
_atom_site_type_symbol
_atom_site_label
_atom_site_fract_x
_atom_site_fract_y
_atom_site_fract_z
Si Si1 0.577254 0.443315 0.209557
Si Si2 0.780199 0.729555 0.230822
Si Si3 0.707347 0.676492 0.401678
Si Si4 0.861257 0.234025 0.782776
Si Si5 0.216152 0.251545 0.280373
Si Si6 0.985733 0.106901 0.151445
Si Si7 0.216634 0.258058 0.020019
Si Si8 0.873293 0.220095 0.522664
O O1 0.621966 0.575819 0.290467
O O2 0.298000 0.596840 0.134912
O O3 0.712840 0.295131 0.113992
O O4 0.706531 0.322601 0.353913
O O5 0.630933 0.797948 0.291820
O O6 0.657707 0.797654 0.057589
O O7 0.979520 0.490099 0.238514
O O8 0.933441 0.774508 0.363690
O O9 0.631559 0.781863 0.531462
O O10 0.000000 0.500000 0.500000
O O11 0.753361 0.311774 0.621588
O O12 0.102321 0.176657 0.904394
O O13 0.896349 0.055581 0.749584
O O14 0.116665 0.166725 0.225101
O O15 0.330292 0.197067 0.192701
O O16 0.000000 0.000000 0.000000
O O17 0.000000 0.500000 0.000000
O O18 0.000000 0.000000 0.500000
#
# Coordination Sequence:
#
# PCOD9050264 Si02
#       8
#     2   2   2   2   2   2   2   2
#     4  12  23  42  66  92 136 160 208 280 314 386
#     4   9  17  32  59  89 115 165 217 243 313 383
#     4  10  17  34  65  89 115 172 208 251 325 374
#     4  11  25  39  63 103 121 167 217 258 336 374
#     4  10  17  34  62  86 122 165 213 253 313 388
#     4  12  23  40  63  92 131 169 214 266 321 378
#     4   9  19  36  59  88 120 168 214 249 308 392
#     4  11  20  37  66  93 128 167 208 263 321 384
#
# _framework density 25.853959
#
# number of rings (size 3 to 8) (size 9 to 14) (size 15 to 20)
#    0.000    1.500    7.500    0.375    0.000    0.500 
#    0.000    0.625    0.000    0.750    0.000    0.000 
#    0.000    0.000    0.000    0.000    0.000    0.000 
#
# Total GULP energy -89572.050061 kJ/mol
# GULP energy per Si atom -5598.253129 kJ/mol
# Density = 2.579511 g / cm^3
# Si number density = 25.853959 Si / 1000 Ang^3
#
#
#
# Elastic Constant Matrix: (Units=GPa)
#
#
# Indices 1 2 3 4 5 6 
#
# 1 108.2467 60.3458 47.0496 2.4470 -30.4800 21.8127
# 2 60.3458 102.9027 35.2718 3.8709 -0.3809 18.7716
# 3 47.0496 35.2718 135.8134 12.3115 -55.2244 9.8212
# 4 2.4470 3.8709 12.3115 43.4363 9.1444 -7.4448
# 5 -30.4800 -0.3809 -55.2244 9.1444 65.4838 7.1670
# 6 21.8127 18.7716 9.8212 -7.4448 7.1670 59.8918
#
#
#
# Elastic Compliance Matrix: (Units=1/GPa)
#
#
# Indices 1 2 3 4 5 6 
#
# 1 0.018587 -0.010172 0.001379 -0.003781 0.010894 -0.005581
# 2 -0.010172 0.017148 -0.004936 0.002475 -0.009203 0.000549
# 3 0.001379 -0.004936 0.015339 -0.007898 0.015118 -0.004261
# 4 -0.003781 0.002475 -0.007898 0.029269 -0.013274 0.007123
# 5 0.010894 -0.009203 0.015118 -0.013274 0.035932 -0.009512
# 6 -0.005581 0.000549 -0.004261 0.007123 -0.009512 0.021280
#
#
# Mechanical properties :
#
#
# Convention : Reuss Voigt Hill
#
# Bulk Modulus (GPa) = 42.34505 70.25525 56.30015
# Shear Modulus (GPa) = 28.92092 47.38207 38.15149
#
# Velocity S-wave (km/s) = 3.34822 4.28563 3.84559
# Velocity P-wave (km/s) = 5.60013 7.19178 6.44528
#
# Compressibility (1/GPa) = 0.02361551
#
# Stress axis : x y z
#
# Youngs Moduli (GPa) = 53.79973 58.31631 65.19473
#
# Poissons Ratio (x) = 0.59321 -0.08989
# Poissons Ratio (y) = 0.54726 0.32178
# Poissons Ratio (z) = -0.07418 0.28783
#
# Static dielectric constant tensor:
#      x y z
#    x 2.042470 -0.040090 -0.093650 
#    y -0.040090 2.113720 -0.023300 
#    z -0.093650 -0.023300 2.040750 
# 
# From -- ./inp_files/424114.got.cif
#   From: 2010.05.17/outbox.cif.g08.bks.cpg/sg2_213_cif.got.tgz:424114.got - 2010.06.03 11:33:40.
