data_PCOD9050412
_publ_section_title
;
Structure prediction by ZEFSAII (Michael W. Deem and Ramdas Pophale) SiO2 
 PCOD9050412
Probable space group: P -1
;
_chemical_formula_sum "Si O2"
_cell_formula_units_Z 14
_cell_length_a 11.124204
_cell_length_b 7.673578
_cell_length_c 8.825441
_cell_angle_alpha 124.442144
_cell_angle_beta 102.757586
_cell_angle_gamma 57.619925
_cell_volume 521.038296
_symmetry_space_group_name_H-M "P -1"
_symmetry_group_IT_number 2
_symmetry_cell_setting 'triclinic'
loop_
_space_group_symop_operation_xyz
x,y,z
-x,-y,-z
loop_
_atom_site_type_symbol
_atom_site_label
_atom_site_fract_x
_atom_site_fract_y
_atom_site_fract_z
Si Si1 0.993385 0.192127 0.222794
Si Si2 0.318948 0.578946 0.653834
Si Si3 0.923544 0.526264 0.829397
Si Si4 0.371195 0.961077 0.987851
Si Si5 0.435471 0.897138 0.562999
Si Si6 0.396270 0.346376 0.892089
Si Si7 0.785640 0.223337 0.710992
O O1 0.991822 0.421066 0.252310
O O2 0.849510 0.302779 0.335591
O O3 0.123822 0.020878 0.284467
O O4 0.000000 0.000000 0.000000
O O5 0.353400 0.794461 0.776887
O O6 0.419111 0.348826 0.462940
O O7 0.365331 0.473423 0.784937
O O8 0.889265 0.306201 0.699887
O O9 0.000000 0.500000 0.000000
O O10 0.774502 0.786815 0.908405
O O11 0.436969 0.806691 0.086863
O O12 0.500000 0.000000 0.000000
O O13 0.325903 0.813982 0.436588
O O14 0.500000 0.000000 0.500000
O O15 0.352836 0.140615 0.759997
O O16 0.306295 0.544954 0.090444
#
# Coordination Sequence:
#
# PCOD9050412 Si02
#       7
#     2   2   2   2   2   2   2
#     4  12  23  38  75 104 131 199 230 272 361 416
#     4  11  21  42  63 101 138 172 233 284 336 417
#     4  12  23  40  68 109 135 181 241 279 344 427
#     4  12  22  36  69 102 129 179 228 284 351 405
#     4  10  25  40  72 104 135 184 230 292 350 408
#     4  11  22  41  72  99 136 177 228 287 353 400
#     4  12  23  47  72 102 144 177 234 295 343 413
#
# _framework density 26.869425
#
# number of rings (size 3 to 8) (size 9 to 14) (size 15 to 20)
#    0.000    0.571    7.143    0.429    6.000    0.000 
#    0.000    5.714    6.286    7.714    0.000    0.000 
#    0.000    0.000    0.000    0.000    0.000    0.000 
#
# Total GULP energy -78471.689464 kJ/mol
# GULP energy per Si atom -5605.120676 kJ/mol
# Density = 2.680827 g / cm^3
# Si number density = 26.869425 Si / 1000 Ang^3
#
#
#
# Elastic Constant Matrix: (Units=GPa)
#
#
# Indices 1 2 3 4 5 6 
#
# 1 139.7240 33.7994 52.0062 6.7184 31.8390 3.5451
# 2 33.7994 161.5452 28.9522 -2.0482 0.3597 -12.0998
# 3 52.0062 28.9522 145.1426 8.4075 25.7612 3.7593
# 4 6.7184 -2.0482 8.4075 36.1898 12.9861 7.6755
# 5 31.8390 0.3597 25.7612 12.9861 34.7102 12.1468
# 6 3.5451 -12.0998 3.7593 7.6755 12.1468 62.1370
#
#
#
# Elastic Compliance Matrix: (Units=1/GPa)
#
#
# Indices 1 2 3 4 5 6 
#
# 1 0.010156 -0.001700 -0.001856 0.001419 -0.008707 0.000729
# 2 -0.001700 0.006827 -0.001124 0.000038 0.001919 0.001115
# 3 -0.001856 -0.001124 0.008621 -0.000078 -0.004762 0.000306
# 4 0.001419 0.000038 -0.000078 0.032308 -0.012786 -0.001560
# 5 -0.008707 0.001919 -0.004762 -0.012786 0.047378 -0.006524
# 6 0.000729 0.001115 0.000306 -0.001560 -0.006524 0.017718
#
#
# Mechanical properties :
#
#
# Convention : Reuss Voigt Hill
#
# Bulk Modulus (GPa) = 61.56202 75.10304 68.33253
# Shear Modulus (GPa) = 36.28865 48.71767 42.50316
#
# Velocity S-wave (km/s) = 3.67898 4.26270 3.98155
# Velocity P-wave (km/s) = 6.40373 7.22768 6.82814
#
# Compressibility (1/GPa) = 0.01624378
#
# Stress axis : x y z
#
# Youngs Moduli (GPa) = 98.45992 146.47329 115.99912
#
# Poissons Ratio (x) = 0.24907 0.21524
# Poissons Ratio (y) = 0.16743 0.13041
# Poissons Ratio (z) = 0.18270 0.16467
#
# Static dielectric constant tensor:
#      x y z
#    x 2.217380 0.115550 -0.041540 
#    y 0.115550 2.150600 -0.037810 
#    z -0.041540 -0.037810 2.134000 
# 
# From -- ./inp_files/420190.got.cif
#   From: 2010.05.17/outbox.cif.g08.bks.cpg/sg2_211_cif.got.tgz:420190.got - 2010.06.03 11:33:40.
