data_PCOD9050888
_publ_section_title
;
Structure prediction by ZEFSAII (Michael W. Deem and Ramdas Pophale) SiO2 
 PCOD9050888
Probable space group: P -1
;
_chemical_formula_sum "Si O2"
_cell_formula_units_Z 14
_cell_length_a 5.103731
_cell_length_b 13.731531
_cell_length_c 9.430706
_cell_angle_alpha 89.732732
_cell_angle_beta 88.666596
_cell_angle_gamma 116.165322
_cell_volume 592.952618
_symmetry_space_group_name_H-M "P -1"
_symmetry_group_IT_number 2
_symmetry_cell_setting 'triclinic'
loop_
_space_group_symop_operation_xyz
x,y,z
-x,-y,-z
loop_
_atom_site_type_symbol
_atom_site_label
_atom_site_fract_x
_atom_site_fract_y
_atom_site_fract_z
Si Si1 0.891508 0.119437 0.859741
Si Si2 0.306214 0.910101 0.846013
Si Si3 0.752213 0.584489 0.893313
Si Si4 0.288735 0.531769 0.404863
Si Si5 0.629162 0.243282 0.726308
Si Si6 0.569289 0.277300 0.049292
Si Si7 0.185154 0.026251 0.636764
O O1 0.910002 0.227370 0.781135
O O2 0.025531 0.057339 0.765548
O O3 0.544595 0.034811 0.863124
O O4 0.936729 0.122311 0.027277
O O5 0.438100 0.825847 0.867436
O O6 0.210693 0.919640 0.689189
O O7 0.755865 0.531128 0.743262
O O8 0.632085 0.674367 0.878758
O O9 0.083535 0.635340 0.949773
O O10 0.500000 0.500000 0.000000
O O11 0.500000 0.500000 0.500000
O O12 0.368029 0.655136 0.356708
O O13 0.000000 0.500000 0.500000
O O14 0.476236 0.139074 0.626168
O O15 0.491072 0.247270 0.883811
O O16 0.000000 0.000000 0.500000
#
# Coordination Sequence:
#
# PCOD9050888 Si02
#       7
#     2   2   2   2   2   2   2
#     4   9  20  41  67  93 136 177 240 292 358 430
#     4   9  21  39  65 104 133 180 232 301 357 426
#     4  12  26  48  77 110 144 192 258 307 355 434
#     4  12  29  49  73 108 156 195 241 306 374 439
#     4  10  25  44  71 100 139 196 239 300 378 425
#     4  11  25  43  79 110 142 187 252 309 362 424
#     4  11  24  42  69 102 143 189 234 298 359 461
#
# _framework density 23.610654
#
# number of rings (size 3 to 8) (size 9 to 14) (size 15 to 20)
#    0.000    1.429    1.429    2.571   10.000    3.429 
#    5.143    0.000    0.000    0.000    0.000    0.000 
#    0.000    0.000    0.000    0.000    0.000    0.000 
#
# Total GULP energy -78149.091471 kJ/mol
# GULP energy per Si atom -5582.077962 kJ/mol
# Density = 2.355691 g / cm^3
# Si number density = 23.610654 Si / 1000 Ang^3
#
#
#
# Elastic Constant Matrix: (Units=GPa)
#
#
# Indices 1 2 3 4 5 6 
#
# 1 110.8516 38.4696 50.5939 -4.6619 2.3730 -18.1816
# 2 38.4696 125.1428 68.6915 -15.6961 23.1695 -26.9244
# 3 50.5939 68.6915 137.9276 -2.3918 28.1407 -7.1648
# 4 -4.6619 -15.6961 -2.3918 43.9732 -12.1991 14.9043
# 5 2.3730 23.1695 28.1407 -12.1991 53.0032 -3.5146
# 6 -18.1816 -26.9244 -7.1648 14.9043 -3.5146 41.5100
#
#
#
# Elastic Compliance Matrix: (Units=1/GPa)
#
#
# Indices 1 2 3 4 5 6 
#
# 1 0.011857 -0.000922 -0.004156 -0.000034 0.002342 0.004089
# 2 -0.000922 0.013261 -0.005482 0.001558 -0.002054 0.006518
# 3 -0.004156 -0.005482 0.012252 -0.002009 -0.004579 -0.002928
# 4 -0.000034 0.001558 -0.002009 0.027909 0.006224 -0.008845
# 5 0.002342 -0.002054 -0.004579 0.006224 0.023434 -0.001348
# 6 0.004089 0.006518 -0.002928 -0.008845 -0.001348 0.032666
#
#
# Mechanical properties :
#
#
# Convention : Reuss Voigt Hill
#
# Bulk Modulus (GPa) = 61.53389 76.60354 69.06872
# Shear Modulus (GPa) = 33.80305 42.10841 37.95573
#
# Velocity S-wave (km/s) = 3.78787 4.22767 4.01380
# Velocity P-wave (km/s) = 6.72674 7.50639 7.12723
#
# Compressibility (1/GPa) = 0.01625121
#
# Stress axis : x y z
#
# Youngs Moduli (GPa) = 84.33859 75.40717 81.61857
#
# Poissons Ratio (x) = 0.06950 0.33923
# Poissons Ratio (y) = 0.07773 0.44740
# Poissons Ratio (z) = 0.35054 0.41335
#
# Static dielectric constant tensor:
#      x y z
#    x 1.975950 0.103290 0.012960 
#    y 0.103290 1.982670 -0.038990 
#    z 0.012960 -0.038990 1.926970 
# 
# From -- ./inp_files/134279.got.cif
#   From: 2010.05.17/outbox.cif.g08.bks.cpg/sg2_68_cif.got.tgz:134279.got - 2010.06.03 11:33:40.
