data_PCOD9050017
_publ_section_title
;
Structure prediction by ZEFSAII (Michael W. Deem and Ramdas Pophale) SiO2 
 PCOD9050017
Probable space group: P -1
;
_chemical_formula_sum "Si O2"
_cell_formula_units_Z 15
_cell_length_a 10.170820
_cell_length_b 12.475815
_cell_length_c 10.572136
_cell_angle_alpha 121.056651
_cell_angle_beta 104.904900
_cell_angle_gamma 35.131413
_cell_volume 623.313195
_symmetry_space_group_name_H-M "P -1"
_symmetry_group_IT_number 2
_symmetry_cell_setting 'triclinic'
loop_
_space_group_symop_operation_xyz
x,y,z
-x,-y,-z
loop_
_atom_site_type_symbol
_atom_site_label
_atom_site_fract_x
_atom_site_fract_y
_atom_site_fract_z
Si Si1 0.141958 0.665505 0.195025
Si Si2 0.974675 0.451127 0.095978
Si Si3 0.929517 0.889511 0.821281
Si Si4 0.260345 0.415573 0.642218
Si Si5 0.500000 0.000000 0.000000
Si Si6 0.659287 0.208690 0.172160
Si Si7 0.617930 0.298742 0.821643
Si Si8 0.384518 0.935891 0.691589
O O1 0.389590 0.438257 0.189279
O O2 0.166333 0.793077 0.249906
O O3 0.881142 0.845075 0.303877
O O4 0.119672 0.610741 0.020627
O O5 0.233424 0.263666 0.111287
O O6 0.799380 0.620326 0.270403
O O7 0.000000 0.500000 0.000000
O O8 0.031792 0.673085 0.696645
O O9 0.157362 0.813847 0.816938
O O10 0.727169 0.102585 0.809998
O O11 0.791632 0.001760 0.991986
O O12 0.439907 0.383537 0.724305
O O13 0.400417 0.241338 0.460574
O O14 0.575246 0.981465 0.152710
O O15 0.632081 0.172260 0.282989
O O16 0.500000 0.500000 0.000000
#
# Coordination Sequence:
#
# PCOD9050017 Si02
#       8
#     2   2   2   2   1   2   2   2
#     4  11  21  41  68  96 137 184 233 273 345 415
#     4  11  24  45  72  97 127 181 239 289 343 407
#     4  11  21  36  67  99 137 185 227 270 338 415
#     4  12  26  42  66 107 144 177 229 286 350 411
#     4  10  24  48  72  92 126 184 240 290 340 400
#     4  11  20  37  65  94 136 182 227 268 337 412
#     4  12  20  40  68 106 140 184 224 280 340 425
#     4  11  26  43  65 101 140 183 232 289 342 410
#
# _framework density 24.064948999999999
#
# number of rings (size 3 to 8) (size 9 to 14) (size 15 to 20)
#    0.000    0.800    5.333    3.200    0.000    3.733 
#    0.000    2.667    0.000    0.000    0.000    2.800 
#    0.000    0.000    0.000    0.000    0.000    0.000 
#
# Total GULP energy -83565.507698 kJ/mol
# GULP energy per Si atom -5571.033847 kJ/mol
# Density = 2.401018 g / cm^3
# Si number density = 24.064949 Si / 1000 Ang^3
#
#
#
# Elastic Constant Matrix: (Units=GPa)
#
#
# Indices 1 2 3 4 5 6 
#
# 1 48.1083 21.8584 29.1185 -1.8311 -21.4579 8.7565
# 2 21.8584 159.8690 28.0536 1.5814 -15.4644 -10.8870
# 3 29.1185 28.0536 113.0670 29.3258 -30.3431 8.0100
# 4 -1.8311 1.5814 29.3258 32.2500 -6.1152 -0.0977
# 5 -21.4579 -15.4644 -30.3431 -6.1152 33.8986 -3.0212
# 6 8.7565 -10.8870 8.0100 -0.0977 -3.0212 28.6614
#
#
#
# Elastic Compliance Matrix: (Units=1/GPa)
#
#
# Indices 1 2 3 4 5 6 
#
# 1 0.035110 -0.002788 -0.006077 0.010802 0.016723 -0.008288
# 2 -0.002788 0.007226 -0.001378 0.000909 0.000826 0.004072
# 3 -0.006077 -0.001378 0.016593 -0.013926 0.007639 -0.002546
# 4 0.010802 0.000909 -0.013926 0.044812 0.002997 0.001406
# 5 0.016723 0.000826 0.007639 0.002997 0.047672 -0.001895
# 6 -0.008288 0.004072 -0.002546 0.001406 -0.001895 0.039485
#
#
# Mechanical properties :
#
#
# Convention : Reuss Voigt Hill
#
# Bulk Modulus (GPa) = 26.01119 53.23392 39.62256
# Shear Modulus (GPa) = 22.30173 35.09624 28.69899
#
# Velocity S-wave (km/s) = 3.04753 3.82304 3.45710
# Velocity P-wave (km/s) = 4.81824 6.45418 5.69526
#
# Compressibility (1/GPa) = 0.03844499
#
# Stress axis : x y z
#
# Youngs Moduli (GPa) = 28.48186 138.38587 60.26535
#
# Poissons Ratio (x) = 0.38577 0.36623
# Poissons Ratio (y) = 0.07940 0.08302
# Poissons Ratio (z) = 0.17308 0.19064
#
# Static dielectric constant tensor:
#      x y z
#    x 1.811820 0.213740 -0.241620 
#    y 0.213740 1.833540 0.163370 
#    z -0.241620 0.163370 1.753090 
# 
# From -- ./inp_files/273757.got.cif
#   From: 2010.05.17/outbox.cif.g08.bks.cpg/sg2_137_cif.got.tgz:273757.got - 2010.06.03 11:33:40.
