data_PCOD9050934
_publ_section_title
;
Structure prediction by ZEFSAII (Michael W. Deem and Ramdas Pophale) SiO2 
 PCOD9050934
Probable space group: P -1
;
_chemical_formula_sum "Si O2"
_cell_formula_units_Z 16
_cell_length_a 13.940436
_cell_length_b 12.942230
_cell_length_c 8.657541
_cell_angle_alpha 60.746602
_cell_angle_beta 92.425297
_cell_angle_gamma 42.555102
_cell_volume 674.237577
_symmetry_space_group_name_H-M "P -1"
_symmetry_group_IT_number 2
_symmetry_cell_setting 'triclinic'
loop_
_space_group_symop_operation_xyz
x,y,z
-x,-y,-z
loop_
_atom_site_type_symbol
_atom_site_label
_atom_site_fract_x
_atom_site_fract_y
_atom_site_fract_z
Si Si1 0.137106 0.492605 0.859370
Si Si2 0.668989 0.165148 0.163567
Si Si3 0.453267 0.346543 0.520721
Si Si4 0.336640 0.690065 0.626099
Si Si5 0.107844 0.735203 0.445447
Si Si6 0.334755 0.087503 0.985166
Si Si7 0.222605 0.195836 0.577898
Si Si8 0.347007 0.265480 0.348067
O O1 0.180550 0.553396 0.700027
O O2 0.246326 0.254331 0.998106
O O3 0.919673 0.694428 0.646991
O O4 0.191269 0.458686 0.063353
O O5 0.700439 0.184733 0.322499
O O6 0.616646 0.081074 0.221135
O O7 0.500175 0.420827 0.886702
O O8 0.878586 0.957714 0.246255
O O9 0.571929 0.334738 0.490240
O O10 0.245350 0.587491 0.412188
O O11 0.429771 0.297503 0.396794
O O12 0.578162 0.129610 0.800221
O O13 0.149715 0.815967 0.470605
O O14 0.180923 0.237128 0.727328
O O15 0.500000 0.000000 0.000000
O O16 0.261222 0.289765 0.472918
O O17 0.500000 0.000000 0.500000
#
# Coordination Sequence:
#
# PCOD9050934 Si02
#       8
#     2   2   2   2   2   2   2   2
#     4  11  24  40  67  98 137 181 223 279 344 405
#     4  10  25  44  72  99 132 186 232 285 349 407
#     4  12  25  41  71 107 137 180 232 283 346 407
#     4  11  25  45  71  99 137 180 237 287 345 407
#     4  11  24  46  70 100 138 182 233 287 343 409
#     4  12  21  41  68  96 135 181 216 272 344 412
#     4  11  23  42  64  98 137 173 228 279 342 409
#     4  12  23  40  67  99 141 177 227 279 338 415
#
# _framework density 23.730506999999999
#
# number of rings (size 3 to 8) (size 9 to 14) (size 15 to 20)
#    0.000    0.750    3.750    3.000    5.250    1.500 
#    0.000    1.250    0.000    0.000    0.000    0.000 
#    0.000    0.000    0.000    0.000    0.000    0.000 
#
# Total GULP energy -89453.862900 kJ/mol
# GULP energy per Si atom -5590.866431 kJ/mol
# Density = 2.367650 g / cm^3
# Si number density = 23.730507 Si / 1000 Ang^3
#
#
#
# Elastic Constant Matrix: (Units=GPa)
#
#
# Indices 1 2 3 4 5 6 
#
# 1 92.9875 -1.2989 -0.3729 4.2260 -6.7260 4.4341
# 2 -1.2989 55.0865 3.0553 2.2905 -0.3295 -0.3343
# 3 -0.3729 3.0553 68.8659 14.7311 21.9079 0.1065
# 4 4.2260 2.2905 14.7311 33.4443 3.6984 4.6782
# 5 -6.7260 -0.3295 21.9079 3.6984 32.8062 5.1970
# 6 4.4341 -0.3343 0.1065 4.6782 5.1970 34.8886
#
#
#
# Elastic Compliance Matrix: (Units=1/GPa)
#
#
# Indices 1 2 3 4 5 6 
#
# 1 0.011123 0.000361 -0.000694 -0.001234 0.003158 -0.001713
# 2 0.000361 0.018260 -0.000890 -0.001027 0.000947 0.000129
# 3 -0.000694 -0.000890 0.020504 -0.007825 -0.013448 0.003069
# 4 -0.001234 -0.001027 -0.007825 0.034020 0.001866 -0.004669
# 5 0.003158 0.000947 -0.013448 0.001866 0.040971 -0.006705
# 6 -0.001713 0.000129 0.003069 -0.004669 -0.006705 0.030497
#
#
# Mechanical properties :
#
#
# Convention : Reuss Voigt Hill
#
# Bulk Modulus (GPa) = 21.07907 24.41189 22.74548
# Shear Modulus (GPa) = 28.79615 34.59826 31.69720
#
# Velocity S-wave (km/s) = 3.48726 3.82247 3.65871
# Velocity P-wave (km/s) = 5.01165 5.45813 5.23965
#
# Compressibility (1/GPa) = 0.04744042
#
# Stress axis : x y z
#
# Youngs Moduli (GPa) = 89.90739 54.76368 48.77140
#
# Poissons Ratio (x) = -0.01974 0.03383
# Poissons Ratio (y) = -0.03242 0.04341
# Poissons Ratio (z) = 0.06237 0.04874
#
# Static dielectric constant tensor:
#      x y z
#    x 1.928330 -0.036500 0.010250 
#    y -0.036500 1.962010 -0.003660 
#    z 0.010250 -0.003660 1.896840 
# 
# From -- ./inp_files/314660.got.cif
#   From: 2010.05.17/outbox.cif.g08.bks.cpg/sg2_158_cif.got.tgz:314660.got - 2010.06.03 11:33:40.
