data_PCOD9050004
_publ_section_title
;
Structure prediction by ZEFSAII (Michael W. Deem and Ramdas Pophale) SiO2 
 PCOD9050004
Probable space group: P -1
;
_chemical_formula_sum "Si O2"
_cell_formula_units_Z 14
_cell_length_a 18.624059
_cell_length_b 9.168384
_cell_length_c 9.336639
_cell_angle_alpha 31.107779
_cell_angle_beta 113.322120
_cell_angle_gamma 128.928203
_cell_volume 599.384855
_symmetry_space_group_name_H-M "P -1"
_symmetry_group_IT_number 2
_symmetry_cell_setting 'triclinic'
loop_
_space_group_symop_operation_xyz
x,y,z
-x,-y,-z
loop_
_atom_site_type_symbol
_atom_site_label
_atom_site_fract_x
_atom_site_fract_y
_atom_site_fract_z
Si Si1 0.815817 0.935693 0.575244
Si Si2 0.997365 0.176057 0.709018
Si Si3 0.572580 0.901079 0.660890
Si Si4 0.894651 0.795753 0.503454
Si Si5 0.676615 0.136456 0.834509
Si Si6 0.399577 0.423394 0.537875
Si Si7 0.291389 0.800593 0.756427
O O1 0.851849 0.972354 0.408083
O O2 0.802392 0.234486 0.349944
O O3 0.725609 0.537933 0.897089
O O4 0.900381 0.982030 0.698644
O O5 0.074451 0.196349 0.642487
O O6 0.000000 0.500000 0.500000
O O7 0.000000 0.000000 0.000000
O O8 0.500000 0.000000 0.500000
O O9 0.658367 0.118551 0.665775
O O10 0.626589 0.001854 0.466544
O O11 0.500000 0.500000 0.000000
O O12 0.790583 0.389263 0.764020
O O13 0.000000 0.000000 0.500000
O O14 0.616772 0.277742 0.730822
O O15 0.624856 0.741937 0.184248
O O16 0.500000 0.500000 0.500000
O O17 0.321557 0.093833 0.653254
#
# Coordination Sequence:
#
# PCOD9050004 Si02
#       7
#     2   2   2   2   2   2   2
#     4  11  24  44  68 101 136 182 225 288 341 410
#     4  11  26  45  71 102 138 177 231 282 344 408
#     4  12  27  47  68 101 144 187 230 291 356 414
#     4  10  24  48  72 105 144 183 233 288 347 419
#     4  12  25  45  71 105 140 186 230 285 356 406
#     4  12  24  43  72 101 137 178 238 288 339 417
#     4  12  23  44  68  99 138 178 232 281 349 412
#
# _framework density 23.357279999999999
#
# number of rings (size 3 to 8) (size 9 to 14) (size 15 to 20)
#    0.000    0.571    2.857    4.714    4.000    2.286 
#    0.000    6.429    0.000    0.000    0.000    0.000 
#    0.000    0.000    0.000    0.000    0.000    0.000 
#
# Total GULP energy -77940.075551 kJ/mol
# GULP energy per Si atom -5567.148254 kJ/mol
# Density = 2.330412 g / cm^3
# Si number density = 23.357280 Si / 1000 Ang^3
#
#
#
# Elastic Constant Matrix: (Units=GPa)
#
#
# Indices 1 2 3 4 5 6 
#
# 1 158.7673 28.7423 62.0225 16.1386 -17.7823 -14.1615
# 2 28.7423 80.5875 18.3545 11.7628 -11.8613 -10.3032
# 3 62.0225 18.3545 132.5742 12.8285 15.1056 -17.7368
# 4 16.1386 11.7628 12.8285 32.4052 -5.6854 -9.0102
# 5 -17.7823 -11.8613 15.1056 -5.6854 33.0833 9.2836
# 6 -14.1615 -10.3032 -17.7368 -9.0102 9.2836 49.9724
#
#
#
# Elastic Compliance Matrix: (Units=1/GPa)
#
#
# Indices 1 2 3 4 5 6 
#
# 1 0.009252 -0.001084 -0.004952 -0.001290 0.006867 -0.000868
# 2 -0.001084 0.014372 -0.001622 -0.003040 0.004598 0.000678
# 3 -0.004952 -0.001622 0.012021 -0.002392 -0.010267 0.004005
# 4 -0.001290 -0.003040 -0.002392 0.035349 0.004338 0.003726
# 5 0.006867 0.004598 -0.010267 0.004338 0.043245 -0.008002
# 6 -0.000868 0.000678 0.004005 0.003726 -0.008002 0.023485
#
#
# Mechanical properties :
#
#
# Convention : Reuss Voigt Hill
#
# Bulk Modulus (GPa) = 49.18793 65.57418 57.38106
# Shear Modulus (GPa) = 31.28578 40.61281 35.94930
#
# Velocity S-wave (km/s) = 3.66381 4.17437 3.92740
# Velocity P-wave (km/s) = 6.24521 7.16723 6.72205
#
# Compressibility (1/GPa) = 0.02033019
#
# Stress axis : x y z
#
# Youngs Moduli (GPa) = 108.08227 69.57994 83.18549
#
# Poissons Ratio (x) = 0.07541 0.41194
# Poissons Ratio (y) = 0.11714 0.13490
# Poissons Ratio (z) = 0.53524 0.11284
#
# Static dielectric constant tensor:
#      x y z
#    x 1.977960 0.188170 0.126690 
#    y 0.188170 2.124590 0.157360 
#    z 0.126690 0.157360 1.903360 
# 
# From -- ./inp_files/328297.got.cif
#   From: 2010.05.17/outbox.cif.g08.bks.cpg/sg2_165_cif.got.tgz:328297.got - 2010.06.03 11:33:40.
