data_PCOD9050544
_publ_section_title
;
Structure prediction by ZEFSAII (Michael W. Deem and Ramdas Pophale) SiO2 
 PCOD9050544
Probable space group: P -1
;
_chemical_formula_sum "Si O2"
_cell_formula_units_Z 15
_cell_length_a 5.216429
_cell_length_b 21.275221
_cell_length_c 12.180844
_cell_angle_alpha 36.060726
_cell_angle_beta 83.288667
_cell_angle_gamma 99.575046
_cell_volume 707.288540
_symmetry_space_group_name_H-M "P -1"
_symmetry_group_IT_number 2
_symmetry_cell_setting 'triclinic'
loop_
_space_group_symop_operation_xyz
x,y,z
-x,-y,-z
loop_
_atom_site_type_symbol
_atom_site_label
_atom_site_fract_x
_atom_site_fract_y
_atom_site_fract_z
Si Si1 0.667037 0.920469 0.106985
Si Si2 0.260971 0.648771 0.001276
Si Si3 0.307838 0.669437 0.542923
Si Si4 0.063362 0.350044 0.771885
Si Si5 0.280870 0.438551 0.408915
Si Si6 0.000000 0.500000 0.000000
Si Si7 0.659764 0.925037 0.643003
Si Si8 0.409536 0.194797 0.962395
O O1 0.501143 0.809658 0.352787
O O2 0.647105 0.860394 0.075704
O O3 0.500000 0.000000 0.000000
O O4 0.000000 0.000000 0.000000
O O5 0.003098 0.621972 0.141044
O O6 0.396058 0.565509 0.163378
O O7 0.142649 0.597160 0.960548
O O8 0.488312 0.788625 0.797038
O O9 0.508266 0.620764 0.539449
O O10 0.199667 0.599861 0.759940
O O11 0.024186 0.641633 0.523207
O O12 0.230248 0.444070 0.533819
O O13 0.742957 0.284639 0.831315
O O14 0.210813 0.261397 0.898011
O O15 0.638553 0.903853 0.804279
O O16 0.500000 0.000000 0.500000
O O17 0.000000 0.000000 0.500000
#
# Coordination Sequence:
#
# PCOD9050544 Si02
#       8
#     2   2   2   2   2   1   2   2
#     4  12  24  41  68 103 140 188 248 300 368 440
#     4  10  25  42  72 107 140 198 243 299 378 437
#     4  11  24  44  67 101 143 195 230 301 376 435
#     4  11  20  41  70 102 139 173 229 302 370 430
#     4  11  21  42  70 101 140 173 236 303 369 433
#     4  10  26  48  70 102 156 190 250 302 370 466
#     4  11  25  46  70  99 141 191 250 298 358 435
#     4  11  23  42  68 100 138 179 236 305 359 426
#
# _framework density 21.207754000000001
#
# number of rings (size 3 to 8) (size 9 to 14) (size 15 to 20)
#    0.000    1.067    2.667    3.600    0.000   10.667 
#    0.000    6.667    0.000    0.000    0.000    0.000 
#    0.000    0.000    0.000    0.000    0.000    0.000 
#
# Total GULP energy -83583.441180 kJ/mol
# GULP energy per Si atom -5572.229412 kJ/mol
# Density = 2.115948 g / cm^3
# Si number density = 21.207754 Si / 1000 Ang^3
#
#
#
# Elastic Constant Matrix: (Units=GPa)
#
#
# Indices 1 2 3 4 5 6 
#
# 1 154.2554 58.1539 44.6312 -19.2840 -9.6796 2.3300
# 2 58.1539 125.5749 53.3524 19.7239 -13.2199 20.8132
# 3 44.6312 53.3524 182.2473 -4.3719 -14.7059 1.3389
# 4 -19.2840 19.7239 -4.3719 54.0116 -1.3022 3.9291
# 5 -9.6796 -13.2199 -14.7059 -1.3022 29.6376 -13.0425
# 6 2.3300 20.8132 1.3389 3.9291 -13.0425 20.3730
#
#
#
# Elastic Compliance Matrix: (Units=1/GPa)
#
#
# Indices 1 2 3 4 5 6 
#
# 1 0.009457 -0.005663 -0.000323 0.005075 0.003166 0.005773
# 2 -0.005663 0.015394 -0.003499 -0.006850 -0.004140 -0.016178
# 3 -0.000323 -0.003499 0.006932 0.001417 0.004321 0.005650
# 4 0.005075 -0.006850 0.001417 0.022766 0.001610 0.002964
# 5 0.003166 -0.004140 0.004321 0.001610 0.050932 0.035879
# 6 0.005773 -0.016178 0.005650 0.002964 0.035879 0.086978
#
#
# Mechanical properties :
#
#
# Convention : Reuss Voigt Hill
#
# Bulk Modulus (GPa) = 78.05211 86.03917 82.04564
# Shear Modulus (GPa) = 23.18031 41.20045 32.19038
#
# Velocity S-wave (km/s) = 3.30966 4.41240 3.90020
# Velocity P-wave (km/s) = 7.17555 8.16191 7.68457
#
# Compressibility (1/GPa) = 0.01281195
#
# Stress axis : x y z
#
# Youngs Moduli (GPa) = 105.74162 64.96053 144.26170
#
# Poissons Ratio (x) = 0.36785 0.04666
# Poissons Ratio (y) = 0.59878 0.50481
# Poissons Ratio (z) = 0.03420 0.22731
#
# Static dielectric constant tensor:
#      x y z
#    x 1.764730 -0.021820 -0.019560 
#    y -0.021820 1.738460 -0.017420 
#    z -0.019560 -0.017420 1.808440 
# 
# From -- ./inp_files/368831.got.cif
#   From: 2010.05.17/outbox.cif.g08.bks.cpg/sg2_185_cif.got.tgz:368831.got - 2010.06.03 11:33:40.
