data_PCOD9050997
_publ_section_title
;
Structure prediction by ZEFSAII (Michael W. Deem and Ramdas Pophale) SiO2 
 PCOD9050997
Probable space group: P -1
;
_chemical_formula_sum "Si O2"
_cell_formula_units_Z 14
_cell_length_a 6.503225
_cell_length_b 14.992323
_cell_length_c 19.360265
_cell_angle_alpha 149.920771
_cell_angle_beta 134.405787
_cell_angle_gamma 59.041489
_cell_volume 653.629976
_symmetry_space_group_name_H-M "P -1"
_symmetry_group_IT_number 2
_symmetry_cell_setting 'triclinic'
loop_
_space_group_symop_operation_xyz
x,y,z
-x,-y,-z
loop_
_atom_site_type_symbol
_atom_site_label
_atom_site_fract_x
_atom_site_fract_y
_atom_site_fract_z
Si Si1 0.161547 0.581022 0.697050
Si Si2 0.178783 0.345289 0.935145
Si Si3 0.196155 0.981978 0.455011
Si Si4 0.773895 0.197333 0.518500
Si Si5 0.870796 0.418430 0.146510
Si Si6 0.174983 0.171636 0.968444
Si Si7 0.850394 0.759968 0.630756
O O1 0.082062 0.570406 0.752174
O O2 0.166557 0.384777 0.533098
O O3 0.933582 0.660573 0.651328
O O4 0.487723 0.722626 0.861345
O O5 0.135674 0.237917 0.925953
O O6 0.038443 0.201550 0.747083
O O7 0.530190 0.419591 0.055018
O O8 0.000000 0.500000 0.000000
O O9 0.275489 0.955062 0.535115
O O10 0.500000 0.000000 0.500000
O O11 0.050177 0.147427 0.511749
O O12 0.468483 0.193117 0.406488
O O13 0.903483 0.403759 0.714212
O O14 0.953202 0.242975 0.015039
O O15 0.094873 0.951442 0.804476
#
# Coordination Sequence:
#
# PCOD9050997 Si02
#       7
#     2   2   2   2   2   2   2
#     4  10  25  45  65  99 131 173 221 275 328 383
#     4  11  24  39  64  93 129 174 214 266 335 385
#     4  11  24  41  63  97 129 173 217 270 324 393
#     4  11  24  40  65  97 132 168 222 267 325 395
#     4  11  24  42  65  92 135 169 213 279 324 388
#     4  11  23  44  66  96 131 172 220 271 327 393
#     4  11  23  45  70  94 133 175 221 271 329 393
#
# _framework density 21.418845999999998
#
# number of rings (size 3 to 8) (size 9 to 14) (size 15 to 20)
#    0.000    1.143    1.429    3.857    6.000    5.714 
#    0.000    0.000    0.000    0.000    0.000    0.000 
#    0.000    0.000    0.000    0.000    0.000    0.000 
#
# Total GULP energy -78269.750898 kJ/mol
# GULP energy per Si atom -5590.696493 kJ/mol
# Density = 2.137010 g / cm^3
# Si number density = 21.418846 Si / 1000 Ang^3
#
#
#
# Elastic Constant Matrix: (Units=GPa)
#
#
# Indices 1 2 3 4 5 6 
#
# 1 72.1540 36.6241 13.1601 -10.2373 -0.2678 -13.5879
# 2 36.6241 117.2546 29.1531 -7.0398 -0.7183 -25.8462
# 3 13.1601 29.1531 112.0444 11.8143 1.3974 -7.5615
# 4 -10.2373 -7.0398 11.8143 38.0569 1.4670 2.7314
# 5 -0.2678 -0.7183 1.3974 1.4670 22.0578 5.9882
# 6 -13.5879 -25.8462 -7.5615 2.7314 5.9882 25.8536
#
#
#
# Elastic Compliance Matrix: (Units=1/GPa)
#
#
# Indices 1 2 3 4 5 6 
#
# 1 0.017527 -0.003877 -0.001127 0.004051 -0.001445 0.004913
# 2 -0.003877 0.012649 -0.002248 0.001343 -0.002395 0.010363
# 3 -0.001127 -0.002248 0.010105 -0.003880 -0.000653 0.000677
# 4 0.004051 0.001343 -0.003880 0.028903 -0.001482 -0.000373
# 5 -0.001445 -0.002395 -0.000653 -0.001482 0.049348 -0.014619
# 6 0.004913 0.010363 0.000677 -0.000373 -0.014619 0.055244
#
#
# Mechanical properties :
#
#
# Convention : Reuss Voigt Hill
#
# Bulk Modulus (GPa) = 38.79554 51.03639 44.91596
# Shear Modulus (GPa) = 25.39697 32.02806 28.71251
#
# Velocity S-wave (km/s) = 3.44718 3.87113 3.66529
# Velocity P-wave (km/s) = 5.83062 6.62272 6.23926
#
# Compressibility (1/GPa) = 0.02577616
#
# Stress axis : x y z
#
# Youngs Moduli (GPa) = 57.05366 79.06034 98.95818
#
# Poissons Ratio (x) = 0.30651 0.11157
# Poissons Ratio (y) = 0.22119 0.22247
# Poissons Ratio (z) = 0.06432 0.17774
#
# Static dielectric constant tensor:
#      x y z
#    x 1.820890 -0.007600 -0.010100 
#    y -0.007600 1.791860 0.028570 
#    z -0.010100 0.028570 1.794400 
# 
# From -- ./inp_files/27302.got.cif
#   From: 2010.05.17/outbox.cif.g08.bks.cpg/sg2_14_cif.got.tgz:27302.got - 2010.06.03 11:33:40.
