data_PCOD9050149
_publ_section_title
;
Structure prediction by ZEFSAII (Michael W. Deem and Ramdas Pophale) SiO2 
 PCOD9050149
Probable space group: P -1
;
_chemical_formula_sum "Si O2"
_cell_formula_units_Z 14
_cell_length_a 21.083939
_cell_length_b 9.824787
_cell_length_c 4.809282
_cell_angle_alpha 48.364563
_cell_angle_beta 111.843244
_cell_angle_gamma 134.713451
_cell_volume 520.511302
_symmetry_space_group_name_H-M "P -1"
_symmetry_group_IT_number 2
_symmetry_cell_setting 'triclinic'
loop_
_space_group_symop_operation_xyz
x,y,z
-x,-y,-z
loop_
_atom_site_type_symbol
_atom_site_label
_atom_site_fract_x
_atom_site_fract_y
_atom_site_fract_z
Si Si1 0.908256 0.979175 0.584411
Si Si2 0.328111 0.619741 0.932612
Si Si3 0.109732 0.311096 0.537479
Si Si4 0.419024 0.255595 0.544772
Si Si5 0.553233 0.232670 0.578084
Si Si6 0.733932 0.152042 0.755838
Si Si7 0.758011 0.863575 0.813523
O O1 0.867421 0.820753 0.449806
O O2 0.850388 0.040646 0.544830
O O3 0.911111 0.811911 0.028472
O O4 0.013422 0.216625 0.394064
O O5 0.414077 0.764230 0.672821
O O6 0.291013 0.760341 0.666390
O O7 0.357378 0.585759 0.321708
O O8 0.258329 0.376712 0.969897
O O9 0.187096 0.599360 0.294605
O O10 0.500000 0.500000 0.500000
O O11 0.478896 0.259769 0.405395
O O12 0.341220 0.244117 0.307225
O O13 0.357470 0.028227 0.964875
O O14 0.500000 0.000000 0.000000
O O15 0.764796 0.007292 0.895829
#
# Coordination Sequence:
#
# PCOD9050149 Si02
#       7
#     2   2   2   2   2   2   2
#     4  10  24  48  80 110 149 191 240 302 382 436
#     4  12  27  46  72  99 148 194 249 301 370 428
#     4  10  24  48  79 112 145 193 244 302 365 462
#     4  12  27  44  68 103 155 190 258 304 366 429
#     4  12  25  44  69  97 137 199 247 302 358 431
#     4  12  28  45  76 113 145 199 253 306 367 453
#     4  12  28  45  75 110 147 200 240 317 367 443
#
# _framework density 26.896628
#
# number of rings (size 3 to 8) (size 9 to 14) (size 15 to 20)
#    0.000    0.571    4.286    2.143    8.000    1.714 
#    0.000    0.714    0.000    0.000    0.000    0.000 
#    0.000    0.000    0.000    0.000    0.000    0.000 
#
# Total GULP energy -78240.889663 kJ/mol
# GULP energy per Si atom -5588.634976 kJ/mol
# Density = 2.683541 g / cm^3
# Si number density = 26.896628 Si / 1000 Ang^3
#
#
#
# Elastic Constant Matrix: (Units=GPa)
#
#
# Indices 1 2 3 4 5 6 
#
# 1 153.9622 42.9760 2.7020 -10.8490 -14.8837 9.4847
# 2 42.9760 196.2815 30.4517 -21.2452 -19.7161 5.7153
# 3 2.7020 30.4517 59.4505 -7.4527 -7.4474 -11.4501
# 4 -10.8490 -21.2452 -7.4527 38.1216 -10.5160 -15.4403
# 5 -14.8837 -19.7161 -7.4474 -10.5160 39.6254 1.1681
# 6 9.4847 5.7153 -11.4501 -15.4403 1.1681 51.4227
#
#
#
# Elastic Compliance Matrix: (Units=1/GPa)
#
#
# Indices 1 2 3 4 5 6 
#
# 1 0.007271 -0.001179 0.000829 0.002199 0.002896 -0.000431
# 2 -0.001179 0.006455 -0.002370 0.003717 0.003309 0.000013
# 3 0.000829 -0.002370 0.020756 0.006990 0.004690 0.006725
# 4 0.002199 0.003717 0.006990 0.039081 0.014002 0.012154
# 5 0.002896 0.003309 0.004690 0.014002 0.032462 0.003609
# 6 -0.000431 0.000013 0.006725 0.012154 0.003609 0.024590
#
#
# Mechanical properties :
#
#
# Convention : Reuss Voigt Hill
#
# Bulk Modulus (GPa) = 34.43281 62.43927 48.43604
# Shear Modulus (GPa) = 34.30890 48.07158 41.19024
#
# Velocity S-wave (km/s) = 3.57541 4.23220 3.91759
# Velocity P-wave (km/s) = 5.46575 6.86636 6.20570
#
# Compressibility (1/GPa) = 0.02904207
#
# Stress axis : x y z
#
# Youngs Moduli (GPa) = 137.52928 154.92173 48.17923
#
# Poissons Ratio (x) = 0.18268 -0.03994
# Poissons Ratio (y) = 0.16217 0.11417
# Poissons Ratio (z) = -0.11400 0.36711
#
# Static dielectric constant tensor:
#      x y z
#    x 2.191030 0.090950 0.076160 
#    y 0.090950 2.287980 -0.037510 
#    z 0.076160 -0.037510 2.254470 
# 
# From -- ./inp_files/123369.got.cif
#   From: 2010.05.17/outbox.cif.g08.bks.cpg/sg2_62_cif.got.tgz:123369.got - 2010.06.03 11:33:40.
