data_PCOD9050864
_publ_section_title
;
Structure prediction by ZEFSAII (Michael W. Deem and Ramdas Pophale) SiO2 
 PCOD9050864
Probable space group: P -1
;
_chemical_formula_sum "Si O2"
_cell_formula_units_Z 14
_cell_length_a 5.223772
_cell_length_b 8.545307
_cell_length_c 21.339032
_cell_angle_alpha 45.377091
_cell_angle_beta 61.473036
_cell_angle_gamma 64.581381
_cell_volume 588.926211
_symmetry_space_group_name_H-M "P -1"
_symmetry_group_IT_number 2
_symmetry_cell_setting 'triclinic'
loop_
_space_group_symop_operation_xyz
x,y,z
-x,-y,-z
loop_
_atom_site_type_symbol
_atom_site_label
_atom_site_fract_x
_atom_site_fract_y
_atom_site_fract_z
Si Si1 0.266087 0.498892 0.244966
Si Si2 0.428614 0.971298 0.090496
Si Si3 0.197542 0.893710 0.693704
Si Si4 0.840222 0.204456 0.420191
Si Si5 0.178680 0.764491 0.941908
Si Si6 0.305014 0.355754 0.524029
Si Si7 0.216866 0.412881 0.136434
O O1 0.400642 0.719115 0.183589
O O2 0.520531 0.286148 0.273215
O O3 0.152783 0.529712 0.178069
O O4 0.014549 0.417673 0.340284
O O5 0.662870 0.074405 0.076674
O O6 0.101639 0.109135 0.095675
O O7 0.500000 0.000000 0.000000
O O8 0.149514 0.875197 0.630025
O O9 0.920302 0.812711 0.781275
O O10 0.248595 0.141705 0.630388
O O11 0.509214 0.269938 0.464925
O O12 0.000000 0.000000 0.500000
O O13 0.436365 0.644043 0.901330
O O14 0.083775 0.577303 0.051313
O O15 0.500000 0.500000 0.500000
O O16 0.000000 0.500000 0.500000
#
# Coordination Sequence:
#
# PCOD9050864 Si02
#       7
#     2   2   2   2   2   2   2
#     4  11  25  42  75 100 140 189 240 289 346 432
#     4  12  25  44  69 104 145 182 239 292 349 409
#     4  11  25  46  74  99 142 186 244 282 356 442
#     4  11  24  48  73 102 138 192 244 287 354 437
#     4  11  26  45  71 102 147 187 231 294 351 415
#     4  12  28  46  72 104 142 179 229 304 359 411
#     4  10  25  44  70 103 139 191 231 286 357 420
#
# _framework density 23.772075999999998
#
# number of rings (size 3 to 8) (size 9 to 14) (size 15 to 20)
#    0.000    0.857    2.857    2.571   10.000    3.429 
#    0.000    0.000    0.000    0.000    0.000    0.000 
#    0.000    0.000    0.000    0.000    0.000    0.000 
#
# Total GULP energy -78500.569385 kJ/mol
# GULP energy per Si atom -5607.183527 kJ/mol
# Density = 2.371797 g / cm^3
# Si number density = 23.772076 Si / 1000 Ang^3
#
#
#
# Elastic Constant Matrix: (Units=GPa)
#
#
# Indices 1 2 3 4 5 6 
#
# 1 113.6381 39.3987 56.9024 -11.3392 -5.0520 -1.8038
# 2 39.3987 70.9753 49.2944 -18.8653 1.7367 -3.8639
# 3 56.9024 49.2944 165.7152 -24.9812 -26.5887 5.3388
# 4 -11.3392 -18.8653 -24.9812 50.7783 8.5701 -4.0351
# 5 -5.0520 1.7367 -26.5887 8.5701 38.4403 -14.8401
# 6 -1.8038 -3.8639 5.3388 -4.0351 -14.8401 55.0294
#
#
#
# Elastic Compliance Matrix: (Units=1/GPa)
#
#
# Indices 1 2 3 4 5 6 
#
# 1 0.011761 -0.004781 -0.002675 -0.000464 0.000135 0.000312
# 2 -0.004781 0.021931 -0.005027 0.005691 -0.006118 0.000638
# 3 -0.002675 -0.005027 0.009655 0.001232 0.006454 0.000454
# 4 -0.000464 0.005691 0.001232 0.023101 -0.004309 0.000797
# 5 0.000135 -0.006118 0.006454 -0.004309 0.034832 0.008026
# 6 0.000312 0.000638 0.000454 0.000797 0.008026 0.020406
#
#
# Mechanical properties :
#
#
# Convention : Reuss Voigt Hill
#
# Bulk Modulus (GPa) = 54.39655 71.27995 62.83825
# Shear Modulus (GPa) = 32.72725 42.49848 37.61286
#
# Velocity S-wave (km/s) = 3.71443 4.23276 3.98204
# Velocity P-wave (km/s) = 6.42870 7.34426 6.90168
#
# Compressibility (1/GPa) = 0.01838352
#
# Stress axis : x y z
#
# Youngs Moduli (GPa) = 85.02417 45.59676 103.57621
#
# Poissons Ratio (x) = 0.21798 0.27703
# Poissons Ratio (y) = 0.40648 0.52064
# Poissons Ratio (z) = 0.22741 0.22920
#
# Static dielectric constant tensor:
#      x y z
#    x 1.908420 0.018640 -0.014250 
#    y 0.018640 1.961500 -0.002310 
#    z -0.014250 -0.002310 1.900270 
# 
# From -- ./inp_files/48164.got.cif
#   From: 2010.05.17/outbox.cif.g08.bks.cpg/sg2_25_cif.got.tgz:48164.got - 2010.06.03 11:33:40.
