data_PCOD9050785
_publ_section_title
;
Structure prediction by ZEFSAII (Michael W. Deem and Ramdas Pophale) SiO2 
 PCOD9050785
Probable space group: P -1
;
_chemical_formula_sum "Si O2"
_cell_formula_units_Z 12
_cell_length_a 15.021582
_cell_length_b 7.948398
_cell_length_c 7.091738
_cell_angle_alpha 132.202383
_cell_angle_beta 70.151832
_cell_angle_gamma 124.612233
_cell_volume 515.001084
_symmetry_space_group_name_H-M "P -1"
_symmetry_group_IT_number 2
_symmetry_cell_setting 'triclinic'
loop_
_space_group_symop_operation_xyz
x,y,z
-x,-y,-z
loop_
_atom_site_type_symbol
_atom_site_label
_atom_site_fract_x
_atom_site_fract_y
_atom_site_fract_z
Si Si1 0.914198 0.716895 0.763591
Si Si2 0.681125 0.628521 0.977206
Si Si3 0.259707 0.116564 0.481271
Si Si4 0.415949 0.517147 0.430064
Si Si5 0.033091 0.649191 0.286972
Si Si6 0.565822 0.058703 0.803507
O O1 0.793002 0.667074 0.837386
O O2 0.925578 0.507019 0.727105
O O3 0.945336 0.678958 0.500233
O O4 0.000000 0.000000 0.000000
O O5 0.612425 0.644272 0.863857
O O6 0.612027 0.344452 0.904269
O O7 0.714672 0.828502 0.274545
O O8 0.307839 0.387262 0.536425
O O9 0.134447 0.933706 0.397439
O O10 0.329489 0.979594 0.266495
O O11 0.500000 0.500000 0.500000
O O12 0.476598 0.820124 0.562704
O O13 0.000000 0.500000 0.000000
O O14 0.500000 0.000000 0.000000
#
# Coordination Sequence:
#
# PCOD9050785 Si02
#       6
#     2   2   2   2   2   2
#     4  11  25  45  70 105 139 184 241 283 359 424
#     4  12  24  45  74  96 143 189 230 291 351 417
#     4  11  24  45  67 101 138 182 235 284 356 420
#     4  10  25  44  67 102 137 180 234 290 345 412
#     4  11  26  45  71 105 145 180 232 301 345 419
#     4  11  23  45  67 100 138 179 235 287 345 418
#
# _framework density 23.300920999999999
#
# number of rings (size 3 to 8) (size 9 to 14) (size 15 to 20)
#    0.000    1.000    5.000    0.500    2.333    6.000 
#    6.000    0.000    0.000    0.000    0.000    0.000 
#    0.000    0.000    0.000    0.000    0.000    0.000 
#
# Total GULP energy -67099.029606 kJ/mol
# GULP energy per Si atom -5591.585800 kJ/mol
# Density = 2.324789 g / cm^3
# Si number density = 23.300921 Si / 1000 Ang^3
#
#
#
# Elastic Constant Matrix: (Units=GPa)
#
#
# Indices 1 2 3 4 5 6 
#
# 1 86.7765 46.7148 48.9522 -19.8952 -3.1072 16.0816
# 2 46.7148 141.6088 37.7421 -3.3055 8.8665 34.5027
# 3 48.9522 37.7421 161.8165 -24.6559 20.3049 20.4464
# 4 -19.8952 -3.3055 -24.6559 40.0770 8.2549 -3.8904
# 5 -3.1072 8.8665 20.3049 8.2549 45.3328 -5.2059
# 6 16.0816 34.5027 20.4464 -3.8904 -5.2059 36.2271
#
#
#
# Elastic Compliance Matrix: (Units=1/GPa)
#
#
# Indices 1 2 3 4 5 6 
#
# 1 0.017588 -0.004833 -0.003694 0.005472 0.002794 -0.000131
# 2 -0.004833 0.010983 0.000235 -0.001542 -0.003348 -0.009094
# 3 -0.003694 0.000235 0.009181 0.004615 -0.005721 -0.004092
# 4 0.005472 -0.001542 0.004615 0.031770 -0.007314 -0.001204
# 5 0.002794 -0.003348 -0.005721 -0.007314 0.027762 0.008382
# 6 -0.000131 -0.009094 -0.004092 -0.001204 0.008382 0.039707
#
#
# Mechanical properties :
#
#
# Convention : Reuss Voigt Hill
#
# Bulk Modulus (GPa) = 47.24236 73.00221 60.12229
# Shear Modulus (GPa) = 31.12722 41.44690 36.28706
#
# Velocity S-wave (km/s) = 3.65893 4.22212 3.95057
# Velocity P-wave (km/s) = 6.17813 7.42742 6.83139
#
# Compressibility (1/GPa) = 0.02116744
#
# Stress axis : x y z
#
# Youngs Moduli (GPa) = 56.85646 91.05151 108.92420
#
# Poissons Ratio (x) = 0.44004 0.40234
# Poissons Ratio (y) = 0.27478 -0.02555
# Poissons Ratio (z) = 0.21001 -0.02136
#
# Static dielectric constant tensor:
#      x y z
#    x 1.870420 -0.017930 -0.021660 
#    y -0.017930 1.935860 0.030480 
#    z -0.021660 0.030480 1.934890 
# 
# From -- ./inp_files/105918.got.cif
#   From: 2010.05.17/outbox.cif.g08.bks.cpg/sg2_53_cif.got.tgz:105918.got - 2010.06.03 11:33:40.
