data_PCOD9050713
_publ_section_title
;
Structure prediction by ZEFSAII (Michael W. Deem and Ramdas Pophale) SiO2 
 PCOD9050713
Probable space group: P -1
;
_chemical_formula_sum "Si O2"
_cell_formula_units_Z 10
_cell_length_a 14.455536
_cell_length_b 8.785093
_cell_length_c 9.175963
_cell_angle_alpha 106.378419
_cell_angle_beta 136.874262
_cell_angle_gamma 40.372635
_cell_volume 405.295048
_symmetry_space_group_name_H-M "P -1"
_symmetry_group_IT_number 2
_symmetry_cell_setting 'triclinic'
loop_
_space_group_symop_operation_xyz
x,y,z
-x,-y,-z
loop_
_atom_site_type_symbol
_atom_site_label
_atom_site_fract_x
_atom_site_fract_y
_atom_site_fract_z
Si Si1 0.781461 0.697838 0.684333
Si Si2 0.587476 0.666624 0.055068
Si Si3 0.316986 0.559640 0.590530
Si Si4 0.871708 0.155332 0.053885
Si Si5 0.766241 0.815027 0.394445
O O1 0.780715 0.518657 0.582212
O O2 0.809253 0.790670 0.607211
O O3 0.500000 0.000000 0.500000
O O4 0.000000 0.500000 0.000000
O O5 0.645348 0.489650 0.204902
O O6 0.779698 0.420256 0.080402
O O7 0.574683 0.853290 0.168930
O O8 0.327429 0.941416 0.738143
O O9 0.600311 0.327259 0.795090
O O10 0.088425 0.886083 0.344558
O O11 0.000000 0.000000 0.000000
O O12 0.000000 0.500000 0.500000
#
# Coordination Sequence:
#
# PCOD9050713 Si02
#       5
#     2   2   2   2   2
#     4  11  26  45  73 103 147 186 233 297 356 422
#     4  10  25  45  71 104 142 187 238 291 353 429
#     4  11  26  47  72 104 142 193 239 285 363 426
#     4  12  27  46  73 106 146 187 239 298 355 422
#     4  10  25  43  73 104 140 188 239 292 353 422
#
# _framework density 24.673383000000001
#
# number of rings (size 3 to 8) (size 9 to 14) (size 15 to 20)
#    0.000    1.200    0.000    3.000   19.600    1.600 
#    0.000    0.000    0.000    0.000    0.000    0.000 
#    0.000    0.000    0.000    0.000    0.000    0.000 
#
# Total GULP energy -55760.033548 kJ/mol
# GULP energy per Si atom -5576.003355 kJ/mol
# Density = 2.461722 g / cm^3
# Si number density = 24.673383 Si / 1000 Ang^3
#
#
#
# Elastic Constant Matrix: (Units=GPa)
#
#
# Indices 1 2 3 4 5 6 
#
# 1 92.9747 15.0039 78.1558 -1.7134 -7.0972 -39.8158
# 2 15.0039 89.9798 53.8682 -6.1097 -20.0396 -18.8169
# 3 78.1558 53.8682 235.7334 -23.4693 -25.9358 -7.1727
# 4 -1.7134 -6.1097 -23.4693 61.8663 10.6193 12.7031
# 5 -7.0972 -20.0396 -25.9358 10.6193 48.1760 7.8875
# 6 -39.8158 -18.8169 -7.1727 12.7031 7.8875 45.9927
#
#
#
# Elastic Compliance Matrix: (Units=1/GPa)
#
#
# Indices 1 2 3 4 5 6 
#
# 1 0.036669 0.008901 -0.014393 -0.010666 -0.002264 0.036476
# 2 0.008901 0.016922 -0.006405 -0.004012 0.003471 0.014143
# 3 -0.014393 -0.006405 0.010843 0.005852 0.002284 -0.015397
# 4 -0.010666 -0.004012 0.005852 0.021249 -0.002245 -0.015447
# 5 -0.002264 0.003471 0.002284 -0.002245 0.024200 -0.003714
# 6 0.036476 0.014143 -0.015397 -0.015447 -0.003714 0.061608
#
#
# Mechanical properties :
#
#
# Convention : Reuss Voigt Hill
#
# Bulk Modulus (GPa) = 24.60581 79.19373 51.89977
# Shear Modulus (GPa) = 23.94279 49.31767 36.63023
#
# Velocity S-wave (km/s) = 3.11849 4.47567 3.85724
# Velocity P-wave (km/s) = 4.79175 7.67302 6.39672
#
# Compressibility (1/GPa) = 0.04064081
#
# Stress axis : x y z
#
# Youngs Moduli (GPa) = 27.27112 59.09364 92.22629
#
# Poissons Ratio (x) = -0.52601 1.32737
# Poissons Ratio (y) = -0.24275 0.59074
# Poissons Ratio (z) = 0.39250 0.37852
#
# Static dielectric constant tensor:
#      x y z
#    x 2.549030 0.585000 0.211920 
#    y 0.585000 2.387380 0.236000 
#    z 0.211920 0.236000 2.105140 
# 
# From -- ./inp_files/17820.got.cif
#   From: 2010.05.17/outbox.cif.g08.bks.cpg/sg2_9_cif.got.tgz:17820.got - 2010.06.03 11:33:40.
