data_PCOD9050609
_publ_section_title
;
Structure prediction by ZEFSAII (Michael W. Deem and Ramdas Pophale) SiO2 
 PCOD9050609
Probable space group: P -1
;
_chemical_formula_sum "Si O2"
_cell_formula_units_Z 14
_cell_length_a 18.335497
_cell_length_b 8.409466
_cell_length_c 11.202802
_cell_angle_alpha 130.642078
_cell_angle_beta 28.643929
_cell_angle_gamma 140.790229
_cell_volume 521.109006
_symmetry_space_group_name_H-M "P -1"
_symmetry_group_IT_number 2
_symmetry_cell_setting 'triclinic'
loop_
_space_group_symop_operation_xyz
x,y,z
-x,-y,-z
loop_
_atom_site_type_symbol
_atom_site_label
_atom_site_fract_x
_atom_site_fract_y
_atom_site_fract_z
Si Si1 0.160355 0.834308 0.137455
Si Si2 0.745782 0.646839 0.687331
Si Si3 0.400477 0.787782 0.935119
Si Si4 0.083378 0.053178 0.773551
Si Si5 0.445719 0.522138 0.375510
Si Si6 0.266037 0.802951 0.461137
Si Si7 0.235275 0.916317 0.821503
O O1 0.276645 0.139896 0.123150
O O2 0.203555 0.763704 0.913560
O O3 0.955455 0.758240 0.407855
O O4 0.212714 0.734825 0.127851
O O5 0.633857 0.559532 0.683048
O O6 0.704367 0.416387 0.717907
O O7 0.411790 0.554703 0.836124
O O8 0.538382 0.933846 0.698182
O O9 0.500000 0.000000 0.000000
O O10 0.268884 0.330846 0.619783
O O11 0.141294 0.853833 0.580868
O O12 0.000000 0.000000 0.000000
O O13 0.921315 0.023846 0.913715
O O14 0.566752 0.824403 0.348722
O O15 0.199510 0.767739 0.676679
#
# Coordination Sequence:
#
# PCOD9050609 Si02
#       7
#     2   2   2   2   2   2   2
#     4  11  25  44  70  99 137 177 231 273 349 391
#     4  11  24  44  67 102 134 180 224 286 328 410
#     4  11  24  43  66 101 133 178 224 278 335 407
#     4   9  21  44  63 101 142 174 217 280 337 400
#     4  11  23  42  72  98 139 173 229 278 332 404
#     4  10  25  43  67 100 139 170 233 276 335 404
#     4  11  24  45  71 103 132 185 222 280 340 400
#
# _framework density 26.865783
#
# number of rings (size 3 to 8) (size 9 to 14) (size 15 to 20)
#    0.000    1.429    2.857    0.857    4.000    9.143 
#    2.571    1.429    0.000    0.000    0.000    0.000 
#    0.000    0.000    0.000    0.000    0.000    0.000 
#
# Total GULP energy -78383.823347 kJ/mol
# GULP energy per Si atom -5598.844525 kJ/mol
# Density = 2.680464 g / cm^3
# Si number density = 26.865783 Si / 1000 Ang^3
#
#
#
# Elastic Constant Matrix: (Units=GPa)
#
#
# Indices 1 2 3 4 5 6 
#
# 1 124.0793 20.7313 44.4144 6.9792 -15.5620 -6.1728
# 2 20.7313 100.2151 22.1605 -0.0386 -12.0363 -31.1772
# 3 44.4144 22.1605 111.4617 -15.1686 -8.3988 -7.1762
# 4 6.9792 -0.0386 -15.1686 39.1392 -13.5717 -8.0607
# 5 -15.5620 -12.0363 -8.3988 -13.5717 52.4394 4.2015
# 6 -6.1728 -31.1772 -7.1762 -8.0607 4.2015 38.6843
#
#
#
# Elastic Compliance Matrix: (Units=1/GPa)
#
#
# Indices 1 2 3 4 5 6 
#
# 1 0.010052 -0.001335 -0.004142 -0.003171 0.001276 -0.001040
# 2 -0.001335 0.014388 -0.000949 0.003189 0.002652 0.011583
# 3 -0.004142 -0.000949 0.011964 0.006459 0.001987 0.001924
# 4 -0.003171 0.003189 0.006459 0.033580 0.008771 0.009307
# 5 0.001276 0.002652 0.001987 0.008771 0.022477 0.002096
# 6 -0.001040 0.011583 0.001924 0.009307 0.002096 0.037088
#
#
# Mechanical properties :
#
#
# Convention : Reuss Voigt Hill
#
# Bulk Modulus (GPa) = 42.46125 56.70763 49.58444
# Shear Modulus (GPa) = 33.27766 42.61589 37.94677
#
# Velocity S-wave (km/s) = 3.52328 3.98710 3.76234
# Velocity P-wave (km/s) = 5.69128 6.50765 6.11311
#
# Compressibility (1/GPa) = 0.02355089
#
# Stress axis : x y z
#
# Youngs Moduli (GPa) = 99.48506 69.50321 83.58740
#
# Poissons Ratio (x) = 0.09277 0.34624
# Poissons Ratio (y) = 0.13279 0.07933
# Poissons Ratio (z) = 0.41209 0.06596
#
# Static dielectric constant tensor:
#      x y z
#    x 2.121580 -0.020050 -0.013430 
#    y -0.020050 2.108150 0.014090 
#    z -0.013430 0.014090 2.165270 
# 
# From -- ./inp_files/403602.got.cif
#   From: 2010.05.17/outbox.cif.g08.bks.cpg/sg2_202_cif.got.tgz:403602.got - 2010.06.03 11:33:40.
