data_PCOD9050276
_publ_section_title
;
Structure prediction by ZEFSAII (Michael W. Deem and Ramdas Pophale) SiO2 
 PCOD9050276
Probable space group: P -1
;
_chemical_formula_sum "Si O2"
_cell_formula_units_Z 15
_cell_length_a 21.453473
_cell_length_b 8.699695
_cell_length_c 12.780672
_cell_angle_alpha 46.681912
_cell_angle_beta 156.834040
_cell_angle_gamma 143.495438
_cell_volume 543.761704
_symmetry_space_group_name_H-M "P -1"
_symmetry_group_IT_number 2
_symmetry_cell_setting 'triclinic'
loop_
_space_group_symop_operation_xyz
x,y,z
-x,-y,-z
loop_
_atom_site_type_symbol
_atom_site_label
_atom_site_fract_x
_atom_site_fract_y
_atom_site_fract_z
Si Si1 0.550807 0.677178 0.393739
Si Si2 0.883351 0.241047 0.867772
Si Si3 0.795726 0.742302 0.070629
Si Si4 0.104591 0.706958 0.878571
Si Si5 0.850348 0.170055 0.522336
Si Si6 0.252255 0.469003 0.690882
Si Si7 0.500000 0.000000 0.500000
Si Si8 0.638592 0.009682 0.049407
O O1 0.500000 0.500000 0.500000
O O2 0.456209 0.833793 0.179850
O O3 0.775595 0.918992 0.599602
O O4 0.434389 0.456480 0.226329
O O5 0.015370 0.394733 0.897022
O O6 0.649594 0.106487 0.576453
O O7 0.000000 0.500000 0.000000
O O8 0.894583 0.021699 0.037441
O O9 0.792763 0.739305 0.192148
O O10 0.926359 0.664980 0.254270
O O11 0.889105 0.655950 0.570426
O O12 0.300637 0.874392 0.176228
O O13 0.181154 0.838664 0.822841
O O14 0.801826 0.356055 0.411319
O O15 0.711213 0.033579 0.268342
O O16 0.484120 0.702323 0.922349
#
# Coordination Sequence:
#
# PCOD9050276 Si02
#       8
#     2   2   2   2   2   2   1   2
#     4  11  25  36  59 103 148 185 221 257 319 405
#     4  10  26  47  68  93 126 167 226 296 340 392
#     4  12  23  40  67  98 133 178 227 269 326 400
#     4  11  23  41  73  95 126 172 224 278 344 396
#     4  11  22  41  62 100 152 183 212 267 318 403
#     4  11  21  40  66 103 138 182 220 256 326 406
#     4  10  24  50  66  90 122 164 222 296 354 378
#     4  11  21  41  65  97 146 184 211 267 326 400
#
# _framework density 27.585612000000001
#
# number of rings (size 3 to 8) (size 9 to 14) (size 15 to 20)
#    0.000    1.067    4.000    2.800    7.467    1.600 
#    0.000    2.667    0.000    7.200    0.000    0.000 
#    0.000    0.000    0.000    0.000    0.000    0.000 
#
# Total GULP energy -83628.219772 kJ/mol
# GULP energy per Si atom -5575.214651 kJ/mol
# Density = 2.752283 g / cm^3
# Si number density = 27.585612 Si / 1000 Ang^3
#
#
#
# Elastic Constant Matrix: (Units=GPa)
#
#
# Indices 1 2 3 4 5 6 
#
# 1 59.1382 38.7137 18.7104 9.7769 -8.0292 18.0235
# 2 38.7137 171.8420 46.0813 10.4502 -7.7322 29.6637
# 3 18.7104 46.0813 132.8897 33.4048 -34.4715 10.6549
# 4 9.7769 10.4502 33.4048 46.9800 5.7415 -4.3450
# 5 -8.0292 -7.7322 -34.4715 5.7415 57.8915 7.5761
# 6 18.0235 29.6637 10.6549 -4.3450 7.5761 54.4611
#
#
#
# Elastic Compliance Matrix: (Units=1/GPa)
#
#
# Indices 1 2 3 4 5 6 
#
# 1 0.022720 -0.003713 0.001562 -0.006289 0.005127 -0.007017
# 2 -0.003713 0.007596 -0.002182 0.000481 -0.000537 -0.002369
# 3 0.001562 -0.002182 0.013766 -0.011221 0.009795 -0.004280
# 4 -0.006289 0.000481 -0.011221 0.032674 -0.011812 0.008265
# 5 0.005127 -0.000537 0.009795 -0.011812 0.025948 -0.007873
# 6 -0.007017 -0.002369 -0.004280 0.008265 -0.007873 0.024566
#
#
# Mechanical properties :
#
#
# Convention : Reuss Voigt Hill
#
# Bulk Modulus (GPa) = 28.23400 63.43119 45.83259
# Shear Modulus (GPa) = 33.84272 49.22415 41.53344
#
# Velocity S-wave (km/s) = 3.50641 4.22882 3.88444
# Velocity P-wave (km/s) = 5.16241 6.84749 6.06377
#
# Compressibility (1/GPa) = 0.03541829
#
# Stress axis : x y z
#
# Youngs Moduli (GPa) = 44.01315 131.64257 72.64058
#
# Poissons Ratio (x) = 0.48879 -0.11347
# Poissons Ratio (y) = 0.16342 0.15847
# Poissons Ratio (z) = -0.06875 0.28719
#
# Static dielectric constant tensor:
#      x y z
#    x 2.443390 0.066840 -0.091680 
#    y 0.066840 2.254570 -0.077570 
#    z -0.091680 -0.077570 2.232010 
# 
# From -- ./inp_files/543955.got.cif
#   From: 2010.05.17/outbox.cif.g08.bks.cpg/sg2_272_cif.got.tgz:543955.got - 2010.06.03 11:33:40.
