data_PCOD9050872
_publ_section_title
;
Structure prediction by ZEFSAII (Michael W. Deem and Ramdas Pophale) SiO2 
 PCOD9050872
Probable space group: P -1
;
_chemical_formula_sum "Si O2"
_cell_formula_units_Z 12
_cell_length_a 18.102887
_cell_length_b 5.129098
_cell_length_c 14.519342
_cell_angle_alpha 87.038861
_cell_angle_beta 21.395313
_cell_angle_gamma 85.196463
_cell_volume 488.790577
_symmetry_space_group_name_H-M "P -1"
_symmetry_group_IT_number 2
_symmetry_cell_setting 'triclinic'
loop_
_space_group_symop_operation_xyz
x,y,z
-x,-y,-z
loop_
_atom_site_type_symbol
_atom_site_label
_atom_site_fract_x
_atom_site_fract_y
_atom_site_fract_z
Si Si1 0.665143 0.799818 0.762799
Si Si2 0.744966 0.439884 0.160769
Si Si3 0.363557 0.475718 0.017004
Si Si4 0.770598 0.932436 0.250779
Si Si5 0.446503 0.154942 0.756748
Si Si6 0.922514 0.183258 0.797491
O O1 0.546999 0.642783 0.828248
O O2 0.858743 0.916484 0.493039
O O3 0.730968 0.608095 0.775679
O O4 0.500000 0.000000 0.000000
O O5 0.682228 0.171852 0.282245
O O6 0.580868 0.580199 0.277755
O O7 0.781093 0.653959 0.192086
O O8 0.933195 0.349239 0.876300
O O9 0.456974 0.236403 0.849047
O O10 0.195018 0.636518 0.147335
O O11 0.632615 0.969417 0.501697
O O12 0.000000 0.000000 0.000000
O O13 0.231384 0.032817 0.999301
#
# Coordination Sequence:
#
# PCOD9050872 Si02
#       6
#     2   2   2   2   2   2
#     4  11  25  46  72 103 147 184 245 306 366 437
#     4  11  25  47  71 105 144 197 237 294 361 433
#     4  10  25  44  70 105 140 194 241 299 366 436
#     4  12  27  44  73 108 151 188 245 300 361 428
#     4  11  25  45  74 102 145 192 246 294 360 440
#     4  11  25  45  74 104 147 190 244 297 369 432
#
# _framework density 24.55039
#
# number of rings (size 3 to 8) (size 9 to 14) (size 15 to 20)
#    0.000    1.000    1.667    3.000    7.000   10.667 
#    0.000    0.000    0.000    0.000    0.000    0.000 
#    0.000    0.000    0.000    0.000    0.000    0.000 
#
# Total GULP energy -67182.909419 kJ/mol
# GULP energy per Si atom -5598.575785 kJ/mol
# Density = 2.449451 g / cm^3
# Si number density = 24.550390 Si / 1000 Ang^3
#
#
#
# Elastic Constant Matrix: (Units=GPa)
#
#
# Indices 1 2 3 4 5 6 
#
# 1 70.1679 35.3218 55.8857 16.1802 6.1816 32.3171
# 2 35.3218 122.3938 54.0971 1.6277 6.2666 27.3459
# 3 55.8857 54.0971 214.7345 9.4013 1.2532 32.8629
# 4 16.1802 1.6277 9.4013 33.6925 6.4388 9.5457
# 5 6.1816 6.2666 1.2532 6.4388 17.1068 7.3505
# 6 32.3171 27.3459 32.8629 9.5457 7.3505 58.1361
#
#
#
# Elastic Compliance Matrix: (Units=1/GPa)
#
#
# Indices 1 2 3 4 5 6 
#
# 1 0.025065 -0.003394 -0.003982 -0.008171 -0.000729 -0.008652
# 2 -0.003394 0.010414 -0.001492 0.002670 -0.002500 -0.002290
# 3 -0.003982 -0.001492 0.006180 0.000145 0.001836 -0.000834
# 4 -0.008171 0.002670 0.000145 0.035904 -0.010991 -0.001301
# 5 -0.000729 -0.002500 0.001836 -0.010991 0.066227 -0.006026
# 6 -0.008652 -0.002290 -0.000834 -0.001301 -0.006026 0.024535
#
#
# Mechanical properties :
#
#
# Convention : Reuss Voigt Hill
#
# Bulk Modulus (GPa) = 41.80327 77.54505 59.67416
# Shear Modulus (GPa) = 25.76864 39.25319 32.51091
#
# Velocity S-wave (km/s) = 3.24330 4.00294 3.64298
# Velocity P-wave (km/s) = 5.57583 7.28144 6.48495
#
# Compressibility (1/GPa) = 0.02392157
#
# Stress axis : x y z
#
# Youngs Moduli (GPa) = 39.89611 96.02887 161.82199
#
# Poissons Ratio (x) = 0.32597 0.64439
# Poissons Ratio (y) = 0.13543 0.24140
# Poissons Ratio (z) = 0.15887 0.14325
#
# Static dielectric constant tensor:
#      x y z
#    x 1.982360 -0.056670 0.005360 
#    y -0.056670 2.019800 0.007600 
#    z 0.005360 0.007600 1.966460 
# 
# From -- ./inp_files/539783.got.cif
#   From: 2010.05.17/outbox.cif.g08.bks.cpg/sg2_270_cif.got.tgz:539783.got - 2010.06.03 11:33:40.
