data_PCOD9050919
_publ_section_title
;
Structure prediction by ZEFSAII (Michael W. Deem and Ramdas Pophale) SiO2 
 PCOD9050919
Probable space group: P -1
;
_chemical_formula_sum "Si O2"
_cell_formula_units_Z 14
_cell_length_a 9.636323
_cell_length_b 20.456491
_cell_length_c 5.535158
_cell_angle_alpha 51.883090
_cell_angle_beta 119.460217
_cell_angle_gamma 139.890504
_cell_volume 552.632593
_symmetry_space_group_name_H-M "P -1"
_symmetry_group_IT_number 2
_symmetry_cell_setting 'triclinic'
loop_
_space_group_symop_operation_xyz
x,y,z
-x,-y,-z
loop_
_atom_site_type_symbol
_atom_site_label
_atom_site_fract_x
_atom_site_fract_y
_atom_site_fract_z
Si Si1 0.088632 0.766716 0.667301
Si Si2 0.058863 0.614468 0.344855
Si Si3 0.202434 0.011638 0.868210
Si Si4 0.544229 0.891267 0.642489
Si Si5 0.583612 0.322574 0.149004
Si Si6 0.734251 0.547427 0.564851
Si Si7 0.870384 0.825279 0.690914
O O1 0.316750 0.859910 0.520643
O O2 0.897781 0.665666 0.568856
O O3 0.995213 0.804236 0.677799
O O4 0.147203 0.705034 0.012625
O O5 0.242957 0.671463 0.572180
O O6 0.000000 0.500000 0.500000
O O7 0.833847 0.576041 0.320619
O O8 0.346285 0.053179 0.651586
O O9 0.127365 0.081921 0.637020
O O10 0.322601 0.040335 0.157879
O O11 0.998475 0.881683 0.926328
O O12 0.518302 0.781291 0.879133
O O13 0.380659 0.283184 0.224084
O O14 0.715757 0.446447 0.875175
O O15 0.500000 0.500000 0.500000
#
# Coordination Sequence:
#
# PCOD9050919 Si02
#       7
#     2   2   2   2   2   2   2
#     4  12  25  44  68 105 143 186 234 299 360 421
#     4  12  24  44  69  94 145 194 238 281 349 431
#     4  10  25  51  72 105 139 192 243 300 358 437
#     4  11  24  46  76 101 141 189 244 292 362 428
#     4  11  23  46  69 103 138 196 234 287 357 441
#     4  12  27  41  64 108 143 180 237 297 353 427
#     4  10  25  44  72 102 140 185 237 301 363 419
#
# _framework density 25.333286999999999
#
# number of rings (size 3 to 8) (size 9 to 14) (size 15 to 20)
#    0.000    0.857    2.857    3.857    4.000    7.429 
#    2.571    0.000    0.000    0.000    0.000    0.000 
#    0.000    0.000    0.000    0.000    0.000    0.000 
#
# Total GULP energy -78424.222668 kJ/mol
# GULP energy per Si atom -5601.730191 kJ/mol
# Density = 2.527563 g / cm^3
# Si number density = 25.333287 Si / 1000 Ang^3
#
#
#
# Elastic Constant Matrix: (Units=GPa)
#
#
# Indices 1 2 3 4 5 6 
#
# 1 186.5762 49.3130 29.5059 1.8223 -7.1437 14.0244
# 2 49.3130 116.8093 29.0238 5.1846 0.3266 -6.9912
# 3 29.5059 29.0238 59.6019 -0.9396 -3.0583 -4.0278
# 4 1.8223 5.1846 -0.9396 44.3670 0.1656 7.3419
# 5 -7.1437 0.3266 -3.0583 0.1656 29.5483 -2.6130
# 6 14.0244 -6.9912 -4.0278 7.3419 -2.6130 58.5977
#
#
#
# Elastic Compliance Matrix: (Units=1/GPa)
#
#
# Indices 1 2 3 4 5 6 
#
# 1 0.006511 -0.002349 -0.002146 0.000283 0.001202 -0.001968
# 2 -0.002349 0.010723 -0.004015 -0.001522 -0.000942 0.001714
# 3 -0.002146 -0.004015 0.019989 0.000744 0.001713 0.001392
# 4 0.000283 -0.001522 0.000744 0.023239 -0.000244 -0.003121
# 5 0.001202 -0.000942 0.001713 -0.000244 0.034436 0.001284
# 6 -0.001968 0.001714 0.001392 -0.003121 0.001284 0.018285
#
#
# Mechanical properties :
#
#
# Convention : Reuss Voigt Hill
#
# Bulk Modulus (GPa) = 49.49903 64.29697 56.89800
# Shear Modulus (GPa) = 36.51251 43.51225 40.01238
#
# Velocity S-wave (km/s) = 3.80055 4.14888 3.97853
# Velocity P-wave (km/s) = 6.23221 6.95604 6.60405
#
# Compressibility (1/GPa) = 0.02020242
#
# Stress axis : x y z
#
# Youngs Moduli (GPa) = 153.57965 93.25576 50.02633
#
# Poissons Ratio (x) = 0.21908 0.10737
# Poissons Ratio (y) = 0.36080 0.20087
# Poissons Ratio (z) = 0.32962 0.37445
#
# Static dielectric constant tensor:
#      x y z
#    x 1.980140 0.000080 -0.025120 
#    y 0.000080 2.089900 -0.016580 
#    z -0.025120 -0.016580 1.989800 
# 
# From -- ./inp_files/52600.got.cif
#   From: 2010.05.17/outbox.cif.g08.bks.cpg/sg2_27_cif.got.tgz:52600.got - 2010.06.03 11:33:40.
