data_PCOD9050415
_publ_section_title
;
Structure prediction by ZEFSAII (Michael W. Deem and Ramdas Pophale) SiO2 
 PCOD9050415
Probable space group: P -1
;
_chemical_formula_sum "Si O2"
_cell_formula_units_Z 14
_cell_length_a 23.628895
_cell_length_b 7.849481
_cell_length_c 12.128985
_cell_angle_alpha 37.281963
_cell_angle_beta 155.237610
_cell_angle_gamma 140.666578
_cell_volume 559.132364
_symmetry_space_group_name_H-M "P -1"
_symmetry_group_IT_number 2
_symmetry_cell_setting 'triclinic'
loop_
_space_group_symop_operation_xyz
x,y,z
-x,-y,-z
loop_
_atom_site_type_symbol
_atom_site_label
_atom_site_fract_x
_atom_site_fract_y
_atom_site_fract_z
Si Si1 0.008214 0.074425 0.802723
Si Si2 0.227970 0.115269 0.343820
Si Si3 0.373146 0.853700 0.075639
Si Si4 0.200012 0.646231 0.363293
Si Si5 0.484543 0.426249 0.359505
Si Si6 0.096704 0.983475 0.577522
Si Si7 0.559042 0.536148 0.208555
O O1 0.864747 0.982313 0.662265
O O2 0.981557 0.188447 0.576927
O O3 0.075511 0.799127 0.033851
O O4 0.119820 0.226155 0.011837
O O5 0.368409 0.341751 0.495961
O O6 0.259387 0.836831 0.477630
O O7 0.372534 0.570671 0.147731
O O8 0.488786 0.832490 0.383939
O O9 0.237098 0.868816 0.895291
O O10 0.400043 0.116404 0.900948
O O11 0.149177 0.317502 0.470891
O O12 0.311859 0.624251 0.479015
O O13 0.458046 0.399327 0.197326
O O14 0.000000 0.000000 0.500000
O O15 0.500000 0.500000 0.000000
#
# Coordination Sequence:
#
# PCOD9050415 Si02
#       7
#     2   2   2   2   2   2   2
#     4   9  20  37  61  92 116 163 211 239 300 375
#     4   9  19  37  67  83 116 168 202 243 302 359
#     4  10  25  41  62  96 119 164 212 245 304 378
#     4   9  20  37  60  91 117 158 209 244 304 366
#     4  11  23  44  65  87 129 164 201 257 312 360
#     4  11  23  37  60  93 128 157 199 259 305 356
#     4  11  23  40  66  93 121 161 204 258 311 362
#
# _framework density 25.038792999999998
#
# number of rings (size 3 to 8) (size 9 to 14) (size 15 to 20)
#    0.857    1.143    0.000    3.429    4.000    1.714 
#    0.000   10.000    0.000    0.000    0.000    0.000 
#    0.000    0.000    0.000    0.000    0.000    0.000 
#
# Total GULP energy -78180.208421 kJ/mol
# GULP energy per Si atom -5584.300602 kJ/mol
# Density = 2.498180 g / cm^3
# Si number density = 25.038793 Si / 1000 Ang^3
#
#
#
# Elastic Constant Matrix: (Units=GPa)
#
#
# Indices 1 2 3 4 5 6 
#
# 1 178.3221 -8.0775 47.5221 -3.8880 6.7915 7.3645
# 2 -8.0775 50.9054 5.0746 4.0507 -0.8942 -4.2997
# 3 47.5221 5.0746 103.0520 -18.9997 20.8650 -7.5118
# 4 -3.8880 4.0507 -18.9997 31.3710 -5.7725 2.5578
# 5 6.7915 -0.8942 20.8650 -5.7725 46.3692 7.3176
# 6 7.3645 -4.2997 -7.5118 2.5578 7.3176 28.4350
#
#
#
# Elastic Compliance Matrix: (Units=1/GPa)
#
#
# Indices 1 2 3 4 5 6 
#
# 1 0.006726 0.001334 -0.003798 -0.001231 0.001022 -0.002696
# 2 0.001334 0.020612 -0.002257 -0.004001 0.000333 0.002449
# 3 -0.003798 -0.002257 0.014464 0.007046 -0.005965 0.005365
# 4 -0.001231 -0.004001 0.007046 0.037040 0.001898 -0.002245
# 5 0.001022 0.000333 -0.005965 0.001898 0.025696 -0.008574
# 6 -0.002696 0.002449 0.005365 -0.002245 -0.008574 0.040062
#
#
# Mechanical properties :
#
#
# Convention : Reuss Voigt Hill
#
# Bulk Modulus (GPa) = 30.90112 46.81310 38.85711
# Shear Modulus (GPa) = 30.33456 40.41906 35.37681
#
# Velocity S-wave (km/s) = 3.48444 4.02214 3.76291
# Velocity P-wave (km/s) = 5.34383 6.34878 5.86786
#
# Compressibility (1/GPa) = 0.03236129
#
# Stress axis : x y z
#
# Youngs Moduli (GPa) = 148.67940 48.51529 69.13680
#
# Poissons Ratio (x) = -0.06472 0.26255
# Poissons Ratio (y) = -0.19834 0.15603
# Poissons Ratio (z) = 0.56462 0.10949
#
# Static dielectric constant tensor:
#      x y z
#    x 2.043780 -0.013260 -0.024200 
#    y -0.013260 2.083030 0.070340 
#    z -0.024200 0.070340 2.044790 
# 
# From -- ./inp_files/277164.got.cif
#   From: 2010.05.17/outbox.cif.g08.bks.cpg/sg2_139_cif.got.tgz:277164.got - 2010.06.03 11:33:40.
