data_PCOD9050148
_publ_section_title
;
Structure prediction by ZEFSAII (Michael W. Deem and Ramdas Pophale) SiO2 
 PCOD9050148
Probable space group: P -1
;
_chemical_formula_sum "Si O2"
_cell_formula_units_Z 16
_cell_length_a 5.664086
_cell_length_b 18.862483
_cell_length_c 8.855379
_cell_angle_alpha 48.450680
_cell_angle_beta 119.389701
_cell_angle_gamma 112.119793
_cell_volume 615.027739
_symmetry_space_group_name_H-M "P -1"
_symmetry_group_IT_number 2
_symmetry_cell_setting 'triclinic'
loop_
_space_group_symop_operation_xyz
x,y,z
-x,-y,-z
loop_
_atom_site_type_symbol
_atom_site_label
_atom_site_fract_x
_atom_site_fract_y
_atom_site_fract_z
Si Si1 0.442208 0.049026 0.149444
Si Si2 0.484218 0.622839 0.157113
Si Si3 0.201671 0.772245 0.008521
Si Si4 0.945834 0.903853 0.262427
Si Si5 0.011585 0.720769 0.341518
Si Si6 0.528534 0.308779 0.286041
Si Si7 0.695577 0.534088 0.866552
Si Si8 0.774187 0.877007 0.563315
O O1 0.553835 0.155083 0.078256
O O2 0.675219 0.982159 0.372557
O O3 0.345965 0.061775 0.927603
O O4 0.167178 0.993789 0.202755
O O5 0.227369 0.671842 0.076935
O O6 0.510764 0.663093 0.938133
O O7 0.444066 0.510852 0.265799
O O8 0.744356 0.660785 0.281758
O O9 0.941048 0.832089 0.812275
O O10 0.201424 0.748524 0.217941
O O11 0.949887 0.865151 0.486008
O O12 0.967104 0.819523 0.269536
O O13 0.177631 0.661593 0.594866
O O14 0.315392 0.354071 0.267291
O O15 0.489257 0.195220 0.437905
O O16 0.500000 0.500000 0.000000
O O17 0.000000 0.500000 0.000000
#
# Coordination Sequence:
#
# PCOD9050148 Si02
#       8
#     2   2   2   2   2   2   2   2
#     4  11  25  41  62  97 133 185 235 292 353 425
#     4  11  25  48  73 102 143 182 236 292 363 426
#     4  12  26  42  67  98 143 180 237 298 350 428
#     4  11  25  43  66  91 140 182 240 291 354 421
#     4  12  25  45  71 104 139 186 236 296 357 426
#     4  11  24  48  74 103 140 185 237 289 366 430
#     4  10  24  48  79 110 147 191 240 299 365 438
#     4  12  24  42  67  96 136 184 236 292 358 422
#
# _framework density 26.015087999999999
#
# number of rings (size 3 to 8) (size 9 to 14) (size 15 to 20)
#    0.000    0.750    3.750    3.000    5.250    2.000 
#    0.000    0.625    0.000    0.000    0.000    0.000 
#    0.000    0.000    0.000    0.000    0.000    0.000 
#
# Total GULP energy -89390.163307 kJ/mol
# GULP energy per Si atom -5586.885207 kJ/mol
# Density = 2.595588 g / cm^3
# Si number density = 26.015088 Si / 1000 Ang^3
#
#
#
# Elastic Constant Matrix: (Units=GPa)
#
#
# Indices 1 2 3 4 5 6 
#
# 1 57.5866 25.3032 15.7773 10.0616 13.4837 -16.2437
# 2 25.3032 73.8025 11.6319 11.4681 -6.6265 -16.9913
# 3 15.7773 11.6319 84.5762 13.5580 18.8353 8.4515
# 4 10.0616 11.4681 13.5580 37.6306 10.4769 12.5342
# 5 13.4837 -6.6265 18.8353 10.4769 44.8853 1.2464
# 6 -16.2437 -16.9913 8.4515 12.5342 1.2464 48.5957
#
#
#
# Elastic Compliance Matrix: (Units=1/GPa)
#
#
# Indices 1 2 3 4 5 6 
#
# 1 0.025537 -0.006325 -0.002443 -0.004889 -0.006666 0.008181
# 2 -0.006325 0.019639 -0.002654 -0.007775 0.007533 0.007026
# 3 -0.002443 -0.002654 0.014375 -0.000936 -0.005365 -0.003866
# 4 -0.004889 -0.007775 -0.000936 0.037233 -0.007599 -0.013599
# 5 -0.006666 0.007533 -0.005365 -0.007599 0.029348 0.002546
# 6 0.008181 0.007026 -0.003866 -0.013599 0.002546 0.029884
#
#
# Mechanical properties :
#
#
# Convention : Reuss Voigt Hill
#
# Bulk Modulus (GPa) = 27.24406 35.71001 31.47704
# Shear Modulus (GPa) = 26.16482 37.10586 31.63534
#
# Velocity S-wave (km/s) = 3.17481 3.78076 3.49096
# Velocity P-wave (km/s) = 4.89227 5.72847 5.32680
#
# Compressibility (1/GPa) = 0.03670524
#
# Stress axis : x y z
#
# Youngs Moduli (GPa) = 39.15954 50.91969 69.56289
#
# Poissons Ratio (x) = 0.32209 0.16994
# Poissons Ratio (y) = 0.24770 0.18464
# Poissons Ratio (z) = 0.09567 0.13516
#
# Static dielectric constant tensor:
#      x y z
#    x 2.090030 0.033040 0.047390 
#    y 0.033040 2.097240 -0.033260 
#    z 0.047390 -0.033260 2.063600 
# 
# From -- ./inp_files/48981.got.cif
#   From: 2010.05.17/outbox.cif.g08.bks.cpg/sg2_25_cif.got.tgz:48981.got - 2010.06.03 11:33:40.
