data_PCOD9050761
_publ_section_title
;
Structure prediction by ZEFSAII (Michael W. Deem and Ramdas Pophale) SiO2 
 PCOD9050761
Probable space group: P -1
;
_chemical_formula_sum "Si O2"
_cell_formula_units_Z 16
_cell_length_a 13.443938
_cell_length_b 12.849666
_cell_length_c 11.306581
_cell_angle_alpha 102.988064
_cell_angle_beta 75.556428
_cell_angle_gamma 36.046233
_cell_volume 738.312503
_symmetry_space_group_name_H-M "P -1"
_symmetry_group_IT_number 2
_symmetry_cell_setting 'triclinic'
loop_
_space_group_symop_operation_xyz
x,y,z
-x,-y,-z
loop_
_atom_site_type_symbol
_atom_site_label
_atom_site_fract_x
_atom_site_fract_y
_atom_site_fract_z
Si Si1 0.672276 0.050168 0.916472
Si Si2 0.037947 0.024049 0.118854
Si Si3 0.406007 0.344218 0.836078
Si Si4 0.143188 0.571285 0.309394
Si Si5 0.168277 0.478000 0.542617
Si Si6 0.370543 0.068641 0.443841
Si Si7 0.539639 0.626797 0.430217
Si Si8 0.952675 0.179334 0.789966
O O1 0.789077 0.034624 0.956287
O O2 0.889158 0.755096 0.756551
O O3 0.610191 0.159500 0.834069
O O4 0.400590 0.272348 0.105059
O O5 0.759889 0.332431 0.320512
O O6 0.152214 0.831390 0.129804
O O7 0.000000 0.000000 0.000000
O O8 0.464669 0.356981 0.706167
O O9 0.431920 0.196936 0.749815
O O10 0.143171 0.636163 0.045625
O O11 0.160498 0.547626 0.438837
O O12 0.133186 0.696929 0.281829
O O13 0.876461 0.767506 0.405888
O O14 0.259663 0.270022 0.448279
O O15 0.361403 0.356536 0.539911
O O16 0.500000 0.000000 0.500000
O O17 0.256744 0.876798 0.623313
#
# Coordination Sequence:
#
# PCOD9050761 Si02
#       8
#     2   2   2   2   2   2   2   2
#     4  10  25  44  65  99 133 177 219 270 338 384
#     4  11  24  43  70  98 134 176 220 278 330 392
#     4  11  22  43  67  91 140 170 214 283 322 393
#     4  11  24  42  68  96 133 175 221 268 329 399
#     4  11  23  43  69  93 141 169 216 280 325 388
#     4  12  23  45  69  99 133 178 219 272 335 388
#     4  11  22  43  67  99 133 173 221 274 333 393
#     4  11  23  44  66  96 133 174 221 272 332 392
#
# _framework density 21.671040999999999
#
# number of rings (size 3 to 8) (size 9 to 14) (size 15 to 20)
#    0.000    1.000    5.000    0.750    1.750    2.500 
#    2.250    6.250    0.000    0.000    0.000    0.000 
#    0.000    0.000    0.000    0.000    0.000    0.000 
#
# Total GULP energy -89364.419732 kJ/mol
# GULP energy per Si atom -5585.276233 kJ/mol
# Density = 2.162172 g / cm^3
# Si number density = 21.671041 Si / 1000 Ang^3
#
#
#
# Elastic Constant Matrix: (Units=GPa)
#
#
# Indices 1 2 3 4 5 6 
#
# 1 40.3412 20.5701 18.0256 -4.1995 22.7221 1.4809
# 2 20.5701 65.6970 16.1492 -1.1207 9.0816 11.3467
# 3 18.0256 16.1492 100.5425 8.9371 7.4467 6.1491
# 4 -4.1995 -1.1207 8.9371 27.8602 2.3305 5.9513
# 5 22.7221 9.0816 7.4467 2.3305 28.1401 6.2411
# 6 1.4809 11.3467 6.1491 5.9513 6.2411 42.5225
#
#
#
# Elastic Compliance Matrix: (Units=1/GPa)
#
#
# Indices 1 2 3 4 5 6 
#
# 1 0.061575 -0.012037 -0.007289 0.013524 -0.046594 0.007068
# 2 -0.012037 0.019489 -0.001009 0.000029 0.004882 -0.005356
# 3 -0.007289 -0.001009 0.011640 -0.004971 0.003769 -0.001018
# 4 0.013524 0.000029 -0.004971 0.041351 -0.012205 -0.003756
# 5 -0.046594 0.004882 0.003769 -0.012205 0.073666 -0.009329
# 6 0.007068 -0.005356 -0.001018 -0.003756 -0.009329 0.026742
#
#
# Mechanical properties :
#
#
# Convention : Reuss Voigt Hill
#
# Bulk Modulus (GPa) = 19.21830 35.11895 27.16863
# Shear Modulus (GPa) = 17.09529 29.82696 23.46112
#
# Velocity S-wave (km/s) = 2.81170 3.71395 3.29386
# Velocity P-wave (km/s) = 4.40776 5.88488 5.19905
#
# Compressibility (1/GPa) = 0.05203373
#
# Stress axis : x y z
#
# Youngs Moduli (GPa) = 16.24025 51.31136 85.91104
#
# Poissons Ratio (x) = 0.61763 0.62624
# Poissons Ratio (y) = 0.19548 0.08668
# Poissons Ratio (z) = 0.11838 0.05177
#
# Static dielectric constant tensor:
#      x y z
#    x 1.785360 0.028330 0.005050 
#    y 0.028330 1.834690 0.007180 
#    z 0.005050 0.007180 1.785360 
# 
# From -- ./inp_files/283319.got.cif
#   From: 2010.05.17/outbox.cif.g08.bks.cpg/sg2_142_cif.got.tgz:283319.got - 2010.06.03 11:33:40.
