data_PCOD9050021
_publ_section_title
;
Structure prediction by ZEFSAII (Michael W. Deem and Ramdas Pophale) SiO2 
 PCOD9050021
Probable space group: P -1
;
_chemical_formula_sum "Si O2"
_cell_formula_units_Z 13
_cell_length_a 11.671456
_cell_length_b 6.234121
_cell_length_c 12.302270
_cell_angle_alpha 70.863801
_cell_angle_beta 41.246062
_cell_angle_gamma 91.304518
_cell_volume 502.760551
_symmetry_space_group_name_H-M "P -1"
_symmetry_group_IT_number 2
_symmetry_cell_setting 'triclinic'
loop_
_space_group_symop_operation_xyz
x,y,z
-x,-y,-z
loop_
_atom_site_type_symbol
_atom_site_label
_atom_site_fract_x
_atom_site_fract_y
_atom_site_fract_z
Si Si1 0.175414 0.275096 0.803480
Si Si2 0.311482 0.744489 0.258362
Si Si3 0.227081 0.258137 0.518664
Si Si4 0.500000 0.500000 0.000000
Si Si5 0.152604 0.099303 0.206855
Si Si6 0.617804 0.245074 0.297075
Si Si7 0.353960 0.053291 0.853708
O O1 0.179862 0.295582 0.668996
O O2 0.215032 0.535219 0.791252
O O3 0.363706 0.247877 0.720308
O O4 0.000000 0.000000 0.000000
O O5 0.203185 0.466385 0.428875
O O6 0.190172 0.886297 0.280332
O O7 0.448985 0.894932 0.235705
O O8 0.442912 0.701279 0.078070
O O9 0.446863 0.299342 0.356467
O O10 0.075476 0.989087 0.626624
O O11 0.719868 0.640366 0.868998
O O12 0.224925 0.088080 0.034531
O O13 0.500000 0.000000 0.500000
O O14 0.715905 0.194905 0.127613
#
# Coordination Sequence:
#
# PCOD9050021 Si02
#       7
#     2   2   2   1   2   2   2
#     4  12  25  49  72 106 150 188 240 299 364 435
#     4  11  25  45  72 102 146 186 241 290 361 425
#     4  12  25  47  72 106 145 183 237 308 352 426
#     4  10  24  48  72  98 142 194 240 288 356 426
#     4  11  26  47  71 105 142 192 238 292 356 432
#     4  12  26  46  76 109 144 191 240 299 373 422
#     4  11  23  46  73 102 141 190 238 296 360 433
#
# _framework density 25.857239
#
# number of rings (size 3 to 8) (size 9 to 14) (size 15 to 20)
#    0.000    0.615    4.615    3.692    4.308    1.231 
#    5.538    0.000    0.000    0.000    0.000    0.000 
#    0.000    0.000    0.000    0.000    0.000    0.000 
#
# Total GULP energy -72433.329122 kJ/mol
# GULP energy per Si atom -5571.794548 kJ/mol
# Density = 2.579839 g / cm^3
# Si number density = 25.857239 Si / 1000 Ang^3
#
#
#
# Elastic Constant Matrix: (Units=GPa)
#
#
# Indices 1 2 3 4 5 6 
#
# 1 83.5486 34.0837 28.4070 -21.0436 -14.7607 25.2830
# 2 34.0837 130.0228 29.9475 -12.3499 -12.1118 49.1900
# 3 28.4070 29.9475 89.4895 -22.7468 -1.9646 17.0882
# 4 -21.0436 -12.3499 -22.7468 33.3496 5.7869 -13.7937
# 5 -14.7607 -12.1118 -1.9646 5.7869 38.7707 -15.8954
# 6 25.2830 49.1900 17.0882 -13.7937 -15.8954 41.4670
#
#
#
# Elastic Compliance Matrix: (Units=1/GPa)
#
#
# Indices 1 2 3 4 5 6 
#
# 1 0.016744 -0.001258 -0.002429 0.006035 0.003106 -0.004518
# 2 -0.001258 0.014792 -0.002088 -0.003805 -0.002897 -0.018295
# 3 -0.002429 -0.002088 0.014670 0.007964 -0.002126 -0.000254
# 4 0.006035 -0.003805 0.007964 0.042677 -0.000049 0.011729
# 5 0.003106 -0.002897 -0.002126 -0.000049 0.031981 0.014662
# 6 -0.004518 -0.018295 -0.000254 0.011729 0.014662 0.058199
#
#
# Mechanical properties :
#
#
# Convention : Reuss Voigt Hill
#
# Bulk Modulus (GPa) = 28.85493 54.21523 41.53508
# Shear Modulus (GPa) = 24.73224 36.75897 30.74560
#
# Velocity S-wave (km/s) = 3.09608 3.77452 3.45200
# Velocity P-wave (km/s) = 4.89535 6.32524 5.65566
#
# Compressibility (1/GPa) = 0.03465612
#
# Stress axis : x y z
#
# Youngs Moduli (GPa) = 59.72222 67.60476 68.16408
#
# Poissons Ratio (x) = 0.08505 0.16559
# Poissons Ratio (y) = 0.07514 0.14232
# Poissons Ratio (z) = 0.14508 0.14115
#
# Static dielectric constant tensor:
#      x y z
#    x 1.858650 -0.068150 0.183500 
#    y -0.068150 2.102930 -0.013440 
#    z 0.183500 -0.013440 1.961610 
# 
# From -- ./inp_files/69226.got.cif
#   From: 2010.05.17/outbox.cif.g08.bks.cpg/sg2_35_cif.got.tgz:69226.got - 2010.06.03 11:33:40.
