data_PCOD9050666
_publ_section_title
;
Structure prediction by ZEFSAII (Michael W. Deem and Ramdas Pophale) SiO2 
 PCOD9050666
Probable space group: P -1
;
_chemical_formula_sum "Si O2"
_cell_formula_units_Z 15
_cell_length_a 14.730536
_cell_length_b 8.537738
_cell_length_c 8.428145
_cell_angle_alpha 103.999502
_cell_angle_beta 104.513387
_cell_angle_gamma 130.446238
_cell_volume 652.685834
_symmetry_space_group_name_H-M "P -1"
_symmetry_group_IT_number 2
_symmetry_cell_setting 'triclinic'
loop_
_space_group_symop_operation_xyz
x,y,z
-x,-y,-z
loop_
_atom_site_type_symbol
_atom_site_label
_atom_site_fract_x
_atom_site_fract_y
_atom_site_fract_z
Si Si1 0.101296 0.162778 0.375381
Si Si2 0.692555 0.394833 0.643825
Si Si3 0.072195 0.339122 0.691921
Si Si4 0.000000 0.500000 0.500000
Si Si5 0.326082 0.928167 0.676969
Si Si6 0.579726 0.799198 0.696781
Si Si7 0.366986 0.784108 0.069578
Si Si8 0.358837 0.295837 0.605407
O O1 0.167338 0.325597 0.285715
O O2 0.039910 0.228941 0.471672
O O3 0.234945 0.265778 0.559803
O O4 0.993015 0.872435 0.262764
O O5 0.688480 0.215042 0.512848
O O6 0.556701 0.311151 0.489750
O O7 0.668310 0.341310 0.805014
O O8 0.992469 0.405586 0.656521
O O9 0.240855 0.564274 0.847637
O O10 0.173992 0.725173 0.644751
O O11 0.470024 0.053405 0.857707
O O12 0.354281 0.146753 0.689663
O O13 0.510752 0.582829 0.734876
O O14 0.668999 0.819764 0.609500
O O15 0.645885 0.040503 0.865359
#
# Coordination Sequence:
#
# PCOD9050666 Si02
#       8
#     2   2   2   1   2   2   2   2
#     4  10  22  41  63  88 129 181 209 243 332 386
#     4  10  18  37  67  94 128 168 206 261 318 380
#     4  11  25  43  65  89 129 173 216 261 312 386
#     4  12  24  44  64  86 120 186 210 248 320 394
#     4  11  20  39  67  93 127 168 212 251 321 383
#     4   9  18  33  61  96 128 161 201 258 326 369
#     4  11  22  40  66 103 126 156 218 276 311 356
#     4  10  17  34  64  89 121 171 206 245 303 398
#
# _framework density 22.981960999999998
#
# number of rings (size 3 to 8) (size 9 to 14) (size 15 to 20)
#    0.000    1.600    5.333    0.800    0.000    1.067 
#    0.000    6.000    0.000    0.000    0.000    0.000 
#    0.000    0.000    0.000    0.000    0.000    0.000 
#
# Total GULP energy -83551.514750 kJ/mol
# GULP energy per Si atom -5570.100983 kJ/mol
# Density = 2.292965 g / cm^3
# Si number density = 22.981961 Si / 1000 Ang^3
#
#
#
# Elastic Constant Matrix: (Units=GPa)
#
#
# Indices 1 2 3 4 5 6 
#
# 1 43.2817 21.2662 25.5363 4.3230 1.4833 7.4610
# 2 21.2662 159.6468 44.8847 10.9217 9.4786 -0.6305
# 3 25.5363 44.8847 65.2222 12.7098 18.2701 3.2481
# 4 4.3230 10.9217 12.7098 28.5839 1.8937 5.6897
# 5 1.4833 9.4786 18.2701 1.8937 22.7726 6.4823
# 6 7.4610 -0.6305 3.2481 5.6897 6.4823 35.9091
#
#
#
# Elastic Compliance Matrix: (Units=1/GPa)
#
#
# Indices 1 2 3 4 5 6 
#
# 1 0.034186 -0.000898 -0.016905 0.003491 0.013881 -0.008649
# 2 -0.000898 0.007841 -0.005147 -0.000777 0.000768 0.000774
# 3 -0.016905 -0.005147 0.034249 -0.010331 -0.025229 0.006515
# 4 0.003491 -0.000777 -0.010331 0.040364 0.007160 -0.007493
# 5 0.013881 0.000768 -0.025229 0.007160 0.066228 -0.013678
# 6 -0.008649 0.000774 0.006515 -0.007493 -0.013678 0.032726
#
#
# Mechanical properties :
#
#
# Convention : Reuss Voigt Hill
#
# Bulk Modulus (GPa) = 32.92029 50.16947 41.54488
# Shear Modulus (GPa) = 18.40819 29.21736 23.81277
#
# Velocity S-wave (km/s) = 2.83324 3.56942 3.22242
# Velocity P-wave (km/s) = 5.00584 6.23418 5.65347
#
# Compressibility (1/GPa) = 0.03037640
#
# Stress axis : x y z
#
# Youngs Moduli (GPa) = 29.25173 127.53346 29.19820
#
# Poissons Ratio (x) = 0.11456 0.49359
# Poissons Ratio (y) = 0.02628 0.15028
# Poissons Ratio (z) = 0.49449 0.65639
#
# Static dielectric constant tensor:
#      x y z
#    x 1.942320 -0.092450 -0.027330 
#    y -0.092450 1.977440 0.003660 
#    z -0.027330 0.003660 1.829000 
# 
# From -- ./inp_files/203198.got.cif
#   From: 2010.05.17/outbox.cif.g08.bks.cpg/sg2_102_cif.got.tgz:203198.got - 2010.06.03 11:33:40.
