data_PCOD9050937
_publ_section_title
;
Structure prediction by ZEFSAII (Michael W. Deem and Ramdas Pophale) SiO2 
 PCOD9050937
Probable space group: P -1
;
_chemical_formula_sum "Si O2"
_cell_formula_units_Z 16
_cell_length_a 10.694702
_cell_length_b 8.626805
_cell_length_c 16.050426
_cell_angle_alpha 112.756039
_cell_angle_beta 112.839672
_cell_angle_gamma 29.817850
_cell_volume 674.543534
_symmetry_space_group_name_H-M "P -1"
_symmetry_group_IT_number 2
_symmetry_cell_setting 'triclinic'
loop_
_space_group_symop_operation_xyz
x,y,z
-x,-y,-z
loop_
_atom_site_type_symbol
_atom_site_label
_atom_site_fract_x
_atom_site_fract_y
_atom_site_fract_z
Si Si1 0.510132 0.206779 0.152879
Si Si2 0.554809 0.747677 0.481385
Si Si3 0.229060 0.761118 0.670950
Si Si4 0.885406 0.870548 0.426707
Si Si5 0.674408 0.178149 0.021530
Si Si6 0.758413 0.976333 0.823377
Si Si7 0.902147 0.140731 0.813644
Si Si8 0.723651 0.736979 0.236926
O O1 0.633375 0.233418 0.241907
O O2 0.546996 0.193591 0.061521
O O3 0.216024 0.550924 0.167845
O O4 0.635357 0.913743 0.163926
O O5 0.609163 0.570714 0.379598
O O6 0.824103 0.459387 0.539903
O O7 0.500000 0.000000 0.500000
O O8 0.317811 0.918632 0.506808
O O9 0.141185 0.937961 0.598641
O O10 0.999086 0.963244 0.715577
O O11 0.795185 0.808396 0.334107
O O12 0.500000 0.500000 0.000000
O O13 0.884298 0.057510 0.103084
O O14 0.778515 0.965553 0.926257
O O15 0.026586 0.633700 0.787564
O O16 0.713619 0.207831 0.822446
O O17 0.521882 0.108754 0.766193
#
# Coordination Sequence:
#
# PCOD9050937 Si02
#       8
#     2   2   2   2   2   2   2   2
#     4  10  25  44  72  99 144 186 240 291 344 432
#     4  12  27  47  75 112 143 180 232 298 350 420
#     4  10  26  45  74 105 138 190 236 283 355 425
#     4  11  26  50  74 100 149 188 231 286 353 431
#     4  11  23  45  68 105 138 190 243 295 349 413
#     4  12  26  44  73 102 146 187 238 295 355 414
#     4  11  25  44  74 100 141 188 242 291 344 428
#     4  11  28  46  69 107 143 189 230 294 364 410
#
# _framework density 23.719743999999999
#
# number of rings (size 3 to 8) (size 9 to 14) (size 15 to 20)
#    0.000    1.000    1.250    3.000   15.750    2.000 
#    0.000    0.000    0.000    0.000    0.000    0.000 
#    0.000    0.000    0.000    0.000    0.000    0.000 
#
# Total GULP energy -89553.786029 kJ/mol
# GULP energy per Si atom -5597.111627 kJ/mol
# Density = 2.366576 g / cm^3
# Si number density = 23.719744 Si / 1000 Ang^3
#
#
#
# Elastic Constant Matrix: (Units=GPa)
#
#
# Indices 1 2 3 4 5 6 
#
# 1 74.8733 43.5670 24.6396 -14.0026 -3.4246 4.4829
# 2 43.5670 119.2786 9.6405 -17.2328 -9.2129 -5.4379
# 3 24.6396 9.6405 88.2675 -2.6482 -12.1578 0.9392
# 4 -14.0026 -17.2328 -2.6482 41.3454 -4.2712 3.7478
# 5 -3.4246 -9.2129 -12.1578 -4.2712 37.9939 -0.8254
# 6 4.4829 -5.4379 0.9392 3.7478 -0.8254 24.3187
#
#
#
# Elastic Compliance Matrix: (Units=1/GPa)
#
#
# Indices 1 2 3 4 5 6 
#
# 1 0.019812 -0.006598 -0.004767 0.004059 -0.001005 -0.005603
# 2 -0.006598 0.011465 0.001028 0.002596 0.002881 0.003438
# 3 -0.004767 0.001028 0.013094 0.000001 0.004026 0.000739
# 4 0.004059 0.002596 0.000001 0.027441 0.003988 -0.004262
# 5 -0.001005 0.002881 0.004026 0.003988 0.028687 0.001033
# 6 -0.005603 0.003438 0.000739 -0.004262 0.001033 0.043585
#
#
# Mechanical properties :
#
#
# Convention : Reuss Voigt Hill
#
# Bulk Modulus (GPa) = 42.19926 48.67928 45.43927
# Shear Modulus (GPa) = 28.95883 34.36974 31.66429
#
# Velocity S-wave (km/s) = 3.49789 3.81069 3.65764
# Velocity P-wave (km/s) = 5.84321 6.31895 6.08573
#
# Compressibility (1/GPa) = 0.02369710
#
# Stress axis : x y z
#
# Youngs Moduli (GPa) = 50.47352 87.22300 76.36892
#
# Poissons Ratio (x) = 0.57549 0.36405
# Poissons Ratio (y) = 0.33302 -0.07848
# Poissons Ratio (z) = 0.24061 -0.08964
#
# Static dielectric constant tensor:
#      x y z
#    x 1.912030 -0.047610 0.001760 
#    y -0.047610 1.933500 0.021740 
#    z 0.001760 0.021740 1.893740 
# 
# From -- ./inp_files/515945.got.cif
#   From: 2010.05.17/outbox.cif.g08.bks.cpg/sg2_258_cif.got.tgz:515945.got - 2010.06.03 11:33:40.
