data_PCOD9050335
_publ_section_title
;
Structure prediction by ZEFSAII (Michael W. Deem and Ramdas Pophale) SiO2 
 PCOD9050335
Probable space group: P -1
;
_chemical_formula_sum "Si O2"
_cell_formula_units_Z 16
_cell_length_a 17.154437
_cell_length_b 5.339185
_cell_length_c 21.204329
_cell_angle_alpha 102.085099
_cell_angle_beta 21.732528
_cell_angle_gamma 92.935269
_cell_volume 645.781556
_symmetry_space_group_name_H-M "P -1"
_symmetry_group_IT_number 2
_symmetry_cell_setting 'triclinic'
loop_
_space_group_symop_operation_xyz
x,y,z
-x,-y,-z
loop_
_atom_site_type_symbol
_atom_site_label
_atom_site_fract_x
_atom_site_fract_y
_atom_site_fract_z
Si Si1 0.431857 0.424607 0.933872
Si Si2 0.083422 0.248050 0.829832
Si Si3 0.701717 0.969864 0.898092
Si Si4 0.547001 0.597439 0.227938
Si Si5 0.926322 0.309988 0.593006
Si Si6 0.700227 0.325085 0.291724
Si Si7 0.337608 0.153618 0.498604
Si Si8 0.134436 0.474483 0.553995
O O1 0.475415 0.321051 0.824324
O O2 0.655634 0.418694 0.802153
O O3 0.342162 0.222536 0.026375
O O4 0.000000 0.000000 0.500000
O O5 0.178640 0.463352 0.802727
O O6 0.226579 0.153590 0.650941
O O7 0.814212 0.419980 0.030719
O O8 0.134516 0.965681 0.815852
O O9 0.709998 0.245899 0.936662
O O10 0.500000 0.000000 0.000000
O O11 0.963901 0.778393 0.673463
O O12 0.392826 0.417968 0.339168
O O13 0.429110 0.858360 0.377799
O O14 0.000000 0.500000 0.500000
O O15 0.037070 0.293757 0.576468
O O16 0.500000 0.500000 0.500000
O O17 0.556634 0.237840 0.343593
O O18 0.149032 0.394905 0.611820
#
# Coordination Sequence:
#
# PCOD9050335 Si02
#       8
#     2   2   2   2   2   2   2   2
#     4  12  27  49  74 107 151 200 258 315 382 453
#     4  11  27  51  80 112 157 205 254 314 386 464
#     4  12  28  49  77 108 148 201 266 321 378 453
#     4  12  30  46  77 118 159 202 254 320 390 456
#     4  12  25  46  72 102 147 198 252 314 371 448
#     4  10  24  50  84 111 151 208 256 310 385 463
#     4  11  27  49  78 114 156 199 257 320 384 460
#     4  12  29  46  75 113 154 199 259 319 387 452
#
# _framework density 24.776181000000001
#
# number of rings (size 3 to 8) (size 9 to 14) (size 15 to 20)
#    0.000    0.500    2.500    4.125   12.250    1.000 
#    0.000    0.000    0.000    0.000    0.000    0.000 
#    0.000    0.000    0.000    0.000    0.000    0.000 
#
# Total GULP energy -89579.834844 kJ/mol
# GULP energy per Si atom -5598.739678 kJ/mol
# Density = 2.471979 g / cm^3
# Si number density = 24.776181 Si / 1000 Ang^3
#
#
#
# Elastic Constant Matrix: (Units=GPa)
#
#
# Indices 1 2 3 4 5 6 
#
# 1 122.8359 34.8560 32.1339 12.2197 -10.5509 6.6089
# 2 34.8560 136.3471 23.8669 6.7646 11.3544 2.7925
# 3 32.1339 23.8669 121.0414 0.9667 -18.2942 9.2661
# 4 12.2197 6.7646 0.9667 41.3041 2.0793 4.1786
# 5 -10.5509 11.3544 -18.2942 2.0793 38.7929 1.0604
# 6 6.6089 2.7925 9.2661 4.1786 1.0604 39.2963
#
#
#
# Elastic Compliance Matrix: (Units=1/GPa)
#
#
# Indices 1 2 3 4 5 6 
#
# 1 0.009750 -0.002288 -0.001639 -0.002517 0.002708 -0.000896
# 2 -0.002288 0.008560 -0.001693 -0.000523 -0.003907 0.000337
# 3 -0.001639 -0.001693 0.009907 0.000506 0.004753 -0.002122
# 4 -0.002517 -0.000523 0.000506 0.025343 -0.001588 -0.002311
# 5 0.002708 -0.003907 0.004753 -0.001588 0.030037 -0.001940
# 6 -0.000896 0.000337 -0.002122 -0.002311 -0.001940 0.026373
#
#
# Mechanical properties :
#
#
# Convention : Reuss Voigt Hill
#
# Bulk Modulus (GPa) = 58.90069 62.43755 60.66912
# Shear Modulus (GPa) = 39.41068 43.16985 41.29027
#
# Velocity S-wave (km/s) = 3.99264 4.17873 4.08675
# Velocity P-wave (km/s) = 6.71414 6.96690 6.84169
#
# Compressibility (1/GPa) = 0.01697773
#
# Stress axis : x y z
#
# Youngs Moduli (GPa) = 102.56186 116.82573 100.93553
#
# Poissons Ratio (x) = 0.26728 0.16547
# Poissons Ratio (y) = 0.23465 0.17084
# Poissons Ratio (z) = 0.16814 0.19773
#
# Static dielectric constant tensor:
#      x y z
#    x 1.975470 0.018120 0.093840 
#    y 0.018120 2.016280 0.065160 
#    z 0.093840 0.065160 2.108940 
# 
# From -- ./inp_files/612657.got.cif
#   From: 2010.05.17/outbox.cif.g08.bks.cpg/sg2_307_cif.got.tgz:612657.got - 2010.06.03 11:33:40.
