data_PCOD9050457
_publ_section_title
;
Structure prediction by ZEFSAII (Michael W. Deem and Ramdas Pophale) SiO2 
 PCOD9050457
Probable space group: P -1
;
_chemical_formula_sum "Si O2"
_cell_formula_units_Z 16
_cell_length_a 9.232127
_cell_length_b 15.357273
_cell_length_c 18.075435
_cell_angle_alpha 152.361426
_cell_angle_beta 142.070367
_cell_angle_gamma 33.569712
_cell_volume 644.436297
_symmetry_space_group_name_H-M "P -1"
_symmetry_group_IT_number 2
_symmetry_cell_setting 'triclinic'
loop_
_space_group_symop_operation_xyz
x,y,z
-x,-y,-z
loop_
_atom_site_type_symbol
_atom_site_label
_atom_site_fract_x
_atom_site_fract_y
_atom_site_fract_z
Si Si1 0.512192 0.568890 0.330507
Si Si2 0.414428 0.188907 0.663542
Si Si3 0.972062 0.492811 0.363080
Si Si4 0.253359 0.720048 0.035402
Si Si5 0.387485 0.637336 0.632710
Si Si6 0.528368 0.743306 0.017000
Si Si7 0.242124 0.047921 0.620636
Si Si8 0.680202 0.869630 0.874917
O O1 0.820123 0.455361 0.341628
O O2 0.461311 0.492271 0.331028
O O3 0.457608 0.810968 0.502165
O O4 0.364397 0.495060 0.153028
O O5 0.257665 0.402177 0.713205
O O6 0.684956 0.134877 0.774934
O O7 0.500000 0.000000 0.500000
O O8 0.210186 0.195411 0.648739
O O9 0.097753 0.653009 0.539737
O O10 0.212672 0.275464 0.265708
O O11 0.315749 0.770072 0.015497
O O12 0.500000 0.500000 0.000000
O O13 0.949151 0.771270 0.957940
O O14 0.500000 0.500000 0.500000
O O15 0.448094 0.833496 0.791450
O O16 0.703254 0.835584 0.200052
O O17 0.406877 0.894988 0.011328
O O18 0.000000 0.000000 0.500000
#
# Coordination Sequence:
#
# PCOD9050457 Si02
#       8
#     2   2   2   2   2   2   2   2
#     4  12  24  47  73 104 146 191 251 301 365 444
#     4  11  23  42  67 105 134 189 248 289 361 443
#     4  11  22  43  72 102 145 190 248 297 360 443
#     4  11  22  42  70 100 148 191 236 303 357 426
#     4  10  25  41  71 103 144 187 235 302 377 415
#     4  11  26  45  74 111 143 195 252 293 369 440
#     4  11  27  45  72 105 152 195 239 306 374 431
#     4  11  23  45  71 105 150 187 241 305 366 429
#
# _framework density 24.827901000000001
#
# number of rings (size 3 to 8) (size 9 to 14) (size 15 to 20)
#    0.000    1.000    3.750    2.250    5.250    2.000 
#    2.250    0.000    0.000    0.000    0.000    0.000 
#    0.000    0.000    0.000    0.000    0.000    0.000 
#
# Total GULP energy -89299.696766 kJ/mol
# GULP energy per Si atom -5581.231048 kJ/mol
# Density = 2.477139 g / cm^3
# Si number density = 24.827901 Si / 1000 Ang^3
#
#
#
# Elastic Constant Matrix: (Units=GPa)
#
#
# Indices 1 2 3 4 5 6 
#
# 1 100.2346 31.0516 47.6364 -8.2644 10.7932 12.1215
# 2 31.0516 45.1217 26.3589 3.0238 3.1217 20.5689
# 3 47.6364 26.3589 160.4377 -21.2839 7.3008 0.3285
# 4 -8.2644 3.0238 -21.2839 38.9849 1.4148 2.9130
# 5 10.7932 3.1217 7.3008 1.4148 54.9640 -2.2703
# 6 12.1215 20.5689 0.3285 2.9130 -2.2703 37.8556
#
#
#
# Elastic Compliance Matrix: (Units=1/GPa)
#
#
# Indices 1 2 3 4 5 6 
#
# 1 0.014125 -0.008130 -0.002446 0.002394 -0.002065 -0.000392
# 2 -0.008130 0.039336 -0.004779 -0.005994 -0.000605 -0.018304
# 3 -0.002446 -0.004779 0.008308 0.004178 -0.000337 0.002966
# 4 0.002394 -0.005994 0.004178 0.028946 -0.001424 0.000141
# 5 -0.002065 -0.000605 -0.000337 -0.001424 0.018807 0.002230
# 6 -0.000392 -0.018304 0.002966 0.000141 0.002230 0.036584
#
#
# Mechanical properties :
#
#
# Convention : Reuss Voigt Hill
#
# Bulk Modulus (GPa) = 32.19689 57.32087 44.75888
# Shear Modulus (GPa) = 26.71382 39.74404 33.22893
#
# Velocity S-wave (km/s) = 3.28374 4.00532 3.66234
# Velocity P-wave (km/s) = 5.23196 6.67289 5.99587
#
# Compressibility (1/GPa) = 0.03105890
#
# Stress axis : x y z
#
# Youngs Moduli (GPa) = 70.79762 25.42173 120.36815
#
# Poissons Ratio (x) = 0.20669 0.29439
# Poissons Ratio (y) = 0.57562 0.57522
# Poissons Ratio (z) = 0.17315 0.12149
#
# Static dielectric constant tensor:
#      x y z
#    x 1.944400 -0.044930 -0.047120 
#    y -0.044930 2.041630 0.101450 
#    z -0.047120 0.101450 2.368230 
# 
# From -- ./inp_files/561443.got.cif
#   From: 2010.05.17/outbox.cif.g08.bks.cpg/sg2_281_cif.got.tgz:561443.got - 2010.06.03 11:33:40.
