data_PCOD9050162
_publ_section_title
;
Structure prediction by ZEFSAII (Michael W. Deem and Ramdas Pophale) SiO2 
 PCOD9050162
Probable space group: P -1
;
_chemical_formula_sum "Si O2"
_cell_formula_units_Z 14
_cell_length_a 19.484493
_cell_length_b 5.972376
_cell_length_c 8.352622
_cell_angle_alpha 64.307035
_cell_angle_beta 52.165481
_cell_angle_gamma 94.523502
_cell_volume 605.156561
_symmetry_space_group_name_H-M "P -1"
_symmetry_group_IT_number 2
_symmetry_cell_setting 'triclinic'
loop_
_space_group_symop_operation_xyz
x,y,z
-x,-y,-z
loop_
_atom_site_type_symbol
_atom_site_label
_atom_site_fract_x
_atom_site_fract_y
_atom_site_fract_z
Si Si1 0.488071 0.677765 0.621459
Si Si2 0.148687 0.648385 0.856873
Si Si3 0.686719 0.765792 0.417372
Si Si4 0.768930 0.389266 0.585348
Si Si5 0.294890 0.168434 0.011952
Si Si6 0.012637 0.261327 0.790746
Si Si7 0.902272 0.940804 0.747804
O O1 0.500000 0.500000 0.500000
O O2 0.500000 0.000000 0.500000
O O3 0.572828 0.698434 0.614428
O O4 0.625255 0.547723 0.103631
O O5 0.234000 0.924253 0.733864
O O6 0.182957 0.680328 0.615769
O O7 0.146792 0.368982 0.010705
O O8 0.040021 0.602436 0.069095
O O9 0.714424 0.555125 0.539587
O O10 0.700087 0.774569 0.202995
O O11 0.693804 0.104845 0.874261
O O12 0.871786 0.580557 0.474670
O O13 0.180005 0.058757 0.248947
O O14 0.942163 0.161461 0.767683
O O15 0.000000 0.000000 0.000000
O O16 0.000000 0.000000 0.500000
#
# Coordination Sequence:
#
# PCOD9050162 Si02
#       7
#     2   2   2   2   2   2   2
#     4  10  24  48  81 108 142 193 243 302 375 436
#     4  12  22  43  67  92 148 187 230 303 359 420
#     4  11  24  47  72 100 144 184 239 301 358 434
#     4  12  26  42  70 104 142 187 241 291 366 429
#     4  11  24  48  69 105 139 184 242 297 361 437
#     4  12  23  42  60  98 142 189 236 287 356 426
#     4  12  26  40  67 100 135 188 242 291 355 434
#
# _framework density 23.134509000000001
#
# number of rings (size 3 to 8) (size 9 to 14) (size 15 to 20)
#    0.000    0.571    5.714    2.143    6.000    1.714 
#    5.143    0.714    0.000    0.000    0.000    0.000 
#    0.000    0.000    0.000    0.000    0.000    0.000 
#
# Total GULP energy -78123.381373 kJ/mol
# GULP energy per Si atom -5580.241527 kJ/mol
# Density = 2.308185 g / cm^3
# Si number density = 23.134509 Si / 1000 Ang^3
#
#
#
# Elastic Constant Matrix: (Units=GPa)
#
#
# Indices 1 2 3 4 5 6 
#
# 1 157.7347 74.1091 50.2487 -24.3443 -38.4325 -13.6704
# 2 74.1091 115.4019 37.7699 -26.2292 -3.4261 -6.7016
# 3 50.2487 37.7699 50.2675 -22.7353 -10.3701 -4.9170
# 4 -24.3443 -26.2292 -22.7353 51.4152 0.1657 0.9672
# 5 -38.4325 -3.4261 -10.3701 0.1657 33.2519 -11.1478
# 6 -13.6704 -6.7016 -4.9170 0.9672 -11.1478 33.5780
#
#
#
# Elastic Compliance Matrix: (Units=1/GPa)
#
#
# Indices 1 2 3 4 5 6 
#
# 1 0.019955 -0.008906 -0.005896 0.001960 0.024887 0.013689
# 2 -0.008906 0.015811 -0.005229 0.001675 -0.012078 -0.005294
# 3 -0.005896 -0.005229 0.035608 0.010213 0.004720 0.003043
# 4 0.001960 0.001675 0.010213 0.025648 0.006897 0.004179
# 5 0.024887 -0.012078 0.004720 0.006897 0.069524 0.031296
# 6 0.013689 -0.005294 0.003043 0.004179 0.031296 0.045013
#
#
# Mechanical properties :
#
#
# Convention : Reuss Voigt Hill
#
# Bulk Modulus (GPa) = 31.93772 71.96215 51.94994
# Shear Modulus (GPa) = 19.07975 34.40076 26.74025
#
# Velocity S-wave (km/s) = 2.87493 3.86033 3.40348
# Velocity P-wave (km/s) = 4.98553 7.14444 6.16030
#
# Compressibility (1/GPa) = 0.03131094
#
# Stress axis : x y z
#
# Youngs Moduli (GPa) = 50.11238 63.24838 28.08378
#
# Poissons Ratio (x) = 0.56327 0.16559
# Poissons Ratio (y) = 0.44629 0.14686
# Poissons Ratio (z) = 0.29548 0.33075
#
# Static dielectric constant tensor:
#      x y z
#    x 1.982220 0.017580 -0.081610 
#    y 0.017580 2.332490 -0.056770 
#    z -0.081610 -0.056770 2.076190 
# 
# From -- ./inp_files/322285.got.cif
#   From: 2010.05.17/outbox.cif.g08.bks.cpg/sg2_162_cif.got.tgz:322285.got - 2010.06.03 11:33:40.
