data_PCOD9050834
_publ_section_title
;
Structure prediction by ZEFSAII (Michael W. Deem and Ramdas Pophale) SiO2 
 PCOD9050834
Probable space group: P -1
;
_chemical_formula_sum "Si O2"
_cell_formula_units_Z 12
_cell_length_a 14.260653
_cell_length_b 12.227886
_cell_length_c 12.029108
_cell_angle_alpha 116.162638
_cell_angle_beta 54.649040
_cell_angle_gamma 159.474746
_cell_volume 561.256785
_symmetry_space_group_name_H-M "P -1"
_symmetry_group_IT_number 2
_symmetry_cell_setting 'triclinic'
loop_
_space_group_symop_operation_xyz
x,y,z
-x,-y,-z
loop_
_atom_site_type_symbol
_atom_site_label
_atom_site_fract_x
_atom_site_fract_y
_atom_site_fract_z
Si Si1 0.147373 0.201877 0.101074
Si Si2 0.564096 0.612462 0.382426
Si Si3 0.765680 0.463223 0.908014
Si Si4 0.617505 0.348341 0.356044
Si Si5 0.701279 0.876646 0.748442
Si Si6 0.758537 0.222759 0.140154
O O1 0.151541 0.351999 0.154889
O O2 0.500000 0.500000 0.000000
O O3 0.911702 0.934080 0.241471
O O4 0.000000 0.000000 0.000000
O O5 0.500000 0.500000 0.500000
O O6 0.494194 0.686828 0.475088
O O7 0.336557 0.305459 0.325018
O O8 0.062992 0.698051 0.870007
O O9 0.546630 0.140504 0.866263
O O10 0.557669 0.330037 0.081775
O O11 0.386069 0.149314 0.322533
O O12 0.664693 0.251010 0.284566
O O13 0.961160 0.744806 0.274060
O O14 0.000000 0.500000 0.000000
#
# Coordination Sequence:
#
# PCOD9050834 Si02
#       6
#     2   2   2   2   2   2
#     4  12  27  45  70 100 138 177 221 280 345 401
#     4  10  25  44  69 101 135 175 224 280 341 403
#     4  12  23  39  65  97 133 168 229 274 328 390
#     4  11  23  38  63  97 133 171 220 272 329 382
#     4  11  20  37  65  97 129 167 218 280 323 385
#     4  12  22  39  64  97 134 179 224 273 320 400
#
# _framework density 21.380587999999999
#
# number of rings (size 3 to 8) (size 9 to 14) (size 15 to 20)
#    0.000    0.667    5.000    3.000    4.667    2.667 
#    0.000    1.667    0.000    0.000    0.000    0.000 
#    0.000    0.000    0.000    0.000    0.000    0.000 
#
# Total GULP energy -67124.866196 kJ/mol
# GULP energy per Si atom -5593.738850 kJ/mol
# Density = 2.133193 g / cm^3
# Si number density = 21.380588 Si / 1000 Ang^3
#
#
#
# Elastic Constant Matrix: (Units=GPa)
#
#
# Indices 1 2 3 4 5 6 
#
# 1 74.8015 1.0025 18.9897 -2.5138 -4.2890 2.2465
# 2 1.0025 67.0852 27.8807 17.8008 2.0131 -8.0895
# 3 18.9897 27.8807 116.6393 8.3400 -17.8855 -10.1445
# 4 -2.5138 17.8008 8.3400 42.9054 -12.7978 -8.0439
# 5 -4.2890 2.0131 -17.8855 -12.7978 26.2059 1.0381
# 6 2.2465 -8.0895 -10.1445 -8.0439 1.0381 35.2601
#
#
#
# Elastic Compliance Matrix: (Units=1/GPa)
#
#
# Indices 1 2 3 4 5 6 
#
# 1 0.014125 0.000196 -0.002335 0.001393 0.001433 -0.001251
# 2 0.000196 0.020446 -0.005707 -0.010310 -0.010508 0.000994
# 3 -0.002335 -0.005707 0.011790 0.003314 0.009614 0.002705
# 4 0.001393 -0.010310 0.003314 0.033940 0.019632 0.005664
# 5 0.001433 -0.010508 0.009614 0.019632 0.055227 0.003117
# 6 -0.001251 0.000994 0.002705 0.005664 0.003117 0.030647
#
#
# Mechanical properties :
#
#
# Convention : Reuss Voigt Hill
#
# Bulk Modulus (GPa) = 32.60570 39.36355 35.98462
# Shear Modulus (GPa) = 26.02938 34.91782 30.47360
#
# Velocity S-wave (km/s) = 3.49295 4.04562 3.77940
# Velocity P-wave (km/s) = 5.61702 6.34614 5.99268
#
# Compressibility (1/GPa) = 0.03066949
#
# Stress axis : x y z
#
# Youngs Moduli (GPa) = 70.79399 48.90912 84.81553
#
# Poissons Ratio (x) = -0.00958 0.19807
# Poissons Ratio (y) = -0.01387 0.48403
# Poissons Ratio (z) = 0.16532 0.27912
#
# Static dielectric constant tensor:
#      x y z
#    x 1.807440 -0.032080 0.002030 
#    y -0.032080 1.755150 0.018290 
#    z 0.002030 0.018290 1.755670 
# 
# From -- ./inp_files/25083.got.cif
#   From: 2010.05.17/outbox.cif.g08.bks.cpg/sg2_13_cif.got.tgz:25083.got - 2010.06.03 11:33:40.
