data_PCOD9050238
_publ_section_title
;
Structure prediction by ZEFSAII (Michael W. Deem and Ramdas Pophale) SiO2 
 PCOD9050238
Probable space group: P -1
;
_chemical_formula_sum "Si O2"
_cell_formula_units_Z 16
_cell_length_a 14.603034
_cell_length_b 7.257233
_cell_length_c 14.920346
_cell_angle_alpha 97.684594
_cell_angle_beta 27.368623
_cell_angle_gamma 112.368311
_cell_volume 589.553949
_symmetry_space_group_name_H-M "P -1"
_symmetry_group_IT_number 2
_symmetry_cell_setting 'triclinic'
loop_
_space_group_symop_operation_xyz
x,y,z
-x,-y,-z
loop_
_atom_site_type_symbol
_atom_site_label
_atom_site_fract_x
_atom_site_fract_y
_atom_site_fract_z
Si Si1 0.581716 0.847189 0.463877
Si Si2 0.848748 0.567050 0.442492
Si Si3 0.875832 0.661149 0.132399
Si Si4 0.640917 0.116974 0.792271
Si Si5 0.778031 0.081155 0.986875
Si Si6 0.913135 0.299064 0.242074
Si Si7 0.634777 0.596404 0.064935
Si Si8 0.876500 0.595766 0.684722
O O1 0.745675 0.792031 0.260946
O O2 0.500000 0.000000 0.500000
O O3 0.768846 0.038513 0.385444
O O4 0.352159 0.604225 0.679739
O O5 0.767643 0.397035 0.415375
O O6 0.040624 0.808496 0.247908
O O7 0.975783 0.478810 0.388316
O O8 0.639222 0.566247 0.674668
O O9 0.073495 0.755424 0.047724
O O10 0.978616 0.296539 0.081845
O O11 0.698997 0.368208 0.767575
O O12 0.914176 0.188254 0.540001
O O13 0.500000 0.000000 0.000000
O O14 0.473767 0.983015 0.843056
O O15 0.716502 0.837609 0.049200
O O16 0.187619 0.461400 0.050796
O O17 0.282992 0.370176 0.107255
#
# Coordination Sequence:
#
# PCOD9050238 Si02
#       8
#     2   2   2   2   2   2   2   2
#     4  11  25  45  72 101 147 204 251 318 375 438
#     4  11  25  46  74 111 147 197 250 304 377 446
#     4  11  27  47  69 114 152 198 270 307 373 462
#     4  11  23  48  80 108 146 188 244 307 379 457
#     4  12  25  45  74 107 149 194 246 313 375 446
#     4  11  26  47  73 105 150 205 251 310 370 444
#     4  11  26  46  73 109 153 189 245 311 368 453
#     4  10  24  49  75 110 145 190 242 303 378 455
#
# _framework density 27.139161999999999
#
# number of rings (size 3 to 8) (size 9 to 14) (size 15 to 20)
#    0.000    1.000    3.750    1.125    5.250    4.500 
#    0.000    1.250    0.000    0.000    0.000    0.000 
#    0.000    0.000    0.000    0.000    0.000    0.000 
#
# Total GULP energy -89398.603271 kJ/mol
# GULP energy per Si atom -5587.412704 kJ/mol
# Density = 2.707739 g / cm^3
# Si number density = 27.139162 Si / 1000 Ang^3
#
#
#
# Elastic Constant Matrix: (Units=GPa)
#
#
# Indices 1 2 3 4 5 6 
#
# 1 113.2235 16.3467 62.7468 -1.0525 0.8401 10.6296
# 2 16.3467 105.5749 49.9434 -10.5052 -7.0870 17.0363
# 3 62.7468 49.9434 231.9101 2.7630 11.1401 10.7448
# 4 -1.0525 -10.5052 2.7630 56.3358 3.1294 -6.9926
# 5 0.8401 -7.0870 11.1401 3.1294 49.3296 -0.5801
# 6 10.6296 17.0363 10.7448 -6.9926 -0.5801 38.3891
#
#
#
# Elastic Compliance Matrix: (Units=1/GPa)
#
#
# Indices 1 2 3 4 5 6 
#
# 1 0.010572 0.000069 -0.002797 0.000056 0.000433 -0.002158
# 2 0.000069 0.011588 -0.002441 0.001653 0.002061 -0.004146
# 3 -0.002797 -0.002441 0.005671 -0.000685 -0.001539 0.000122
# 4 0.000056 0.001653 -0.000685 0.018482 -0.000748 0.002798
# 5 0.000433 0.002061 -0.001539 -0.000748 0.020951 -0.000424
# 6 -0.002158 -0.004146 0.000122 0.002798 -0.000424 0.028956
#
#
# Mechanical properties :
#
#
# Convention : Reuss Voigt Hill
#
# Bulk Modulus (GPa) = 57.16409 78.75359 67.95884
# Shear Modulus (GPa) = 44.48899 50.25568 47.37234
#
# Velocity S-wave (km/s) = 4.05321 4.30790 4.18249
# Velocity P-wave (km/s) = 6.55848 7.33658 6.95842
#
# Compressibility (1/GPa) = 0.01749350
#
# Stress axis : x y z
#
# Youngs Moduli (GPa) = 94.58985 86.29787 176.34369
#
# Poissons Ratio (x) = -0.00595 0.49318
# Poissons Ratio (y) = -0.00652 0.43041
# Poissons Ratio (z) = 0.26454 0.21063
#
# Static dielectric constant tensor:
#      x y z
#    x 2.498490 0.025490 -0.113010 
#    y 0.025490 2.127570 -0.032900 
#    z -0.113010 -0.032900 2.137460 
# 
# From -- ./inp_files/575410.got.cif
#   From: 2010.05.17/outbox.cif.g08.bks.cpg/sg2_288_cif.got.tgz:575410.got - 2010.06.03 11:33:40.
