data_PCOD9050192
_publ_section_title
;
Structure prediction by ZEFSAII (Michael W. Deem and Ramdas Pophale) SiO2 
 PCOD9050192
Probable space group: P -1
;
_chemical_formula_sum "Si O2"
_cell_formula_units_Z 12
_cell_length_a 5.159494
_cell_length_b 14.454314
_cell_length_c 11.573691
_cell_angle_alpha 48.327047
_cell_angle_beta 131.530078
_cell_angle_gamma 117.854576
_cell_volume 482.101831
_symmetry_space_group_name_H-M "P -1"
_symmetry_group_IT_number 2
_symmetry_cell_setting 'triclinic'
loop_
_space_group_symop_operation_xyz
x,y,z
-x,-y,-z
loop_
_atom_site_type_symbol
_atom_site_label
_atom_site_fract_x
_atom_site_fract_y
_atom_site_fract_z
Si Si1 0.348755 0.040890 0.136481
Si Si2 0.252830 0.380490 0.507766
Si Si3 0.279746 0.444896 0.874057
Si Si4 0.391439 0.713260 0.097856
Si Si5 0.457623 0.136966 0.325360
Si Si6 0.253186 0.199049 0.459325
O O1 0.256704 0.112126 0.167842
O O2 0.566446 0.922899 0.336115
O O3 0.582166 0.143183 0.050850
O O4 0.000000 0.000000 0.000000
O O5 0.500000 0.500000 0.500000
O O6 0.315492 0.296417 0.707097
O O7 0.363394 0.311000 0.482791
O O8 0.883664 0.438099 0.334219
O O9 0.497231 0.369193 0.909756
O O10 0.962879 0.353457 0.903162
O O11 0.500000 0.500000 0.000000
O O12 0.322367 0.210827 0.333630
O O13 0.841316 0.185873 0.364839
O O14 0.500000 0.000000 0.500000
#
# Coordination Sequence:
#
# PCOD9050192 Si02
#       6
#     2   2   2   2   2   2
#     4  11  27  48  77 114 156 193 251 313 376 449
#     4  10  26  50  77 107 152 196 252 304 373 449
#     4  11  26  52  77 110 146 198 255 313 371 440
#     4  11  27  48  76 110 154 193 250 311 376 450
#     4  10  24  49  70 105 148 196 247 296 369 444
#     4  11  26  49  76 105 150 203 241 307 375 439
#
# _framework density 24.891006000000001
#
# number of rings (size 3 to 8) (size 9 to 14) (size 15 to 20)
#    0.000    1.333    0.000    3.000   11.667    7.333 
#    0.000    0.000    0.000    0.000    0.000    0.000 
#    0.000    0.000    0.000    0.000    0.000    0.000 
#
# Total GULP energy -67246.636709 kJ/mol
# GULP energy per Si atom -5603.886392 kJ/mol
# Density = 2.483435 g / cm^3
# Si number density = 24.891006 Si / 1000 Ang^3
#
#
#
# Elastic Constant Matrix: (Units=GPa)
#
#
# Indices 1 2 3 4 5 6 
#
# 1 187.6016 79.4247 30.2036 16.6620 -9.2692 -12.0140
# 2 79.4247 175.9966 57.9756 27.8802 -7.6876 -22.6098
# 3 30.2036 57.9756 126.3627 19.2461 -6.6119 -0.8165
# 4 16.6620 27.8802 19.2461 55.8728 -4.2920 -3.4003
# 5 -9.2692 -7.6876 -6.6119 -4.2920 29.1664 -1.9945
# 6 -12.0140 -22.6098 -0.8165 -3.4003 -1.9945 44.9494
#
#
#
# Elastic Compliance Matrix: (Units=1/GPa)
#
#
# Indices 1 2 3 4 5 6 
#
# 1 0.006661 -0.002768 -0.000188 -0.000415 0.001312 0.000411
# 2 -0.002768 0.008731 -0.002944 -0.002256 0.000659 0.003457
# 3 -0.000188 -0.002944 0.009626 -0.001804 0.000982 -0.001449
# 4 -0.000415 -0.002256 -0.001804 0.019927 0.001818 0.000310
# 5 0.001312 0.000659 0.000982 0.001818 0.035532 0.002414
# 6 0.000411 0.003457 -0.001449 0.000310 0.002414 0.024200
#
#
# Mechanical properties :
#
#
# Convention : Reuss Voigt Hill
#
# Bulk Modulus (GPa) = 75.65096 91.68541 83.66819
# Shear Modulus (GPa) = 41.36259 47.48819 44.42539
#
# Velocity S-wave (km/s) = 4.08088 4.37263 4.22927
# Velocity P-wave (km/s) = 7.25697 7.89987 7.58523
#
# Compressibility (1/GPa) = 0.01321860
#
# Stress axis : x y z
#
# Youngs Moduli (GPa) = 150.13679 114.53130 103.88633
#
# Poissons Ratio (x) = 0.31705 0.01948
# Poissons Ratio (y) = 0.41562 0.30582
# Poissons Ratio (z) = 0.02815 0.33716
#
# Static dielectric constant tensor:
#      x y z
#    x 1.956880 0.070880 -0.048920 
#    y 0.070880 2.174230 -0.359270 
#    z -0.048920 -0.359270 2.589900 
# 
# From -- ./inp_files/365624.got.cif
#   From: 2010.05.17/outbox.cif.g08.bks.cpg/sg2_183_cif.got.tgz:365624.got - 2010.06.03 11:33:40.
