data_PCOD9050899
_publ_section_title
;
Structure prediction by ZEFSAII (Michael W. Deem and Ramdas Pophale) SiO2 
 PCOD9050899
Probable space group: P -1
;
_chemical_formula_sum "Si O2"
_cell_formula_units_Z 14
_cell_length_a 9.006800
_cell_length_b 13.565708
_cell_length_c 8.463225
_cell_angle_alpha 65.805933
_cell_angle_beta 92.457532
_cell_angle_gamma 136.746971
_cell_volume 589.806978
_symmetry_space_group_name_H-M "P -1"
_symmetry_group_IT_number 2
_symmetry_cell_setting 'triclinic'
loop_
_space_group_symop_operation_xyz
x,y,z
-x,-y,-z
loop_
_atom_site_type_symbol
_atom_site_label
_atom_site_fract_x
_atom_site_fract_y
_atom_site_fract_z
Si Si1 0.451631 0.120027 0.233736
Si Si2 0.698366 0.153810 0.786787
Si Si3 0.952247 0.958705 0.839408
Si Si4 0.356176 0.704826 0.559532
Si Si5 0.635767 0.653782 0.530368
Si Si6 0.038409 0.618710 0.080741
Si Si7 0.775747 0.647490 0.867979
O O1 0.303174 0.136403 0.152939
O O2 0.475832 0.139944 0.409511
O O3 0.302886 0.931618 0.297637
O O4 0.707687 0.261304 0.065752
O O5 0.648438 0.240244 0.645774
O O6 0.921844 0.285760 0.823667
O O7 0.500000 0.000000 0.000000
O O8 0.933935 0.829267 0.845624
O O9 0.159383 0.150111 0.651510
O O10 0.000000 0.000000 0.000000
O O11 0.444708 0.632041 0.601519
O O12 0.101886 0.560139 0.730433
O O13 0.500000 0.500000 0.500000
O O14 0.760466 0.657639 0.673563
O O15 0.881069 0.593934 0.965082
O O16 0.500000 0.500000 0.000000
#
# Coordination Sequence:
#
# PCOD9050899 Si02
#       7
#     2   2   2   2   2   2   2
#     4  11  25  46  73 110 145 192 242 304 375 438
#     4  10  25  44  71 106 147 188 240 299 365 441
#     4  12  27  46  78 107 150 199 251 308 374 441
#     4  12  25  48  73 110 145 193 248 304 372 441
#     4  12  29  48  77 108 150 200 254 309 371 441
#     4  11  25  47  75 108 149 192 238 307 371 443
#     4  12  24  50  75 111 151 192 251 307 372 448
#
# _framework density 23.736578999999999
#
# number of rings (size 3 to 8) (size 9 to 14) (size 15 to 20)
#    0.000    0.571    2.857    3.429   10.000    1.143 
#    2.571    0.000    0.000    0.000    0.000    0.000 
#    0.000    0.000    0.000    0.000    0.000    0.000 
#
# Total GULP energy -78297.710194 kJ/mol
# GULP energy per Si atom -5592.693585 kJ/mol
# Density = 2.368255 g / cm^3
# Si number density = 23.736579 Si / 1000 Ang^3
#
#
#
# Elastic Constant Matrix: (Units=GPa)
#
#
# Indices 1 2 3 4 5 6 
#
# 1 70.0887 13.8800 18.7418 2.7233 -0.6062 12.1513
# 2 13.8800 161.9479 50.5963 19.3129 -2.3002 -21.3832
# 3 18.7418 50.5963 135.7038 8.3634 14.0724 22.7220
# 4 2.7233 19.3129 8.3634 45.8207 11.0375 -2.2847
# 5 -0.6062 -2.3002 14.0724 11.0375 36.0578 1.1818
# 6 12.1513 -21.3832 22.7220 -2.2847 1.1818 49.1121
#
#
#
# Elastic Compliance Matrix: (Units=1/GPa)
#
#
# Indices 1 2 3 4 5 6 
#
# 1 0.015560 -0.001503 -0.000955 -0.000522 0.000833 -0.004107
# 2 -0.001503 0.008828 -0.004182 -0.003291 0.002983 0.005926
# 3 -0.000955 -0.004182 0.010534 0.000637 -0.004382 -0.006323
# 4 -0.000522 -0.003291 0.000637 0.025074 -0.008135 -0.000236
# 5 0.000833 0.002983 -0.004382 -0.008135 0.032073 0.001970
# 6 -0.004107 0.005926 -0.006323 -0.000236 0.001970 0.026825
#
#
# Mechanical properties :
#
#
# Convention : Reuss Voigt Hill
#
# Bulk Modulus (GPa) = 46.20975 59.35293 52.78134
# Shear Modulus (GPa) = 35.87077 45.16626 40.51852
#
# Velocity S-wave (km/s) = 3.89164 4.36686 4.13608
# Velocity P-wave (km/s) = 6.30104 7.10528 6.71521
#
# Compressibility (1/GPa) = 0.02164045
#
# Stress axis : x y z
#
# Youngs Moduli (GPa) = 64.26623 113.28073 94.92924
#
# Poissons Ratio (x) = 0.17031 0.09065
# Poissons Ratio (y) = 0.09662 0.39703
# Poissons Ratio (z) = 0.06137 0.47379
#
# Static dielectric constant tensor:
#      x y z
#    x 1.960760 -0.065860 -0.042470 
#    y -0.065860 2.018240 -0.018860 
#    z -0.042470 -0.018860 1.958440 
# 
# From -- ./inp_files/206006.got.cif
#   From: 2010.05.17/outbox.cif.g08.bks.cpg/sg2_104_cif.got.tgz:206006.got - 2010.06.03 11:33:40.
