data_PCOD9050255
_publ_section_title
;
Structure prediction by ZEFSAII (Michael W. Deem and Ramdas Pophale) SiO2 
 PCOD9050255
Probable space group: P -1
;
_chemical_formula_sum "Si O2"
_cell_formula_units_Z 16
_cell_length_a 5.723559
_cell_length_b 7.789573
_cell_length_c 23.085990
_cell_angle_alpha 129.442872
_cell_angle_beta 86.582941
_cell_angle_gamma 65.850729
_cell_volume 646.451767
_symmetry_space_group_name_H-M "P -1"
_symmetry_group_IT_number 2
_symmetry_cell_setting 'triclinic'
loop_
_space_group_symop_operation_xyz
x,y,z
-x,-y,-z
loop_
_atom_site_type_symbol
_atom_site_label
_atom_site_fract_x
_atom_site_fract_y
_atom_site_fract_z
Si Si1 0.151417 0.317431 0.849904
Si Si2 0.181066 0.165753 0.470420
Si Si3 0.118648 0.866269 0.732954
Si Si4 0.725828 0.333520 0.011486
Si Si5 0.429158 0.241062 0.095000
Si Si6 0.613184 0.154601 0.718332
Si Si7 0.568048 0.335502 0.551013
Si Si8 0.802187 0.204687 0.170409
O O1 0.437195 0.141360 0.770284
O O2 0.905445 0.522882 0.852461
O O3 0.120518 0.082111 0.821855
O O4 0.133603 0.507921 0.940906
O O5 0.311567 0.335034 0.523111
O O6 0.837043 0.301081 0.505942
O O7 0.315652 0.035016 0.378298
O O8 0.301524 0.919371 0.461845
O O9 0.412882 0.614887 0.649252
O O10 0.049610 0.755781 0.765779
O O11 0.915074 0.034501 0.719622
O O12 0.500000 0.500000 0.000000
O O13 0.571582 0.360708 0.080078
O O14 0.933011 0.018884 0.922396
O O15 0.571962 0.143934 0.134410
O O16 0.500000 0.000000 0.000000
O O17 0.427031 0.467457 0.769132
#
# Coordination Sequence:
#
# PCOD9050255 Si02
#       8
#     2   2   2   2   2   2   2   2
#     4  12  25  45  67 104 148 185 247 306 363 442
#     4  10  24  49  80 107 154 196 249 307 386 459
#     4  12  28  46  72 111 143 188 252 303 374 447
#     4  12  26  45  68 102 146 191 247 302 366 439
#     4  12  24  44  69  97 135 198 244 294 368 440
#     4  12  26  48  73 109 144 192 246 307 367 449
#     4  10  24  49  77 115 148 199 247 309 383 461
#     4  12  24  48  70 101 146 191 244 307 365 435
#
# _framework density 24.750492999999999
#
# number of rings (size 3 to 8) (size 9 to 14) (size 15 to 20)
#    0.000    0.500    5.000    2.625    5.250    2.000 
#    4.500    0.000    0.000    0.000    0.000    0.000 
#    0.000    0.000    0.000    0.000    0.000    0.000 
#
# Total GULP energy -89151.918987 kJ/mol
# GULP energy per Si atom -5571.994937 kJ/mol
# Density = 2.469416 g / cm^3
# Si number density = 24.750493 Si / 1000 Ang^3
#
#
#
# Elastic Constant Matrix: (Units=GPa)
#
#
# Indices 1 2 3 4 5 6 
#
# 1 72.9554 15.1027 35.2237 9.5191 -3.0321 -14.3700
# 2 15.1027 244.3161 -84.4495 3.6360 16.6550 24.2597
# 3 35.2237 -84.4495 195.8197 0.3873 -3.8920 -36.8554
# 4 9.5191 3.6360 0.3873 43.9937 -6.0910 3.5516
# 5 -3.0321 16.6550 -3.8920 -6.0910 42.1198 -7.5708
# 6 -14.3700 24.2597 -36.8554 3.5516 -7.5708 42.4292
#
#
#
# Elastic Compliance Matrix: (Units=1/GPa)
#
#
# Indices 1 2 3 4 5 6 
#
# 1 0.017570 -0.002900 -0.003320 -0.003620 0.002567 0.005485
# 2 -0.002900 0.005525 0.002372 -0.000009 -0.002634 -0.002550
# 3 -0.003320 0.002372 0.007497 0.000166 0.000271 0.004066
# 4 -0.003620 -0.000009 0.000166 0.024108 0.002777 -0.002600
# 5 0.002567 -0.002634 0.000271 0.002777 0.026678 0.007138
# 6 0.005485 -0.002550 0.004066 -0.002600 0.007138 0.031908
#
#
# Mechanical properties :
#
#
# Convention : Reuss Voigt Hill
#
# Bulk Modulus (GPa) = 43.67453 49.42722 46.55088
# Shear Modulus (GPa) = 38.87635 62.18949 50.53292
#
# Velocity S-wave (km/s) = 3.96754 5.01808 4.52341
# Velocity P-wave (km/s) = 6.21874 7.32041 6.79195
#
# Compressibility (1/GPa) = 0.02289664
#
# Stress axis : x y z
#
# Youngs Moduli (GPa) = 56.91561 180.99184 133.38145
#
# Poissons Ratio (x) = 0.52480 0.44287
# Poissons Ratio (y) = 0.16503 -0.31639
# Poissons Ratio (z) = 0.18898 -0.42933
#
# Static dielectric constant tensor:
#      x y z
#    x 2.137280 -0.301610 0.126350 
#    y -0.301610 0.933030 0.203550 
#    z 0.126350 0.203550 1.846340 
# 
# From -- ./inp_files/604067.got.cif
#   From: 2010.05.17/outbox.cif.g08.bks.cpg/sg2_303_cif.got.tgz:604067.got - 2010.06.03 11:33:40.
