data_PCOD9050456
_publ_section_title
;
Structure prediction by ZEFSAII (Michael W. Deem and Ramdas Pophale) SiO2 
 PCOD9050456
Probable space group: P -1
;
_chemical_formula_sum "Si O2"
_cell_formula_units_Z 16
_cell_length_a 11.614068
_cell_length_b 7.370293
_cell_length_c 12.342876
_cell_angle_alpha 50.457833
_cell_angle_beta 61.061247
_cell_angle_gamma 87.944478
_cell_volume 652.458503
_symmetry_space_group_name_H-M "P -1"
_symmetry_group_IT_number 2
_symmetry_cell_setting 'triclinic'
loop_
_space_group_symop_operation_xyz
x,y,z
-x,-y,-z
loop_
_atom_site_type_symbol
_atom_site_label
_atom_site_fract_x
_atom_site_fract_y
_atom_site_fract_z
Si Si1 0.502633 0.272675 0.939763
Si Si2 0.949766 0.606796 0.112617
Si Si3 0.151257 0.150721 0.733899
Si Si4 0.362609 0.602326 0.765902
Si Si5 0.189336 0.480344 0.377819
Si Si6 0.963539 0.241191 0.398112
Si Si7 0.450351 0.143036 0.625629
Si Si8 0.670131 0.088298 0.685475
O O1 0.401970 0.376805 0.880206
O O2 0.667148 0.474603 0.774348
O O3 0.500000 0.000000 0.000000
O O4 0.428818 0.193146 0.120788
O O5 0.914859 0.711287 0.203670
O O6 0.800845 0.489518 0.161645
O O7 0.006072 0.393968 0.208028
O O8 0.059418 0.848020 0.905814
O O9 0.158045 0.261494 0.567546
O O10 0.311243 0.200915 0.681162
O O11 0.464050 0.716356 0.572691
O O12 0.400383 0.839145 0.741485
O O13 0.234234 0.744363 0.323574
O O14 0.057096 0.431930 0.377411
O O15 0.789968 0.128779 0.525548
O O16 0.000000 0.000000 0.500000
O O17 0.561277 0.210357 0.648275
#
# Coordination Sequence:
#
# PCOD9050456 Si02
#       8
#     2   2   2   2   2   2   2   2
#     4  10  25  41  71 103 133 179 231 279 341 404
#     4  11  27  45  69 105 138 179 233 280 334 415
#     4  11  25  43  74 100 135 181 235 277 340 403
#     4  11  24  45  69 100 144 174 229 287 337 409
#     4  11  24  46  69  97 136 183 226 282 339 405
#     4  12  28  45  69  99 147 182 223 280 349 407
#     4  11  25  43  75 100 135 181 227 285 349 397
#     4  11  25  46  68 104 135 179 232 279 342 409
#
# _framework density 24.522632000000002
#
# number of rings (size 3 to 8) (size 9 to 14) (size 15 to 20)
#    0.000    1.000    3.750    0.375   10.500    5.000 
#    0.000    0.000    0.000    0.000    0.000    0.000 
#    0.000    0.000    0.000    0.000    0.000    0.000 
#
# Total GULP energy -89588.803745 kJ/mol
# GULP energy per Si atom -5599.300234 kJ/mol
# Density = 2.446682 g / cm^3
# Si number density = 24.522632 Si / 1000 Ang^3
#
#
#
# Elastic Constant Matrix: (Units=GPa)
#
#
# Indices 1 2 3 4 5 6 
#
# 1 157.2424 16.4514 60.4680 -8.3495 8.7124 -8.8612
# 2 16.4514 61.3337 23.6927 -14.2830 7.0553 0.8555
# 3 60.4680 23.6927 189.9371 -11.5126 6.0294 -6.5316
# 4 -8.3495 -14.2830 -11.5126 35.1334 -9.4922 4.5257
# 5 8.7124 7.0553 6.0294 -9.4922 42.7082 -7.0993
# 6 -8.8612 0.8555 -6.5316 4.5257 -7.0993 31.5363
#
#
#
# Elastic Compliance Matrix: (Units=1/GPa)
#
#
# Indices 1 2 3 4 5 6 
#
# 1 0.007431 -0.001041 -0.002147 0.000250 -0.000741 0.001469
# 2 -0.001041 0.019036 -0.001664 0.006837 -0.001592 -0.002493
# 3 -0.002147 -0.001664 0.006223 0.000802 0.000119 0.000643
# 4 0.000250 0.006837 0.000802 0.033522 0.005574 -0.003505
# 5 -0.000741 -0.001592 0.000119 0.005574 0.025862 0.004882
# 6 0.001469 -0.002493 0.000643 -0.003505 0.004882 0.033925
#
#
# Mechanical properties :
#
#
# Convention : Reuss Voigt Hill
#
# Bulk Modulus (GPa) = 43.50284 67.74860 55.62572
# Shear Modulus (GPa) = 34.87584 42.40233 38.63909
#
# Velocity S-wave (km/s) = 3.77528 4.16277 3.97375
# Velocity P-wave (km/s) = 6.06482 7.12684 6.61717
#
# Compressibility (1/GPa) = 0.02298701
#
# Stress axis : x y z
#
# Youngs Moduli (GPa) = 134.56830 52.53093 160.69929
#
# Poissons Ratio (x) = 0.05469 0.34498
# Poissons Ratio (y) = 0.14009 0.26739
# Poissons Ratio (z) = 0.28888 0.08741
#
# Static dielectric constant tensor:
#      x y z
#    x 1.856280 -0.000930 -0.014670 
#    y -0.000930 2.049200 0.000510 
#    z -0.014670 0.000510 1.968340 
# 
# From -- ./inp_files/514899.got.cif
#   From: 2010.05.17/outbox.cif.g08.bks.cpg/sg2_258_cif.got.tgz:514899.got - 2010.06.03 11:33:40.
