data_PCOD9050822
_publ_section_title
;
Structure prediction by ZEFSAII (Michael W. Deem and Ramdas Pophale) SiO2 
 PCOD9050822
Probable space group: P -1
;
_chemical_formula_sum "Si O2"
_cell_formula_units_Z 16
_cell_length_a 14.003274
_cell_length_b 7.860468
_cell_length_c 11.426572
_cell_angle_alpha 137.535246
_cell_angle_beta 55.771404
_cell_angle_gamma 105.065425
_cell_volume 674.459459
_symmetry_space_group_name_H-M "P -1"
_symmetry_group_IT_number 2
_symmetry_cell_setting 'triclinic'
loop_
_space_group_symop_operation_xyz
x,y,z
-x,-y,-z
loop_
_atom_site_type_symbol
_atom_site_label
_atom_site_fract_x
_atom_site_fract_y
_atom_site_fract_z
Si Si1 0.983142 0.935514 0.611127
Si Si2 0.557890 0.727714 0.392271
Si Si3 0.665263 0.824904 0.958456
Si Si4 0.077794 0.334165 0.184684
Si Si5 0.329652 0.649245 0.427891
Si Si6 0.081237 0.044814 0.820044
Si Si7 0.596162 0.092869 0.725594
Si Si8 0.294863 0.794450 0.049116
O O1 0.019660 0.618326 0.425029
O O2 0.845305 0.073912 0.805917
O O3 0.000000 0.000000 0.500000
O O4 0.067614 0.055138 0.695611
O O5 0.442391 0.616874 0.418521
O O6 0.609646 0.806206 0.516201
O O7 0.500000 0.000000 0.500000
O O8 0.661289 0.519889 0.145851
O O9 0.782222 0.752055 0.921784
O O10 0.693540 0.623847 0.727556
O O11 0.643394 0.104092 0.052278
O O12 0.545841 0.804701 0.095758
O O13 0.061649 0.306776 0.042088
O O14 0.013924 0.119009 0.166308
O O15 0.212965 0.858032 0.662640
O O16 0.362664 0.750922 0.329466
O O17 0.664361 0.117161 0.809845
#
# Coordination Sequence:
#
# PCOD9050822 Si02
#       8
#     2   2   2   2   2   2   2   2
#     4  12  26  43  70 101 140 178 225 282 336 402
#     4  10  25  44  68  98 133 173 223 278 335 405
#     4  12  23  44  72  97 138 178 226 279 335 402
#     4  11  25  46  73  98 135 187 225 279 335 400
#     4  11  22  42  73  98 133 180 227 274 338 406
#     4  11  23  46  72 101 134 180 234 272 337 403
#     4  11  25  43  68  99 135 180 220 279 344 396
#     4  12  26  44  65 102 138 175 224 281 336 402
#
# _framework density 23.7227
#
# number of rings (size 3 to 8) (size 9 to 14) (size 15 to 20)
#    0.000    0.750    3.750    3.375    1.750    4.000 
#    2.250    0.000    0.000    0.000    0.000    0.000 
#    0.000    0.000    0.000    0.000    0.000    0.000 
#
# Total GULP energy -89502.531402 kJ/mol
# GULP energy per Si atom -5593.908213 kJ/mol
# Density = 2.366871 g / cm^3
# Si number density = 23.722700 Si / 1000 Ang^3
#
#
#
# Elastic Constant Matrix: (Units=GPa)
#
#
# Indices 1 2 3 4 5 6 
#
# 1 107.0732 3.4555 70.6580 29.9993 11.7378 -3.6274
# 2 3.4555 41.0167 2.5451 6.5503 -7.5186 -4.5767
# 3 70.6580 2.5451 122.4182 21.3101 14.4005 -2.4300
# 4 29.9993 6.5503 21.3101 23.5373 6.1250 -4.6251
# 5 11.7378 -7.5186 14.4005 6.1250 58.0575 -6.4453
# 6 -3.6274 -4.5767 -2.4300 -4.6251 -6.4453 20.6402
#
#
#
# Elastic Compliance Matrix: (Units=1/GPa)
#
#
# Indices 1 2 3 4 5 6 
#
# 1 0.019959 0.001684 -0.008349 -0.018614 0.000079 -0.001248
# 2 0.001684 0.027334 -0.000334 -0.009614 0.004929 0.005703
# 3 -0.008349 -0.000334 0.013360 -0.001078 -0.001635 -0.000721
# 4 -0.018614 -0.009614 -0.001078 0.072739 -0.003825 0.009575
# 5 0.000079 0.004929 -0.001635 -0.003825 0.019332 0.006094
# 6 -0.001248 0.005703 -0.000721 0.009575 0.006094 0.053458
#
#
# Mechanical properties :
#
#
# Convention : Reuss Voigt Hill
#
# Bulk Modulus (GPa) = 21.43281 47.09170 34.26225
# Shear Modulus (GPa) = 21.21064 33.37031 27.29048
#
# Velocity S-wave (km/s) = 2.99341 3.75465 3.39543
# Velocity P-wave (km/s) = 4.58276 6.22017 5.46316
#
# Compressibility (1/GPa) = 0.04665745
#
# Stress axis : x y z
#
# Youngs Moduli (GPa) = 50.10378 36.58400 74.84935
#
# Poissons Ratio (x) = -0.06162 0.62489
# Poissons Ratio (y) = -0.08440 0.02497
# Poissons Ratio (z) = 0.41830 0.01220
#
# Static dielectric constant tensor:
#      x y z
#    x 1.909760 0.024210 0.015120 
#    y 0.024210 2.001800 -0.041970 
#    z 0.015120 -0.041970 1.997060 
# 
# From -- ./inp_files/446682.got.cif
#   From: 2010.05.17/outbox.cif.g08.bks.cpg/sg2_224_cif.got.tgz:446682.got - 2010.06.03 11:33:40.
