data_PCOD9050991
_publ_section_title
;
Structure prediction by ZEFSAII (Michael W. Deem and Ramdas Pophale) SiO2 
 PCOD9050991
Probable space group: P -1
;
_chemical_formula_sum "Si O2"
_cell_formula_units_Z 14
_cell_length_a 9.726160
_cell_length_b 8.078402
_cell_length_c 14.307381
_cell_angle_alpha 139.210569
_cell_angle_beta 134.512820
_cell_angle_gamma 48.620358
_cell_volume 502.801500
_symmetry_space_group_name_H-M "P -1"
_symmetry_group_IT_number 2
_symmetry_cell_setting 'triclinic'
loop_
_space_group_symop_operation_xyz
x,y,z
-x,-y,-z
loop_
_atom_site_type_symbol
_atom_site_label
_atom_site_fract_x
_atom_site_fract_y
_atom_site_fract_z
Si Si1 0.297173 0.485650 0.175784
Si Si2 0.132560 0.205103 0.606771
Si Si3 0.343881 0.286116 0.573644
Si Si4 0.268149 0.867522 0.046241
Si Si5 0.735737 0.397251 0.592775
Si Si6 0.683186 0.714227 0.091227
Si Si7 0.115518 0.044091 0.231624
O O1 0.526411 0.511451 0.301366
O O2 0.226300 0.449735 0.230606
O O3 0.169462 0.766011 0.192105
O O4 0.280100 0.286763 0.001100
O O5 0.271898 0.338799 0.669326
O O6 0.187695 0.168922 0.727149
O O7 0.899177 0.364845 0.574080
O O8 0.208422 0.908540 0.477882
O O9 0.147939 0.250416 0.411501
O O10 0.500000 0.000000 0.500000
O O11 0.283012 0.583323 0.980038
O O12 0.082450 0.922314 0.910251
O O13 0.457553 0.861447 0.072059
O O14 0.266736 0.037629 0.212937
O O15 0.500000 0.500000 0.500000
#
# Coordination Sequence:
#
# PCOD9050991 Si02
#       7
#     2   2   2   2   2   2   2
#     4  10  21  40  63  91 131 158 206 267 310 366
#     4  11  23  44  68  89 129 170 206 263 320 367
#     4  10  17  34  67  94 120 164 203 264 315 362
#     4   9  18  32  55  92 133 154 197 253 320 374
#     4  11  26  46  65  91 125 170 216 258 312 382
#     4  10  20  37  58  89 125 163 200 258 314 374
#     4   9  17  31  55  89 124 165 196 249 310 367
#
# _framework density 27.843989000000001
#
# number of rings (size 3 to 8) (size 9 to 14) (size 15 to 20)
#    0.000    2.000    2.857    3.429    0.000    2.857 
#    5.143    2.857    0.000    0.000    0.000    0.000 
#    0.000    0.000    0.000    0.000    0.000    0.000 
#
# Total GULP energy -78319.047070 kJ/mol
# GULP energy per Si atom -5594.217648 kJ/mol
# Density = 2.778062 g / cm^3
# Si number density = 27.843989 Si / 1000 Ang^3
#
#
#
# Elastic Constant Matrix: (Units=GPa)
#
#
# Indices 1 2 3 4 5 6 
#
# 1 139.7631 40.5565 20.1032 -5.4627 -26.2638 -23.3980
# 2 40.5565 99.1274 28.1663 -18.8320 -20.0864 -21.2595
# 3 20.1032 28.1663 154.0457 -3.8347 -29.2759 -25.8924
# 4 -5.4627 -18.8320 -3.8347 36.7202 -13.4542 3.4834
# 5 -26.2638 -20.0864 -29.2759 -13.4542 50.7693 -5.4603
# 6 -23.3980 -21.2595 -25.8924 3.4834 -5.4603 43.2161
#
#
#
# Elastic Compliance Matrix: (Units=1/GPa)
#
#
# Indices 1 2 3 4 5 6 
#
# 1 0.009697 -0.001104 0.001326 0.002916 0.006775 0.006122
# 2 -0.001104 0.016283 0.000766 0.011210 0.010171 0.008253
# 3 0.001326 0.000766 0.008988 0.003757 0.007939 0.007180
# 4 0.002916 0.011210 0.003757 0.040207 0.019689 0.008591
# 5 0.006775 0.010171 0.007939 0.019689 0.038823 0.016747
# 6 0.006122 0.008253 0.007180 0.008591 0.016747 0.036239
#
#
# Mechanical properties :
#
#
# Convention : Reuss Voigt Hill
#
# Bulk Modulus (GPa) = 27.06909 63.39868 45.23389
# Shear Modulus (GPa) = 31.13801 46.41512 38.77656
#
# Velocity S-wave (km/s) = 3.34773 4.08728 3.73585
# Velocity P-wave (km/s) = 4.96849 6.71515 5.90674
#
# Compressibility (1/GPa) = 0.03694251
#
# Stress axis : x y z
#
# Youngs Moduli (GPa) = 103.12752 61.41500 111.26379
#
# Poissons Ratio (x) = 0.06780 -0.14750
# Poissons Ratio (y) = 0.11385 -0.08524
# Poissons Ratio (z) = -0.13671 -0.04705
#
# Static dielectric constant tensor:
#      x y z
#    x 2.175680 0.005540 0.027790 
#    y 0.005540 2.303560 0.025710 
#    z 0.027790 0.025710 2.153390 
# 
# From -- ./inp_files/518320.got.cif
#   From: 2010.05.17/outbox.cif.g08.bks.cpg/sg2_260_cif.got.tgz:518320.got - 2010.06.03 11:33:40.
