data_PCOD9050421
_publ_section_title
;
Structure prediction by ZEFSAII (Michael W. Deem and Ramdas Pophale) SiO2 
 PCOD9050421
Probable space group: P -1
;
_chemical_formula_sum "Si O2"
_cell_formula_units_Z 16
_cell_length_a 11.745797
_cell_length_b 12.086612
_cell_length_c 11.479396
_cell_angle_alpha 108.460674
_cell_angle_beta 97.685992
_cell_angle_gamma 143.090827
_cell_volume 681.312089
_symmetry_space_group_name_H-M "P -1"
_symmetry_group_IT_number 2
_symmetry_cell_setting 'triclinic'
loop_
_space_group_symop_operation_xyz
x,y,z
-x,-y,-z
loop_
_atom_site_type_symbol
_atom_site_label
_atom_site_fract_x
_atom_site_fract_y
_atom_site_fract_z
Si Si1 0.188355 0.284460 0.126961
Si Si2 0.902747 0.067842 0.237802
Si Si3 0.583323 0.333976 0.130878
Si Si4 0.369084 0.949016 0.354931
Si Si5 0.790362 0.067853 0.862280
Si Si6 0.927250 0.544373 0.579058
Si Si7 0.883141 0.368786 0.120888
Si Si8 0.778774 0.763518 0.300443
O O1 0.486240 0.535494 0.221182
O O2 0.143708 0.283633 0.253565
O O3 0.054674 0.255791 0.012727
O O4 0.000000 0.000000 0.000000
O O5 0.853747 0.902882 0.241269
O O6 0.647841 0.862066 0.059147
O O7 0.967219 0.237903 0.384130
O O8 0.726762 0.342379 0.127585
O O9 0.758352 0.606638 0.235250
O O10 0.441844 0.211168 0.197481
O O11 0.625340 0.247982 0.446038
O O12 0.500000 0.000000 0.500000
O O13 0.193991 0.897903 0.261930
O O14 0.158739 0.656774 0.202006
O O15 0.747207 0.157677 0.943255
O O16 0.000000 0.500000 0.500000
O O17 0.056695 0.646456 0.757455
O O18 0.000000 0.000000 0.500000
#
# Coordination Sequence:
#
# PCOD9050421 Si02
#       8
#     2   2   2   2   2   2   2   2
#     4  11  24  48  77 105 147 202 259 309 369 452
#     4  11  26  47  76 105 149 200 254 305 376 458
#     4  11  24  45  71 106 141 191 254 303 369 451
#     4  10  25  41  64 105 151 183 242 300 392 441
#     4  11  22  43  75 101 146 196 249 305 376 461
#     4  11  24  43  68 103 150 191 231 314 385 443
#     4  11  23  42  69 107 139 186 246 304 374 459
#     4  12  29  48  75 114 147 197 259 317 384 443
#
# _framework density 23.484096000000001
#
# number of rings (size 3 to 8) (size 9 to 14) (size 15 to 20)
#    0.000    1.000    5.000    1.875    7.000    2.500 
#    0.000    0.000    0.000    0.000    0.000    0.000 
#    0.000    0.000    0.000    0.000    0.000    0.000 
#
# Total GULP energy -89104.727102 kJ/mol
# GULP energy per Si atom -5569.045444 kJ/mol
# Density = 2.343064 g / cm^3
# Si number density = 23.484096 Si / 1000 Ang^3
#
#
#
# Elastic Constant Matrix: (Units=GPa)
#
#
# Indices 1 2 3 4 5 6 
#
# 1 117.5654 45.2383 29.7303 7.9533 9.6507 -4.4973
# 2 45.2383 116.7413 49.9680 9.0351 19.2209 -25.9928
# 3 29.7303 49.9680 71.3213 19.2567 11.9547 -3.7415
# 4 7.9533 9.0351 19.2567 39.8360 -14.2105 -0.5405
# 5 9.6507 19.2209 11.9547 -14.2105 37.8201 4.1293
# 6 -4.4973 -25.9928 -3.7415 -0.5405 4.1293 40.0009
#
#
#
# Elastic Compliance Matrix: (Units=1/GPa)
#
#
# Indices 1 2 3 4 5 6 
#
# 1 0.010279 -0.003373 -0.001732 -0.000635 -0.000474 -0.001158
# 2 -0.003373 0.017113 -0.008506 -0.001388 -0.006830 0.010631
# 3 -0.001732 -0.008506 0.025294 -0.012743 -0.007720 -0.002731
# 4 -0.000635 -0.001388 -0.012743 0.038737 0.019854 -0.003692
# 5 -0.000474 -0.006830 -0.007720 0.019854 0.040934 -0.009171
# 6 -0.001158 0.010631 -0.002731 -0.003692 -0.009171 0.032419
#
#
# Mechanical properties :
#
#
# Convention : Reuss Voigt Hill
#
# Bulk Modulus (GPa) = 39.27019 61.72238 50.49628
# Shear Modulus (GPa) = 24.93952 35.57749 30.25851
#
# Velocity S-wave (km/s) = 3.26233 3.89647 3.59342
# Velocity P-wave (km/s) = 5.56316 6.82518 6.22623
#
# Compressibility (1/GPa) = 0.02546461
#
# Stress axis : x y z
#
# Youngs Moduli (GPa) = 97.28410 58.43602 39.53552
#
# Poissons Ratio (x) = 0.19708 0.06848
# Poissons Ratio (y) = 0.32810 0.33629
# Poissons Ratio (z) = 0.16850 0.49705
#
# Static dielectric constant tensor:
#      x y z
#    x 1.941210 0.098620 0.105420 
#    y 0.098620 2.261440 0.212700 
#    z 0.105420 0.212700 2.117130 
# 
# From -- ./inp_files/428565.got.cif
#   From: 2010.05.17/outbox.cif.g08.bks.cpg/sg2_215_cif.got.tgz:428565.got - 2010.06.03 11:33:40.
