data_PCOD9050839
_publ_section_title
;
Structure prediction by ZEFSAII (Michael W. Deem and Ramdas Pophale) SiO2 
 PCOD9050839
Probable space group: P -1
;
_chemical_formula_sum "Si O2"
_cell_formula_units_Z 15
_cell_length_a 10.362353
_cell_length_b 11.651403
_cell_length_c 11.238126
_cell_angle_alpha 34.814948
_cell_angle_beta 49.259553
_cell_angle_gamma 50.932181
_cell_volume 572.785540
_symmetry_space_group_name_H-M "P -1"
_symmetry_group_IT_number 2
_symmetry_cell_setting 'triclinic'
loop_
_space_group_symop_operation_xyz
x,y,z
-x,-y,-z
loop_
_atom_site_type_symbol
_atom_site_label
_atom_site_fract_x
_atom_site_fract_y
_atom_site_fract_z
Si Si1 0.666157 0.146288 0.265774
Si Si2 0.808746 0.055704 0.510080
Si Si3 0.000000 0.000000 0.000000
Si Si4 0.728897 0.737317 0.503471
Si Si5 0.744983 0.332855 0.702035
Si Si6 0.816330 0.441098 0.304308
Si Si7 0.417013 0.171541 0.996965
Si Si8 0.909545 0.417052 0.847000
O O1 0.460326 0.200459 0.370117
O O2 0.772354 0.038514 0.408043
O O3 0.751214 0.972021 0.261375
O O4 0.724783 0.357258 0.029986
O O5 0.766964 0.298234 0.353428
O O6 0.691867 0.926578 0.759089
O O7 0.000000 0.000000 0.500000
O O8 0.110887 0.819626 0.178564
O O9 0.982032 0.800433 0.083620
O O10 0.719407 0.574531 0.545643
O O11 0.872372 0.601835 0.617629
O O12 0.779645 0.330106 0.542640
O O13 0.564397 0.265087 0.891957
O O14 0.697132 0.658194 0.162795
O O15 0.005829 0.492909 0.167639
O O16 0.500000 0.000000 0.000000
#
# Coordination Sequence:
#
# PCOD9050839 Si02
#       8
#     2   2   1   2   2   2   2   2
#     4  11  25  45  71 100 148 186 239 293 366 431
#     4  12  28  47  73 107 147 193 238 303 365 428
#     4  10  26  44  72 108 142 190 236 296 360 422
#     4  10  25  44  69 102 139 192 239 295 359 429
#     4  11  25  47  76 107 145 186 244 301 359 426
#     4  12  27  45  75 108 144 190 243 300 359 429
#     4  12  26  48  75 109 146 191 246 298 361 432
#     4  11  25  43  70 104 145 186 237 294 361 430
#
# _framework density 26.187813999999999
#
# number of rings (size 3 to 8) (size 9 to 14) (size 15 to 20)
#    0.000    0.800    1.333    4.000    7.467   10.667 
#    0.000    0.000    0.000    0.000    0.000    0.000 
#    0.000    0.000    0.000    0.000    0.000    0.000 
#
# Total GULP energy -83840.107639 kJ/mol
# GULP energy per Si atom -5589.340509 kJ/mol
# Density = 2.612821 g / cm^3
# Si number density = 26.187814 Si / 1000 Ang^3
#
#
#
# Elastic Constant Matrix: (Units=GPa)
#
#
# Indices 1 2 3 4 5 6 
#
# 1 80.3573 7.8262 29.2841 -7.9246 -17.7156 10.8856
# 2 7.8262 93.0677 30.3735 -22.1471 -0.0377 12.2624
# 3 29.2841 30.3735 175.4980 -18.3939 -19.3211 4.6665
# 4 -7.9246 -22.1471 -18.3939 40.6836 5.0657 0.5442
# 5 -17.7156 -0.0377 -19.3211 5.0657 50.3867 4.1912
# 6 10.8856 12.2624 4.6665 0.5442 4.1912 29.5327
#
#
#
# Elastic Compliance Matrix: (Units=1/GPa)
#
#
# Indices 1 2 3 4 5 6 
#
# 1 0.015160 0.000581 -0.001706 0.001959 0.005004 -0.006306
# 2 0.000581 0.013631 -0.001649 0.006944 -0.000646 -0.005650
# 3 -0.001706 -0.001649 0.006627 0.001544 0.001786 -0.000015
# 4 0.001959 0.006944 0.001544 0.029663 -0.001346 -0.004205
# 5 0.005004 -0.000646 0.001786 -0.001346 0.022848 -0.005076
# 6 -0.006306 -0.005650 -0.000015 -0.004205 -0.005076 0.039331
#
#
# Mechanical properties :
#
#
# Convention : Reuss Voigt Hill
#
# Bulk Modulus (GPa) = 33.47916 53.76560 43.62238
# Shear Modulus (GPa) = 35.02238 42.88321 38.95279
#
# Velocity S-wave (km/s) = 3.66095 4.05102 3.86092
# Velocity P-wave (km/s) = 5.53914 6.51586 6.04725
#
# Compressibility (1/GPa) = 0.02986933
#
# Stress axis : x y z
#
# Youngs Moduli (GPa) = 65.96186 73.36364 150.89599
#
# Poissons Ratio (x) = -0.04263 0.25748
# Poissons Ratio (y) = -0.03833 0.24885
# Poissons Ratio (z) = 0.11255 0.12099
#
# Static dielectric constant tensor:
#      x y z
#    x 2.006530 0.021360 -0.107320 
#    y 0.021360 1.770110 0.051250 
#    z -0.107320 0.051250 2.124580 
# 
# From -- ./inp_files/427204.got.cif
#   From: 2010.05.17/outbox.cif.g08.bks.cpg/sg2_214_cif.got.tgz:427204.got - 2010.06.03 11:33:40.
