data_PCOD9050754
_publ_section_title
;
Structure prediction by ZEFSAII (Michael W. Deem and Ramdas Pophale) SiO2 
 PCOD9050754
Probable space group: P -1
;
_chemical_formula_sum "Si O2"
_cell_formula_units_Z 16
_cell_length_a 13.292772
_cell_length_b 9.189368
_cell_length_c 8.243158
_cell_angle_alpha 103.436984
_cell_angle_beta 106.337735
_cell_angle_gamma 43.634880
_cell_volume 666.147709
_symmetry_space_group_name_H-M "P -1"
_symmetry_group_IT_number 2
_symmetry_cell_setting 'triclinic'
loop_
_space_group_symop_operation_xyz
x,y,z
-x,-y,-z
loop_
_atom_site_type_symbol
_atom_site_label
_atom_site_fract_x
_atom_site_fract_y
_atom_site_fract_z
Si Si1 0.368803 0.844825 0.445773
Si Si2 0.776198 0.309435 0.739707
Si Si3 0.203949 0.078028 0.750405
Si Si4 0.364324 0.993096 0.136822
Si Si5 0.083931 0.613931 0.438190
Si Si6 0.386090 0.475042 0.961334
Si Si7 0.626382 0.766563 0.573317
Si Si8 0.914083 0.125172 0.247216
O O1 0.313725 0.974379 0.621575
O O2 0.309968 0.737326 0.397005
O O3 0.313263 0.962323 0.274242
O O4 0.545313 0.690027 0.490137
O O5 0.829771 0.382769 0.662373
O O6 0.664848 0.483304 0.866702
O O7 0.931762 0.082812 0.818869
O O8 0.058233 0.315399 0.689715
O O9 0.144264 0.966795 0.714324
O O10 0.271021 0.053706 0.948343
O O11 0.525983 0.759533 0.117199
O O12 0.358941 0.172266 0.227829
O O13 0.219266 0.373487 0.488454
O O14 0.040726 0.781417 0.593197
O O15 0.232017 0.668576 0.854637
O O16 0.500000 0.500000 0.000000
O O17 0.500000 0.000000 0.500000
#
# Coordination Sequence:
#
# PCOD9050754 Si02
#       8
#     2   2   2   2   2   2   2   2
#     4  11  21  43  69  94 129 173 212 268 325 376
#     4  11  22  38  63 102 129 163 213 269 331 384
#     4  11  22  41  70  96 133 166 216 272 326 387
#     4  11  25  45  62  94 140 170 220 270 311 383
#     4  11  23  41  68  97 126 172 213 265 337 382
#     4  12  23  37  65  98 129 176 211 265 331 383
#     4  10  25  44  65  90 133 176 220 266 315 386
#     4  11  20  40  64  96 140 159 207 275 329 389
#
# _framework density 24.018697
#
# number of rings (size 3 to 8) (size 9 to 14) (size 15 to 20)
#    0.000    1.000    5.000    2.625    1.750    2.500 
#    0.000    2.500    0.000    0.000    0.000    0.000 
#    0.000    0.000    0.000    0.000    0.000    0.000 
#
# Total GULP energy -89337.288319 kJ/mol
# GULP energy per Si atom -5583.580520 kJ/mol
# Density = 2.396403 g / cm^3
# Si number density = 24.018697 Si / 1000 Ang^3
#
#
#
# Elastic Constant Matrix: (Units=GPa)
#
#
# Indices 1 2 3 4 5 6 
#
# 1 55.2614 23.8813 33.6711 4.0629 -7.4261 -5.2423
# 2 23.8813 105.9912 23.9335 -5.8116 13.4264 -13.1670
# 3 33.6711 23.9335 128.2372 -5.1563 2.4318 -9.8175
# 4 4.0629 -5.8116 -5.1563 45.1962 -11.4447 4.0236
# 5 -7.4261 13.4264 2.4318 -11.4447 27.2553 5.2732
# 6 -5.2423 -13.1670 -9.8175 4.0236 5.2732 27.6959
#
#
#
# Elastic Compliance Matrix: (Units=1/GPa)
#
#
# Indices 1 2 3 4 5 6 
#
# 1 0.025658 -0.006060 -0.005997 -0.000929 0.010511 -0.002017
# 2 -0.006060 0.012865 -0.000134 -0.000881 -0.009680 0.006892
# 3 -0.005997 -0.000134 0.009678 0.000725 -0.002636 0.002628
# 4 -0.000929 -0.000881 0.000725 0.025841 0.012209 -0.006417
# 5 0.010511 -0.009680 -0.002636 0.012209 0.052653 -0.015345
# 6 -0.002017 0.006892 0.002628 -0.006417 -0.015345 0.043787
#
#
# Mechanical properties :
#
#
# Convention : Reuss Voigt Hill
#
# Bulk Modulus (GPa) = 41.98390 50.27352 46.12871
# Shear Modulus (GPa) = 24.65432 33.89642 29.27537
#
# Velocity S-wave (km/s) = 3.20732 3.76074 3.49500
# Velocity P-wave (km/s) = 5.58870 6.31142 5.96102
#
# Compressibility (1/GPa) = 0.02381866
#
# Stress axis : x y z
#
# Youngs Moduli (GPa) = 38.97384 77.73324 103.32653
#
# Poissons Ratio (x) = 0.47106 0.61966
# Poissons Ratio (y) = 0.23618 0.01385
# Poissons Ratio (z) = 0.23373 0.01042
#
# Static dielectric constant tensor:
#      x y z
#    x 1.967200 0.092580 -0.005870 
#    y 0.092580 2.185090 -0.084480 
#    z -0.005870 -0.084480 1.954040 
# 
# From -- ./inp_files/227584.got.cif
#   From: 2010.05.17/outbox.cif.g08.bks.cpg/sg2_114_cif.got.tgz:227584.got - 2010.06.03 11:33:40.
