data_PCOD9050139
_publ_section_title
;
Structure prediction by ZEFSAII (Michael W. Deem and Ramdas Pophale) SiO2 
 PCOD9050139
Probable space group: P -1
;
_chemical_formula_sum "Si O2"
_cell_formula_units_Z 14
_cell_length_a 7.604482
_cell_length_b 8.015330
_cell_length_c 11.906278
_cell_angle_alpha 49.467037
_cell_angle_beta 74.324142
_cell_angle_gamma 94.187092
_cell_volume 499.465484
_symmetry_space_group_name_H-M "P -1"
_symmetry_group_IT_number 2
_symmetry_cell_setting 'triclinic'
loop_
_space_group_symop_operation_xyz
x,y,z
-x,-y,-z
loop_
_atom_site_type_symbol
_atom_site_label
_atom_site_fract_x
_atom_site_fract_y
_atom_site_fract_z
Si Si1 0.054845 0.477080 0.627419
Si Si2 0.182263 0.231917 0.372581
Si Si3 0.528243 0.306487 0.443513
Si Si4 0.216872 0.976220 0.088164
Si Si5 0.471423 0.160553 0.760001
Si Si6 0.268575 0.819445 0.760001
Si Si7 0.194963 0.347451 0.088164
O O1 0.273732 0.636704 0.536113
O O2 0.000000 0.500000 0.500000
O O3 0.905974 0.561948 0.688052
O O4 0.000547 0.205357 0.785152
O O5 0.309845 0.208930 0.463887
O O6 0.285699 0.275662 0.214848
O O7 0.000000 0.000000 0.500000
O O8 0.521904 0.576276 0.340908
O O9 0.637188 0.241909 0.340908
O O10 0.411095 0.072189 0.677811
O O11 0.239257 0.228514 0.021486
O O12 0.347280 0.883924 0.191933
O O13 0.297118 0.000791 0.938741
O O14 0.039213 0.767789 0.808067
O O15 0.264141 0.621727 0.938741
#
# Coordination Sequence:
#
# PCOD9050139 Si02
#       7
#     2   2   2   2   2   2   2
#     4  12  25  46  75 110 154 197 253 310 379 451
#     4  12  25  46  75 110 154 197 253 310 379 451
#     4  10  24  48  78 108 150 196 250 310 380 448
#     4  11  23  45  77 107 148 197 245 316 376 441
#     4   9  21  45  71 106 148 188 253 308 368 449
#     4   9  21  45  71 106 148 188 253 308 368 449
#     4  11  23  45  77 107 148 197 245 316 376 441
#
# _framework density 28.029964
#
# number of rings (size 3 to 8) (size 9 to 14) (size 15 to 20)
#    0.857    0.571    2.857    1.714    0.000    2.286 
#    5.143    5.714    9.429    0.000    0.000    0.000 
#    0.000    0.000    0.000    0.000    0.000    0.000 
#
# Total GULP energy -78475.696315 kJ/mol
# GULP energy per Si atom -5605.406880 kJ/mol
# Density = 2.796617 g / cm^3
# Si number density = 28.029964 Si / 1000 Ang^3
#
#
#
# Elastic Constant Matrix: (Units=GPa)
#
#
# Indices 1 2 3 4 5 6 
#
# 1 216.2748 58.5870 82.7531 1.0230 -5.8363 41.7602
# 2 58.5870 194.6626 59.5465 -6.0213 0.0703 28.6994
# 3 82.7531 59.5465 151.6995 -5.2215 -8.4959 42.0288
# 4 1.0230 -6.0213 -5.2215 44.5232 13.9547 0.8848
# 5 -5.8363 0.0703 -8.4959 13.9547 50.9764 0.1097
# 6 41.7602 28.6994 42.0288 0.8848 0.1097 63.4951
#
#
#
# Elastic Compliance Matrix: (Units=1/GPa)
#
#
# Indices 1 2 3 4 5 6 
#
# 1 0.006214 -0.000825 -0.002492 -0.000657 0.000481 -0.002056
# 2 -0.000825 0.006077 -0.001624 0.000863 -0.000607 -0.001140
# 3 -0.002492 -0.001624 0.009826 0.000706 0.001170 -0.004143
# 4 -0.000657 0.000863 0.000706 0.024805 -0.006747 -0.000759
# 5 0.000481 -0.000607 0.001170 -0.006747 0.021717 -0.000760
# 6 -0.002056 -0.001140 -0.004143 -0.000759 -0.000760 0.020372
#
#
# Mechanical properties :
#
#
# Convention : Reuss Voigt Hill
#
# Bulk Modulus (GPa) = 81.72560 107.15669 94.44114
# Shear Modulus (GPa) = 48.55771 55.91562 52.23666
#
# Velocity S-wave (km/s) = 4.16667 4.47122 4.32163
# Velocity P-wave (km/s) = 7.23657 8.06028 7.65951
#
# Compressibility (1/GPa) = 0.01223607
#
# Stress axis : x y z
#
# Youngs Moduli (GPa) = 160.93133 164.54961 101.76717
#
# Poissons Ratio (x) = 0.13580 0.25357
# Poissons Ratio (y) = 0.13282 0.16523
# Poissons Ratio (z) = 0.40100 0.26717
#
# Static dielectric constant tensor:
#      x y z
#    x 2.125230 0.003640 0.008710 
#    y 0.003640 2.188370 0.004360 
#    z 0.008710 0.004360 2.243330 
# 
# From -- ./inp_files/181763.got.cif
#   From: 2010.05.17/outbox.cif.g08.bks.cpg/sg2_91_cif.got.tgz:181763.got - 2010.06.03 11:33:40.
