data_PCOD9050120
_publ_section_title
;
Structure prediction by ZEFSAII (Michael W. Deem and Ramdas Pophale) SiO2 
 PCOD9050120
Probable space group: P -1
;
_chemical_formula_sum "Si O2"
_cell_formula_units_Z 12
_cell_length_a 6.601558
_cell_length_b 8.708135
_cell_length_c 9.742664
_cell_angle_alpha 118.891033
_cell_angle_beta 60.934892
_cell_angle_gamma 100.014276
_cell_volume 427.262569
_symmetry_space_group_name_H-M "P -1"
_symmetry_group_IT_number 2
_symmetry_cell_setting 'triclinic'
loop_
_space_group_symop_operation_xyz
x,y,z
-x,-y,-z
loop_
_atom_site_type_symbol
_atom_site_label
_atom_site_fract_x
_atom_site_fract_y
_atom_site_fract_z
Si Si1 0.135492 0.445373 0.096925
Si Si2 0.313781 0.104024 0.974759
Si Si3 0.734854 0.097482 0.469939
Si Si4 0.171197 0.827170 0.210691
Si Si5 0.689424 0.289725 0.292672
Si Si6 0.233716 0.396719 0.325423
O O1 0.878340 0.414574 0.225872
O O2 0.242758 0.249653 0.941811
O O3 0.295675 0.480557 0.195130
O O4 0.863705 0.374583 0.907657
O O5 0.742415 0.091160 0.128461
O O6 0.195606 0.203206 0.188867
O O7 0.589555 0.113803 0.904278
O O8 0.794558 0.157773 0.629543
O O9 0.693929 0.251978 0.437440
O O10 0.500000 0.000000 0.500000
O O11 0.947776 0.954944 0.305806
O O12 0.436312 0.361652 0.353048
O O13 0.000000 0.500000 0.500000
#
# Coordination Sequence:
#
# PCOD9050120 Si02
#       6
#     2   2   2   2   2   2
#     4  10  27  44  76 108 148 193 249 315 365 437
#     4  10  24  48  77 105 152 197 248 309 373 446
#     4  11  27  45  81 105 157 197 253 302 375 455
#     4  11  25  50  71 114 150 201 244 312 375 435
#     4  12  25  48  77 111 144 202 255 300 378 450
#     4  10  27  46  74 110 150 191 247 320 372 433
#
# _framework density 28.085774000000001
#
# number of rings (size 3 to 8) (size 9 to 14) (size 15 to 20)
#    1.000    0.333    1.667    1.500    7.000    3.333 
#    0.000    1.667    3.667    0.000    0.000    0.000 
#    0.000    0.000    0.000    0.000    0.000    0.000 
#
# Total GULP energy -67190.339157 kJ/mol
# GULP energy per Si atom -5599.194930 kJ/mol
# Density = 2.802185 g / cm^3
# Si number density = 28.085774 Si / 1000 Ang^3
#
#
#
# Elastic Constant Matrix: (Units=GPa)
#
#
# Indices 1 2 3 4 5 6 
#
# 1 166.7187 74.5728 54.7947 -0.0907 -9.2833 -16.4344
# 2 74.5728 169.7041 33.9330 12.2552 -13.2770 -6.3317
# 3 54.7947 33.9330 123.1048 18.8785 9.5506 -17.8145
# 4 -0.0907 12.2552 18.8785 53.3382 -12.7599 -0.4246
# 5 -9.2833 -13.2770 9.5506 -12.7599 63.9480 0.0340
# 6 -16.4344 -6.3317 -17.8145 -0.4246 0.0340 76.3725
#
#
#
# Elastic Compliance Matrix: (Units=1/GPa)
#
#
# Indices 1 2 3 4 5 6 
#
# 1 0.008682 -0.003159 -0.003348 0.002306 0.001564 0.000838
# 2 -0.003159 0.007557 -0.000576 -0.001316 0.000934 -0.000195
# 3 -0.003348 -0.000576 0.010959 -0.004489 -0.003139 0.001765
# 4 0.002306 -0.001316 -0.004489 0.021858 0.005094 -0.000541
# 5 0.001564 0.000934 -0.003139 0.005094 0.017544 -0.000298
# 6 0.000838 -0.000195 0.001765 -0.000541 -0.000298 0.013667
#
#
# Mechanical properties :
#
#
# Convention : Reuss Voigt Hill
#
# Bulk Modulus (GPa) = 76.72473 87.34762 82.03618
# Shear Modulus (GPa) = 50.61990 58.48021 54.55005
#
# Velocity S-wave (km/s) = 4.24999 4.56806 4.41190
# Velocity P-wave (km/s) = 7.17360 7.68054 7.43140
#
# Compressibility (1/GPa) = 0.01303361
#
# Stress axis : x y z
#
# Youngs Moduli (GPa) = 115.17802 132.33454 91.24696
#
# Poissons Ratio (x) = 0.41801 0.30546
# Poissons Ratio (y) = 0.36382 0.05255
# Poissons Ratio (z) = 0.38557 0.07621
#
# Static dielectric constant tensor:
#      x y z
#    x 2.242890 -0.020890 0.118720 
#    y -0.020890 2.249200 -0.001750 
#    z 0.118720 -0.001750 2.260030 
# 
# From -- ./inp_files/27959.got.cif
#   From: 2010.05.17/outbox.cif.g08.bks.cpg/sg2_14_cif.got.tgz:27959.got - 2010.06.03 11:33:40.
