data_PCOD9050591
_publ_section_title
;
Structure prediction by ZEFSAII (Michael W. Deem and Ramdas Pophale) SiO2 
 PCOD9050591
Probable space group: P -1
;
_chemical_formula_sum "Si O2"
_cell_formula_units_Z 16
_cell_length_a 9.156350
_cell_length_b 11.157179
_cell_length_c 12.882144
_cell_angle_alpha 45.319779
_cell_angle_beta 94.483676
_cell_angle_gamma 65.882676
_cell_volume 705.750726
_symmetry_space_group_name_H-M "P -1"
_symmetry_group_IT_number 2
_symmetry_cell_setting 'triclinic'
loop_
_space_group_symop_operation_xyz
x,y,z
-x,-y,-z
loop_
_atom_site_type_symbol
_atom_site_label
_atom_site_fract_x
_atom_site_fract_y
_atom_site_fract_z
Si Si1 0.546029 0.190513 0.304554
Si Si2 0.795100 0.734155 0.326581
Si Si3 0.557013 0.385711 0.685643
Si Si4 0.814263 0.088525 0.211269
Si Si5 0.750390 0.866627 0.012772
Si Si6 0.230107 0.840035 0.475122
Si Si7 0.188006 0.621122 0.136576
Si Si8 0.549506 0.039183 0.702419
O O1 0.621960 0.239369 0.179540
O O2 0.712784 0.109555 0.446090
O O3 0.345618 0.385677 0.231487
O O4 0.516831 0.025643 0.357474
O O5 0.642842 0.751675 0.379338
O O6 0.000000 0.500000 0.500000
O O7 0.807287 0.913614 0.261837
O O8 0.731775 0.791023 0.168603
O O9 0.500000 0.500000 0.500000
O O10 0.364528 0.572717 0.629579
O O11 0.719073 0.380332 0.751740
O O12 0.650463 0.128467 0.853116
O O13 0.829208 0.212957 0.046021
O O14 0.008386 0.963358 0.367006
O O15 0.650649 0.857921 0.911698
O O16 0.977723 0.707916 0.096740
O O17 0.305853 0.922902 0.346376
#
# Coordination Sequence:
#
# PCOD9050591 Si02
#       8
#     2   2   2   2   2   2   2   2
#     4  10  25  43  65  99 141 177 232 279 341 392
#     4  11  28  43  68 101 146 175 218 281 352 407
#     4  11  22  37  68 104 132 169 225 282 332 403
#     4  11  22  46  68 101 133 180 226 290 332 402
#     4  12  24  42  69 101 139 176 226 274 340 410
#     4  11  23  41  73  99 130 181 232 278 336 405
#     4  11  23  41  71  98 133 183 228 283 331 400
#     4  11  24  46  65  97 142 184 219 285 336 402
#
# _framework density 22.670895000000002
#
# number of rings (size 3 to 8) (size 9 to 14) (size 15 to 20)
#    0.000    1.000    3.750    1.875    7.000    0.500 
#    0.000    0.000    0.000    0.000    0.000    0.000 
#    0.000    0.000    0.000    0.000    0.000    0.000 
#
# Total GULP energy -89423.145553 kJ/mol
# GULP energy per Si atom -5588.946597 kJ/mol
# Density = 2.261929 g / cm^3
# Si number density = 22.670895 Si / 1000 Ang^3
#
#
#
# Elastic Constant Matrix: (Units=GPa)
#
#
# Indices 1 2 3 4 5 6 
#
# 1 94.6013 45.0178 16.8505 -0.7129 15.5371 -22.7430
# 2 45.0178 89.1871 38.9416 23.4555 13.2705 -9.3082
# 3 16.8505 38.9416 100.9610 14.6170 22.3892 4.0485
# 4 -0.7129 23.4555 14.6170 29.1702 -4.9836 12.9740
# 5 15.5371 13.2705 22.3892 -4.9836 37.3383 1.2263
# 6 -22.7430 -9.3082 4.0485 12.9740 1.2263 19.6877
#
#
#
# Elastic Compliance Matrix: (Units=1/GPa)
#
#
# Indices 1 2 3 4 5 6 
#
# 1 0.021718 -0.000727 0.000581 -0.017907 -0.012740 0.037220
# 2 -0.000727 0.036097 -0.003799 -0.054515 -0.019303 0.054136
# 3 0.000581 -0.003799 0.013751 -0.005114 -0.007816 -0.000097
# 4 -0.017907 -0.054515 -0.005114 0.157803 0.055976 -0.152886
# 5 -0.012740 -0.019303 -0.007816 0.055976 0.053152 -0.062434
# 6 0.037220 0.054136 -0.000097 -0.152886 -0.062434 0.224043
#
#
# Mechanical properties :
#
#
# Convention : Reuss Voigt Hill
#
# Bulk Modulus (GPa) = 15.70456 54.04104 34.87280
# Shear Modulus (GPa) = 9.33391 29.50189 19.41790
#
# Velocity S-wave (km/s) = 2.03127 3.61128 2.92980
# Velocity P-wave (km/s) = 3.52756 6.42475 5.18272
#
# Compressibility (1/GPa) = 0.06367579
#
# Stress axis : x y z
#
# Youngs Moduli (GPa) = 46.04394 27.70294 72.72270
#
# Poissons Ratio (x) = 0.02013 -0.04222
# Poissons Ratio (y) = 0.03346 0.27630
# Poissons Ratio (z) = -0.02673 0.10525
#
# Static dielectric constant tensor:
#      x y z
#    x 1.851960 0.021460 -0.007100 
#    y 0.021460 1.891340 0.009600 
#    z -0.007100 0.009600 1.866520 
# 
# From -- ./inp_files/392091.got.cif
#   From: 2010.05.17/outbox.cif.g08.bks.cpg/sg2_197_cif.got.tgz:392091.got - 2010.06.03 11:33:40.
