data_PCOD9050816
_publ_section_title
;
Structure prediction by ZEFSAII (Michael W. Deem and Ramdas Pophale) SiO2 
 PCOD9050816
Probable space group: P -1
;
_chemical_formula_sum "Si O2"
_cell_formula_units_Z 14
_cell_length_a 7.177930
_cell_length_b 8.720979
_cell_length_c 13.930263
_cell_angle_alpha 138.076837
_cell_angle_beta 73.551487
_cell_angle_gamma 104.983240
_cell_volume 557.217410
_symmetry_space_group_name_H-M "P -1"
_symmetry_group_IT_number 2
_symmetry_cell_setting 'triclinic'
loop_
_space_group_symop_operation_xyz
x,y,z
-x,-y,-z
loop_
_atom_site_type_symbol
_atom_site_label
_atom_site_fract_x
_atom_site_fract_y
_atom_site_fract_z
Si Si1 0.032743 0.732233 0.875982
Si Si2 0.741465 0.152182 0.640298
Si Si3 0.362366 0.401838 0.059841
Si Si4 0.388358 0.832455 0.601083
Si Si5 0.811754 0.636882 0.671820
Si Si6 0.442170 0.875673 0.836416
Si Si7 0.030834 0.955011 0.634013
O O1 0.962613 0.628430 0.734176
O O2 0.264690 0.733762 0.851218
O O3 0.875053 0.637842 0.933423
O O4 0.000000 0.000000 0.000000
O O5 0.697156 0.403321 0.543892
O O6 0.876029 0.125707 0.516635
O O7 0.582603 0.937486 0.570997
O O8 0.878027 0.132318 0.705358
O O9 0.427189 0.151041 0.962589
O O10 0.500000 0.500000 0.000000
O O11 0.368035 0.614489 0.233277
O O12 0.424116 0.800317 0.692592
O O13 0.222693 0.015530 0.697892
O O14 0.651480 0.808685 0.807627
O O15 0.917550 0.755268 0.619215
#
# Coordination Sequence:
#
# PCOD9050816 Si02
#       7
#     2   2   2   2   2   2   2
#     4  10  25  44  68  97 132 174 225 277 330 397
#     4  11  25  43  64 100 139 179 220 273 332 399
#     4  11  22  45  68  91 135 181 218 272 330 395
#     4  12  23  40  66 100 134 177 219 273 334 392
#     4  12  24  42  71 101 132 175 225 278 336 394
#     4  11  24  43  69  98 136 176 221 275 333 394
#     4  11  24  41  67  99 135 177 223 272 334 396
#
# _framework density 25.124842999999998
#
# number of rings (size 3 to 8) (size 9 to 14) (size 15 to 20)
#    0.000    0.857    4.286    2.143    2.000    3.429 
#    0.000    3.571    0.000    0.000    0.000    0.000 
#    0.000    0.000    0.000    0.000    0.000    0.000 
#
# Total GULP energy -78271.461146 kJ/mol
# GULP energy per Si atom -5590.818653 kJ/mol
# Density = 2.506766 g / cm^3
# Si number density = 25.124843 Si / 1000 Ang^3
#
#
#
# Elastic Constant Matrix: (Units=GPa)
#
#
# Indices 1 2 3 4 5 6 
#
# 1 122.7509 49.3177 14.0936 -10.4055 -18.1732 16.7016
# 2 49.3177 132.4966 48.9401 -9.1808 -27.7417 42.2765
# 3 14.0936 48.9401 115.7796 -6.2126 -7.6502 20.5464
# 4 -10.4055 -9.1808 -6.2126 49.2860 3.2211 -13.2952
# 5 -18.1732 -27.7417 -7.6502 3.2211 42.0017 -14.1672
# 6 16.7016 42.2765 20.5464 -13.2952 -14.1672 49.7159
#
#
#
# Elastic Compliance Matrix: (Units=1/GPa)
#
#
# Indices 1 2 3 4 5 6 
#
# 1 0.009848 -0.003394 0.000381 0.001469 0.002116 0.000417
# 2 -0.003394 0.013492 -0.003667 -0.001073 0.004189 -0.007911
# 3 0.000381 -0.003667 0.010358 0.000371 -0.000886 -0.001444
# 4 0.001469 -0.001073 0.000371 0.022119 0.000424 0.006302
# 5 0.002116 0.004189 -0.000886 0.000424 0.028784 0.004409
# 6 0.000417 -0.007911 -0.001444 0.006302 0.004409 0.030240
#
#
# Mechanical properties :
#
#
# Convention : Reuss Voigt Hill
#
# Bulk Modulus (GPa) = 49.17053 66.19221 57.68137
# Shear Modulus (GPa) = 37.04244 45.44578 41.24411
#
# Velocity S-wave (km/s) = 3.84387 4.25761 4.05602
# Velocity P-wave (km/s) = 6.27004 7.11141 6.70394
#
# Compressibility (1/GPa) = 0.02033738
#
# Stress axis : x y z
#
# Youngs Moduli (GPa) = 101.54667 74.11824 96.54052
#
# Poissons Ratio (x) = 0.25157 -0.03675
# Poissons Ratio (y) = 0.34466 0.35400
# Poissons Ratio (z) = -0.03866 0.27178
#
# Static dielectric constant tensor:
#      x y z
#    x 2.029120 -0.036320 -0.030620 
#    y -0.036320 2.014710 0.000240 
#    z -0.030620 0.000240 2.020990 
# 
# From -- ./inp_files/219126.got.cif
#   From: 2010.05.17/outbox.cif.g08.bks.cpg/sg2_110_cif.got.tgz:219126.got - 2010.06.03 11:33:40.
