data_PCOD9050511
_publ_section_title
;
Structure prediction by ZEFSAII (Michael W. Deem and Ramdas Pophale) SiO2 
 PCOD9050511
Probable space group: P -1
;
_chemical_formula_sum "Si O2"
_cell_formula_units_Z 14
_cell_length_a 5.801600
_cell_length_b 11.694352
_cell_length_c 21.534727
_cell_angle_alpha 29.018240
_cell_angle_beta 119.969192
_cell_angle_gamma 111.926248
_cell_volume 606.942362
_symmetry_space_group_name_H-M "P -1"
_symmetry_group_IT_number 2
_symmetry_cell_setting 'triclinic'
loop_
_space_group_symop_operation_xyz
x,y,z
-x,-y,-z
loop_
_atom_site_type_symbol
_atom_site_label
_atom_site_fract_x
_atom_site_fract_y
_atom_site_fract_z
Si Si1 0.209886 0.352816 0.643739
Si Si2 0.851817 0.658977 0.219489
Si Si3 0.354384 0.150615 0.318343
Si Si4 0.723373 0.023687 0.847867
Si Si5 0.513428 0.369099 0.918188
Si Si6 0.030087 0.132109 0.162910
Si Si7 0.176993 0.208735 0.408984
O O1 0.177609 0.440790 0.668077
O O2 0.520277 0.273898 0.705408
O O3 0.000000 0.500000 0.500000
O O4 0.117801 0.095561 0.751956
O O5 0.559619 0.704174 0.126410
O O6 0.994526 0.894578 0.133010
O O7 0.035149 0.459040 0.298221
O O8 0.539613 0.344199 0.227818
O O9 0.123621 0.158301 0.232494
O O10 0.237328 0.220244 0.337984
O O11 0.536311 0.892940 0.471912
O O12 0.724041 0.929327 0.822316
O O13 0.653087 0.802465 0.983687
O O14 0.812547 0.326221 0.007827
O O15 0.000000 0.000000 0.500000
#
# Coordination Sequence:
#
# PCOD9050511 Si02
#       7
#     2   2   2   2   2   2   2
#     4  10  25  42  68 100 134 174 224 280 332 398
#     4  11  25  43  70 100 134 175 227 279 331 399
#     4  11  26  44  69  99 138 172 231 271 328 409
#     4  10  25  43  69  99 132 181 219 276 340 389
#     4  11  24  45  67 102 134 178 227 273 331 395
#     4  10  25  43  66 101 136 177 221 274 334 399
#     4  11  26  44  68 102 130 183 220 277 337 387
#
# _framework density 23.066441999999999
#
# number of rings (size 3 to 8) (size 9 to 14) (size 15 to 20)
#    0.000    1.429    1.429    0.857   10.000    8.000 
#    0.000    0.000    0.000    0.000    0.000    0.000 
#    0.000    0.000    0.000    0.000    0.000    0.000 
#
# Total GULP energy -78112.236502 kJ/mol
# GULP energy per Si atom -5579.445464 kJ/mol
# Density = 2.301394 g / cm^3
# Si number density = 23.066442 Si / 1000 Ang^3
#
#
#
# Elastic Constant Matrix: (Units=GPa)
#
#
# Indices 1 2 3 4 5 6 
#
# 1 52.7167 21.4406 37.6794 12.9484 9.1964 -4.9008
# 2 21.4406 88.9731 55.8124 37.6089 4.9123 0.1611
# 3 37.6794 55.8124 116.7290 25.0753 18.9588 -17.6637
# 4 12.9484 37.6089 25.0753 54.3260 8.3434 -2.4917
# 5 9.1964 4.9123 18.9588 8.3434 25.3681 -3.4722
# 6 -4.9008 0.1611 -17.6637 -2.4917 -3.4722 31.6770
#
#
#
# Elastic Compliance Matrix: (Units=1/GPa)
#
#
# Indices 1 2 3 4 5 6 
#
# 1 0.025199 -0.000815 -0.006894 -0.001773 -0.003303 -0.000443
# 2 -0.000815 0.022270 -0.009746 -0.011978 0.006397 -0.005915
# 3 -0.006894 -0.009746 0.017607 0.001906 -0.008299 0.008041
# 4 -0.001773 -0.011978 0.001906 0.027448 -0.007186 0.002221
# 5 -0.003303 0.006397 -0.008299 -0.007186 0.047877 -0.000488
# 6 -0.000443 -0.005915 0.008041 0.002221 -0.000488 0.036135
#
#
# Mechanical properties :
#
#
# Convention : Reuss Voigt Hill
#
# Bulk Modulus (GPa) = 33.15034 54.25374 43.70204
# Shear Modulus (GPa) = 22.57319 31.83997 27.20658
#
# Velocity S-wave (km/s) = 3.13168 3.71935 3.43809
# Velocity P-wave (km/s) = 5.24208 6.48201 5.89474
#
# Compressibility (1/GPa) = 0.03016561
#
# Stress axis : x y z
#
# Youngs Moduli (GPa) = 39.68448 44.90330 56.79489
#
# Poissons Ratio (x) = 0.03661 0.39154
# Poissons Ratio (y) = 0.03236 0.55351
# Poissons Ratio (z) = 0.27358 0.43762
#
# Static dielectric constant tensor:
#      x y z
#    x 2.104430 0.014850 0.197570 
#    y 0.014850 1.845810 0.018810 
#    z 0.197570 0.018810 2.118670 
# 
# From -- ./inp_files/68372.got.cif
#   From: 2010.05.17/outbox.cif.g08.bks.cpg/sg2_35_cif.got.tgz:68372.got - 2010.06.03 11:33:40.
