data_PCOD9050861
_publ_section_title
;
Structure prediction by ZEFSAII (Michael W. Deem and Ramdas Pophale) SiO2 
 PCOD9050861
Probable space group: P -1
;
_chemical_formula_sum "Si O2"
_cell_formula_units_Z 16
_cell_length_a 5.621638
_cell_length_b 10.602343
_cell_length_c 11.648376
_cell_angle_alpha 111.935285
_cell_angle_beta 99.402509
_cell_angle_gamma 81.503371
_cell_volume 632.500221
_symmetry_space_group_name_H-M "P -1"
_symmetry_group_IT_number 2
_symmetry_cell_setting 'triclinic'
loop_
_space_group_symop_operation_xyz
x,y,z
-x,-y,-z
loop_
_atom_site_type_symbol
_atom_site_label
_atom_site_fract_x
_atom_site_fract_y
_atom_site_fract_z
Si Si1 0.544532 0.657756 0.057677
Si Si2 0.571483 0.117345 0.330923
Si Si3 0.764374 0.172013 0.591379
Si Si4 0.860185 0.642943 0.289376
Si Si5 0.467277 0.465548 0.617152
Si Si6 0.268459 0.907800 0.173792
Si Si7 0.972790 0.818369 0.745998
Si Si8 0.175526 0.387906 0.156346
O O1 0.643168 0.684889 0.200755
O O2 0.309126 0.764698 0.064389
O O3 0.500000 0.500000 0.000000
O O4 0.734695 0.674745 0.978027
O O5 0.676490 0.079730 0.452056
O O6 0.293081 0.190092 0.340494
O O7 0.783066 0.195605 0.315034
O O8 0.515133 0.984374 0.208990
O O9 0.603743 0.316217 0.604395
O O10 0.762857 0.115330 0.699993
O O11 0.028048 0.223371 0.614292
O O12 0.798236 0.553415 0.363479
O O13 0.028891 0.537144 0.187641
O O14 0.500000 0.500000 0.500000
O O15 0.586682 0.574863 0.742432
O O16 0.061237 0.023827 0.160731
O O17 0.965704 0.712514 0.812115
#
# Coordination Sequence:
#
# PCOD9050861 Si02
#       8
#     2   2   2   2   2   2   2   2
#     4  12  23  48  73  98 139 184 246 298 355 422
#     4  10  25  45  70 104 149 189 237 287 359 429
#     4  11  23  41  69 103 141 188 234 297 355 421
#     4  11  25  41  72 104 137 186 238 296 357 423
#     4  11  24  41  67 104 140 180 235 291 358 428
#     4  10  25  44  70 102 142 182 247 287 356 425
#     4  10  26  44  70 105 144 189 239 288 360 423
#     4  11  25  43  68 103 141 189 235 295 360 417
#
# _framework density 25.296434999999999
#
# number of rings (size 3 to 8) (size 9 to 14) (size 15 to 20)
#    0.750    0.500    2.500    2.250    8.750    2.000 
#    0.000    0.625    0.000    0.000    0.000    0.000 
#    0.000    0.000    0.000    0.000    0.000    0.000 
#
# Total GULP energy -89399.930013 kJ/mol
# GULP energy per Si atom -5587.495626 kJ/mol
# Density = 2.523886 g / cm^3
# Si number density = 25.296435 Si / 1000 Ang^3
#
#
#
# Elastic Constant Matrix: (Units=GPa)
#
#
# Indices 1 2 3 4 5 6 
#
# 1 96.4725 25.4667 29.6110 -5.8302 -7.2352 23.0102
# 2 25.4667 84.9040 9.1147 -11.0920 -8.6780 0.1440
# 3 29.6110 9.1147 77.0638 -13.6392 -6.3645 11.6666
# 4 -5.8302 -11.0920 -13.6392 31.3365 7.4010 -17.6710
# 5 -7.2352 -8.6780 -6.3645 7.4010 39.0359 -2.7454
# 6 23.0102 0.1440 11.6666 -17.6710 -2.7454 51.5937
#
#
#
# Elastic Compliance Matrix: (Units=1/GPa)
#
#
# Indices 1 2 3 4 5 6 
#
# 1 0.014462 -0.004354 -0.004783 -0.005265 0.001433 -0.007083
# 2 -0.004354 0.013986 0.000656 0.006331 0.001490 0.004002
# 3 -0.004783 0.000656 0.015823 0.006542 0.000657 0.000829
# 4 -0.005265 0.006331 0.006542 0.046826 -0.006215 0.016558
# 5 0.001433 0.001490 0.000657 -0.006215 0.027397 -0.001463
# 6 -0.007083 0.004002 0.000829 0.016558 -0.001463 0.027936
#
#
# Mechanical properties :
#
#
# Convention : Reuss Voigt Hill
#
# Bulk Modulus (GPa) = 36.61631 42.98056 39.79844
# Shear Modulus (GPa) = 28.98664 37.34308 33.16486
#
# Velocity S-wave (km/s) = 3.38876 3.84633 3.62477
# Velocity P-wave (km/s) = 5.46057 6.06245 5.76937
#
# Compressibility (1/GPa) = 0.02731023
#
# Stress axis : x y z
#
# Youngs Moduli (GPa) = 69.14819 71.49988 63.19912
#
# Poissons Ratio (x) = 0.31128 0.30228
# Poissons Ratio (y) = 0.30105 -0.04148
# Poissons Ratio (z) = 0.33074 -0.04693
#
# Static dielectric constant tensor:
#      x y z
#    x 2.122970 -0.010190 -0.008780 
#    y -0.010190 2.021670 0.029110 
#    z -0.008780 0.029110 1.966830 
# 
# From -- ./inp_files/364781.got.cif
#   From: 2010.05.17/outbox.cif.g08.bks.cpg/sg2_183_cif.got.tgz:364781.got - 2010.06.03 11:33:40.
