data_PCOD9050628
_publ_section_title
;
Structure prediction by ZEFSAII (Michael W. Deem and Ramdas Pophale) SiO2 
 PCOD9050628
Probable space group: P -1
;
_chemical_formula_sum "Si O2"
_cell_formula_units_Z 16
_cell_length_a 7.988445
_cell_length_b 17.654915
_cell_length_c 11.620717
_cell_angle_alpha 136.494381
_cell_angle_beta 38.115994
_cell_angle_gamma 115.176778
_cell_volume 654.500457
_symmetry_space_group_name_H-M "P -1"
_symmetry_group_IT_number 2
_symmetry_cell_setting 'triclinic'
loop_
_space_group_symop_operation_xyz
x,y,z
-x,-y,-z
loop_
_atom_site_type_symbol
_atom_site_label
_atom_site_fract_x
_atom_site_fract_y
_atom_site_fract_z
Si Si1 0.993559 0.633216 0.150254
Si Si2 0.403451 0.690517 0.589928
Si Si3 0.625207 0.267743 0.089939
Si Si4 0.330380 0.664516 0.228004
Si Si5 0.191624 0.994246 0.206724
Si Si6 0.095529 0.068675 0.923032
Si Si7 0.218245 0.544802 0.362356
Si Si8 0.609314 0.155110 0.753765
O O1 0.663327 0.717843 0.418699
O O2 0.155468 0.668485 0.997328
O O3 0.127073 0.654777 0.222294
O O4 0.000000 0.500000 0.000000
O O5 0.391500 0.574629 0.407295
O O6 0.487494 0.675281 0.662592
O O7 0.108546 0.795788 0.839275
O O8 0.734246 0.130825 0.912083
O O9 0.476511 0.256094 0.035205
O O10 0.176437 0.654782 0.419569
O O11 0.413088 0.778090 0.281903
O O12 0.622702 0.557605 0.926427
O O13 0.982399 0.991417 0.212188
O O14 0.957798 0.095154 0.518921
O O15 0.500000 0.000000 0.000000
O O16 0.418154 0.071584 0.767165
O O17 0.000000 0.000000 0.000000
O O18 0.000000 0.500000 0.500000
#
# Coordination Sequence:
#
# PCOD9050628 Si02
#       8
#     2   2   2   2   2   2   2   2
#     4  11  24  45  69 103 138 188 235 294 356 419
#     4  11  26  43  70 103 142 182 241 296 350 431
#     4  10  26  43  73 102 141 185 236 291 364 419
#     4  10  25  43  68 103 136 188 234 287 361 426
#     4  11  25  45  73 106 140 190 240 294 360 434
#     4  11  26  43  70 108 140 188 242 287 365 427
#     4  11  24  44  69  97 142 185 232 293 357 423
#     4  11  24  47  71 102 147 185 236 304 359 424
#
# _framework density 24.446126
#
# number of rings (size 3 to 8) (size 9 to 14) (size 15 to 20)
#    0.000    1.250    1.250    2.250   12.250    5.500 
#    0.000    0.000    0.000    0.000    0.000    0.000 
#    0.000    0.000    0.000    0.000    0.000    0.000 
#
# Total GULP energy -89194.344756 kJ/mol
# GULP energy per Si atom -5574.646547 kJ/mol
# Density = 2.439049 g / cm^3
# Si number density = 24.446126 Si / 1000 Ang^3
#
#
#
# Elastic Constant Matrix: (Units=GPa)
#
#
# Indices 1 2 3 4 5 6 
#
# 1 60.0785 32.6082 18.7533 -20.4002 12.1209 12.8816
# 2 32.6082 170.3934 61.6694 -56.4147 3.8438 1.1305
# 3 18.7533 61.6694 97.5782 -33.3521 3.6993 3.5336
# 4 -20.4002 -56.4147 -33.3521 42.0846 1.9370 1.1380
# 5 12.1209 3.8438 3.6993 1.9370 37.3681 -4.1026
# 6 12.8816 1.1305 3.5336 1.1380 -4.1026 38.8156
#
#
#
# Elastic Compliance Matrix: (Units=1/GPa)
#
#
# Indices 1 2 3 4 5 6 
#
# 1 0.025147 -0.000549 0.000555 0.012613 -0.009884 -0.009794
# 2 -0.000549 0.011140 -0.002503 0.012761 -0.001430 -0.000440
# 3 0.000555 -0.002503 0.014906 0.008874 -0.002072 -0.001947
# 4 0.012613 0.012761 0.008874 0.054692 -0.009999 -0.008026
# 5 -0.009884 -0.001430 -0.002072 -0.009999 0.031622 0.007146
# 6 -0.009794 -0.000440 -0.001947 -0.008026 0.007146 0.030194
#
#
# Mechanical properties :
#
#
# Convention : Reuss Voigt Hill
#
# Bulk Modulus (GPa) = 21.64616 61.56798 41.60707
# Shear Modulus (GPa) = 26.58232 37.98830 32.28531
#
# Velocity S-wave (km/s) = 3.30113 3.94631 3.63805
# Velocity P-wave (km/s) = 4.83775 6.78265 5.89101
#
# Compressibility (1/GPa) = 0.04619757
#
# Stress axis : x y z
#
# Youngs Moduli (GPa) = 39.76627 89.76739 67.08772
#
# Poissons Ratio (x) = 0.04930 -0.03721
# Poissons Ratio (y) = 0.02184 0.16793
# Poissons Ratio (z) = -0.02206 0.22470
#
# Static dielectric constant tensor:
#      x y z
#    x 2.173320 -0.030270 0.170380 
#    y -0.030270 1.999310 0.049320 
#    z 0.170380 0.049320 2.276120 
# 
# From -- ./inp_files/403174.got.cif
#   From: 2010.05.17/outbox.cif.g08.bks.cpg/sg2_202_cif.got.tgz:403174.got - 2010.06.03 11:33:40.
