data_PCOD9050737
_publ_section_title
;
Structure prediction by ZEFSAII (Michael W. Deem and Ramdas Pophale) SiO2 
 PCOD9050737
Probable space group: P -1
;
_chemical_formula_sum "Si O2"
_cell_formula_units_Z 10
_cell_length_a 8.645533
_cell_length_b 6.597317
_cell_length_c 16.599382
_cell_angle_alpha 125.946720
_cell_angle_beta 29.820007
_cell_angle_gamma 117.898685
_cell_volume 379.133359
_symmetry_space_group_name_H-M "P -1"
_symmetry_group_IT_number 2
_symmetry_cell_setting 'triclinic'
loop_
_space_group_symop_operation_xyz
x,y,z
-x,-y,-z
loop_
_atom_site_type_symbol
_atom_site_label
_atom_site_fract_x
_atom_site_fract_y
_atom_site_fract_z
Si Si1 0.295514 0.660639 0.995533
Si Si2 0.700721 0.176019 0.143405
Si Si3 0.039092 0.997192 0.386151
Si Si4 0.035872 0.233050 0.290307
Si Si5 0.165266 0.504980 0.711314
O O1 0.135469 0.487626 0.090267
O O2 0.176004 0.943746 0.144578
O O3 0.219083 0.680404 0.940345
O O4 0.669316 0.606863 0.816014
O O5 0.600038 0.385139 0.305682
O O6 0.414751 0.014287 0.212968
O O7 0.000000 0.000000 0.000000
O O8 0.861573 0.767062 0.378911
O O9 0.913821 0.225104 0.434968
O O10 0.000000 0.000000 0.500000
O O11 0.830110 0.311709 0.324449
#
# Coordination Sequence:
#
# PCOD9050737 Si02
#       5
#     2   2   2   2   2
#     4   9  18  33  55  92 125 144 186 246 301 347
#     4  11  22  37  63  95 118 145 202 245 288 360
#     4  10  25  44  57  83 124 162 197 239 289 351
#     4   9  18  34  59  87 116 155 197 236 289 360
#     4  11  21  36  65  85 119 160 190 245 302 335
#
# _framework density 26.375942999999999
#
# number of rings (size 3 to 8) (size 9 to 14) (size 15 to 20)
#    0.000    2.000    2.000    2.400    2.800    1.600 
#    0.000    1.000    0.000    0.000    0.000    0.000 
#    0.000    0.000    0.000    0.000    0.000    0.000 
#
# Total GULP energy -55782.481132 kJ/mol
# GULP energy per Si atom -5578.248113 kJ/mol
# Density = 2.631591 g / cm^3
# Si number density = 26.375943 Si / 1000 Ang^3
#
#
#
# Elastic Constant Matrix: (Units=GPa)
#
#
# Indices 1 2 3 4 5 6 
#
# 1 170.5626 43.9870 58.8560 -2.6459 38.3049 -5.5481
# 2 43.9870 121.6677 51.5621 -17.0443 5.6310 18.8852
# 3 58.8560 51.5621 94.2884 -29.5736 43.0958 -11.9754
# 4 -2.6459 -17.0443 -29.5736 44.7091 -7.8093 15.5574
# 5 38.3049 5.6310 43.0958 -7.8093 62.5253 -8.6170
# 6 -5.5481 18.8852 -11.9754 15.5574 -8.6170 48.7957
#
#
#
# Elastic Compliance Matrix: (Units=1/GPa)
#
#
# Indices 1 2 3 4 5 6 
#
# 1 0.008284 -0.001956 -0.004025 -0.003865 -0.002398 0.001520
# 2 -0.001956 0.014183 -0.009113 0.002980 0.005481 -0.007930
# 3 -0.004025 -0.009113 0.028900 0.011482 -0.014660 0.003912
# 4 -0.003865 0.002980 0.011482 0.033863 -0.002977 -0.010097
# 5 -0.002398 0.005481 -0.014660 -0.002977 0.026656 -0.000336
# 6 0.001520 -0.007930 0.003912 -0.010097 -0.000336 0.027856
#
#
# Mechanical properties :
#
#
# Convention : Reuss Voigt Hill
#
# Bulk Modulus (GPa) = 47.21315 77.25879 62.23597
# Shear Modulus (GPa) = 28.25033 46.68027 37.46530
#
# Velocity S-wave (km/s) = 3.27626 4.21147 3.77295
# Velocity P-wave (km/s) = 5.67898 7.28036 6.52895
#
# Compressibility (1/GPa) = 0.02118054
#
# Stress axis : x y z
#
# Youngs Moduli (GPa) = 120.71104 70.50712 34.60149
#
# Poissons Ratio (x) = 0.13790 0.13926
# Poissons Ratio (y) = 0.23609 0.31532
# Poissons Ratio (z) = 0.48583 0.64253
#
# Static dielectric constant tensor:
#      x y z
#    x 2.096800 0.020200 -0.025870 
#    y 0.020200 2.072820 0.039210 
#    z -0.025870 0.039210 2.186250 
# 
# From -- ./inp_files/20386.got.cif
#   From: 2010.05.17/outbox.cif.g08.bks.cpg/sg2_11_cif.got.tgz:20386.got - 2010.06.03 11:33:40.
