data_PCOD9050316
_publ_section_title
;
Structure prediction by ZEFSAII (Michael W. Deem and Ramdas Pophale) SiO2 
 PCOD9050316
Probable space group: P -1
;
_chemical_formula_sum "Si O2"
_cell_formula_units_Z 16
_cell_length_a 7.506025
_cell_length_b 15.903233
_cell_length_c 10.999996
_cell_angle_alpha 34.867672
_cell_angle_beta 108.144888
_cell_angle_gamma 116.149237
_cell_volume 670.601244
_symmetry_space_group_name_H-M "P -1"
_symmetry_group_IT_number 2
_symmetry_cell_setting 'triclinic'
loop_
_space_group_symop_operation_xyz
x,y,z
-x,-y,-z
loop_
_atom_site_type_symbol
_atom_site_label
_atom_site_fract_x
_atom_site_fract_y
_atom_site_fract_z
Si Si1 0.127181 0.523969 0.620691
Si Si2 0.226605 0.785964 0.509449
Si Si3 0.470476 0.907519 0.728368
Si Si4 0.582558 0.555597 0.631505
Si Si5 0.461923 0.254129 0.805081
Si Si6 0.160112 0.790658 0.994867
Si Si7 0.610477 0.409963 0.041720
Si Si8 0.921722 0.965083 0.887390
O O1 0.150280 0.688735 0.487626
O O2 0.349721 0.522025 0.653868
O O3 0.996559 0.383390 0.843027
O O4 0.356154 0.808231 0.098390
O O5 0.255437 0.662310 0.759512
O O6 0.430835 0.931186 0.360980
O O7 0.087184 0.891169 0.368240
O O8 0.510266 0.748329 0.874620
O O9 0.500000 0.000000 0.500000
O O10 0.254678 0.839869 0.824527
O O11 0.578810 0.420657 0.695887
O O12 0.640065 0.713645 0.376842
O O13 0.694087 0.535091 0.801293
O O14 0.303411 0.152489 0.989455
O O15 0.041617 0.882223 0.932287
O O16 0.000000 0.500000 0.500000
O O17 0.500000 0.500000 0.000000
O O18 0.000000 0.000000 0.000000
#
# Coordination Sequence:
#
# PCOD9050316 Si02
#       8
#     2   2   2   2   2   2   2   2
#     4  12  24  42  74 119 155 198 265 327 386 475
#     4  11  25  45  76 110 159 200 255 331 386 466
#     4  10  24  50  76 105 154 205 263 317 386 475
#     4  11  22  42  76 110 149 202 257 320 394 450
#     4  11  24  44  75 109 152 203 258 321 391 466
#     4  12  24  47  79 106 154 211 251 325 395 459
#     4  11  22  45  80 109 147 206 259 320 385 469
#     4  12  27  45  72 115 157 200 262 325 397 473
#
# _framework density 23.859186999999999
#
# number of rings (size 3 to 8) (size 9 to 14) (size 15 to 20)
#    0.000    0.750    6.250    0.750    0.000    1.500 
#    0.000    5.000    0.000    0.000    0.000    0.000 
#    0.000    0.000    0.000    0.000    0.000    0.000 
#
# Total GULP energy -89091.788587 kJ/mol
# GULP energy per Si atom -5568.236787 kJ/mol
# Density = 2.380488 g / cm^3
# Si number density = 23.859187 Si / 1000 Ang^3
#
#
#
# Elastic Constant Matrix: (Units=GPa)
#
#
# Indices 1 2 3 4 5 6 
#
# 1 112.4313 31.1791 49.0219 -23.1511 11.6328 -24.8051
# 2 31.1791 118.5202 35.5656 -14.3041 -2.7007 -7.3757
# 3 49.0219 35.5656 180.7986 11.1132 5.9430 -22.7931
# 4 -23.1511 -14.3041 11.1132 40.7451 -6.1523 5.3987
# 5 11.6328 -2.7007 5.9430 -6.1523 40.1583 3.1936
# 6 -24.8051 -7.3757 -22.7931 5.3987 3.1936 26.5003
#
#
#
# Elastic Compliance Matrix: (Units=1/GPa)
#
#
# Indices 1 2 3 4 5 6 
#
# 1 0.014383 -0.001701 -0.002589 0.006410 -0.003703 0.009903
# 2 -0.001701 0.009853 -0.001954 0.003543 0.002107 -0.001506
# 3 -0.002589 -0.001954 0.007593 -0.005117 -0.001671 0.004808
# 4 0.006410 0.003543 -0.005117 0.032084 0.004411 -0.004483
# 5 -0.003703 0.002107 -0.001671 0.004411 0.027719 -0.008556
# 6 0.009903 -0.001506 0.004808 -0.004483 -0.008556 0.052665
#
#
# Mechanical properties :
#
#
# Convention : Reuss Voigt Hill
#
# Bulk Modulus (GPa) = 51.70491 71.47595 61.59043
# Shear Modulus (GPa) = 30.63106 41.21296 35.92201
#
# Velocity S-wave (km/s) = 3.58694 4.16064 3.88439
# Velocity P-wave (km/s) = 6.23480 7.28723 6.78146
#
# Compressibility (1/GPa) = 0.01934052
#
# Stress axis : x y z
#
# Youngs Moduli (GPa) = 69.52775 101.49016 131.70194
#
# Poissons Ratio (x) = 0.17267 0.34096
# Poissons Ratio (y) = 0.11829 0.25734
# Poissons Ratio (z) = 0.18000 0.19830
#
# Static dielectric constant tensor:
#      x y z
#    x 2.007470 0.178130 0.133330 
#    y 0.178130 2.149000 0.170180 
#    z 0.133330 0.170180 2.082210 
# 
# From -- ./inp_files/424037.got.cif
#   From: 2010.05.17/outbox.cif.g08.bks.cpg/sg2_213_cif.got.tgz:424037.got - 2010.06.03 11:33:40.
