data_PCOD9050884
_publ_section_title
;
Structure prediction by ZEFSAII (Michael W. Deem and Ramdas Pophale) SiO2 
 PCOD9050884
Probable space group: P -1
;
_chemical_formula_sum "Si O2"
_cell_formula_units_Z 16
_cell_length_a 11.727464
_cell_length_b 8.439929
_cell_length_c 10.011102
_cell_angle_alpha 49.442570
_cell_angle_beta 102.110731
_cell_angle_gamma 112.543404
_cell_volume 694.206462
_symmetry_space_group_name_H-M "P -1"
_symmetry_group_IT_number 2
_symmetry_cell_setting 'triclinic'
loop_
_space_group_symop_operation_xyz
x,y,z
-x,-y,-z
loop_
_atom_site_type_symbol
_atom_site_label
_atom_site_fract_x
_atom_site_fract_y
_atom_site_fract_z
Si Si1 0.220569 0.877284 0.731196
Si Si2 0.460853 0.479977 0.655428
Si Si3 0.956447 0.611776 0.802104
Si Si4 0.755762 0.942937 0.838171
Si Si5 0.995059 0.338275 0.709885
Si Si6 0.641548 0.014437 0.028014
Si Si7 0.713438 0.750081 0.659830
Si Si8 0.266861 0.494989 0.776978
O O1 0.247711 0.690079 0.752195
O O2 0.074795 0.834913 0.701105
O O3 0.268489 0.853328 0.905174
O O4 0.284469 0.114833 0.549798
O O5 0.500000 0.500000 0.500000
O O6 0.372571 0.234431 0.798796
O O7 0.586958 0.545673 0.735130
O O8 0.373859 0.602494 0.635042
O O9 0.954044 0.452152 0.764594
O O10 0.831450 0.669670 0.748833
O O11 0.000000 0.500000 0.000000
O O12 0.716308 0.917903 0.688957
O O13 0.900431 0.091663 0.799500
O O14 0.693211 0.060326 0.865745
O O15 0.715165 0.687776 0.016652
O O16 0.000000 0.500000 0.500000
O O17 0.136221 0.355732 0.755039
O O18 0.500000 0.000000 0.000000
#
# Coordination Sequence:
#
# PCOD9050884 Si02
#       8
#     2   2   2   2   2   2   2   2
#     4  11  24  47  68 104 134 186 231 287 345 407
#     4  11  26  46  67 102 139 188 228 289 343 411
#     4  11  25  44  71 101 137 181 224 291 348 415
#     4  11  25  43  68 103 133 183 226 289 347 405
#     4  11  24  43  71 102 133 180 230 287 348 410
#     4  11  27  43  72  99 141 185 234 282 340 417
#     4  12  26  44  70 102 142 178 232 285 350 414
#     4  10  25  44  70  98 144 177 236 281 347 413
#
# _framework density 23.047899999999998
#
# number of rings (size 3 to 8) (size 9 to 14) (size 15 to 20)
#    0.000    1.000    1.250    4.500    8.750    4.500 
#    0.000    0.000    0.000    0.000    0.000    0.000 
#    0.000    0.000    0.000    0.000    0.000    0.000 
#
# Total GULP energy -89371.243587 kJ/mol
# GULP energy per Si atom -5585.702724 kJ/mol
# Density = 2.299544 g / cm^3
# Si number density = 23.047900 Si / 1000 Ang^3
#
#
#
# Elastic Constant Matrix: (Units=GPa)
#
#
# Indices 1 2 3 4 5 6 
#
# 1 145.6251 46.3124 22.6070 27.6719 -19.8841 9.6978
# 2 46.3124 109.7292 26.5937 26.1350 -8.8085 22.8686
# 3 22.6070 26.5937 89.2759 23.7538 -11.8810 -14.0421
# 4 27.6719 26.1350 23.7538 46.5690 -1.3478 1.1505
# 5 -19.8841 -8.8085 -11.8810 -1.3478 27.8083 -2.6092
# 6 9.6978 22.8686 -14.0421 1.1505 -2.6092 24.4569
#
#
#
# Elastic Compliance Matrix: (Units=1/GPa)
#
#
# Indices 1 2 3 4 5 6 
#
# 1 0.009167 -0.002376 0.000104 -0.003991 0.005600 -0.000569
# 2 -0.002376 0.016119 -0.005962 -0.004191 -0.000982 -0.017461
# 3 0.000104 -0.005962 0.018273 -0.006248 0.007294 0.017098
# 4 -0.003991 -0.004191 -0.006248 0.029227 -0.005438 -0.000041
# 5 0.005600 -0.000982 0.007294 -0.005438 0.043234 0.007754
# 6 -0.000569 -0.017461 0.017098 -0.000041 0.007754 0.068087
#
#
# Mechanical properties :
#
#
# Convention : Reuss Voigt Hill
#
# Bulk Modulus (GPa) = 36.91114 59.51736 48.21425
# Shear Modulus (GPa) = 23.85415 36.37465 30.11440
#
# Velocity S-wave (km/s) = 3.22060 3.97699 3.61861
# Velocity P-wave (km/s) = 5.46621 6.85332 6.19869
#
# Compressibility (1/GPa) = 0.02709209
#
# Stress axis : x y z
#
# Youngs Moduli (GPa) = 109.08431 62.03690 54.72455
#
# Poissons Ratio (x) = 0.14738 -0.00569
# Poissons Ratio (y) = 0.25915 0.32628
# Poissons Ratio (z) = -0.01134 0.36988
#
# Static dielectric constant tensor:
#      x y z
#    x 1.927340 -0.079810 -0.017300 
#    y -0.079810 1.929690 -0.027840 
#    z -0.017300 -0.027840 1.964610 
# 
# From -- ./inp_files/242578.got.cif
#   From: 2010.05.17/outbox.cif.g08.bks.cpg/sg2_122_cif.got.tgz:242578.got - 2010.06.03 11:33:40.
