data_PCOD9050324
_publ_section_title
;
Structure prediction by ZEFSAII (Michael W. Deem and Ramdas Pophale) SiO2 
 PCOD9050324
Probable space group: P -1
;
_chemical_formula_sum "Si O2"
_cell_formula_units_Z 15
_cell_length_a 11.391691
_cell_length_b 5.388238
_cell_length_c 11.626494
_cell_angle_alpha 116.192950
_cell_angle_beta 110.260028
_cell_angle_gamma 78.861165
_cell_volume 600.055847
_symmetry_space_group_name_H-M "P -1"
_symmetry_group_IT_number 2
_symmetry_cell_setting 'triclinic'
loop_
_space_group_symop_operation_xyz
x,y,z
-x,-y,-z
loop_
_atom_site_type_symbol
_atom_site_label
_atom_site_fract_x
_atom_site_fract_y
_atom_site_fract_z
Si Si1 0.500000 0.500000 0.500000
Si Si2 0.949501 0.663089 0.187937
Si Si3 0.114664 0.110322 0.406433
Si Si4 0.681887 0.983134 0.737606
Si Si5 0.884893 0.814240 0.955472
Si Si6 0.521593 0.604577 0.157520
Si Si7 0.126271 0.561328 0.675574
Si Si8 0.350165 0.815605 0.701232
O O1 0.585180 0.749340 0.628308
O O2 0.379221 0.644949 0.559499
O O3 0.857393 0.479114 0.191474
O O4 0.063098 0.486302 0.130078
O O5 0.875579 0.809776 0.088273
O O6 0.023092 0.861103 0.337978
O O7 0.224704 0.013708 0.338168
O O8 0.159908 0.269121 0.565109
O O9 0.019873 0.342401 0.363911
O O10 0.763375 0.907489 0.862300
O O11 0.603213 0.268277 0.794351
O O12 0.000000 0.000000 0.000000
O O13 0.577040 0.360378 0.208329
O O14 0.606382 0.873159 0.230769
O O15 0.500000 0.500000 0.000000
O O16 0.207743 0.779177 0.682500
#
# Coordination Sequence:
#
# PCOD9050324 Si02
#       8
#     1   2   2   2   2   2   2   2
#     4  10  24  50  78 110 150 210 266 318 388 454
#     4  11  23  41  70 112 151 202 246 307 405 468
#     4  11  23  44  72 112 150 199 245 326 400 464
#     4  11  23  49  77 107 154 198 268 321 389 475
#     4  11  23  45  69 108 152 195 256 313 392 466
#     4  11  28  53  79 111 153 212 263 325 389 460
#     4  11  24  45  71 112 159 189 254 323 401 463
#     4  11  26  51  79 115 153 206 264 326 388 474
#
# _framework density 24.997671
#
# number of rings (size 3 to 8) (size 9 to 14) (size 15 to 20)
#    0.000    1.067    4.000    0.800    1.867    6.400 
#    9.600    0.000    0.000    0.000    0.000    0.000 
#    0.000    0.000    0.000    0.000    0.000    0.000 
#
# Total GULP energy -83758.328266 kJ/mol
# GULP energy per Si atom -5583.888551 kJ/mol
# Density = 2.494078 g / cm^3
# Si number density = 24.997671 Si / 1000 Ang^3
#
#
#
# Elastic Constant Matrix: (Units=GPa)
#
#
# Indices 1 2 3 4 5 6 
#
# 1 147.3041 23.3901 32.9836 -4.8768 -21.7383 -1.2073
# 2 23.3901 85.8844 17.7926 -3.0392 4.4545 3.9812
# 3 32.9836 17.7926 77.5413 25.5522 -14.3420 -7.3244
# 4 -4.8768 -3.0392 25.5522 39.8051 -3.7388 -3.3830
# 5 -21.7383 4.4545 -14.3420 -3.7388 41.4508 -2.4399
# 6 -1.2073 3.9812 -7.3244 -3.3830 -2.4399 43.3134
#
#
#
# Elastic Compliance Matrix: (Units=1/GPa)
#
#
# Indices 1 2 3 4 5 6 
#
# 1 0.008568 -0.001619 -0.003793 0.003730 0.003706 0.000246
# 2 -0.001619 0.013341 -0.004216 0.003024 -0.003584 -0.001950
# 3 -0.003793 -0.004216 0.021139 -0.013653 0.004726 0.003056
# 4 0.003730 0.003024 -0.013653 0.034597 0.000041 0.000222
# 5 0.003706 -0.003584 0.004726 0.000041 0.028259 0.002827
# 6 0.000246 -0.001950 0.003056 0.000222 0.002827 0.023967
#
#
# Mechanical properties :
#
#
# Convention : Reuss Voigt Hill
#
# Bulk Modulus (GPa) = 42.03321 51.00695 46.52008
# Shear Modulus (GPa) = 31.83515 40.68475 36.25995
#
# Velocity S-wave (km/s) = 3.57252 4.03866 3.81272
# Velocity P-wave (km/s) = 5.81967 6.49589 6.16706
#
# Compressibility (1/GPa) = 0.02379071
#
# Stress axis : x y z
#
# Youngs Moduli (GPa) = 116.71992 74.95541 47.30508
#
# Poissons Ratio (x) = 0.12136 0.17945
# Poissons Ratio (y) = 0.18898 0.19945
# Poissons Ratio (z) = 0.44277 0.31603
#
# Static dielectric constant tensor:
#      x y z
#    x 1.975450 -0.025770 0.018180 
#    y -0.025770 2.041450 -0.032750 
#    z 0.018180 -0.032750 2.022700 
# 
# From -- ./inp_files/409707.got.cif
#   From: 2010.05.17/outbox.cif.g08.bks.cpg/sg2_205_cif.got.tgz:409707.got - 2010.06.03 11:33:40.
