data_PCOD9050800
_publ_section_title
;
Structure prediction by ZEFSAII (Michael W. Deem and Ramdas Pophale) SiO2 
 PCOD9050800
Probable space group: P -1
;
_chemical_formula_sum "Si O2"
_cell_formula_units_Z 16
_cell_length_a 5.525238
_cell_length_b 17.239320
_cell_length_c 7.542280
_cell_angle_alpha 89.846591
_cell_angle_beta 106.606447
_cell_angle_gamma 61.451759
_cell_volume 596.409872
_symmetry_space_group_name_H-M "P -1"
_symmetry_group_IT_number 2
_symmetry_cell_setting 'triclinic'
loop_
_space_group_symop_operation_xyz
x,y,z
-x,-y,-z
loop_
_atom_site_type_symbol
_atom_site_label
_atom_site_fract_x
_atom_site_fract_y
_atom_site_fract_z
Si Si1 0.463512 0.395309 0.662264
Si Si2 0.989982 0.989450 0.763911
Si Si3 0.953825 0.746541 0.042611
Si Si4 0.853369 0.759648 0.619176
Si Si5 0.513596 0.075070 0.887257
Si Si6 0.796687 0.593908 0.050622
Si Si7 0.606443 0.413051 0.302895
Si Si8 0.165449 0.851452 0.486502
O O1 0.471608 0.394882 0.451762
O O2 0.491932 0.482751 0.716864
O O3 0.730900 0.303623 0.797142
O O4 0.199029 0.412222 0.735687
O O5 0.643633 0.030328 0.724764
O O6 0.996269 0.079318 0.707908
O O7 0.122560 0.919633 0.634192
O O8 0.192029 0.930320 0.968414
O O9 0.731722 0.825958 0.121285
O O10 0.909990 0.781754 0.831628
O O11 0.865046 0.670188 0.012814
O O12 0.512044 0.793440 0.523228
O O13 0.047259 0.653172 0.624535
O O14 0.001375 0.800440 0.521417
O O15 0.500000 0.000000 0.000000
O O16 0.493437 0.614930 0.896492
O O17 0.000000 0.500000 0.000000
#
# Coordination Sequence:
#
# PCOD9050800 Si02
#       8
#     2   2   2   2   2   2   2   2
#     4  11  26  47  70 109 149 197 251 309 381 459
#     4  10  25  44  68 102 143 187 247 310 382 443
#     4  12  25  45  73 105 146 198 255 305 385 459
#     4  12  25  45  74 109 148 194 253 307 379 457
#     4  11  25  44  71 102 144 196 249 315 378 453
#     4  12  24  46  76 106 150 202 245 315 381 451
#     4  11  25  47  72 110 149 195 251 310 379 456
#     4  11  26  45  73 107 142 194 246 313 376 455
#
# _framework density 26.827188
#
# number of rings (size 3 to 8) (size 9 to 14) (size 15 to 20)
#    0.000    0.750    3.750    2.625    3.500    4.500 
#    2.250    0.000    0.000    0.000    0.000    0.000 
#    0.000    0.000    0.000    0.000    0.000    0.000 
#
# Total GULP energy -89580.911552 kJ/mol
# GULP energy per Si atom -5598.806972 kJ/mol
# Density = 2.676613 g / cm^3
# Si number density = 26.827188 Si / 1000 Ang^3
#
#
#
# Elastic Constant Matrix: (Units=GPa)
#
#
# Indices 1 2 3 4 5 6 
#
# 1 104.2136 63.8328 28.1802 -7.8077 -22.8203 -14.7338
# 2 63.8328 172.0999 17.8812 -8.9311 3.5512 -41.0282
# 3 28.1802 17.8812 128.5644 -2.6556 -16.1238 -14.0913
# 4 -7.8077 -8.9311 -2.6556 34.9146 -3.8861 -0.5807
# 5 -22.8203 3.5512 -16.1238 -3.8861 46.4480 -1.8443
# 6 -14.7338 -41.0282 -14.0913 -0.5807 -1.8443 53.5544
#
#
#
# Elastic Compliance Matrix: (Units=1/GPa)
#
#
# Indices 1 2 3 4 5 6 
#
# 1 0.015270 -0.005559 -0.001585 0.002715 0.007597 -0.000184
# 2 -0.005559 0.009283 0.000164 0.000892 -0.003090 0.005529
# 3 -0.001585 0.000164 0.008634 0.000639 0.002341 0.002049
# 4 0.002715 0.000892 0.000639 0.030014 0.004080 0.002064
# 5 0.007597 -0.003090 0.002341 0.004080 0.026704 0.001303
# 6 -0.000184 0.005529 0.002049 0.002064 0.001303 0.023465
#
#
# Mechanical properties :
#
#
# Convention : Reuss Voigt Hill
#
# Bulk Modulus (GPa) = 52.00645 69.40734 60.70689
# Shear Modulus (GPa) = 37.38638 46.64901 42.01769
#
# Velocity S-wave (km/s) = 3.73715 4.17450 3.96186
# Velocity P-wave (km/s) = 6.16843 7.01167 6.60352
#
# Compressibility (1/GPa) = 0.01922839
#
# Stress axis : x y z
#
# Youngs Moduli (GPa) = 65.48737 107.71804 115.81895
#
# Poissons Ratio (x) = 0.59877 0.18360
# Poissons Ratio (y) = 0.36402 -0.01902
# Poissons Ratio (z) = 0.10381 -0.01769
#
# Static dielectric constant tensor:
#      x y z
#    x 2.275520 -0.062630 0.034490 
#    y -0.062630 2.052720 -0.002770 
#    z 0.034490 -0.002770 2.234230 
# 
# From -- ./inp_files/138957.got.cif
#   From: 2010.05.17/outbox.cif.g08.bks.cpg/sg2_70_cif.got.tgz:138957.got - 2010.06.03 11:33:40.
