data_PCOD9050025
_publ_section_title
;
Structure prediction by ZEFSAII (Michael W. Deem and Ramdas Pophale) SiO2 
 PCOD9050025
Probable space group: P -1
;
_chemical_formula_sum "Si O2"
_cell_formula_units_Z 15
_cell_length_a 12.346750
_cell_length_b 9.573568
_cell_length_c 20.738935
_cell_angle_alpha 134.809743
_cell_angle_beta 29.486371
_cell_angle_gamma 144.452355
_cell_volume 701.449980
_symmetry_space_group_name_H-M "P -1"
_symmetry_group_IT_number 2
_symmetry_cell_setting 'triclinic'
loop_
_space_group_symop_operation_xyz
x,y,z
-x,-y,-z
loop_
_atom_site_type_symbol
_atom_site_label
_atom_site_fract_x
_atom_site_fract_y
_atom_site_fract_z
Si Si1 0.983878 0.502965 0.933047
Si Si2 0.919493 0.767899 0.423343
Si Si3 0.174014 0.473737 0.208968
Si Si4 0.500000 0.000000 0.000000
Si Si5 0.215230 0.963324 0.638109
Si Si6 0.783372 0.715302 0.012725
Si Si7 0.829509 0.871490 0.700537
Si Si8 0.537811 0.491947 0.334539
O O1 0.281926 0.611758 0.788306
O O2 0.849756 0.624858 0.012274
O O3 0.801043 0.232338 0.916559
O O4 0.000000 0.500000 0.000000
O O5 0.618658 0.560374 0.534327
O O6 0.084778 0.654637 0.315564
O O7 0.000000 0.000000 0.500000
O O8 0.994227 0.877879 0.348951
O O9 0.175173 0.398543 0.109765
O O10 0.470837 0.613001 0.132461
O O11 0.967343 0.223407 0.271688
O O12 0.596139 0.856973 0.858302
O O13 0.288590 0.232715 0.689163
O O14 0.500000 0.000000 0.500000
O O15 0.030179 0.850787 0.634223
O O16 0.000000 0.000000 0.000000
O O17 0.683001 0.659515 0.655286
#
# Coordination Sequence:
#
# PCOD9050025 Si02
#       8
#     2   2   2   1   2   2   2   2
#     4  12  26  43  74 105 140 188 248 293 359 431
#     4  10  24  48  73 102 142 192 242 294 356 437
#     4  11  26  50  71 105 151 187 242 300 370 433
#     4  12  22  42  70 104 138 176 234 298 346 410
#     4  12  26  46  70 103 141 185 235 294 361 430
#     4  11  29  47  73 107 147 194 237 305 370 430
#     4  11  25  43  73 102 140 186 239 297 350 427
#     4  11  25  46  71 104 140 188 243 295 360 432
#
# _framework density 21.384276
#
# number of rings (size 3 to 8) (size 9 to 14) (size 15 to 20)
#    0.000    0.800    4.000    1.600    5.600    4.267 
#    2.400    0.000    0.000    0.000    0.000    0.000 
#    0.000    0.000    0.000    0.000    0.000    0.000 
#
# Total GULP energy -83504.382376 kJ/mol
# GULP energy per Si atom -5566.958825 kJ/mol
# Density = 2.133560 g / cm^3
# Si number density = 21.384276 Si / 1000 Ang^3
#
#
#
# Elastic Constant Matrix: (Units=GPa)
#
#
# Indices 1 2 3 4 5 6 
#
# 1 80.0157 21.0091 26.6182 -4.1297 -8.9341 -16.4895
# 2 21.0091 115.5094 11.4767 -5.4415 1.9015 -3.5985
# 3 26.6182 11.4767 133.9502 -8.3421 -10.2935 -20.4288
# 4 -4.1297 -5.4415 -8.3421 32.4750 0.8763 0.9197
# 5 -8.9341 1.9015 -10.2935 0.8763 23.7792 -6.2221
# 6 -16.4895 -3.5985 -20.4288 0.9197 -6.2221 39.5850
#
#
#
# Elastic Compliance Matrix: (Units=1/GPa)
#
#
# Indices 1 2 3 4 5 6 
#
# 1 0.015897 -0.002633 -0.001262 0.000862 0.007404 0.006875
# 2 -0.002633 0.009250 -0.000503 0.001171 -0.002223 -0.000892
# 3 -0.001262 -0.000503 0.008947 0.001795 0.004610 0.004728
# 4 0.000862 0.001171 0.001795 0.031541 0.000018 0.000662
# 5 0.007404 -0.002223 0.004610 0.000018 0.050460 0.013192
# 6 0.006875 -0.000892 0.004728 0.000662 0.013192 0.032543
#
#
# Mechanical properties :
#
#
# Convention : Reuss Voigt Hill
#
# Bulk Modulus (GPa) = 39.53159 49.74258 44.63709
# Shear Modulus (GPa) = 30.14475 37.19260 33.66868
#
# Velocity S-wave (km/s) = 3.75863 4.17496 3.97225
# Velocity P-wave (km/s) = 6.11251 6.82291 6.47746
#
# Compressibility (1/GPa) = 0.02529622
#
# Stress axis : x y z
#
# Youngs Moduli (GPa) = 62.90619 108.10597 111.77435
#
# Poissons Ratio (x) = 0.28465 0.14109
# Poissons Ratio (y) = 0.16563 0.05626
# Poissons Ratio (z) = 0.07940 0.05441
#
# Static dielectric constant tensor:
#      x y z
#    x 1.778110 0.009220 0.024940 
#    y 0.009220 1.812480 0.013580 
#    z 0.024940 0.013580 1.859610 
# 
# From -- ./inp_files/417809.got.cif
#   From: 2010.05.17/outbox.cif.g08.bks.cpg/sg2_209_cif.got.tgz:417809.got - 2010.06.03 11:33:40.
