data_PCOD9050692
_publ_section_title
;
Structure prediction by ZEFSAII (Michael W. Deem and Ramdas Pophale) SiO2 
 PCOD9050692
Probable space group: P -1
;
_chemical_formula_sum "Si O2"
_cell_formula_units_Z 16
_cell_length_a 7.693503
_cell_length_b 11.067865
_cell_length_c 19.975870
_cell_angle_alpha 27.900732
_cell_angle_beta 58.219729
_cell_angle_gamma 53.372321
_cell_volume 638.771090
_symmetry_space_group_name_H-M "P -1"
_symmetry_group_IT_number 2
_symmetry_cell_setting 'triclinic'
loop_
_space_group_symop_operation_xyz
x,y,z
-x,-y,-z
loop_
_atom_site_type_symbol
_atom_site_label
_atom_site_fract_x
_atom_site_fract_y
_atom_site_fract_z
Si Si1 0.232180 0.644841 0.308662
Si Si2 0.422392 0.005393 0.628405
Si Si3 0.916999 0.813780 0.158877
Si Si4 0.694159 0.572730 0.215058
Si Si5 0.643205 0.186185 0.127403
Si Si6 0.976273 0.021472 0.678323
Si Si7 0.994420 0.456732 0.944041
Si Si8 0.154700 0.054936 0.496192
O O1 0.320079 0.322705 0.471136
O O2 0.077358 0.700209 0.246174
O O3 0.444935 0.720221 0.209776
O O4 0.132008 0.805027 0.319614
O O5 0.650316 0.855842 0.618183
O O6 0.229239 0.883199 0.715114
O O7 0.437595 0.971701 0.721384
O O8 0.856887 0.598584 0.228564
O O9 0.686967 0.005007 0.141335
O O10 0.000000 0.000000 0.000000
O O11 0.713878 0.257469 0.357009
O O12 0.787250 0.652705 0.089060
O O13 0.500000 0.500000 0.000000
O O14 0.871523 0.242161 0.062407
O O15 0.889672 0.780365 0.787942
O O16 0.002181 0.186427 0.525893
O O17 0.000000 0.500000 0.000000
O O18 0.000000 0.000000 0.500000
#
# Coordination Sequence:
#
# PCOD9050692 Si02
#       8
#     2   2   2   2   2   2   2   2
#     4  11  26  49  79 110 150 195 249 315 374 448
#     4  11  24  48  74 108 143 196 248 300 383 441
#     4  12  26  49  74 108 151 195 250 309 371 448
#     4  10  26  46  70 111 145 195 248 303 382 436
#     4  12  28  46  72 111 151 195 251 307 371 446
#     4  11  23  44  74 104 145 193 247 304 374 446
#     4  11  22  47  69 102 149 192 247 299 367 449
#     4  10  25  43  71 107 147 190 247 313 370 450
#
# _framework density 25.048096999999999
#
# number of rings (size 3 to 8) (size 9 to 14) (size 15 to 20)
#    0.000    1.000    3.750    0.750    7.000    1.500 
#    2.250    2.500    0.000    0.000    0.000    0.000 
#    0.000    0.000    0.000    0.000    0.000    0.000 
#
# Total GULP energy -89218.349890 kJ/mol
# GULP energy per Si atom -5576.146868 kJ/mol
# Density = 2.499109 g / cm^3
# Si number density = 25.048097 Si / 1000 Ang^3
#
#
#
# Elastic Constant Matrix: (Units=GPa)
#
#
# Indices 1 2 3 4 5 6 
#
# 1 87.7937 51.2688 27.3838 22.6343 -6.5729 -2.9014
# 2 51.2688 173.4253 62.5984 47.1066 11.4774 8.0189
# 3 27.3838 62.5984 139.8264 21.8104 4.0547 -3.4752
# 4 22.6343 47.1066 21.8104 60.3463 2.8380 -2.6209
# 5 -6.5729 11.4774 4.0547 2.8380 33.3956 -0.1263
# 6 -2.9014 8.0189 -3.4752 -2.6209 -0.1263 33.2421
#
#
#
# Elastic Compliance Matrix: (Units=1/GPa)
#
#
# Indices 1 2 3 4 5 6 
#
# 1 0.014940 -0.003820 -0.000923 -0.002418 0.004578 0.001956
# 2 -0.003820 0.009652 -0.002766 -0.005092 -0.003313 -0.003365
# 3 -0.000923 -0.002766 0.008702 -0.000566 -0.000234 0.001451
# 4 -0.002418 -0.005092 -0.000566 0.021797 -0.000500 0.002675
# 5 0.004578 -0.003313 -0.000234 -0.000500 0.032059 0.001257
# 6 0.001956 -0.003365 0.001451 0.002675 0.001257 0.031432
#
#
# Mechanical properties :
#
#
# Convention : Reuss Voigt Hill
#
# Bulk Modulus (GPa) = 54.71664 75.94974 65.33319
# Shear Modulus (GPa) = 35.79301 42.71640 39.25471
#
# Velocity S-wave (km/s) = 3.78427 4.13410 3.96305
# Velocity P-wave (km/s) = 6.40206 7.29212 6.86154
#
# Compressibility (1/GPa) = 0.01827597
#
# Stress axis : x y z
#
# Youngs Moduli (GPa) = 66.93519 103.60590 114.91787
#
# Poissons Ratio (x) = 0.39578 0.10602
# Poissons Ratio (y) = 0.25570 0.31789
# Poissons Ratio (z) = 0.06175 0.28659
#
# Static dielectric constant tensor:
#      x y z
#    x 2.087040 -0.065890 0.055640 
#    y -0.065890 2.157170 0.002290 
#    z 0.055640 0.002290 2.205350 
# 
# From -- ./inp_files/589358.got.cif
#   From: 2010.05.17/outbox.cif.g08.bks.cpg/sg2_295_cif.got.tgz:589358.got - 2010.06.03 11:33:40.
