data_PCOD9050952
_publ_section_title
;
Structure prediction by ZEFSAII (Michael W. Deem and Ramdas Pophale) SiO2 
 PCOD9050952
Probable space group: P -1
;
_chemical_formula_sum "Si O2"
_cell_formula_units_Z 16
_cell_length_a 23.757170
_cell_length_b 5.282121
_cell_length_c 9.338328
_cell_angle_alpha 60.704614
_cell_angle_beta 130.473878
_cell_angle_gamma 129.222611
_cell_volume 684.374018
_symmetry_space_group_name_H-M "P -1"
_symmetry_group_IT_number 2
_symmetry_cell_setting 'triclinic'
loop_
_space_group_symop_operation_xyz
x,y,z
-x,-y,-z
loop_
_atom_site_type_symbol
_atom_site_label
_atom_site_fract_x
_atom_site_fract_y
_atom_site_fract_z
Si Si1 0.132061 0.652242 0.780464
Si Si2 0.958285 0.604800 0.029069
Si Si3 0.571875 0.891945 0.637138
Si Si4 0.345918 0.079927 0.506839
Si Si5 0.901171 0.769195 0.429920
Si Si6 0.512800 0.676027 0.123999
Si Si7 0.815523 0.536576 0.645155
Si Si8 0.745072 0.543477 0.799780
O O1 0.048476 0.483858 0.789619
O O2 0.122411 0.536991 0.631471
O O3 0.152249 0.029484 0.733566
O O4 0.192800 0.511300 0.979409
O O5 0.861483 0.405343 0.868765
O O6 0.000000 0.500000 0.000000
O O7 0.000000 0.000000 0.000000
O O8 0.576744 0.848189 0.488091
O O9 0.550623 0.594870 0.793260
O O10 0.500000 0.000000 0.500000
O O11 0.665139 0.188653 0.738851
O O12 0.392618 0.225110 0.691814
O O13 0.299866 0.244066 0.293951
O O14 0.272568 0.709586 0.502788
O O15 0.883016 0.686214 0.590243
O O16 0.000000 0.000000 0.500000
O O17 0.500000 0.500000 0.000000
O O18 0.500000 0.000000 0.000000
O O19 0.790883 0.723780 0.674850
#
# Coordination Sequence:
#
# PCOD9050952 Si02
#       8
#     2   2   2   2   2   2   2   2
#     4  11  26  43  68 103 138 180 240 290 354 436
#     4  11  23  42  69 100 133 180 238 290 340 423
#     4  11  23  47  75 104 142 199 249 298 361 437
#     4  11  25  47  74 100 143 195 245 299 367 432
#     4  12  26  47  69 102 147 188 230 296 373 431
#     4  12  28  45  71 110 147 182 238 299 364 431
#     4  10  26  42  71  99 142 187 235 295 366 427
#     4  10  25  44  74 100 140 190 250 296 355 432
#
# _framework density 23.379028999999999
#
# number of rings (size 3 to 8) (size 9 to 14) (size 15 to 20)
#    0.000    1.000    1.250    3.750   14.000    2.000 
#    0.000    0.000    0.000    0.000    0.000    0.000 
#    0.000    0.000    0.000    0.000    0.000    0.000 
#
# Total GULP energy -89082.221871 kJ/mol
# GULP energy per Si atom -5567.638867 kJ/mol
# Density = 2.332582 g / cm^3
# Si number density = 23.379029 Si / 1000 Ang^3
#
#
#
# Elastic Constant Matrix: (Units=GPa)
#
#
# Indices 1 2 3 4 5 6 
#
# 1 135.1377 32.6799 30.8035 4.1711 -3.7291 -11.3361
# 2 32.6799 68.8218 23.9534 -3.9078 -11.7077 -10.1315
# 3 30.8035 23.9534 94.1587 1.7853 6.7224 -3.2174
# 4 4.1711 -3.9078 1.7853 43.6026 -1.6841 0.4761
# 5 -3.7291 -11.7077 6.7224 -1.6841 35.0243 -8.8200
# 6 -11.3361 -10.1315 -3.2174 0.4761 -8.8200 44.3254
#
#
#
# Elastic Compliance Matrix: (Units=1/GPa)
#
#
# Indices 1 2 3 4 5 6 
#
# 1 0.008816 -0.003217 -0.002036 -0.001042 0.000581 0.001498
# 2 -0.003217 0.019996 -0.004524 0.002562 0.008619 0.005107
# 3 -0.002036 -0.004524 0.012730 -0.000893 -0.004602 -0.001537
# 4 -0.001042 0.002562 -0.000893 0.023379 0.002150 0.000431
# 5 0.000581 0.008619 -0.004602 0.002150 0.034662 0.008659
# 6 0.001498 0.005107 -0.001537 0.000431 0.008659 0.025718
#
#
# Mechanical properties :
#
#
# Convention : Reuss Voigt Hill
#
# Bulk Modulus (GPa) = 45.47976 52.55465 49.01720
# Shear Modulus (GPa) = 32.85497 38.63588 35.74543
#
# Velocity S-wave (km/s) = 3.75282 4.06961 3.91442
# Velocity P-wave (km/s) = 6.18657 6.67911 6.43756
#
# Compressibility (1/GPa) = 0.02198781
#
# Stress axis : x y z
#
# Youngs Moduli (GPa) = 113.43149 50.00992 78.55270
#
# Poissons Ratio (x) = 0.16090 0.15995
# Poissons Ratio (y) = 0.36494 0.35536
# Poissons Ratio (z) = 0.23096 0.22623
#
# Static dielectric constant tensor:
#      x y z
#    x 2.077850 -0.054850 -0.027010 
#    y -0.054850 1.950070 -0.036180 
#    z -0.027010 -0.036180 1.998870 
# 
# From -- ./inp_files/350984.got.cif
#   From: 2010.05.17/outbox.cif.g08.bks.cpg/sg2_176_cif.got.tgz:350984.got - 2010.06.03 11:33:40.
