data_PCOD9050927
_publ_section_title
;
Structure prediction by ZEFSAII (Michael W. Deem and Ramdas Pophale) SiO2 
 PCOD9050927
Probable space group: P -1
;
_chemical_formula_sum "Si O2"
_cell_formula_units_Z 13
_cell_length_a 11.796739
_cell_length_b 8.074452
_cell_length_c 21.478985
_cell_angle_alpha 49.689914
_cell_angle_beta 160.556674
_cell_angle_gamma 130.906143
_cell_volume 511.176645
_symmetry_space_group_name_H-M "P -1"
_symmetry_group_IT_number 2
_symmetry_cell_setting 'triclinic'
loop_
_space_group_symop_operation_xyz
x,y,z
-x,-y,-z
loop_
_atom_site_type_symbol
_atom_site_label
_atom_site_fract_x
_atom_site_fract_y
_atom_site_fract_z
Si Si1 0.000000 0.500000 0.000000
Si Si2 0.904818 0.124094 0.100362
Si Si3 0.778560 0.966076 0.598134
Si Si4 0.143016 0.688991 0.286302
Si Si5 0.102826 0.697055 0.651648
Si Si6 0.788841 0.833663 0.334311
Si Si7 0.113563 0.265359 0.988154
O O1 0.985022 0.612196 0.033223
O O2 0.790280 0.695809 0.812417
O O3 0.916581 0.105824 0.184936
O O4 0.596537 0.228351 0.881050
O O5 0.928480 0.886267 0.143454
O O6 0.546546 0.782308 0.481377
O O7 0.500000 0.000000 0.500000
O O8 0.956122 0.150206 0.596857
O O9 0.026514 0.499892 0.320994
O O10 0.063725 0.643621 0.184972
O O11 0.479053 0.683658 0.823823
O O12 0.865878 0.698597 0.467311
O O13 0.155149 0.921719 0.665264
O O14 0.000000 0.000000 0.000000
#
# Coordination Sequence:
#
# PCOD9050927 Si02
#       7
#     1   2   2   2   2   2   2
#     4  12  28  42  80 116 144 200 256 304 398 450
#     4  11  25  47  73 109 152 195 259 312 378 453
#     4  10  25  44  72 106 148 194 251 311 378 446
#     4  11  24  49  76 106 151 202 249 323 379 442
#     4  11  26  43  77 109 148 204 259 307 386 455
#     4  11  24  47  72 108 154 203 253 312 382 460
#     4  12  24  50  77 112 158 197 254 319 385 457
#
# _framework density 25.431522999999999
#
# number of rings (size 3 to 8) (size 9 to 14) (size 15 to 20)
#    0.000    0.923    3.077    1.846    6.462    4.308 
#    0.000    3.846    0.000    0.000    0.000    0.000 
#    0.000    0.000    0.000    0.000    0.000    0.000 
#
# Total GULP energy -72588.655349 kJ/mol
# GULP energy per Si atom -5583.742719 kJ/mol
# Density = 2.537364 g / cm^3
# Si number density = 25.431523 Si / 1000 Ang^3
#
#
#
# Elastic Constant Matrix: (Units=GPa)
#
#
# Indices 1 2 3 4 5 6 
#
# 1 187.5302 64.5410 94.8654 -10.4769 -28.0821 8.5127
# 2 64.5410 101.1741 49.4145 -19.1331 -26.7244 9.6661
# 3 94.8654 49.4145 153.2934 14.2762 -30.9625 1.5238
# 4 -10.4769 -19.1331 14.2762 39.2168 12.3914 -8.5371
# 5 -28.0821 -26.7244 -30.9625 12.3914 52.4612 0.5130
# 6 8.5127 9.6661 1.5238 -8.5371 0.5130 44.2862
#
#
#
# Elastic Compliance Matrix: (Units=1/GPa)
#
#
# Indices 1 2 3 4 5 6 
#
# 1 0.008923 -0.002771 -0.004926 0.002802 -0.000201 -0.000398
# 2 -0.002771 0.015437 -0.003304 0.006780 0.002843 -0.001449
# 3 -0.004926 -0.003304 0.012585 -0.009325 0.005317 -0.000624
# 4 0.002802 0.006780 -0.009325 0.037124 -0.009373 0.005567
# 5 -0.000201 0.002843 0.005317 -0.009373 0.025783 -0.002871
# 6 -0.000398 -0.001449 -0.000624 0.005567 -0.002871 0.024101
#
#
# Mechanical properties :
#
#
# Convention : Reuss Voigt Hill
#
# Bulk Modulus (GPa) = 66.92120 95.51551 81.21835
# Shear Modulus (GPa) = 33.12657 42.73797 37.93227
#
# Velocity S-wave (km/s) = 3.61304 4.10385 3.86624
# Velocity P-wave (km/s) = 6.61641 7.75209 7.20665
#
# Compressibility (1/GPa) = 0.01494295
#
# Stress axis : x y z
#
# Youngs Moduli (GPa) = 112.07438 64.77917 79.45691
#
# Poissons Ratio (x) = 0.17951 0.39140
# Poissons Ratio (y) = 0.31058 0.26253
# Poissons Ratio (z) = 0.55207 0.21403
#
# Static dielectric constant tensor:
#      x y z
#    x 1.766230 -0.251060 -0.116490 
#    y -0.251060 1.702540 -0.199480 
#    z -0.116490 -0.199480 2.044530 
# 
# From -- ./inp_files/593516.got.cif
#   From: 2010.05.17/outbox.cif.g08.bks.cpg/sg2_297_cif.got.tgz:593516.got - 2010.06.03 11:33:40.
