data_PCOD9050695
_publ_section_title
;
Structure prediction by ZEFSAII (Michael W. Deem and Ramdas Pophale) SiO2 
 PCOD9050695
Probable space group: P -1
;
_chemical_formula_sum "Si O2"
_cell_formula_units_Z 14
_cell_length_a 11.955657
_cell_length_b 8.077204
_cell_length_c 11.350770
_cell_angle_alpha 78.612319
_cell_angle_beta 40.943756
_cell_angle_gamma 62.178544
_cell_volume 612.109796
_symmetry_space_group_name_H-M "P -1"
_symmetry_group_IT_number 2
_symmetry_cell_setting 'triclinic'
loop_
_space_group_symop_operation_xyz
x,y,z
-x,-y,-z
loop_
_atom_site_type_symbol
_atom_site_label
_atom_site_fract_x
_atom_site_fract_y
_atom_site_fract_z
Si Si1 0.977043 0.187638 0.059323
Si Si2 0.949319 0.932886 0.713422
Si Si3 0.618064 0.584759 0.331054
Si Si4 0.089177 0.426229 0.309693
Si Si5 0.195200 0.248276 0.687958
Si Si6 0.500203 0.846425 0.930649
Si Si7 0.678440 0.023388 0.585379
O O1 0.985475 0.151831 0.195319
O O2 0.795097 0.401058 0.152426
O O3 0.151241 0.207535 0.860689
O O4 0.000000 0.000000 0.000000
O O5 0.117425 0.986067 0.531372
O O6 0.938669 0.759410 0.676016
O O7 0.724153 0.109392 0.888793
O O8 0.500000 0.500000 0.500000
O O9 0.670822 0.664313 0.395369
O O10 0.488770 0.753914 0.318828
O O11 0.320189 0.358427 0.143275
O O12 0.000000 0.500000 0.500000
O O13 0.980905 0.591293 0.274214
O O14 0.281067 0.057211 0.568460
O O15 0.587623 0.901695 0.738190
O O16 0.500000 0.000000 0.000000
#
# Coordination Sequence:
#
# PCOD9050695 Si02
#       7
#     2   2   2   2   2   2   2
#     4  12  24  44  69 104 146 175 234 292 355 432
#     4  11  24  48  70 100 144 185 234 298 351 421
#     4  12  24  42  69 107 139 182 231 286 363 427
#     4  11  23  46  69 100 138 188 243 296 338 418
#     4  12  24  43  72 102 145 183 231 295 360 417
#     4  10  25  43  71  96 136 188 241 282 353 403
#     4  12  24  46  71 105 141 188 233 292 360 423
#
# _framework density 22.871711999999999
#
# number of rings (size 3 to 8) (size 9 to 14) (size 15 to 20)
#    0.000    0.571    5.714    1.714    4.000    3.429 
#    2.571    0.714    0.000    0.000    0.000    0.000 
#    0.000    0.000    0.000    0.000    0.000    0.000 
#
# Total GULP energy -78074.714693 kJ/mol
# GULP energy per Si atom -5576.765335 kJ/mol
# Density = 2.281966 g / cm^3
# Si number density = 22.871712 Si / 1000 Ang^3
#
#
#
# Elastic Constant Matrix: (Units=GPa)
#
#
# Indices 1 2 3 4 5 6 
#
# 1 84.1964 41.6215 36.0350 9.4571 -21.4131 6.2598
# 2 41.6215 71.4536 8.3620 23.5117 -11.8100 -2.4046
# 3 36.0350 8.3620 73.0923 24.8840 -4.7195 6.8659
# 4 9.4571 23.5117 24.8840 36.8833 -13.9259 3.2694
# 5 -21.4131 -11.8100 -4.7195 -13.9259 41.0871 6.2084
# 6 6.2598 -2.4046 6.8659 3.2694 6.2084 46.2371
#
#
#
# Elastic Compliance Matrix: (Units=1/GPa)
#
#
# Indices 1 2 3 4 5 6 
#
# 1 0.038290 -0.026959 -0.024894 0.033119 0.021805 -0.008159
# 2 -0.026959 0.037145 0.019756 -0.036183 -0.014447 0.007146
# 3 -0.024894 0.019756 0.034513 -0.035930 -0.016110 0.003977
# 4 0.033119 -0.036183 -0.035930 0.078581 0.030991 -0.010748
# 5 0.021805 -0.014447 -0.016110 0.030991 0.041576 -0.009085
# 6 -0.008159 0.007146 0.003977 -0.010748 -0.009085 0.024493
#
#
# Mechanical properties :
#
#
# Convention : Reuss Voigt Hill
#
# Bulk Modulus (GPa) = 21.85612 44.53103 33.19357
# Shear Modulus (GPa) = 14.96806 34.35642 24.66224
#
# Velocity S-wave (km/s) = 2.56097 3.87994 3.28729
# Velocity P-wave (km/s) = 4.28036 6.29159 5.38078
#
# Compressibility (1/GPa) = 0.04575377
#
# Stress axis : x y z
#
# Youngs Moduli (GPa) = 26.11625 26.92130 28.97477
#
# Poissons Ratio (x) = 0.72577 0.72130
# Poissons Ratio (y) = 0.70407 -0.57242
# Poissons Ratio (z) = 0.65014 -0.53185
#
# Static dielectric constant tensor:
#      x y z
#    x 1.487890 -0.055020 0.048270 
#    y -0.055020 1.764680 -0.026780 
#    z 0.048270 -0.026780 1.877270 
# 
# From -- ./inp_files/277351.got.cif
#   From: 2010.05.17/outbox.cif.g08.bks.cpg/sg2_139_cif.got.tgz:277351.got - 2010.06.03 11:33:40.
