data_PCOD9050441
_publ_section_title
;
Structure prediction by ZEFSAII (Michael W. Deem and Ramdas Pophale) SiO2 
 PCOD9050441
Probable space group: P -1
;
_chemical_formula_sum "Si O2"
_cell_formula_units_Z 11
_cell_length_a 4.653252
_cell_length_b 9.793013
_cell_length_c 9.924958
_cell_angle_alpha 76.624811
_cell_angle_beta 84.273414
_cell_angle_gamma 74.456378
_cell_volume 423.569326
_symmetry_space_group_name_H-M "P -1"
_symmetry_group_IT_number 2
_symmetry_cell_setting 'triclinic'
loop_
_space_group_symop_operation_xyz
x,y,z
-x,-y,-z
loop_
_atom_site_type_symbol
_atom_site_label
_atom_site_fract_x
_atom_site_fract_y
_atom_site_fract_z
Si Si1 0.341848 0.816885 0.761008
Si Si2 0.896472 0.450683 0.273150
Si Si3 0.000000 0.500000 0.500000
Si Si4 0.212336 0.004026 0.361978
Si Si5 0.560050 0.636162 0.044400
Si Si6 0.612414 0.308689 0.664484
O O1 0.220142 0.685008 0.733423
O O2 0.572294 0.889182 0.656662
O O3 0.510677 0.757966 0.905937
O O4 0.029954 0.939029 0.758867
O O5 0.870109 0.559550 0.124623
O O6 0.692636 0.560128 0.374149
O O7 0.179656 0.426821 0.358728
O O8 0.121079 0.650693 0.433708
O O9 0.408589 0.845661 0.350798
O O10 0.000000 0.000000 0.500000
O O11 0.364881 0.691179 0.174212
O O12 0.500000 0.500000 0.000000
#
# Coordination Sequence:
#
# PCOD9050441 Si02
#       6
#     2   2   1   2   2   2
#     4  11  25  48  73 100 146 187 228 293 358 410
#     4   9  23  43  68 103 131 186 237 289 336 419
#     4  12  22  38  74  96 138 178 244 282 354 394
#     4  12  28  44  69 105 149 183 231 287 359 426
#     4   8  20  44  68 102 136 177 245 286 343 413
#     4  10  25  41  68 103 137 185 235 291 342 423
#
# _framework density 25.969774999999998
#
# number of rings (size 3 to 8) (size 9 to 14) (size 15 to 20)
#    1.091    0.727    0.000    2.182    7.636    2.909 
#    0.000    4.545    0.000    0.000    0.000    0.000 
#    0.000    0.000    0.000    0.000    0.000    0.000 
#
# Total GULP energy -61288.476151 kJ/mol
# GULP energy per Si atom -5571.679650 kJ/mol
# Density = 2.591067 g / cm^3
# Si number density = 25.969775 Si / 1000 Ang^3
#
#
#
# Elastic Constant Matrix: (Units=GPa)
#
#
# Indices 1 2 3 4 5 6 
#
# 1 106.2942 31.9360 26.8802 -12.7242 12.5147 0.5820
# 2 31.9360 147.7670 47.9818 -7.1303 4.2695 -3.3326
# 3 26.8802 47.9818 186.8699 1.1648 22.8735 13.9333
# 4 -12.7242 -7.1303 1.1648 38.1653 7.8600 -3.6995
# 5 12.5147 4.2695 22.8735 7.8600 25.2573 15.4672
# 6 0.5820 -3.3326 13.9333 -3.6995 15.4672 29.7952
#
#
#
# Elastic Compliance Matrix: (Units=1/GPa)
#
#
# Indices 1 2 3 4 5 6 
#
# 1 0.012143 -0.001675 -0.000447 0.006743 -0.011447 0.006564
# 2 -0.001675 0.007873 -0.001886 0.001310 -0.000586 0.002262
# 3 -0.000447 -0.001886 0.006572 0.000309 -0.005168 -0.000554
# 4 0.006743 0.001310 0.000309 0.035712 -0.025790 0.017693
# 5 -0.011447 -0.000586 -0.005168 -0.025790 0.085697 -0.045114
# 6 0.006564 0.002262 -0.000554 0.017693 -0.045114 0.059563
#
#
# Mechanical properties :
#
#
# Convention : Reuss Voigt Hill
#
# Bulk Modulus (GPa) = 53.84336 72.72523 63.28429
# Shear Modulus (GPa) = 22.54637 40.91911 31.73274
#
# Velocity S-wave (km/s) = 2.94968 3.97374 3.49938
# Velocity P-wave (km/s) = 5.69025 7.00848 6.38348
#
# Compressibility (1/GPa) = 0.01857239
#
# Stress axis : x y z
#
# Youngs Moduli (GPa) = 82.35121 127.01825 152.16656
#
# Poissons Ratio (x) = 0.21277 0.06800
# Poissons Ratio (y) = 0.13795 0.28693
# Poissons Ratio (z) = 0.03680 0.23951
#
# Static dielectric constant tensor:
#      x y z
#    x 2.139910 -0.087240 0.066520 
#    y -0.087240 2.067600 -0.027590 
#    z 0.066520 -0.027590 2.179010 
# 
# From -- ./inp_files/359407.got.cif
#   From: 2010.05.17/outbox.cif.g08.bks.cpg/sg2_180_cif.got.tgz:359407.got - 2010.06.03 11:33:40.
