data_PCOD9050830
_publ_section_title
;
Structure prediction by ZEFSAII (Michael W. Deem and Ramdas Pophale) SiO2 
 PCOD9050830
Probable space group: P -1
;
_chemical_formula_sum "Si O2"
_cell_formula_units_Z 12
_cell_length_a 7.106993
_cell_length_b 17.339867
_cell_length_c 7.671060
_cell_angle_alpha 143.500841
_cell_angle_beta 90.939152
_cell_angle_gamma 101.314773
_cell_volume 526.229120
_symmetry_space_group_name_H-M "P -1"
_symmetry_group_IT_number 2
_symmetry_cell_setting 'triclinic'
loop_
_space_group_symop_operation_xyz
x,y,z
-x,-y,-z
loop_
_atom_site_type_symbol
_atom_site_label
_atom_site_fract_x
_atom_site_fract_y
_atom_site_fract_z
Si Si1 0.590845 0.496677 0.808436
Si Si2 0.977146 0.355152 0.830150
Si Si3 0.562859 0.792290 0.838558
Si Si4 0.991769 0.133802 0.139532
Si Si5 0.586070 0.992001 0.683097
Si Si6 0.416521 0.699979 0.056357
O O1 0.579234 0.339980 0.507731
O O2 0.500000 0.500000 0.000000
O O3 0.449753 0.554002 0.795612
O O4 0.811909 0.608238 0.000407
O O5 0.957578 0.239722 0.472705
O O6 0.799909 0.317619 0.900425
O O7 0.000000 0.500000 0.000000
O O8 0.789831 0.800739 0.828301
O O9 0.543399 0.941127 0.077317
O O10 0.475212 0.749559 0.952016
O O11 0.814468 0.083898 0.902008
O O12 0.000000 0.000000 0.000000
O O13 0.500000 0.000000 0.500000
O O14 0.557290 0.830678 0.412312
#
# Coordination Sequence:
#
# PCOD9050830 Si02
#       6
#     2   2   2   2   2   2
#     4  12  23  42  69  98 136 176 230 285 337 404
#     4  12  24  40  66  99 133 175 227 282 338 404
#     4  11  25  45  68 100 139 181 227 282 346 411
#     4  12  25  42  72 104 135 183 233 282 343 408
#     4  10  25  44  68  99 142 179 229 283 345 407
#     4  11  25  43  65  98 136 179 225 283 341 403
#
# _framework density 22.803756
#
# number of rings (size 3 to 8) (size 9 to 14) (size 15 to 20)
#    0.000    0.667    3.333    3.500    0.000    7.333 
#    0.000    0.000    0.000    0.000    0.000    0.000 
#    0.000    0.000    0.000    0.000    0.000    0.000 
#
# Total GULP energy -66965.562686 kJ/mol
# GULP energy per Si atom -5580.463557 kJ/mol
# Density = 2.275185 g / cm^3
# Si number density = 22.803756 Si / 1000 Ang^3
#
#
#
# Elastic Constant Matrix: (Units=GPa)
#
#
# Indices 1 2 3 4 5 6 
#
# 1 132.1426 37.6108 41.1870 -10.8582 11.0154 31.1591
# 2 37.6108 97.5270 22.9393 -5.9210 -10.0859 24.9718
# 3 41.1870 22.9393 150.2639 0.5763 -13.7361 6.8920
# 4 -10.8582 -5.9210 0.5763 25.3545 0.4599 -7.6854
# 5 11.0154 -10.0859 -13.7361 0.4599 51.1862 10.1042
# 6 31.1591 24.9718 6.8920 -7.6854 10.1042 48.5559
#
#
#
# Elastic Compliance Matrix: (Units=1/GPa)
#
#
# Indices 1 2 3 4 5 6 
#
# 1 0.010492 -0.002503 -0.002559 0.002775 -0.002655 -0.004090
# 2 -0.002503 0.013363 -0.000698 0.000168 0.004169 -0.006008
# 3 -0.002559 -0.000698 0.007685 -0.001425 0.002454 0.000174
# 4 0.002775 0.000168 -0.001425 0.042429 -0.002425 0.005555
# 5 -0.002655 0.004169 0.002454 -0.002425 0.022777 -0.005912
# 6 -0.004090 -0.006008 0.000174 0.005555 -0.005912 0.028394
#
#
# Mechanical properties :
#
#
# Convention : Reuss Voigt Hill
#
# Bulk Modulus (GPa) = 49.95318 64.82308 57.38813
# Shear Modulus (GPa) = 34.88409 43.56573 39.22491
#
# Velocity S-wave (km/s) = 3.91545 4.37563 4.15192
# Velocity P-wave (km/s) = 6.51108 7.34958 6.94300
#
# Compressibility (1/GPa) = 0.02001875
#
# Stress axis : x y z
#
# Youngs Moduli (GPa) = 95.31496 74.83568 130.12670
#
# Poissons Ratio (x) = 0.18730 0.33304
# Poissons Ratio (y) = 0.23855 0.09082
# Poissons Ratio (z) = 0.24395 0.05223
#
# Static dielectric constant tensor:
#      x y z
#    x 2.115860 -0.202020 -0.272890 
#    y -0.202020 1.994890 0.203250 
#    z -0.272890 0.203250 2.290200 
# 
# From -- ./inp_files/100959.got.cif
#   From: 2010.05.17/outbox.cif.g08.bks.cpg/sg2_51_cif.got.tgz:100959.got - 2010.06.03 11:33:40.
