data_PCOD9050216
_publ_section_title
;
Structure prediction by ZEFSAII (Michael W. Deem and Ramdas Pophale) SiO2 
 PCOD9050216
Probable space group: P -1
;
_chemical_formula_sum "Si O2"
_cell_formula_units_Z 12
_cell_length_a 9.136659
_cell_length_b 6.551157
_cell_length_c 11.843943
_cell_angle_alpha 101.453443
_cell_angle_beta 37.433325
_cell_angle_gamma 101.044974
_cell_volume 421.647406
_symmetry_space_group_name_H-M "P -1"
_symmetry_group_IT_number 2
_symmetry_cell_setting 'triclinic'
loop_
_space_group_symop_operation_xyz
x,y,z
-x,-y,-z
loop_
_atom_site_type_symbol
_atom_site_label
_atom_site_fract_x
_atom_site_fract_y
_atom_site_fract_z
Si Si1 0.897424 0.729393 0.023059
Si Si2 0.566002 0.420509 0.829554
Si Si3 0.535020 0.036127 0.188293
Si Si4 0.233402 0.404602 0.474481
Si Si5 0.063704 0.807643 0.181214
Si Si6 0.268257 0.834377 0.616712
O O1 0.010495 0.336443 0.683599
O O2 0.127293 0.733580 0.800599
O O3 0.951275 0.713648 0.120871
O O4 0.240454 0.057994 0.893029
O O5 0.766784 0.561187 0.656354
O O6 0.500000 0.500000 0.000000
O O7 0.621716 0.175656 0.764276
O O8 0.314708 0.428100 0.912404
O O9 0.659590 0.131437 0.010335
O O10 0.404020 0.209814 0.355824
O O11 0.332544 0.630342 0.484866
O O12 0.064088 0.972425 0.701290
O O13 0.500000 0.000000 0.500000
#
# Coordination Sequence:
#
# PCOD9050216 Si02
#       6
#     2   2   2   2   2   2
#     4   9  23  46  65  97 146 179 213 277 342 402
#     4  10  24  49  72  92 135 186 230 281 336 394
#     4   9  23  46  68 103 138 179 224 279 341 407
#     4  12  26  40  75 105 130 183 230 277 342 405
#     4  11  24  43  67 105 144 173 220 279 345 419
#     4  11  24  42  64 103 146 177 216 276 348 411
#
# _framework density 28.459800000000001
#
# number of rings (size 3 to 8) (size 9 to 14) (size 15 to 20)
#    1.000    0.667    0.000    4.000    9.333    4.000 
#    0.000    2.500    0.000    0.000    0.000    0.000 
#    0.000    0.000    0.000    0.000    0.000    0.000 
#
# Total GULP energy -67203.021914 kJ/mol
# GULP energy per Si atom -5600.251826 kJ/mol
# Density = 2.839502 g / cm^3
# Si number density = 28.459800 Si / 1000 Ang^3
#
#
#
# Elastic Constant Matrix: (Units=GPa)
#
#
# Indices 1 2 3 4 5 6 
#
# 1 83.0135 41.9356 58.3527 1.2043 11.8420 6.6290
# 2 41.9356 174.3323 71.0377 5.9946 12.5744 -16.3467
# 3 58.3527 71.0377 248.5239 -24.0112 16.4373 -10.3516
# 4 1.2043 5.9946 -24.0112 80.3910 -15.9324 5.8394
# 5 11.8420 12.5744 16.4373 -15.9324 54.9326 -3.8686
# 6 6.6290 -16.3467 -10.3516 5.8394 -3.8686 36.0856
#
#
#
# Elastic Compliance Matrix: (Units=1/GPa)
#
#
# Indices 1 2 3 4 5 6 
#
# 1 0.016635 -0.002970 -0.003216 -0.001119 -0.002651 -0.005427
# 2 -0.002970 0.007450 -0.001357 -0.001339 -0.000789 0.003663
# 3 -0.003216 -0.001357 0.005381 0.001659 -0.000038 0.001247
# 4 -0.001119 -0.001339 0.001659 0.013967 0.003979 -0.001759
# 5 -0.002651 -0.000789 -0.000038 0.003979 0.020237 0.001644
# 6 -0.005427 0.003663 0.001247 -0.001759 0.001644 0.031187
#
#
# Mechanical properties :
#
#
# Convention : Reuss Voigt Hill
#
# Bulk Modulus (GPa) = 69.53701 94.28019 81.90860
# Shear Modulus (GPa) = 43.57808 56.58475 50.08142
#
# Velocity S-wave (km/s) = 3.91732 4.46380 4.19946
# Velocity P-wave (km/s) = 6.70425 7.73090 7.23580
#
# Compressibility (1/GPa) = 0.01438083
#
# Stress axis : x y z
#
# Youngs Moduli (GPa) = 60.11471 134.22893 185.83098
#
# Poissons Ratio (x) = 0.39871 0.59757
# Poissons Ratio (y) = 0.17856 0.25210
# Poissons Ratio (z) = 0.19331 0.18209
#
# Static dielectric constant tensor:
#      x y z
#    x 2.375460 -0.023860 0.036040 
#    y -0.023860 2.320110 0.018360 
#    z 0.036040 0.018360 2.178750 
# 
# From -- ./inp_files/413085.got.cif
#   From: 2010.05.17/outbox.cif.g08.bks.cpg/sg2_207_cif.got.tgz:413085.got - 2010.06.03 11:33:40.
