data_PCOD9050248
_publ_section_title
;
Structure prediction by ZEFSAII (Michael W. Deem and Ramdas Pophale) SiO2 
 PCOD9050248
Probable space group: P -1
;
_chemical_formula_sum "Si O2"
_cell_formula_units_Z 14
_cell_length_a 4.992642
_cell_length_b 19.200768
_cell_length_c 10.146368
_cell_angle_alpha 35.637986
_cell_angle_beta 61.064729
_cell_angle_gamma 65.795775
_cell_volume 495.714718
_symmetry_space_group_name_H-M "P -1"
_symmetry_group_IT_number 2
_symmetry_cell_setting 'triclinic'
loop_
_space_group_symop_operation_xyz
x,y,z
-x,-y,-z
loop_
_atom_site_type_symbol
_atom_site_label
_atom_site_fract_x
_atom_site_fract_y
_atom_site_fract_z
Si Si1 0.368972 0.242333 0.216773
Si Si2 0.924672 0.078103 0.266066
Si Si3 0.366650 0.496128 0.889484
Si Si4 0.251806 0.219366 0.584833
Si Si5 0.793526 0.080786 0.782560
Si Si6 0.191779 0.589365 0.509344
Si Si7 0.783151 0.683628 0.122160
O O1 0.256849 0.227297 0.413453
O O2 0.586764 0.134862 0.281298
O O3 0.519058 0.370769 0.994382
O O4 0.127083 0.272041 0.114168
O O5 0.992395 0.988670 0.267332
O O6 0.117835 0.198356 0.005397
O O7 0.000000 0.000000 0.500000
O O8 0.355942 0.570914 0.640318
O O9 0.500000 0.500000 0.000000
O O10 0.000000 0.500000 0.000000
O O11 0.594812 0.189545 0.594590
O O12 0.978245 0.124125 0.800239
O O13 0.121264 0.338423 0.499933
O O14 0.500000 0.000000 0.000000
O O15 0.416250 0.670563 0.246824
O O16 0.134307 0.457826 0.666694
#
# Coordination Sequence:
#
# PCOD9050248 Si02
#       7
#     2   2   2   2   2   2   2
#     4  11  26  42  72 106 144 196 250 304 379 439
#     4  12  26  46  74 105 149 199 255 313 370 457
#     4  11  25  44  74 108 149 195 246 303 370 453
#     4  12  26  47  77 108 146 201 252 316 377 447
#     4  12  29  48  74 107 149 201 259 312 377 446
#     4  10  24  49  76 111 154 196 252 316 384 460
#     4  10  25  49  72 111 152 199 249 314 391 445
#
# _framework density 28.242052000000001
#
# number of rings (size 3 to 8) (size 9 to 14) (size 15 to 20)
#    0.000    0.857    2.857    2.143   10.000    1.143 
#    5.143    2.143    0.000    0.000    0.000    0.000 
#    0.000    0.000    0.000    0.000    0.000    0.000 
#
# Total GULP energy -78282.092473 kJ/mol
# GULP energy per Si atom -5591.578034 kJ/mol
# Density = 2.817777 g / cm^3
# Si number density = 28.242052 Si / 1000 Ang^3
#
#
#
# Elastic Constant Matrix: (Units=GPa)
#
#
# Indices 1 2 3 4 5 6 
#
# 1 156.6993 39.6983 31.6648 -21.2273 12.7441 -6.1239
# 2 39.6983 185.5496 38.0443 -40.2969 13.7386 -22.2144
# 3 31.6648 38.0443 117.0174 -10.9216 4.3816 -0.4569
# 4 -21.2273 -40.2969 -10.9216 65.5775 5.5342 -0.0868
# 5 12.7441 13.7386 4.3816 5.5342 53.3856 -1.7322
# 6 -6.1239 -22.2144 -0.4569 -0.0868 -1.7322 47.3086
#
#
#
# Elastic Compliance Matrix: (Units=1/GPa)
#
#
# Indices 1 2 3 4 5 6 
#
# 1 0.007255 -0.000658 -0.001516 0.001828 -0.001609 0.000560
# 2 -0.000658 0.007323 -0.001730 0.004164 -0.001911 0.003274
# 3 -0.001516 -0.001730 0.009518 0.000031 -0.000007 -0.000917
# 4 0.001828 0.004164 0.000031 0.018693 -0.003380 0.002103
# 5 -0.001609 -0.001911 -0.000007 -0.003380 0.019946 -0.000382
# 6 0.000560 0.003274 -0.000917 0.002103 -0.000382 0.022729
#
#
# Mechanical properties :
#
#
# Convention : Reuss Voigt Hill
#
# Bulk Modulus (GPa) = 61.39545 75.34233 68.36889
# Shear Modulus (GPa) = 50.65802 56.57828 53.61815
#
# Velocity S-wave (km/s) = 4.23981 4.48072 4.36193
# Velocity P-wave (km/s) = 6.76419 7.31467 7.04481
#
# Compressibility (1/GPa) = 0.01628785
#
# Stress axis : x y z
#
# Youngs Moduli (GPa) = 137.83231 136.56163 105.06494
#
# Poissons Ratio (x) = 0.08988 0.15930
# Poissons Ratio (y) = 0.09071 0.18172
# Poissons Ratio (z) = 0.20898 0.23620
#
# Static dielectric constant tensor:
#      x y z
#    x 2.363900 -0.009610 -0.122100 
#    y -0.009610 2.181040 -0.006770 
#    z -0.122100 -0.006770 2.571810 
# 
# From -- ./inp_files/370225.got.cif
#   From: 2010.05.17/outbox.cif.g08.bks.cpg/sg2_186_cif.got.tgz:370225.got - 2010.06.03 11:33:40.
