data_PCOD9050484
_publ_section_title
;
Structure prediction by ZEFSAII (Michael W. Deem and Ramdas Pophale) SiO2 
 PCOD9050484
Probable space group: P -1
;
_chemical_formula_sum "Si O2"
_cell_formula_units_Z 14
_cell_length_a 8.696367
_cell_length_b 12.281211
_cell_length_c 13.686736
_cell_angle_alpha 122.509179
_cell_angle_beta 145.092910
_cell_angle_gamma 78.209834
_cell_volume 614.972788
_symmetry_space_group_name_H-M "P -1"
_symmetry_group_IT_number 2
_symmetry_cell_setting 'triclinic'
loop_
_space_group_symop_operation_xyz
x,y,z
-x,-y,-z
loop_
_atom_site_type_symbol
_atom_site_label
_atom_site_fract_x
_atom_site_fract_y
_atom_site_fract_z
Si Si1 0.291949 0.352359 0.383952
Si Si2 0.337241 0.723200 0.579760
Si Si3 0.651909 0.464212 0.326556
Si Si4 0.416323 0.778198 0.090801
Si Si5 0.710122 0.006064 0.523570
Si Si6 0.187031 0.329690 0.838133
Si Si7 0.270285 0.970247 0.779745
O O1 0.500000 0.500000 0.500000
O O2 0.392844 0.236842 0.339665
O O3 0.345899 0.399681 0.548096
O O4 0.942012 0.303509 0.155270
O O5 0.431163 0.660722 0.693331
O O6 0.265051 0.845779 0.646362
O O7 0.025281 0.616795 0.304570
O O8 0.000000 0.500000 0.500000
O O9 0.418690 0.414556 0.089876
O O10 0.595185 0.684669 0.138129
O O11 0.494966 0.889509 0.274498
O O12 0.583648 0.881708 0.135668
O O13 0.920560 0.171719 0.668976
O O14 0.500000 0.000000 0.500000
O O15 0.950400 0.947425 0.643402
O O16 0.500000 0.000000 0.000000
#
# Coordination Sequence:
#
# PCOD9050484 Si02
#       7
#     2   2   2   2   2   2   2
#     4  10  25  42  64  93 132 176 218 270 324 383
#     4  11  23  44  66  97 132 170 227 271 326 394
#     4  11  24  45  67  93 132 176 222 271 328 385
#     4  11  21  44  68  91 138 174 209 273 340 388
#     4  11  24  40  64 101 135 168 212 277 338 387
#     4  11  22  45  69  95 132 175 219 271 330 397
#     4  11  23  40  66  99 131 172 217 271 333 398
#
# _framework density 22.765232000000001
#
# number of rings (size 3 to 8) (size 9 to 14) (size 15 to 20)
#    0.000    1.143    4.286    2.571    6.000    2.857 
#    0.000    0.000    0.000    0.000    0.000    0.000 
#    0.000    0.000    0.000    0.000    0.000    0.000 
#
# Total GULP energy -78152.078169 kJ/mol
# GULP energy per Si atom -5582.291298 kJ/mol
# Density = 2.271342 g / cm^3
# Si number density = 22.765232 Si / 1000 Ang^3
#
#
#
# Elastic Constant Matrix: (Units=GPa)
#
#
# Indices 1 2 3 4 5 6 
#
# 1 168.5481 26.1295 67.5458 -2.4233 -0.5284 -41.2299
# 2 26.1295 55.4624 22.4978 -17.2068 2.5412 -18.7211
# 3 67.5458 22.4978 156.1466 -13.5065 -22.0149 -13.1677
# 4 -2.4233 -17.2068 -13.5065 29.7025 4.8821 2.1458
# 5 -0.5284 2.5412 -22.0149 4.8821 43.4320 -11.3872
# 6 -41.2299 -18.7211 -13.1677 2.1458 -11.3872 35.2813
#
#
#
# Elastic Compliance Matrix: (Units=1/GPa)
#
#
# Indices 1 2 3 4 5 6 
#
# 1 0.009919 -0.000372 -0.003280 -0.001927 0.001522 0.010778
# 2 -0.000372 0.027589 -0.001627 0.014444 -0.000800 0.012461
# 3 -0.003280 -0.001627 0.008826 0.002117 0.004249 -0.000160
# 4 -0.001927 0.014444 0.002117 0.043348 -0.004078 0.002250
# 5 0.001522 -0.000800 0.004249 -0.004078 0.028991 0.012546
# 6 0.010778 0.012461 -0.000160 0.002250 0.012546 0.051404
#
#
# Mechanical properties :
#
#
# Convention : Reuss Voigt Hill
#
# Bulk Modulus (GPa) = 27.95098 68.05591 48.00345
# Shear Modulus (GPa) = 25.96581 39.28208 32.62395
#
# Velocity S-wave (km/s) = 3.38093 4.15846 3.78969
# Velocity P-wave (km/s) = 5.24838 7.28125 6.34673
#
# Compressibility (1/GPa) = 0.03577691
#
# Stress axis : x y z
#
# Youngs Moduli (GPa) = 100.81853 36.24600 113.29712
#
# Poissons Ratio (x) = 0.01347 0.37164
# Poissons Ratio (y) = 0.03747 0.18432
# Poissons Ratio (z) = 0.33071 0.05897
#
# Static dielectric constant tensor:
#      x y z
#    x 1.854700 -0.058080 -0.012110 
#    y -0.058080 2.068390 0.045180 
#    z -0.012110 0.045180 1.839070 
# 
# From -- ./inp_files/175928.got.cif
#   From: 2010.05.17/outbox.cif.g08.bks.cpg/sg2_88_cif.got.tgz:175928.got - 2010.06.03 11:33:40.
