data_PCOD9050894
_publ_section_title
;
Structure prediction by ZEFSAII (Michael W. Deem and Ramdas Pophale) SiO2 
 PCOD9050894
Probable space group: P -1
;
_chemical_formula_sum "Si O2"
_cell_formula_units_Z 16
_cell_length_a 23.061346
_cell_length_b 7.304523
_cell_length_c 7.056896
_cell_angle_alpha 81.157096
_cell_angle_beta 32.495057
_cell_angle_gamma 80.272716
_cell_volume 629.305179
_symmetry_space_group_name_H-M "P -1"
_symmetry_group_IT_number 2
_symmetry_cell_setting 'triclinic'
loop_
_space_group_symop_operation_xyz
x,y,z
-x,-y,-z
loop_
_atom_site_type_symbol
_atom_site_label
_atom_site_fract_x
_atom_site_fract_y
_atom_site_fract_z
Si Si1 0.527288 0.902954 0.734274
Si Si2 0.053147 0.832576 0.596623
Si Si3 0.012295 0.256461 0.604061
Si Si4 0.708957 0.147095 0.241332
Si Si5 0.149976 0.597149 0.696998
Si Si6 0.414815 0.461614 0.572389
Si Si7 0.707311 0.091833 0.698554
Si Si8 0.794096 0.719724 0.669134
O O1 0.543581 0.680536 0.688783
O O2 0.637040 0.996184 0.365848
O O3 0.416591 0.949169 0.917706
O O4 0.500000 0.000000 0.000000
O O5 0.066397 0.705141 0.763820
O O6 0.985899 0.750531 0.624944
O O7 0.005718 0.042703 0.723182
O O8 0.174754 0.841526 0.175541
O O9 0.905150 0.371318 0.954368
O O10 0.118041 0.323184 0.402488
O O11 0.637710 0.342775 0.392715
O O12 0.724173 0.087319 0.426762
O O13 0.258729 0.706647 0.366788
O O14 0.172314 0.391799 0.595308
O O15 0.500000 0.500000 0.500000
O O16 0.318165 0.356837 0.948750
O O17 0.783526 0.935017 0.613451
#
# Coordination Sequence:
#
# PCOD9050894 Si02
#       8
#     2   2   2   2   2   2   2   2
#     4  10  25  44  71 105 143 186 240 294 360 437
#     4  11  23  45  73 102 139 194 233 298 360 424
#     4  11  25  44  71 104 143 191 242 292 361 430
#     4  11  24  48  72 104 147 190 237 299 361 435
#     4  12  24  46  71 102 148 188 240 298 362 420
#     4  12  26  46  76 109 145 189 241 305 367 432
#     4  11  25  45  71 104 143 188 236 296 356 433
#     4  12  26  43  73 108 141 187 242 296 354 431
#
# _framework density 25.424865
#
# number of rings (size 3 to 8) (size 9 to 14) (size 15 to 20)
#    0.000    0.750    3.750    3.000    0.000    5.500 
#    0.000    0.000    0.000    0.000    0.000    0.000 
#    0.000    0.000    0.000    0.000    0.000    0.000 
#
# Total GULP energy -89689.116205 kJ/mol
# GULP energy per Si atom -5605.569763 kJ/mol
# Density = 2.536700 g / cm^3
# Si number density = 25.424865 Si / 1000 Ang^3
#
#
#
# Elastic Constant Matrix: (Units=GPa)
#
#
# Indices 1 2 3 4 5 6 
#
# 1 117.9577 26.8663 35.1014 -2.7427 -8.3307 27.1480
# 2 26.8663 128.3478 25.8060 12.8382 -0.3240 22.6261
# 3 35.1014 25.8060 94.9112 -5.5731 -15.5010 22.6791
# 4 -2.7427 12.8382 -5.5731 39.2323 12.2319 2.5882
# 5 -8.3307 -0.3240 -15.5010 12.2319 48.0431 -7.6730
# 6 27.1480 22.6261 22.6791 2.5882 -7.6730 47.9411
#
#
#
# Elastic Compliance Matrix: (Units=1/GPa)
#
#
# Indices 1 2 3 4 5 6 
#
# 1 0.010473 -0.001029 -0.002496 0.000977 0.000067 -0.004306
# 2 -0.001029 0.009140 -0.001658 -0.003005 -0.000340 -0.002839
# 3 -0.002496 -0.001658 0.013370 0.001625 0.002856 -0.003759
# 4 0.000977 -0.003005 0.001625 0.029183 -0.007176 -0.002628
# 5 0.000067 -0.000340 0.002856 -0.007176 0.024053 0.003009
# 6 -0.004306 -0.002839 -0.003759 -0.002628 0.003009 0.027039
#
#
# Mechanical properties :
#
#
# Convention : Reuss Voigt Hill
#
# Bulk Modulus (GPa) = 44.21435 57.41824 50.81629
# Shear Modulus (GPa) = 38.11995 43.93950 41.02972
#
# Velocity S-wave (km/s) = 3.87630 4.16168 4.02153
# Velocity P-wave (km/s) = 6.12064 6.76205 6.44933
#
# Compressibility (1/GPa) = 0.02261709
#
# Stress axis : x y z
#
# Youngs Moduli (GPa) = 95.48025 109.40513 74.79184
#
# Poissons Ratio (x) = 0.11256 0.18670
# Poissons Ratio (y) = 0.09824 0.12403
# Poissons Ratio (z) = 0.23835 0.18143
#
# Static dielectric constant tensor:
#      x y z
#    x 1.990350 0.024420 0.011830 
#    y 0.024420 1.984040 0.011530 
#    z 0.011830 0.011530 2.030500 
# 
# From -- ./inp_files/350708.got.cif
#   From: 2010.05.17/outbox.cif.g08.bks.cpg/sg2_176_cif.got.tgz:350708.got - 2010.06.03 11:33:40.
