data_PCOD9050055
_publ_section_title
;
Structure prediction by ZEFSAII (Michael W. Deem and Ramdas Pophale) SiO2 
 PCOD9050055
Probable space group: P -1
;
_chemical_formula_sum "Si O2"
_cell_formula_units_Z 13
_cell_length_a 14.584023
_cell_length_b 15.116366
_cell_length_c 6.653081
_cell_angle_alpha 49.944815
_cell_angle_beta 61.691451
_cell_angle_gamma 28.841272
_cell_volume 525.412254
_symmetry_space_group_name_H-M "P -1"
_symmetry_group_IT_number 2
_symmetry_cell_setting 'triclinic'
loop_
_space_group_symop_operation_xyz
x,y,z
-x,-y,-z
loop_
_atom_site_type_symbol
_atom_site_label
_atom_site_fract_x
_atom_site_fract_y
_atom_site_fract_z
Si Si1 0.180824 0.293519 0.750591
Si Si2 0.127886 0.770044 0.952787
Si Si3 0.378720 0.508100 0.709769
Si Si4 0.500000 0.000000 0.500000
Si Si5 0.327218 0.397191 0.555245
Si Si6 0.744212 0.931356 0.650237
Si Si7 0.233750 0.895300 0.909743
O O1 0.243884 0.347566 0.730416
O O2 0.000000 0.500000 0.500000
O O3 0.358863 0.099450 0.697681
O O4 0.139922 0.232837 0.044606
O O5 0.201289 0.714502 0.732434
O O6 0.219383 0.787713 0.965183
O O7 0.216116 0.568308 0.242408
O O8 0.899549 0.985381 0.928203
O O9 0.500000 0.500000 0.500000
O O10 0.308839 0.488494 0.640302
O O11 0.542729 0.290556 0.993717
O O12 0.655695 0.918921 0.610217
O O13 0.555703 0.172149 0.591284
O O14 0.847979 0.929005 0.408140
#
# Coordination Sequence:
#
# PCOD9050055 Si02
#       7
#     2   2   2   1   2   2   2
#     4  11  28  50  72 107 147 194 250 305 366 431
#     4  11  25  48  68 111 150 185 247 297 358 453
#     4  12  24  45  76 105 147 197 232 300 376 428
#     4  10  24  48  74 108 140 192 244 304 362 438
#     4  11  24  46  74 107 143 188 248 301 362 440
#     4  11  25  47  76 105 149 193 244 305 370 431
#     4  11  25  47  72 107 151 189 242 298 367 440
#
# _framework density 24.742476
#
# number of rings (size 3 to 8) (size 9 to 14) (size 15 to 20)
#    0.000    0.923    3.077    3.231    6.462    1.231 
#    8.308    0.000    0.000    0.000    0.000    0.000 
#    0.000    0.000    0.000    0.000    0.000    0.000 
#
# Total GULP energy -72630.487917 kJ/mol
# GULP energy per Si atom -5586.960609 kJ/mol
# Density = 2.468616 g / cm^3
# Si number density = 24.742476 Si / 1000 Ang^3
#
#
#
# Elastic Constant Matrix: (Units=GPa)
#
#
# Indices 1 2 3 4 5 6 
#
# 1 46.1502 46.6113 14.5868 14.7939 13.0089 12.2223
# 2 46.6113 108.8843 38.8037 35.8525 9.5021 14.8477
# 3 14.5868 38.8037 148.2952 8.9148 -11.9142 9.8284
# 4 14.7939 35.8525 8.9148 39.2172 -2.8236 11.0333
# 5 13.0089 9.5021 -11.9142 -2.8236 25.9423 5.6772
# 6 12.2223 14.8477 9.8284 11.0333 5.6772 31.3349
#
#
#
# Elastic Compliance Matrix: (Units=1/GPa)
#
#
# Indices 1 2 3 4 5 6 
#
# 1 0.044841 -0.016224 -0.000944 -0.001256 -0.015754 -0.006210
# 2 -0.016224 0.022193 -0.003849 -0.014362 -0.003934 0.002789
# 3 -0.000944 -0.003849 0.008371 0.003237 0.006689 -0.002785
# 4 -0.001256 -0.014362 0.003237 0.042603 0.014497 -0.011348
# 5 -0.015754 -0.003934 0.006689 0.014497 0.054524 -0.009072
# 6 -0.006210 0.002789 -0.002785 -0.011348 -0.009072 0.039527
#
#
# Mechanical properties :
#
#
# Convention : Reuss Voigt Hill
#
# Bulk Modulus (GPa) = 29.96641 55.92590 42.94615
# Shear Modulus (GPa) = 18.85266 32.85406 25.85336
#
# Velocity S-wave (km/s) = 2.76335 3.64791 3.23599
# Velocity P-wave (km/s) = 4.72431 6.35572 5.59975
#
# Compressibility (1/GPa) = 0.03337070
#
# Stress axis : x y z
#
# Youngs Moduli (GPa) = 22.30106 45.05991 119.46416
#
# Poissons Ratio (x) = 0.73105 0.11279
# Poissons Ratio (y) = 0.36181 0.45980
# Poissons Ratio (z) = 0.02105 0.17343
#
# Static dielectric constant tensor:
#      x y z
#    x 1.891600 -0.000300 -0.011060 
#    y -0.000300 1.970590 -0.034120 
#    z -0.011060 -0.034120 2.005310 
# 
# From -- ./inp_files/39557.got.cif
#   From: 2010.05.17/outbox.cif.g08.bks.cpg/sg2_20_cif.got.tgz:39557.got - 2010.06.03 11:33:40.
