data_PCOD9050379
_publ_section_title
;
Structure prediction by ZEFSAII (Michael W. Deem and Ramdas Pophale) SiO2 
 PCOD9050379
Probable space group: P -1
;
_chemical_formula_sum "Si O2"
_cell_formula_units_Z 16
_cell_length_a 10.054441
_cell_length_b 11.795263
_cell_length_c 7.518219
_cell_angle_alpha 75.446348
_cell_angle_beta 96.615169
_cell_angle_gamma 135.274744
_cell_volume 604.677000
_symmetry_space_group_name_H-M "P -1"
_symmetry_group_IT_number 2
_symmetry_cell_setting 'triclinic'
loop_
_space_group_symop_operation_xyz
x,y,z
-x,-y,-z
loop_
_atom_site_type_symbol
_atom_site_label
_atom_site_fract_x
_atom_site_fract_y
_atom_site_fract_z
Si Si1 0.581840 0.191507 0.238453
Si Si2 0.873542 0.528127 0.551924
Si Si3 0.842106 0.539252 0.963238
Si Si4 0.223772 0.226725 0.126369
Si Si5 0.531056 0.647061 0.534995
Si Si6 0.211680 0.081037 0.827772
Si Si7 0.259892 0.839356 0.033617
Si Si8 0.232401 0.859971 0.418960
O O1 0.699345 0.376274 0.125203
O O2 0.368291 0.303445 0.280097
O O3 0.693502 0.173469 0.395376
O O4 0.368639 0.056769 0.338803
O O5 0.673668 0.417726 0.468223
O O6 0.735185 0.182329 0.748279
O O7 0.000000 0.500000 0.500000
O O8 0.007241 0.726396 0.461828
O O9 0.797673 0.647521 0.947549
O O10 0.830450 0.502377 0.765961
O O11 0.059958 0.659204 0.007280
O O12 0.278188 0.200161 0.958984
O O13 0.012167 0.043157 0.200005
O O14 0.764490 0.039333 0.066554
O O15 0.500000 0.500000 0.500000
O O16 0.664086 0.805385 0.364268
O O17 0.417717 0.876609 0.922829
#
# Coordination Sequence:
#
# PCOD9050379 Si02
#       8
#     2   2   2   2   2   2   2   2
#     4  11  25  47  75 112 159 214 275 342 417 499
#     4  12  28  50  78 122 169 218 277 345 422 493
#     4  11  24  50  83 112 166 211 269 353 416 498
#     4  10  24  55  83 122 161 216 283 345 424 497
#     4  12  27  51  85 121 165 224 285 344 416 508
#     4  10  26  49  82 123 165 218 275 357 415 500
#     4  11  24  46  76 111 163 208 269 344 422 493
#     4  11  27  46  71 115 157 215 270 329 425 493
#
# _framework density 26.460407
#
# number of rings (size 3 to 8) (size 9 to 14) (size 15 to 20)
#    0.000    1.000    2.500    1.875    5.250    4.500 
#    4.500    0.000    0.000    0.750    0.000    0.000 
#    0.000    0.000    0.000    0.000    0.000    0.000 
#
# Total GULP energy -89792.674621 kJ/mol
# GULP energy per Si atom -5612.042164 kJ/mol
# Density = 2.640018 g / cm^3
# Si number density = 26.460407 Si / 1000 Ang^3
#
#
#
# Elastic Constant Matrix: (Units=GPa)
#
#
# Indices 1 2 3 4 5 6 
#
# 1 100.7574 33.3259 41.0871 -7.4806 -10.1829 12.8000
# 2 33.3259 116.7624 72.0729 5.5300 9.0046 -3.5592
# 3 41.0871 72.0729 208.9840 -21.5601 -4.8247 10.3125
# 4 -7.4806 5.5300 -21.5601 62.7108 5.6100 -1.6093
# 5 -10.1829 9.0046 -4.8247 5.6100 29.5618 -0.1594
# 6 12.8000 -3.5592 10.3125 -1.6093 -0.1594 66.7905
#
#
#
# Elastic Compliance Matrix: (Units=1/GPa)
#
#
# Indices 1 2 3 4 5 6 
#
# 1 0.012307 -0.003459 -0.000896 0.000961 0.004952 -0.002370
# 2 -0.003459 0.012706 -0.004170 -0.002447 -0.005268 0.001912
# 3 -0.000896 -0.004170 0.006736 0.002407 0.001598 -0.001029
# 4 0.000961 -0.002447 0.002407 0.017259 -0.001808 -0.000275
# 5 0.004952 -0.005268 0.001598 -0.001808 0.037734 -0.001430
# 6 -0.002370 0.001912 -0.001029 -0.000275 -0.001430 0.015677
#
#
# Mechanical properties :
#
#
# Convention : Reuss Voigt Hill
#
# Bulk Modulus (GPa) = 68.03842 79.94174 73.99008
# Shear Modulus (GPa) = 40.20278 50.48046 45.34162
#
# Velocity S-wave (km/s) = 3.90212 4.37255 4.14401
# Velocity P-wave (km/s) = 6.78757 7.46791 7.13585
#
# Compressibility (1/GPa) = 0.01469758
#
# Stress axis : x y z
#
# Youngs Moduli (GPa) = 81.25304 78.70107 148.46660
#
# Poissons Ratio (x) = 0.27223 0.13307
# Poissons Ratio (y) = 0.28106 0.61916
# Poissons Ratio (z) = 0.07283 0.32821
#
# Static dielectric constant tensor:
#      x y z
#    x 2.100180 -0.013300 -0.050520 
#    y -0.013300 2.213900 -0.026820 
#    z -0.050520 -0.026820 1.987930 
# 
# From -- ./inp_files/516918.got.cif
#   From: 2010.05.17/outbox.cif.g08.bks.cpg/sg2_259_cif.got.tgz:516918.got - 2010.06.03 11:33:40.
