data_PCOD9050543
_publ_section_title
;
Structure prediction by ZEFSAII (Michael W. Deem and Ramdas Pophale) SiO2 
 PCOD9050543
Probable space group: P -1
;
_chemical_formula_sum "Si O2"
_cell_formula_units_Z 14
_cell_length_a 14.468040
_cell_length_b 8.830050
_cell_length_c 14.094986
_cell_angle_alpha 105.281049
_cell_angle_beta 160.146361
_cell_angle_gamma 75.868796
_cell_volume 589.885808
_symmetry_space_group_name_H-M "P -1"
_symmetry_group_IT_number 2
_symmetry_cell_setting 'triclinic'
loop_
_space_group_symop_operation_xyz
x,y,z
-x,-y,-z
loop_
_atom_site_type_symbol
_atom_site_label
_atom_site_fract_x
_atom_site_fract_y
_atom_site_fract_z
Si Si1 0.519575 0.101407 0.439767
Si Si2 0.472574 0.197625 0.094867
Si Si3 0.286573 0.602280 0.872849
Si Si4 0.904092 0.133452 0.356783
Si Si5 0.974524 0.666911 0.056397
Si Si6 0.974266 0.385842 0.677875
Si Si7 0.389576 0.090180 0.689692
O O1 0.770509 0.222329 0.703389
O O2 0.500000 0.000000 0.500000
O O3 0.571569 0.969449 0.388355
O O4 0.274626 0.219441 0.194423
O O5 0.597832 0.154018 0.107959
O O6 0.664814 0.336373 0.346349
O O7 0.479755 0.050894 0.146791
O O8 0.166604 0.250331 0.800112
O O9 0.459111 0.746572 0.112179
O O10 0.500000 0.500000 0.000000
O O11 0.068286 0.677447 0.601307
O O12 0.106727 0.530679 0.773464
O O13 0.075991 0.088584 0.421009
O O14 0.000000 0.000000 0.500000
O O15 0.979871 0.623203 0.166562
O O16 0.000000 0.500000 0.000000
#
# Coordination Sequence:
#
# PCOD9050543 Si02
#       7
#     2   2   2   2   2   2   2
#     4  12  28  51  82 112 151 194 258 315 380 458
#     4  11  24  46  74 103 149 203 246 301 370 455
#     4  12  27  44  71 110 155 195 259 311 369 435
#     4  10  25  42  72 103 150 200 253 300 373 440
#     4  12  27  52  79 114 150 196 247 321 393 451
#     4  12  25  46  75 106 153 195 246 308 383 439
#     4  11  26  45  74 106 148 204 254 302 376 451
#
# _framework density 23.733405999999999
#
# number of rings (size 3 to 8) (size 9 to 14) (size 15 to 20)
#    0.000    0.571    4.286    1.714   10.000    3.429 
#    0.000    0.000    0.000    0.000    0.000    0.000 
#    0.000    0.000    0.000    0.000    0.000    0.000 
#
# Total GULP energy -78092.361452 kJ/mol
# GULP energy per Si atom -5578.025818 kJ/mol
# Density = 2.367939 g / cm^3
# Si number density = 23.733406 Si / 1000 Ang^3
#
#
#
# Elastic Constant Matrix: (Units=GPa)
#
#
# Indices 1 2 3 4 5 6 
#
# 1 224.9736 102.4682 50.3010 17.6101 -15.2818 19.1054
# 2 102.4682 172.7020 59.6059 21.0219 -1.9210 11.4141
# 3 50.3010 59.6059 115.5249 15.4457 14.3629 -1.4832
# 4 17.6101 21.0219 15.4457 59.1645 4.6949 8.3478
# 5 -15.2818 -1.9210 14.3629 4.6949 33.4274 3.7590
# 6 19.1054 11.4141 -1.4832 8.3478 3.7590 55.6495
#
#
#
# Elastic Compliance Matrix: (Units=1/GPa)
#
#
# Indices 1 2 3 4 5 6 
#
# 1 0.006747 -0.003172 -0.001753 -0.000467 0.003936 -0.001909
# 2 -0.003172 0.008986 -0.003166 -0.001382 0.000697 -0.000678
# 3 -0.001753 -0.003166 0.012028 -0.001309 -0.006214 0.002188
# 4 -0.000467 -0.001382 -0.001309 0.018348 -0.002059 -0.002204
# 5 0.003936 0.000697 -0.006214 -0.002059 0.035133 -0.003724
# 6 -0.001909 -0.000678 0.002188 -0.002204 -0.003724 0.019405
#
#
# Mechanical properties :
#
#
# Convention : Reuss Voigt Hill
#
# Bulk Modulus (GPa) = 86.35028 104.21675 95.28351
# Shear Modulus (GPa) = 41.42912 49.70329 45.56620
#
# Velocity S-wave (km/s) = 4.18257 4.58124 4.38644
# Velocity P-wave (km/s) = 7.73225 8.48472 8.11721
#
# Compressibility (1/GPa) = 0.01158074
#
# Stress axis : x y z
#
# Youngs Moduli (GPa) = 148.20396 111.28946 83.13617
#
# Poissons Ratio (x) = 0.35298 0.14573
# Poissons Ratio (y) = 0.47006 0.26319
# Poissons Ratio (z) = 0.25978 0.35232
#
# Static dielectric constant tensor:
#      x y z
#    x 1.979460 0.007660 -0.275070 
#    y 0.007660 2.034670 -0.011730 
#    z -0.275070 -0.011730 2.491940 
# 
# From -- ./inp_files/527703.got.cif
#   From: 2010.05.17/outbox.cif.g08.bks.cpg/sg2_264_cif.got.tgz:527703.got - 2010.06.03 11:33:40.
