data_PCOD9050252
_publ_section_title
;
Structure prediction by ZEFSAII (Michael W. Deem and Ramdas Pophale) SiO2 
 PCOD9050252
Probable space group: P -1
;
_chemical_formula_sum "Si O2"
_cell_formula_units_Z 12
_cell_length_a 10.143821
_cell_length_b 11.786544
_cell_length_c 4.959843
_cell_angle_alpha 101.709693
_cell_angle_beta 99.234689
_cell_angle_gamma 127.151729
_cell_volume 431.299603
_symmetry_space_group_name_H-M "P -1"
_symmetry_group_IT_number 2
_symmetry_cell_setting 'triclinic'
loop_
_space_group_symop_operation_xyz
x,y,z
-x,-y,-z
loop_
_atom_site_type_symbol
_atom_site_label
_atom_site_fract_x
_atom_site_fract_y
_atom_site_fract_z
Si Si1 0.758022 0.071551 0.715259
Si Si2 0.128708 0.558518 0.820265
Si Si3 0.621577 0.193247 0.346838
Si Si4 0.631286 0.442669 0.794404
Si Si5 0.240235 0.172109 0.700135
Si Si6 0.122087 0.226849 0.188449
O O1 0.727681 0.160477 0.543285
O O2 0.583934 0.958642 0.792034
O O3 0.755009 0.954037 0.473656
O O4 0.939992 0.177574 0.995337
O O5 0.289332 0.736706 0.880739
O O6 0.000000 0.500000 0.500000
O O7 0.230183 0.497957 0.887175
O O8 0.000000 0.500000 0.000000
O O9 0.633349 0.325596 0.561397
O O10 0.436108 0.337808 0.802144
O O11 0.714927 0.592078 0.719030
O O12 0.117393 0.178164 0.465354
O O13 0.175830 0.150741 0.972829
#
# Coordination Sequence:
#
# PCOD9050252 Si02
#       6
#     2   2   2   2   2   2
#     4  10  24  49  77 108 159 199 247 310 373 463
#     4  12  25  44  73 111 149 187 241 307 378 445
#     4  10  24  50  75 118 148 199 243 314 393 441
#     4  11  26  45  80 107 153 190 252 323 368 442
#     4  11  27  48  72 108 149 203 254 301 371 439
#     4  12  26  46  75 109 147 200 256 305 366 444
#
# _framework density 27.822889
#
# number of rings (size 3 to 8) (size 9 to 14) (size 15 to 20)
#    0.000    1.000    1.667    3.000    7.000    1.333 
#    6.000    2.500    0.000    0.000    0.000    0.000 
#    0.000    0.000    0.000    0.000    0.000    0.000 
#
# Total GULP energy -67448.346749 kJ/mol
# GULP energy per Si atom -5620.695562 kJ/mol
# Density = 2.775956 g / cm^3
# Si number density = 27.822889 Si / 1000 Ang^3
#
#
#
# Elastic Constant Matrix: (Units=GPa)
#
#
# Indices 1 2 3 4 5 6 
#
# 1 125.5543 44.2036 38.4842 -3.0011 4.4210 30.2862
# 2 44.2036 142.6072 22.6591 -2.6484 -24.9330 18.0657
# 3 38.4842 22.6591 105.0922 -19.9770 -6.6754 8.2833
# 4 -3.0011 -2.6484 -19.9770 60.7841 7.4681 -5.1513
# 5 4.4210 -24.9330 -6.6754 7.4681 42.4414 0.8528
# 6 30.2862 18.0657 8.2833 -5.1513 0.8528 61.5503
#
#
#
# Elastic Compliance Matrix: (Units=1/GPa)
#
#
# Indices 1 2 3 4 5 6 
#
# 1 0.011173 -0.002966 -0.003457 -0.000668 -0.003249 -0.004173
# 2 -0.002966 0.009182 -0.000567 -0.000752 0.005772 -0.001302
# 3 -0.003457 -0.000567 0.011604 0.003518 0.001221 0.000583
# 4 -0.000668 -0.000752 0.003518 0.018052 -0.003028 0.001629
# 5 -0.003249 0.005772 0.001221 -0.003028 0.028035 -0.000902
# 6 -0.004173 -0.001302 0.000583 0.001629 -0.000902 0.018753
#
#
# Mechanical properties :
#
#
# Convention : Reuss Voigt Hill
#
# Bulk Modulus (GPa) = 55.61877 64.88306 60.25091
# Shear Modulus (GPa) = 42.81861 50.81560 46.81710
#
# Velocity S-wave (km/s) = 3.92723 4.27827 4.10650
# Velocity P-wave (km/s) = 6.37164 6.91198 6.64730
#
# Compressibility (1/GPa) = 0.01797954
#
# Stress axis : x y z
#
# Youngs Moduli (GPa) = 89.49796 108.90912 86.17825
#
# Poissons Ratio (x) = 0.32301 0.29788
# Poissons Ratio (y) = 0.26544 0.04890
# Poissons Ratio (z) = 0.30936 0.06179
#
# Static dielectric constant tensor:
#      x y z
#    x 2.156950 -0.036650 -0.046040 
#    y -0.036650 2.131920 0.098850 
#    z -0.046040 0.098850 2.180050 
# 
# From -- ./inp_files/66915.got.cif
#   From: 2010.05.17/outbox.cif.g08.bks.cpg/sg2_34_cif.got.tgz:66915.got - 2010.06.03 11:33:40.
