data_PCOD9050046
_publ_section_title
;
Structure prediction by ZEFSAII (Michael W. Deem and Ramdas Pophale) SiO2 
 PCOD9050046
Probable space group: P -1
;
_chemical_formula_sum "Si O2"
_cell_formula_units_Z 14
_cell_length_a 19.173186
_cell_length_b 11.526271
_cell_length_c 13.807474
_cell_angle_alpha 148.668185
_cell_angle_beta 157.196658
_cell_angle_gamma 31.897668
_cell_volume 585.541478
_symmetry_space_group_name_H-M "P -1"
_symmetry_group_IT_number 2
_symmetry_cell_setting 'triclinic'
loop_
_space_group_symop_operation_xyz
x,y,z
-x,-y,-z
loop_
_atom_site_type_symbol
_atom_site_label
_atom_site_fract_x
_atom_site_fract_y
_atom_site_fract_z
Si Si1 0.341442 0.364150 0.522016
Si Si2 0.313850 0.167805 0.827191
Si Si3 0.806161 0.706891 0.911648
Si Si4 0.164821 0.020667 0.353157
Si Si5 0.306474 0.505101 0.206477
Si Si6 0.070897 0.868385 0.597773
Si Si7 0.246493 0.912558 0.155896
O O1 0.329429 0.358987 0.386025
O O2 0.213808 0.611708 0.576546
O O3 0.562171 0.281255 0.770511
O O4 0.255944 0.159704 0.300971
O O5 0.116089 0.135221 0.586854
O O6 0.299676 0.127509 0.666079
O O7 0.312388 0.420464 0.043744
O O8 0.500000 0.000000 0.000000
O O9 0.755190 0.678412 0.937119
O O10 0.000000 0.500000 0.000000
O O11 0.825973 0.960889 0.098867
O O12 0.178065 0.769472 0.238204
O O13 0.236222 0.964130 0.294911
O O14 0.941778 0.154024 0.159501
O O15 0.500000 0.500000 0.500000
O O16 0.000000 0.000000 0.500000
#
# Coordination Sequence:
#
# PCOD9050046 Si02
#       7
#     2   2   2   2   2   2   2
#     4  11  24  46  72 102 144 192 248 287 361 430
#     4  12  25  42  69 107 147 184 235 305 372 427
#     4  12  23  41  72 106 146 182 230 308 370 420
#     4  11  24  47  71 102 147 191 247 287 359 430
#     4  12  24  41  68 109 143 183 232 303 370 426
#     4  12  24  42  69 110 146 183 236 307 368 426
#     4  10  24  48  73  98 145 211 237 287 344 444
#
# _framework density 23.909493999999999
#
# number of rings (size 3 to 8) (size 9 to 14) (size 15 to 20)
#    0.000    0.571    4.286    4.286    0.000    1.143 
#    0.000   15.714    0.000    0.000    0.000    0.000 
#    0.000    0.000    0.000    0.000    0.000    0.000 
#
# Total GULP energy -78332.954299 kJ/mol
# GULP energy per Si atom -5595.211021 kJ/mol
# Density = 2.385507 g / cm^3
# Si number density = 23.909494 Si / 1000 Ang^3
#
#
#
# Elastic Constant Matrix: (Units=GPa)
#
#
# Indices 1 2 3 4 5 6 
#
# 1 76.4413 24.5201 31.2478 -0.1863 -11.9214 2.0703
# 2 24.5201 137.1548 42.5539 -8.1378 -0.3726 -27.4370
# 3 31.2478 42.5539 123.1460 -5.5106 -23.1404 -16.3141
# 4 -0.1863 -8.1378 -5.5106 42.1081 -4.5218 3.8258
# 5 -11.9214 -0.3726 -23.1404 -4.5218 44.1607 1.2711
# 6 2.0703 -27.4370 -16.3141 3.8258 1.2711 33.6088
#
#
#
# Elastic Compliance Matrix: (Units=1/GPa)
#
#
# Indices 1 2 3 4 5 6 
#
# 1 0.015850 -0.002829 -0.003195 -0.000157 0.002706 -0.004921
# 2 -0.002829 0.009934 -0.002075 0.000772 -0.001897 0.007260
# 3 -0.003195 -0.002075 0.011110 0.001248 0.004967 0.003566
# 4 -0.000157 0.000772 0.001248 0.024554 0.003180 -0.001669
# 5 0.002706 -0.001897 0.004967 0.003180 0.026306 -0.000661
# 6 -0.004921 0.007260 0.003566 -0.001669 -0.000661 0.037930
#
#
# Mechanical properties :
#
#
# Convention : Reuss Voigt Hill
#
# Bulk Modulus (GPa) = 48.31735 59.26505 53.79120
# Shear Modulus (GPa) = 33.60681 39.87022 36.73852
#
# Velocity S-wave (km/s) = 3.75318 4.08799 3.92416
# Velocity P-wave (km/s) = 6.24773 6.86464 6.56344
#
# Compressibility (1/GPa) = 0.02069650
#
# Stress axis : x y z
#
# Youngs Moduli (GPa) = 63.09032 100.66887 90.01204
#
# Poissons Ratio (x) = 0.28477 0.28757
# Poissons Ratio (y) = 0.17847 0.18676
# Poissons Ratio (z) = 0.20156 0.20888
#
# Static dielectric constant tensor:
#      x y z
#    x 1.845240 0.007680 -0.071740 
#    y 0.007680 1.916980 -0.009250 
#    z -0.071740 -0.009250 1.937900 
# 
# From -- ./inp_files/541197.got.cif
#   From: 2010.05.17/outbox.cif.g08.bks.cpg/sg2_271_cif.got.tgz:541197.got - 2010.06.03 11:33:40.
