data_PCOD9050136
_publ_section_title
;
Structure prediction by ZEFSAII (Michael W. Deem and Ramdas Pophale) SiO2 
 PCOD9050136
Probable space group: P -1
;
_chemical_formula_sum "Si O2"
_cell_formula_units_Z 14
_cell_length_a 22.996455
_cell_length_b 8.292774
_cell_length_c 6.712761
_cell_angle_alpha 120.647650
_cell_angle_beta 132.598978
_cell_angle_gamma 39.772355
_cell_volume 602.697587
_symmetry_space_group_name_H-M "P -1"
_symmetry_group_IT_number 2
_symmetry_cell_setting 'triclinic'
loop_
_space_group_symop_operation_xyz
x,y,z
-x,-y,-z
loop_
_atom_site_type_symbol
_atom_site_label
_atom_site_fract_x
_atom_site_fract_y
_atom_site_fract_z
Si Si1 0.993723 0.047221 0.286035
Si Si2 0.610912 0.765031 0.211074
Si Si3 0.506415 0.682098 0.251165
Si Si4 0.881943 0.603651 0.303997
Si Si5 0.704071 0.933449 0.785145
Si Si6 0.143132 0.986820 0.302186
Si Si7 0.669421 0.386024 0.780691
O O1 0.904813 0.350762 0.241934
O O2 0.956905 0.916396 0.006070
O O3 0.000000 0.000000 0.500000
O O4 0.105105 0.948930 0.394800
O O5 0.576148 0.706200 0.290301
O O6 0.681147 0.824488 0.487908
O O7 0.669917 0.547111 0.046725
O O8 0.500000 0.000000 0.000000
O O9 0.559377 0.565106 0.515901
O O10 0.388850 0.945017 0.188115
O O11 0.500000 0.500000 0.000000
O O12 0.000000 0.500000 0.500000
O O13 0.834204 0.829414 0.493397
O O14 0.814408 0.730916 0.026904
O O15 0.690295 0.161770 0.807070
O O16 0.243310 0.740900 0.270046
#
# Coordination Sequence:
#
# PCOD9050136 Si02
#       7
#     2   2   2   2   2   2   2
#     4  10  24  48  78 105 147 194 252 307 380 432
#     4  12  27  47  75 108 153 201 252 302 373 447
#     4  12  24  46  76 106 153 192 251 306 366 452
#     4  10  25  49  74 107 147 193 255 303 367 450
#     4  12  26  47  75 108 150 204 245 312 376 431
#     4  10  25  46  71 109 147 189 248 310 370 441
#     4  12  27  46  72 110 154 193 249 304 378 439
#
# _framework density 23.228895999999999
#
# number of rings (size 3 to 8) (size 9 to 14) (size 15 to 20)
#    0.000    0.857    2.857    2.571    6.000    1.714 
#   10.286    0.000    0.000    0.000    0.000    0.000 
#    0.000    0.000    0.000    0.000    0.000    0.000 
#
# Total GULP energy -78346.470532 kJ/mol
# GULP energy per Si atom -5596.176467 kJ/mol
# Density = 2.317603 g / cm^3
# Si number density = 23.228896 Si / 1000 Ang^3
#
#
#
# Elastic Constant Matrix: (Units=GPa)
#
#
# Indices 1 2 3 4 5 6 
#
# 1 77.4153 42.4103 24.6281 7.9875 -18.6005 -21.3113
# 2 42.4103 116.0133 91.0688 7.0042 -2.4034 4.2742
# 3 24.6281 91.0688 174.9456 25.6565 1.8588 6.2948
# 4 7.9875 7.0042 25.6565 54.3252 2.5097 3.5418
# 5 -18.6005 -2.4034 1.8588 2.5097 40.2573 1.3588
# 6 -21.3113 4.2742 6.2948 3.5418 1.3588 32.6591
#
#
#
# Elastic Compliance Matrix: (Units=1/GPa)
#
#
# Indices 1 2 3 4 5 6 
#
# 1 0.027251 -0.011962 0.002370 -0.005352 0.011460 0.018994
# 2 -0.011962 0.020063 -0.009010 0.004192 -0.003871 -0.008988
# 3 0.002370 -0.009010 0.010661 -0.004309 0.000296 0.001126
# 4 -0.005352 0.004192 -0.004309 0.021186 -0.003163 -0.005376
# 5 0.011460 -0.003871 0.000296 -0.003163 0.029850 0.007029
# 6 0.018994 -0.008988 0.001126 -0.005376 0.007029 0.044264
#
#
# Mechanical properties :
#
#
# Convention : Reuss Voigt Hill
#
# Bulk Modulus (GPa) = 48.14356 76.06541 62.10448
# Shear Modulus (GPa) = 25.32890 39.46611 32.39750
#
# Velocity S-wave (km/s) = 3.30571 4.12638 3.73863
# Velocity P-wave (km/s) = 5.94483 7.45116 6.74021
#
# Compressibility (1/GPa) = 0.02077121
#
# Stress axis : x y z
#
# Youngs Moduli (GPa) = 36.69613 49.84195 93.79894
#
# Poissons Ratio (x) = 0.59620 -0.22231
# Poissons Ratio (y) = 0.43895 0.84517
# Poissons Ratio (z) = -0.08697 0.44910
#
# Static dielectric constant tensor:
#      x y z
#    x 1.916190 -0.016210 0.025870 
#    y -0.016210 1.951740 0.005810 
#    z 0.025870 0.005810 1.871380 
# 
# From -- ./inp_files/47327.got.cif
#   From: 2010.05.17/outbox.cif.g08.bks.cpg/sg2_24_cif.got.tgz:47327.got - 2010.06.03 11:33:40.
