data_PCOD9050745
_publ_section_title
;
Structure prediction by ZEFSAII (Michael W. Deem and Ramdas Pophale) SiO2 
 PCOD9050745
Probable space group: P -1
;
_chemical_formula_sum "Si O2"
_cell_formula_units_Z 10
_cell_length_a 10.665004
_cell_length_b 8.885658
_cell_length_c 7.377976
_cell_angle_alpha 49.111938
_cell_angle_beta 86.712091
_cell_angle_gamma 109.088745
_cell_volume 462.053584
_symmetry_space_group_name_H-M "P -1"
_symmetry_group_IT_number 2
_symmetry_cell_setting 'triclinic'
loop_
_space_group_symop_operation_xyz
x,y,z
-x,-y,-z
loop_
_atom_site_type_symbol
_atom_site_label
_atom_site_fract_x
_atom_site_fract_y
_atom_site_fract_z
Si Si1 0.904608 0.399607 0.270340
Si Si2 0.946296 0.130922 0.034540
Si Si3 0.679522 0.731220 0.485011
Si Si4 0.346341 0.504102 0.692157
Si Si5 0.824489 0.880013 0.733400
O O1 0.751992 0.398536 0.291624
O O2 0.866899 0.144061 0.518211
O O3 0.000000 0.500000 0.000000
O O4 0.000620 0.611526 0.227887
O O5 0.034714 0.131921 0.206093
O O6 0.778724 0.983630 0.198374
O O7 0.000000 0.000000 0.000000
O O8 0.514805 0.663085 0.578635
O O9 0.682770 0.559637 0.468612
O O10 0.755627 0.747720 0.656929
O O11 0.293465 0.265071 0.989765
#
# Coordination Sequence:
#
# PCOD9050745 Si02
#       5
#     2   2   2   2   2
#     4  11  23  40  65  97 123 163 212 259 310 368
#     4  11  22  44  65  91 128 164 210 260 306 372
#     4  11  21  44  67  89 131 167 205 258 312 370
#     4  10  25  44  63  92 131 167 204 258 312 371
#     4  11  23  41  66  93 124 168 211 253 314 370
#
# _framework density 21.642513000000001
#
# number of rings (size 3 to 8) (size 9 to 14) (size 15 to 20)
#    0.000    1.200    6.000    1.200    2.800    1.600 
#    0.000    8.000    0.000    0.000    0.000    0.000 
#    0.000    0.000    0.000    0.000    0.000    0.000 
#
# Total GULP energy -55751.037993 kJ/mol
# GULP energy per Si atom -5575.103799 kJ/mol
# Density = 2.159325 g / cm^3
# Si number density = 21.642513 Si / 1000 Ang^3
#
#
#
# Elastic Constant Matrix: (Units=GPa)
#
#
# Indices 1 2 3 4 5 6 
#
# 1 123.9568 54.7007 83.7971 -15.2752 -36.4266 -3.9950
# 2 54.7007 131.3939 54.4164 2.4129 9.7747 7.2170
# 3 83.7971 54.4164 150.5961 -26.2564 -18.7216 -6.2490
# 4 -15.2752 2.4129 -26.2564 40.3032 3.8703 -3.4539
# 5 -36.4266 9.7747 -18.7216 3.8703 53.6877 -6.5942
# 6 -3.9950 7.2170 -6.2490 -3.4539 -6.5942 42.2030
#
#
#
# Elastic Compliance Matrix: (Units=1/GPa)
#
#
# Indices 1 2 3 4 5 6 
#
# 1 0.019346 -0.006765 -0.006067 0.002947 0.012557 0.004293
# 2 -0.006765 0.012551 -0.002816 -0.004788 -0.008109 -0.004863
# 3 -0.006067 -0.002816 0.012236 0.005988 0.000513 0.002289
# 4 0.002947 -0.004788 0.005988 0.030218 0.003393 0.004987
# 5 0.012557 -0.008109 0.000513 0.003393 0.029482 0.007535
# 6 0.004293 -0.004863 0.002289 0.004987 0.007535 0.026857
#
#
# Mechanical properties :
#
#
# Convention : Reuss Voigt Hill
#
# Bulk Modulus (GPa) = 77.89656 87.97502 82.93579
# Shear Modulus (GPa) = 30.07234 41.44097 35.75666
#
# Velocity S-wave (km/s) = 3.73165 4.38058 4.06907
# Velocity P-wave (km/s) = 7.39171 8.14392 7.77692
#
# Compressibility (1/GPa) = 0.01283754
#
# Stress axis : x y z
#
# Youngs Moduli (GPa) = 51.69105 79.67210 81.72360
#
# Poissons Ratio (x) = 0.53899 0.49584
# Poissons Ratio (y) = 0.34970 0.23010
# Poissons Ratio (z) = 0.31362 0.22433
#
# Static dielectric constant tensor:
#      x y z
#    x 1.765750 -0.011750 -0.001630 
#    y -0.011750 1.934450 0.041330 
#    z -0.001630 0.041330 1.856890 
# 
# From -- ./inp_files/108310.got.cif
#   From: 2010.05.17/outbox.cif.g08.bks.cpg/sg2_55_cif.got.tgz:108310.got - 2010.06.03 11:33:40.
