data_PCOD9050836
_publ_section_title
;
Structure prediction by ZEFSAII (Michael W. Deem and Ramdas Pophale) SiO2 
 PCOD9050836
Probable space group: P -1
;
_chemical_formula_sum "Si O2"
_cell_formula_units_Z 16
_cell_length_a 5.585259
_cell_length_b 9.316764
_cell_length_c 22.633219
_cell_angle_alpha 132.619016
_cell_angle_beta 109.559950
_cell_angle_gamma 78.060362
_cell_volume 816.329027
_symmetry_space_group_name_H-M "P -1"
_symmetry_group_IT_number 2
_symmetry_cell_setting 'triclinic'
loop_
_space_group_symop_operation_xyz
x,y,z
-x,-y,-z
loop_
_atom_site_type_symbol
_atom_site_label
_atom_site_fract_x
_atom_site_fract_y
_atom_site_fract_z
Si Si1 0.375129 0.686157 0.181745
Si Si2 0.336821 0.793664 0.075484
Si Si3 0.715486 0.589700 0.497107
Si Si4 0.133182 0.542312 0.883528
Si Si5 0.076549 0.193409 0.157431
Si Si6 0.549984 0.653240 0.684734
Si Si7 0.801283 0.019293 0.199478
Si Si8 0.740221 0.935546 0.674693
O O1 0.271485 0.756260 0.128331
O O2 0.634909 0.574069 0.159233
O O3 0.143354 0.561606 0.157149
O O4 0.437095 0.881578 0.279752
O O5 0.238310 0.002856 0.103177
O O6 0.638959 0.829251 0.114176
O O7 0.237083 0.627842 0.977899
O O8 0.500000 0.500000 0.500000
O O9 0.599287 0.530432 0.407248
O O10 0.000000 0.500000 0.500000
O O11 0.260190 0.183420 0.419097
O O12 0.075372 0.722021 0.885335
O O13 0.250962 0.364578 0.250600
O O14 0.907566 0.111025 0.174001
O O15 0.360403 0.810913 0.737779
O O16 0.684888 0.770682 0.674385
O O17 0.992048 0.975259 0.255983
#
# Coordination Sequence:
#
# PCOD9050836 Si02
#       8
#     2   2   2   2   2   2   2   2
#     4  12  25  42  62  88 127 163 200 255 308 363
#     4  11  23  41  65  87 117 163 211 260 302 352
#     4  10  19  30  57  96 124 142 195 256 298 351
#     4  12  29  41  60  92 124 163 211 250 302 367
#     4  10  23  40  63  87 122 166 202 256 304 360
#     4   9  18  34  60  90 120 154 198 252 303 351
#     4  10  17  34  65  84 121 154 203 247 312 345
#     4  10  19  35  58  90 123 159 192 247 313 358
#
# _framework density 19.59994
#
# number of rings (size 3 to 8) (size 9 to 14) (size 15 to 20)
#    0.000    1.500    5.000    1.875    5.250    0.500 
#    0.000    0.000    0.000    1.500    0.000    0.000 
#    0.000    0.000    0.000    0.000    0.000    0.000 
#
# Total GULP energy -89098.685150 kJ/mol
# GULP energy per Si atom -5568.667822 kJ/mol
# Density = 1.955533 g / cm^3
# Si number density = 19.599940 Si / 1000 Ang^3
#
#
#
# Elastic Constant Matrix: (Units=GPa)
#
#
# Indices 1 2 3 4 5 6 
#
# 1 87.8165 18.5758 23.1344 6.0427 1.2073 -3.9691
# 2 18.5758 61.2682 16.2868 10.4930 0.3286 -7.5148
# 3 23.1344 16.2868 105.7043 14.6282 -1.6026 -5.4817
# 4 6.0427 10.4930 14.6282 16.6348 -4.3593 -4.6266
# 5 1.2073 0.3286 -1.6026 -4.3593 21.4504 7.9421
# 6 -3.9691 -7.5148 -5.4817 -4.6266 7.9421 20.7791
#
#
#
# Elastic Compliance Matrix: (Units=1/GPa)
#
#
# Indices 1 2 3 4 5 6 
#
# 1 0.012721 -0.002982 -0.002163 -0.000899 -0.001432 0.001128
# 2 -0.002982 0.019943 -0.000748 -0.010385 -0.004467 0.005841
# 3 -0.002163 -0.000748 0.011281 -0.008734 -0.001081 0.000761
# 4 -0.000899 -0.010385 -0.008734 0.079984 0.013425 0.006446
# 5 -0.001432 -0.004467 -0.001081 0.013425 0.057210 -0.021051
# 6 0.001128 0.005841 0.000761 0.006446 -0.021051 0.060135
#
#
# Mechanical properties :
#
#
# Convention : Reuss Voigt Hill
#
# Bulk Modulus (GPa) = 31.09554 41.19811 36.14682
# Shear Modulus (GPa) = 18.95525 24.89234 21.92380
#
# Velocity S-wave (km/s) = 3.11321 3.56760 3.34812
# Velocity P-wave (km/s) = 5.36864 6.16729 5.78177
#
# Compressibility (1/GPa) = 0.03215895
#
# Stress axis : x y z
#
# Youngs Moduli (GPa) = 78.61287 50.14186 88.64622
#
# Poissons Ratio (x) = 0.14950 0.19178
# Poissons Ratio (y) = 0.23439 0.06630
# Poissons Ratio (z) = 0.17007 0.03750
#
# Static dielectric constant tensor:
#      x y z
#    x 1.843110 0.002660 0.009600 
#    y 0.002660 1.682190 0.028000 
#    z 0.009600 0.028000 1.714830 
# 
# From -- ./inp_files/111654.got.cif
#   From: 2010.05.17/outbox.cif.g08.bks.cpg/sg2_56_cif.got.tgz:111654.got - 2010.06.03 11:33:40.
