data_PCOD9050700
_publ_section_title
;
Structure prediction by ZEFSAII (Michael W. Deem and Ramdas Pophale) SiO2 
 PCOD9050700
Probable space group: P -1
;
_chemical_formula_sum "Si O2"
_cell_formula_units_Z 14
_cell_length_a 6.494168
_cell_length_b 15.473611
_cell_length_c 8.403372
_cell_angle_alpha 90.724856
_cell_angle_beta 90.854332
_cell_angle_gamma 43.041878
_cell_volume 576.291948
_symmetry_space_group_name_H-M "P -1"
_symmetry_group_IT_number 2
_symmetry_cell_setting 'triclinic'
loop_
_space_group_symop_operation_xyz
x,y,z
-x,-y,-z
loop_
_atom_site_type_symbol
_atom_site_label
_atom_site_fract_x
_atom_site_fract_y
_atom_site_fract_z
Si Si1 0.946894 0.730031 0.826293
Si Si2 0.066848 0.936623 0.799951
Si Si3 0.954244 0.423613 0.911982
Si Si4 0.503095 0.581932 0.615798
Si Si5 0.092107 0.117516 0.936862
Si Si6 0.361838 0.175180 0.743251
Si Si7 0.447212 0.243776 0.425500
O O1 0.734766 0.727612 0.733701
O O2 0.175253 0.693883 0.694928
O O3 0.768609 0.857995 0.928341
O O4 0.136462 0.619337 0.957667
O O5 0.210857 0.873592 0.630656
O O6 0.156692 0.004974 0.857058
O O7 0.703065 0.044304 0.786928
O O8 0.161646 0.839998 0.938436
O O9 0.732500 0.497387 0.762047
O O10 0.264423 0.289406 0.843332
O O11 0.000000 0.500000 0.000000
O O12 0.500000 0.500000 0.500000
O O13 0.596222 0.642454 0.531955
O O14 0.124003 0.173006 0.788612
O O15 0.357890 0.206391 0.562351
#
# Coordination Sequence:
#
# PCOD9050700 Si02
#       7
#     2   2   2   2   2   2   2
#     4  11  25  45  74 103 146 186 253 297 366 434
#     4  11  25  45  77 100 148 188 249 296 363 438
#     4  11  25  45  75 105 142 194 247 299 359 434
#     4  12  27  47  74 106 149 194 243 306 369 431
#     4  10  25  43  72 103 135 190 243 296 356 428
#     4  11  27  45  69 107 148 186 240 302 366 431
#     4  12  27  46  72 110 146 194 237 308 367 435
#
# _framework density 24.293243
#
# number of rings (size 3 to 8) (size 9 to 14) (size 15 to 20)
#    0.000    0.857    2.857    2.143   14.000    5.143 
#    0.000    0.000    0.000    0.000    0.000    0.000 
#    0.000    0.000    0.000    0.000    0.000    0.000 
#
# Total GULP energy -78083.637105 kJ/mol
# GULP energy per Si atom -5577.402650 kJ/mol
# Density = 2.423795 g / cm^3
# Si number density = 24.293243 Si / 1000 Ang^3
#
#
#
# Elastic Constant Matrix: (Units=GPa)
#
#
# Indices 1 2 3 4 5 6 
#
# 1 101.2016 58.1840 60.7684 -9.9182 -5.2688 44.0877
# 2 58.1840 80.3144 45.4187 6.1030 1.7134 20.8592
# 3 60.7684 45.4187 140.7307 -1.2151 -19.5396 31.6712
# 4 -9.9182 6.1030 -1.2151 41.6805 7.8560 4.7683
# 5 -5.2688 1.7134 -19.5396 7.8560 60.3702 0.0132
# 6 44.0877 20.8592 31.6712 4.7683 0.0132 52.2146
#
#
#
# Elastic Compliance Matrix: (Units=1/GPa)
#
#
# Indices 1 2 3 4 5 6 
#
# 1 0.030331 -0.016088 -0.003700 0.011443 0.000421 -0.017983
# 2 -0.016088 0.024713 -0.002741 -0.007852 -0.001972 0.006092
# 3 -0.003700 -0.002741 0.010505 -0.000540 0.003226 -0.002104
# 4 0.011443 -0.007852 -0.000540 0.029388 -0.002776 -0.008881
# 5 0.000421 -0.001972 0.003226 -0.002776 0.018063 -0.001275
# 6 -0.017983 0.006092 -0.002104 -0.008881 -0.001275 0.033990
#
#
# Mechanical properties :
#
#
# Convention : Reuss Voigt Hill
#
# Bulk Modulus (GPa) = 48.80775 72.33211 60.56993
# Shear Modulus (GPa) = 25.14090 41.37811 33.25950
#
# Velocity S-wave (km/s) = 3.22046 4.13155 3.70413
# Velocity P-wave (km/s) = 5.82780 7.25251 6.57883
#
# Compressibility (1/GPa) = 0.02048855
#
# Stress axis : x y z
#
# Youngs Moduli (GPa) = 32.96999 40.46417 95.19285
#
# Poissons Ratio (x) = 0.65101 0.35224
# Poissons Ratio (y) = 0.53044 0.26096
# Poissons Ratio (z) = 0.12200 0.11093
#
# Static dielectric constant tensor:
#      x y z
#    x 1.979010 -0.054290 -0.017800 
#    y -0.054290 2.038260 -0.027390 
#    z -0.017800 -0.027390 1.944590 
# 
# From -- ./inp_files/135309.got.cif
#   From: 2010.05.17/outbox.cif.g08.bks.cpg/sg2_68_cif.got.tgz:135309.got - 2010.06.03 11:33:40.
