data_PCOD9050593
_publ_section_title
;
Structure prediction by ZEFSAII (Michael W. Deem and Ramdas Pophale) SiO2 
 PCOD9050593
Probable space group: P -1
;
_chemical_formula_sum "Si O2"
_cell_formula_units_Z 14
_cell_length_a 15.823661
_cell_length_b 15.749555
_cell_length_c 5.199237
_cell_angle_alpha 73.730692
_cell_angle_beta 111.060487
_cell_angle_gamma 152.230044
_cell_volume 561.249185
_symmetry_space_group_name_H-M "P -1"
_symmetry_group_IT_number 2
_symmetry_cell_setting 'triclinic'
loop_
_space_group_symop_operation_xyz
x,y,z
-x,-y,-z
loop_
_atom_site_type_symbol
_atom_site_label
_atom_site_fract_x
_atom_site_fract_y
_atom_site_fract_z
Si Si1 0.846170 0.438708 0.282456
Si Si2 0.364601 0.794628 0.265601
Si Si3 0.583209 0.644663 0.155782
Si Si4 0.829108 0.011061 0.926080
Si Si5 0.233924 0.351974 0.348251
Si Si6 0.029722 0.293293 0.543213
Si Si7 0.284231 0.918815 0.945137
O O1 0.684573 0.293349 0.446702
O O2 0.921585 0.602911 0.252481
O O3 0.000000 0.500000 0.500000
O O4 0.770965 0.350779 0.994432
O O5 0.568420 0.952603 0.236523
O O6 0.333065 0.872815 0.195396
O O7 0.405538 0.531817 0.209171
O O8 0.709864 0.697013 0.448333
O O9 0.706157 0.819506 0.987385
O O10 0.500000 0.500000 0.000000
O O11 0.722425 0.999079 0.963853
O O12 0.035025 0.175517 0.138178
O O13 0.883359 0.091616 0.634615
O O14 0.201760 0.392087 0.513723
O O15 0.920232 0.262158 0.252515
#
# Coordination Sequence:
#
# PCOD9050593 Si02
#       7
#     2   2   2   2   2   2   2
#     4  12  25  43  72 102 145 195 245 301 362 427
#     4  11  26  44  70 101 146 196 250 302 358 434
#     4  11  25  46  75 102 139 183 240 293 377 444
#     4  11  25  45  70 101 145 184 238 304 366 441
#     4  10  25  46  69 104 139 185 237 298 365 450
#     4  11  25  43  70 101 145 183 244 297 369 428
#     4  10  25  43  66 100 140 189 242 301 363 425
#
# _framework density 24.944358000000001
#
# number of rings (size 3 to 8) (size 9 to 14) (size 15 to 20)
#    0.000    1.143    1.429    2.571    8.000    9.143 
#    0.000    0.000    0.000    0.000    0.000    0.000 
#    0.000    0.000    0.000    0.000    0.000    0.000 
#
# Total GULP energy -78517.170219 kJ/mol
# GULP energy per Si atom -5608.369301 kJ/mol
# Density = 2.488758 g / cm^3
# Si number density = 24.944358 Si / 1000 Ang^3
#
#
#
# Elastic Constant Matrix: (Units=GPa)
#
#
# Indices 1 2 3 4 5 6 
#
# 1 123.1297 55.3932 23.0639 3.5868 4.0765 26.0852
# 2 55.3932 123.1159 39.9115 -24.6388 11.9536 1.6886
# 3 23.0639 39.9115 79.3505 -9.9803 2.1469 11.7268
# 4 3.5868 -24.6388 -9.9803 47.5392 4.0414 -6.9585
# 5 4.0765 11.9536 2.1469 4.0414 28.7281 -0.1914
# 6 26.0852 1.6886 11.7268 -6.9585 -0.1914 38.8315
#
#
#
# Elastic Compliance Matrix: (Units=1/GPa)
#
#
# Indices 1 2 3 4 5 6 
#
# 1 0.013832 -0.007789 0.000524 -0.006656 0.002107 -0.010294
# 2 -0.007789 0.015769 -0.005487 0.009292 -0.006301 0.007838
# 3 0.000524 -0.005487 0.015869 -0.000367 0.001041 -0.004967
# 4 -0.006656 0.009292 -0.000367 0.028201 -0.006800 0.009198
# 5 0.002107 -0.006301 0.001041 -0.006800 0.037994 -0.002487
# 6 -0.010294 0.007838 -0.004967 0.009198 -0.002487 0.035462
#
#
# Mechanical properties :
#
#
# Convention : Reuss Voigt Hill
#
# Bulk Modulus (GPa) = 50.08014 62.48147 56.28081
# Shear Modulus (GPa) = 27.88817 36.83494 32.36156
#
# Velocity S-wave (km/s) = 3.34730 3.84693 3.60578
# Velocity P-wave (km/s) = 5.92111 6.69586 6.32037
#
# Compressibility (1/GPa) = 0.01996799
#
# Stress axis : x y z
#
# Youngs Moduli (GPa) = 72.29439 63.41369 63.01456
#
# Poissons Ratio (x) = 0.49393 -0.03304
# Poissons Ratio (y) = 0.56310 0.34575
# Poissons Ratio (z) = -0.03790 0.34794
#
# Static dielectric constant tensor:
#      x y z
#    x 1.916360 0.014370 -0.006350 
#    y 0.014370 1.995600 0.008890 
#    z -0.006350 0.008890 2.022990 
# 
# From -- ./inp_files/47612.got.cif
#   From: 2010.05.17/outbox.cif.g08.bks.cpg/sg2_24_cif.got.tgz:47612.got - 2010.06.03 11:33:40.
