data_PCOD9050553
_publ_section_title
;
Structure prediction by ZEFSAII (Michael W. Deem and Ramdas Pophale) SiO2 
 PCOD9050553
Probable space group: P -1
;
_chemical_formula_sum "Si O2"
_cell_formula_units_Z 16
_cell_length_a 5.154917
_cell_length_b 14.480285
_cell_length_c 9.663733
_cell_angle_alpha 108.489732
_cell_angle_beta 82.853385
_cell_angle_gamma 103.453343
_cell_volume 664.335423
_symmetry_space_group_name_H-M "P -1"
_symmetry_group_IT_number 2
_symmetry_cell_setting 'triclinic'
loop_
_space_group_symop_operation_xyz
x,y,z
-x,-y,-z
loop_
_atom_site_type_symbol
_atom_site_label
_atom_site_fract_x
_atom_site_fract_y
_atom_site_fract_z
Si Si1 0.367647 0.544703 0.897343
Si Si2 0.173995 0.216430 0.475676
Si Si3 0.620521 0.222437 0.948450
Si Si4 0.126811 0.510005 0.277638
Si Si5 0.571781 0.150061 0.226043
Si Si6 0.866348 0.833324 0.251447
Si Si7 0.262764 0.964181 0.607257
Si Si8 0.899207 0.351595 0.434127
O O1 0.342294 0.658902 0.971520
O O2 0.613668 0.537860 0.776590
O O3 0.075040 0.486053 0.835858
O O4 0.500000 0.500000 0.000000
O O5 0.295438 0.156142 0.322028
O O6 0.272624 0.221598 0.627932
O O7 0.884601 0.144866 0.484217
O O8 0.168478 0.322059 0.459910
O O9 0.591400 0.162250 0.066949
O O10 0.349264 0.190026 0.866555
O O11 0.868576 0.200141 0.833574
O O12 0.219177 0.613371 0.400869
O O13 0.935246 0.437377 0.360813
O O14 0.651858 0.056079 0.250924
O O15 0.752090 0.252317 0.321803
O O16 0.909150 0.950916 0.336500
O O17 0.500000 0.000000 0.500000
#
# Coordination Sequence:
#
# PCOD9050553 Si02
#       8
#     2   2   2   2   2   2   2   2
#     4  12  27  46  72 100 151 193 235 295 373 435
#     4  11  25  44  79 102 147 191 249 302 368 426
#     4  12  29  48  70 108 154 190 239 298 377 434
#     4  11  25  46  73 105 141 184 253 305 351 432
#     4  11  25  46  76 103 152 193 241 305 369 434
#     4  12  28  46  74 106 147 189 244 299 359 447
#     4  11  24  48  75 111 143 190 247 308 366 426
#     4  10  25  42  73 106 137 187 249 308 357 423
#
# _framework density 24.084222
#
# number of rings (size 3 to 8) (size 9 to 14) (size 15 to 20)
#    0.000    0.750    2.500    3.000   12.250    2.000 
#    0.000    0.000    0.000    0.000    0.000    0.000 
#    0.000    0.000    0.000    0.000    0.000    0.000 
#
# Total GULP energy -89367.324936 kJ/mol
# GULP energy per Si atom -5585.457809 kJ/mol
# Density = 2.402940 g / cm^3
# Si number density = 24.084222 Si / 1000 Ang^3
#
#
#
# Elastic Constant Matrix: (Units=GPa)
#
#
# Indices 1 2 3 4 5 6 
#
# 1 119.1182 50.3346 18.4423 35.2728 -1.5975 -1.8476
# 2 50.3346 112.5270 20.0405 13.8503 19.1717 -4.6430
# 3 18.4423 20.0405 96.6201 -9.6585 -1.5344 -8.9986
# 4 35.2728 13.8503 -9.6585 74.2406 0.8132 7.6533
# 5 -1.5975 19.1717 -1.5344 0.8132 45.0192 12.6995
# 6 -1.8476 -4.6430 -8.9986 7.6533 12.6995 46.1749
#
#
#
# Elastic Compliance Matrix: (Units=1/GPa)
#
#
# Indices 1 2 3 4 5 6 
#
# 1 0.012371 -0.005042 -0.001813 -0.005177 0.002687 -0.000246
# 2 -0.005042 0.012650 -0.001559 -0.000363 -0.006337 0.002570
# 3 -0.001813 -0.001559 0.011410 0.002483 0.000539 0.001434
# 4 -0.005177 -0.000363 0.002483 0.016588 0.000503 -0.002647
# 5 0.002687 -0.006337 0.000539 0.000503 0.027276 -0.008010
# 6 -0.000246 0.002570 0.001434 -0.002647 -0.008010 0.024827
#
#
# Mechanical properties :
#
#
# Convention : Reuss Voigt Hill
#
# Bulk Modulus (GPa) = 51.01333 56.21112 53.61222
# Shear Modulus (GPa) = 38.91539 49.05014 43.98276
#
# Velocity S-wave (km/s) = 4.02407 4.51778 4.27805
# Velocity P-wave (km/s) = 6.54355 7.11363 6.83454
#
# Compressibility (1/GPa) = 0.01960272
#
# Stress axis : x y z
#
# Youngs Moduli (GPa) = 80.83095 79.05098 87.64469
#
# Poissons Ratio (x) = 0.39855 0.15894
# Poissons Ratio (y) = 0.40753 0.13665
# Poissons Ratio (z) = 0.14658 0.12325
#
# Static dielectric constant tensor:
#      x y z
#    x 1.983110 0.019260 0.015130 
#    y 0.019260 1.917900 -0.027550 
#    z 0.015130 -0.027550 2.061500 
# 
# From -- ./inp_files/135701.got.cif
#   From: 2010.05.17/outbox.cif.g08.bks.cpg/sg2_68_cif.got.tgz:135701.got - 2010.06.03 11:33:40.
