data_PCOD9050346
_publ_section_title
;
Structure prediction by ZEFSAII (Michael W. Deem and Ramdas Pophale) SiO2 
 PCOD9050346
Probable space group: P -1
;
_chemical_formula_sum "Si O2"
_cell_formula_units_Z 14
_cell_length_a 12.197905
_cell_length_b 5.320120
_cell_length_c 12.672272
_cell_angle_alpha 71.671760
_cell_angle_beta 57.570988
_cell_angle_gamma 106.289802
_cell_volume 545.656788
_symmetry_space_group_name_H-M "P -1"
_symmetry_group_IT_number 2
_symmetry_cell_setting 'triclinic'
loop_
_space_group_symop_operation_xyz
x,y,z
-x,-y,-z
loop_
_atom_site_type_symbol
_atom_site_label
_atom_site_fract_x
_atom_site_fract_y
_atom_site_fract_z
Si Si1 0.650940 0.867820 0.374964
Si Si2 0.993632 0.188901 0.076924
Si Si3 0.410813 0.149381 0.141542
Si Si4 0.063490 0.279632 0.522180
Si Si5 0.640547 0.000107 0.138455
Si Si6 0.633210 0.707686 0.629182
Si Si7 0.149889 0.965049 0.139659
O O1 0.500000 0.500000 0.500000
O O2 0.633984 0.052685 0.260856
O O3 0.660164 0.935611 0.486469
O O4 0.821716 0.946815 0.248516
O O5 0.140186 0.257829 0.064417
O O6 0.000000 0.500000 0.000000
O O7 0.000000 0.000000 0.000000
O O8 0.338980 0.129043 0.294794
O O9 0.272307 0.964826 0.154903
O O10 0.537253 0.071997 0.109742
O O11 0.500000 0.500000 0.000000
O O12 0.246037 0.403107 0.421749
O O13 0.000000 0.500000 0.500000
O O14 0.000000 0.000000 0.500000
O O15 0.999512 0.189570 0.686834
O O16 0.542625 0.610694 0.236200
O O17 0.805022 0.136793 0.977243
#
# Coordination Sequence:
#
# PCOD9050346 Si02
#       7
#     2   2   2   2   2   2   2
#     4  10  24  51  76 109 151 204 263 322 392 464
#     4  12  28  52  78 115 158 207 260 324 396 470
#     4  12  26  41  72 108 149 198 257 313 390 466
#     4  12  27  45  72 107 153 197 247 318 393 459
#     4  11  25  46  73 104 148 203 257 317 382 470
#     4  11  24  47  68 107 146 194 259 315 390 457
#     4  12  25  47  74 110 152 199 258 321 394 468
#
# _framework density 25.657153000000001
#
# number of rings (size 3 to 8) (size 9 to 14) (size 15 to 20)
#    0.000    0.571    5.714    1.286    4.000    1.714 
#    5.143    0.000    0.000    0.000    0.000    0.000 
#    0.000    0.000    0.000    0.000    0.000    0.000 
#
# Total GULP energy -78035.317779 kJ/mol
# GULP energy per Si atom -5573.951270 kJ/mol
# Density = 2.559876 g / cm^3
# Si number density = 25.657153 Si / 1000 Ang^3
#
#
#
# Elastic Constant Matrix: (Units=GPa)
#
#
# Indices 1 2 3 4 5 6 
#
# 1 173.5072 36.8924 52.0301 12.9269 23.5165 -19.7468
# 2 36.8924 87.7369 57.7224 18.6490 6.7242 -20.6091
# 3 52.0301 57.7224 185.8204 35.9969 7.7379 -2.9317
# 4 12.9269 18.6490 35.9969 31.2774 -7.2185 1.2063
# 5 23.5165 6.7242 7.7379 -7.2185 65.3495 0.5394
# 6 -19.7468 -20.6091 -2.9317 1.2063 0.5394 45.0884
#
#
#
# Elastic Compliance Matrix: (Units=1/GPa)
#
#
# Indices 1 2 3 4 5 6 
#
# 1 0.007106 -0.001041 -0.001210 -0.001603 -0.002506 0.002630
# 2 -0.001041 0.017557 -0.003720 -0.006455 -0.001766 0.007521
# 3 -0.001210 -0.003720 0.008227 -0.006902 -0.000906 -0.001500
# 4 -0.001603 -0.006455 -0.006902 0.046301 0.007218 -0.005426
# 5 -0.002506 -0.001766 -0.000906 0.007218 0.017310 -0.002364
# 6 0.002630 0.007521 -0.001500 -0.005426 -0.002364 0.026844
#
#
# Mechanical properties :
#
#
# Convention : Reuss Voigt Hill
#
# Bulk Modulus (GPa) = 47.73723 82.26158 64.99940
# Shear Modulus (GPa) = 35.14478 48.37103 41.75790
#
# Velocity S-wave (km/s) = 3.70508 4.34670 4.03865
# Velocity P-wave (km/s) = 6.07862 7.57121 6.86560
#
# Compressibility (1/GPa) = 0.02094801
#
# Stress axis : x y z
#
# Youngs Moduli (GPa) = 140.72465 56.95853 121.55496
#
# Poissons Ratio (x) = 0.05932 0.14705
# Poissons Ratio (y) = 0.14655 0.45213
# Poissons Ratio (z) = 0.17024 0.21186
#
# Static dielectric constant tensor:
#      x y z
#    x 2.032310 0.059360 0.194580 
#    y 0.059360 2.039750 0.011940 
#    z 0.194580 0.011940 2.227020 
# 
# From -- ./inp_files/94897.got.cif
#   From: 2010.05.17/outbox.cif.g08.bks.cpg/sg2_48_cif.got.tgz:94897.got - 2010.06.03 11:33:40.
