data_PCOD9050615
_publ_section_title
;
Structure prediction by ZEFSAII (Michael W. Deem and Ramdas Pophale) SiO2 
 PCOD9050615
Probable space group: P -1
;
_chemical_formula_sum "Si O2"
_cell_formula_units_Z 12
_cell_length_a 8.549901
_cell_length_b 12.722901
_cell_length_c 6.680275
_cell_angle_alpha 101.330490
_cell_angle_beta 73.055058
_cell_angle_gamma 51.192999
_cell_volume 466.396103
_symmetry_space_group_name_H-M "P -1"
_symmetry_group_IT_number 2
_symmetry_cell_setting 'triclinic'
loop_
_space_group_symop_operation_xyz
x,y,z
-x,-y,-z
loop_
_atom_site_type_symbol
_atom_site_label
_atom_site_fract_x
_atom_site_fract_y
_atom_site_fract_z
Si Si1 0.451563 0.938127 0.668597
Si Si2 0.032917 0.475321 0.242481
Si Si3 0.972735 0.736030 0.439886
Si Si4 0.416832 0.305648 0.760747
Si Si5 0.016592 0.853400 0.813536
Si Si6 0.838448 0.162249 0.834046
O O1 0.707147 0.827765 0.640660
O O2 0.445417 0.831413 0.504629
O O3 0.500000 0.000000 0.500000
O O4 0.231694 0.051898 0.942101
O O5 0.000000 0.500000 0.500000
O O6 0.072317 0.585178 0.232367
O O7 0.795358 0.548033 0.247822
O O8 0.260537 0.314661 0.989003
O O9 0.093635 0.720522 0.591503
O O10 0.990824 0.828191 0.318460
O O11 0.609357 0.272198 0.815590
O O12 0.949390 0.989853 0.753682
O O13 0.201041 0.788895 0.899526
#
# Coordination Sequence:
#
# PCOD9050615 Si02
#       6
#     2   2   2   2   2   2
#     4  11  22  40  68  98 132 175 214 269 324 390
#     4  10  25  46  70  92 123 178 227 271 322 384
#     4  11  24  42  67  97 133 169 226 272 317 386
#     4  10  25  43  67  92 135 167 219 275 322 379
#     4  11  25  39  68 102 138 174 211 257 338 400
#     4  11  25  42  67  99 139 173 207 275 331 386
#
# _framework density 25.729203999999999
#
# number of rings (size 3 to 8) (size 9 to 14) (size 15 to 20)
#    0.000    1.333    1.667    2.000   11.667    2.000 
#    0.000    1.667    0.000    0.000    0.000    0.000 
#    0.000    0.000    0.000    0.000    0.000    0.000 
#
# Total GULP energy -66961.409364 kJ/mol
# GULP energy per Si atom -5580.117447 kJ/mol
# Density = 2.567064 g / cm^3
# Si number density = 25.729204 Si / 1000 Ang^3
#
#
#
# Elastic Constant Matrix: (Units=GPa)
#
#
# Indices 1 2 3 4 5 6 
#
# 1 131.5496 49.7980 43.5061 -17.3140 11.1192 -28.9046
# 2 49.7980 45.9430 37.6325 -19.0099 -3.6376 -6.1463
# 3 43.5061 37.6325 144.0044 -21.5481 11.5080 -3.6679
# 4 -17.3140 -19.0099 -21.5481 35.7063 -5.5066 2.8648
# 5 11.1192 -3.6376 11.5080 -5.5066 74.3807 -9.1572
# 6 -28.9046 -6.1463 -3.6679 2.8648 -9.1572 44.0265
#
#
#
# Elastic Compliance Matrix: (Units=1/GPa)
#
#
# Indices 1 2 3 4 5 6 
#
# 1 0.015639 -0.016962 -0.000299 -0.002601 -0.002385 0.007548
# 2 -0.016962 0.052827 -0.006762 0.017211 0.006947 -0.003999
# 3 -0.000299 -0.006762 0.009152 0.001585 -0.001687 -0.000832
# 4 -0.002601 0.017211 0.001585 0.037497 0.003656 -0.000852
# 5 -0.002385 0.006947 -0.001687 0.003656 0.014935 0.002132
# 6 0.007548 -0.003999 -0.000832 -0.000852 0.002132 0.027540
#
#
# Mechanical properties :
#
#
# Convention : Reuss Voigt Hill
#
# Bulk Modulus (GPa) = 33.81467 64.81891 49.31679
# Shear Modulus (GPa) = 23.20252 43.52673 33.36463
#
# Velocity S-wave (km/s) = 3.00625 4.11752 3.60496
# Velocity P-wave (km/s) = 5.02206 6.91757 6.04458
#
# Compressibility (1/GPa) = 0.02957296
#
# Stress axis : x y z
#
# Youngs Moduli (GPa) = 63.94245 18.92973 109.26084
#
# Poissons Ratio (x) = 0.32108 0.03262
# Poissons Ratio (y) = 1.08458 0.73886
# Poissons Ratio (z) = 0.01909 0.12801
#
# Static dielectric constant tensor:
#      x y z
#    x 2.091510 0.024660 -0.012140 
#    y 0.024660 2.204370 -0.044040 
#    z -0.012140 -0.044040 1.998510 
# 
# From -- ./inp_files/35804.got.cif
#   From: 2010.05.17/outbox.cif.g08.bks.cpg/sg2_18_cif.got.tgz:35804.got - 2010.06.03 11:33:40.
