data_PCOD9050114
_publ_section_title
;
Structure prediction by ZEFSAII (Michael W. Deem and Ramdas Pophale) SiO2 
 PCOD9050114
Probable space group: P -1
;
_chemical_formula_sum "Si O2"
_cell_formula_units_Z 15
_cell_length_a 11.314922
_cell_length_b 14.703061
_cell_length_c 6.763408
_cell_angle_alpha 89.116509
_cell_angle_beta 117.433032
_cell_angle_gamma 130.993980
_cell_volume 681.196395
_symmetry_space_group_name_H-M "P -1"
_symmetry_group_IT_number 2
_symmetry_cell_setting 'triclinic'
loop_
_space_group_symop_operation_xyz
x,y,z
-x,-y,-z
loop_
_atom_site_type_symbol
_atom_site_label
_atom_site_fract_x
_atom_site_fract_y
_atom_site_fract_z
Si Si1 0.206618 0.909325 0.763427
Si Si2 0.113780 0.965506 0.039408
Si Si3 0.551241 0.085528 0.732039
Si Si4 0.124260 0.328539 0.001038
Si Si5 0.570815 0.236426 0.452066
Si Si6 0.500000 0.500000 0.000000
Si Si7 0.929470 0.334923 0.526415
Si Si8 0.248416 0.487644 0.489104
O O1 0.078659 0.772764 0.556459
O O2 0.366085 0.018919 0.724166
O O3 0.099022 0.934785 0.795459
O O4 0.312834 0.904781 0.019964
O O5 0.343494 0.098760 0.252469
O O6 0.019065 0.830921 0.082825
O O7 0.000000 0.000000 0.000000
O O8 0.636430 0.220071 0.704805
O O9 0.500000 0.000000 0.500000
O O10 0.317780 0.400922 0.026244
O O11 0.179330 0.389812 0.260695
O O12 0.025759 0.365740 0.812480
O O13 0.710181 0.262208 0.388877
O O14 0.610620 0.362544 0.484506
O O15 0.642341 0.514311 0.259139
O O16 0.066163 0.446661 0.460778
#
# Coordination Sequence:
#
# PCOD9050114 Si02
#       8
#     2   2   2   2   2   1   2   2
#     4  11  21  41  68 100 138 192 231 284 369 421
#     4  12  25  44  71 101 143 186 244 302 345 433
#     4  11  20  39  69  98 140 188 226 290 365 423
#     4  11  24  48  73 101 140 193 239 289 364 425
#     4  12  24  44  70 110 148 179 243 300 355 427
#     4  10  24  48  76  94 142 198 236 280 362 424
#     4  11  23  43  74 102 144 189 234 296 364 430
#     4  11  25  46  73 105 143 191 238 294 354 436
#
# _framework density 22.020081000000001
#
# number of rings (size 3 to 8) (size 9 to 14) (size 15 to 20)
#    0.000    0.800    4.000    4.000    0.000    0.533 
#   12.000    1.333    2.933    0.000    0.000    0.000 
#    0.000    0.000    0.000    0.000    0.000    0.000 
#
# Total GULP energy -83544.062733 kJ/mol
# GULP energy per Si atom -5569.604182 kJ/mol
# Density = 2.196996 g / cm^3
# Si number density = 22.020081 Si / 1000 Ang^3
#
#
#
# Elastic Constant Matrix: (Units=GPa)
#
#
# Indices 1 2 3 4 5 6 
#
# 1 133.9000 40.3741 26.3782 9.8279 -8.1569 35.3835
# 2 40.3741 137.2475 40.7249 -3.6026 -8.5858 21.0894
# 3 26.3782 40.7249 80.5397 -16.6106 -9.0049 -0.2826
# 4 9.8279 -3.6026 -16.6106 28.9629 10.4777 -4.3476
# 5 -8.1569 -8.5858 -9.0049 10.4777 25.4556 2.5262
# 6 35.3835 21.0894 -0.2826 -4.3476 2.5262 44.5909
#
#
#
# Elastic Compliance Matrix: (Units=1/GPa)
#
#
# Indices 1 2 3 4 5 6 
#
# 1 0.013519 0.000001 -0.006214 -0.013229 0.008825 -0.012557
# 2 0.000001 0.009815 -0.005400 -0.003951 0.003549 -0.005264
# 3 -0.006214 -0.005400 0.020014 0.015839 -0.004184 0.009393
# 4 -0.013229 -0.003951 0.015839 0.060264 -0.026744 0.019857
# 5 0.008825 0.003549 -0.004184 -0.026744 0.054265 -0.014390
# 6 -0.012557 -0.005264 0.009393 0.019857 -0.014390 0.037691
#
#
# Mechanical properties :
#
#
# Convention : Reuss Voigt Hill
#
# Bulk Modulus (GPa) = 49.69534 62.96019 56.32777
# Shear Modulus (GPa) = 22.17301 36.08254 29.12777
#
# Velocity S-wave (km/s) = 3.17668 4.05238 3.64095
# Velocity P-wave (km/s) = 6.00602 7.10985 6.58112
#
# Compressibility (1/GPa) = 0.02012261
#
# Stress axis : x y z
#
# Youngs Moduli (GPa) = 73.97099 101.88352 49.96609
#
# Poissons Ratio (x) = -0.00014 0.31049
# Poissons Ratio (y) = -0.00010 0.26981
# Poissons Ratio (z) = 0.45965 0.55016
#
# Static dielectric constant tensor:
#      x y z
#    x 1.867340 0.028730 -0.001940 
#    y 0.028730 1.877980 0.001950 
#    z -0.001940 0.001950 1.827250 
# 
# From -- ./inp_files/77948.got.cif
#   From: 2010.05.17/outbox.cif.g08.bks.cpg/sg2_39_cif.got.tgz:77948.got - 2010.06.03 11:33:40.
