data_PCOD9050288
_publ_section_title
;
Structure prediction by ZEFSAII (Michael W. Deem and Ramdas Pophale) SiO2 
 PCOD9050288
Probable space group: P -1
;
_chemical_formula_sum "Si O2"
_cell_formula_units_Z 14
_cell_length_a 6.252663
_cell_length_b 11.148228
_cell_length_c 15.480018
_cell_angle_alpha 49.873256
_cell_angle_beta 92.704982
_cell_angle_gamma 59.266672
_cell_volume 581.253192
_symmetry_space_group_name_H-M "P -1"
_symmetry_group_IT_number 2
_symmetry_cell_setting 'triclinic'
loop_
_space_group_symop_operation_xyz
x,y,z
-x,-y,-z
loop_
_atom_site_type_symbol
_atom_site_label
_atom_site_fract_x
_atom_site_fract_y
_atom_site_fract_z
Si Si1 0.206319 0.970709 0.820104
Si Si2 0.184689 0.318706 0.744934
Si Si3 0.241642 0.314882 0.161510
Si Si4 0.521118 0.299892 0.605429
Si Si5 0.634684 0.035494 0.566800
Si Si6 0.654629 0.216189 0.917626
Si Si7 0.583859 0.603575 0.704837
O O1 0.438548 0.880427 0.789645
O O2 0.161900 0.157455 0.781510
O O3 0.362773 0.776381 0.983147
O O4 0.872610 0.085439 0.736554
O O5 0.290130 0.372788 0.642825
O O6 0.444195 0.198492 0.877290
O O7 0.875881 0.511212 0.699680
O O8 0.327965 0.399787 0.194599
O O9 0.160296 0.199592 0.268879
O O10 0.000000 0.500000 0.000000
O O11 0.500000 0.500000 0.500000
O O12 0.472773 0.208057 0.566054
O O13 0.696392 0.160587 0.453573
O O14 0.500000 0.000000 0.500000
O O15 0.555521 0.433453 0.776563
O O16 0.000000 0.000000 0.000000
#
# Coordination Sequence:
#
# PCOD9050288 Si02
#       7
#     2   2   2   2   2   2   2
#     4  12  26  44  74 108 147 194 241 309 362 436
#     4  12  23  44  75 102 150 189 239 306 374 430
#     4  11  26  48  75 102 145 198 246 297 370 441
#     4  12  26  44  77 114 144 189 255 303 367 446
#     4  10  24  50  72 101 151 193 242 298 372 441
#     4  12  24  41  68 112 148 183 248 302 369 437
#     4  11  26  47  72 106 145 197 241 299 371 439
#
# _framework density 24.085889999999999
#
# number of rings (size 3 to 8) (size 9 to 14) (size 15 to 20)
#    0.000    0.571    4.286    3.000    6.000    1.714 
#    5.143    1.429    0.000    0.000    0.000    0.000 
#    0.000    0.000    0.000    0.000    0.000    0.000 
#
# Total GULP energy -78153.814102 kJ/mol
# GULP energy per Si atom -5582.415293 kJ/mol
# Density = 2.403107 g / cm^3
# Si number density = 24.085890 Si / 1000 Ang^3
#
#
#
# Elastic Constant Matrix: (Units=GPa)
#
#
# Indices 1 2 3 4 5 6 
#
# 1 67.5857 41.8707 42.5527 9.0861 -8.0725 -11.1177
# 2 41.8707 139.1006 35.1866 18.3227 11.1459 4.4544
# 3 42.5527 35.1866 155.0719 21.1244 -19.4509 4.2546
# 4 9.0861 18.3227 21.1244 30.1552 15.3519 0.3089
# 5 -8.0725 11.1459 -19.4509 15.3519 48.1441 -12.7220
# 6 -11.1177 4.4544 4.2546 0.3089 -12.7220 41.4761
#
#
#
# Elastic Compliance Matrix: (Units=1/GPa)
#
#
# Indices 1 2 3 4 5 6 
#
# 1 0.024896 -0.006889 -0.003756 -0.005216 0.008691 0.010503
# 2 -0.006889 0.010094 -0.000674 -0.001262 -0.004478 -0.004226
# 3 -0.003756 -0.000674 0.009486 -0.008131 0.005945 -0.000023
# 4 -0.005216 -0.001262 -0.008131 0.052881 -0.022795 -0.007814
# 5 0.008691 -0.004478 0.005945 -0.022795 0.036522 0.013573
# 6 0.010503 -0.004226 -0.000023 -0.007814 0.013573 0.031603
#
#
# Mechanical properties :
#
#
# Convention : Reuss Voigt Hill
#
# Bulk Modulus (GPa) = 45.79239 66.77535 56.28387
# Shear Modulus (GPa) = 25.58866 40.09830 32.84348
#
# Velocity S-wave (km/s) = 3.26297 4.08463 3.69670
# Velocity P-wave (km/s) = 5.76623 7.07316 6.45287
#
# Compressibility (1/GPa) = 0.02183769
#
# Stress axis : x y z
#
# Youngs Moduli (GPa) = 40.16711 99.07210 105.41819
#
# Poissons Ratio (x) = 0.68256 0.39594
# Poissons Ratio (y) = 0.27673 0.07102
# Poissons Ratio (z) = 0.15086 0.06674
#
# Static dielectric constant tensor:
#      x y z
#    x 1.902570 -0.023050 -0.036030 
#    y -0.023050 1.936810 -0.015620 
#    z -0.036030 -0.015620 2.030280 
# 
# From -- ./inp_files/482630.got.cif
#   From: 2010.05.17/outbox.cif.g08.bks.cpg/sg2_242_cif.got.tgz:482630.got - 2010.06.03 11:33:40.
