data_PCOD9050993
_publ_section_title
;
Structure prediction by ZEFSAII (Michael W. Deem and Ramdas Pophale) SiO2 
 PCOD9050993
Probable space group: P -1
;
_chemical_formula_sum "Si O2"
_cell_formula_units_Z 14
_cell_length_a 11.285261
_cell_length_b 17.601556
_cell_length_c 8.551944
_cell_angle_alpha 72.598690
_cell_angle_beta 104.681347
_cell_angle_gamma 160.896059
_cell_volume 528.208646
_symmetry_space_group_name_H-M "P -1"
_symmetry_group_IT_number 2
_symmetry_cell_setting 'triclinic'
loop_
_space_group_symop_operation_xyz
x,y,z
-x,-y,-z
loop_
_atom_site_type_symbol
_atom_site_label
_atom_site_fract_x
_atom_site_fract_y
_atom_site_fract_z
Si Si1 0.806047 0.663111 0.126782
Si Si2 0.252030 0.606795 0.401210
Si Si3 0.243024 0.807374 0.712990
Si Si4 0.981171 0.203319 0.565412
Si Si5 0.254601 0.081552 0.893139
Si Si6 0.301771 0.144465 0.324975
Si Si7 0.816262 0.507778 0.041014
O O1 0.891128 0.628440 0.105561
O O2 0.500000 0.500000 0.000000
O O3 0.092880 0.911479 0.047331
O O4 0.706737 0.597884 0.319015
O O5 0.472487 0.786172 0.228088
O O6 0.552145 0.746821 0.522239
O O7 0.000000 0.500000 0.500000
O O8 0.997396 0.388500 0.368298
O O9 0.081334 0.795839 0.627008
O O10 0.155101 0.718754 0.907909
O O11 0.655478 0.046510 0.653241
O O12 0.913887 0.069133 0.606847
O O13 0.486072 0.290910 0.935883
O O14 0.929542 0.928400 0.790005
O O15 0.660996 0.349278 0.210092
#
# Coordination Sequence:
#
# PCOD9050993 Si02
#       7
#     2   2   2   2   2   2   2
#     4  12  24  43  71  99 136 186 228 281 346 407
#     4  11  24  44  69  99 136 184 230 280 347 410
#     4  10  25  45  65 102 138 183 230 283 347 413
#     4  11  24  43  69  97 143 180 232 286 340 410
#     4  11  25  44  68 105 141 173 235 286 339 413
#     4  12  22  43  69  99 140 181 221 291 339 402
#     4  11  24  43  70  99 138 178 230 279 343 409
#
# _framework density 26.504676
#
# number of rings (size 3 to 8) (size 9 to 14) (size 15 to 20)
#    0.000    0.857    4.286    2.571    2.000    2.286 
#    0.000    2.143    0.000    0.000    0.000    0.000 
#    0.000    0.000    0.000    0.000    0.000    0.000 
#
# Total GULP energy -78186.438787 kJ/mol
# GULP energy per Si atom -5584.745628 kJ/mol
# Density = 2.644435 g / cm^3
# Si number density = 26.504676 Si / 1000 Ang^3
#
#
#
# Elastic Constant Matrix: (Units=GPa)
#
#
# Indices 1 2 3 4 5 6 
#
# 1 72.2391 28.9981 6.8411 4.4106 6.3130 -20.8142
# 2 28.9981 60.4620 16.6121 -5.8597 11.4343 -9.3785
# 3 6.8411 16.6121 109.4533 5.2574 12.3407 2.5110
# 4 4.4106 -5.8597 5.2574 40.7791 6.4610 -0.3631
# 5 6.3130 11.4343 12.3407 6.4610 40.5073 -3.9085
# 6 -20.8142 -9.3785 2.5110 -0.3631 -3.9085 41.7381
#
#
#
# Elastic Compliance Matrix: (Units=1/GPa)
#
#
# Indices 1 2 3 4 5 6 
#
# 1 0.019779 -0.008716 -0.000009 -0.003430 0.000694 0.007941
# 2 -0.008716 0.023029 -0.002643 0.005413 -0.005147 0.000552
# 3 -0.000009 -0.002643 0.009880 -0.001318 -0.002188 -0.001409
# 4 -0.003430 0.005413 -0.001318 0.026611 -0.004898 -0.000642
# 5 0.000694 -0.005147 -0.002188 -0.004898 0.027660 0.001869
# 6 0.007941 0.000552 -0.001409 -0.000642 0.001869 0.028297
#
#
# Mechanical properties :
#
#
# Convention : Reuss Voigt Hill
#
# Bulk Modulus (GPa) = 33.38478 38.56188 35.97333
# Shear Modulus (GPa) = 29.76599 37.25177 33.50888
#
# Velocity S-wave (km/s) = 3.35482 3.75304 3.55950
# Velocity P-wave (km/s) = 5.25639 5.77590 5.52226
#
# Compressibility (1/GPa) = 0.02995377
#
# Stress axis : x y z
#
# Youngs Moduli (GPa) = 50.55832 43.42312 101.21070
#
# Poissons Ratio (x) = 0.37846 0.00092
# Poissons Ratio (y) = 0.44065 0.26748
# Poissons Ratio (z) = 0.00046 0.11476
#
# Static dielectric constant tensor:
#      x y z
#    x 2.323960 0.080330 0.008910 
#    y 0.080330 2.150190 0.029870 
#    z 0.008910 0.029870 2.178030 
# 
# From -- ./inp_files/279321.got.cif
#   From: 2010.05.17/outbox.cif.g08.bks.cpg/sg2_140_cif.got.tgz:279321.got - 2010.06.03 11:33:40.
