data_PCOD9050141
_publ_section_title
;
Structure prediction by ZEFSAII (Michael W. Deem and Ramdas Pophale) SiO2 
 PCOD9050141
Probable space group: P -1
;
_chemical_formula_sum "Si O2"
_cell_formula_units_Z 14
_cell_length_a 7.578596
_cell_length_b 21.965396
_cell_length_c 4.859284
_cell_angle_alpha 103.548843
_cell_angle_beta 109.855720
_cell_angle_gamma 40.264200
_cell_volume 491.315594
_symmetry_space_group_name_H-M "P -1"
_symmetry_group_IT_number 2
_symmetry_cell_setting 'triclinic'
loop_
_space_group_symop_operation_xyz
x,y,z
-x,-y,-z
loop_
_atom_site_type_symbol
_atom_site_label
_atom_site_fract_x
_atom_site_fract_y
_atom_site_fract_z
Si Si1 0.791866 0.769171 0.590625
Si Si2 0.176709 0.742573 0.154774
Si Si3 0.023934 0.581544 0.341557
Si Si4 0.667615 0.184945 0.320670
Si Si5 0.996107 0.060787 0.866844
Si Si6 0.566009 0.925116 0.263878
Si Si7 0.679545 0.545189 0.111121
O O1 0.622941 0.781385 0.773459
O O2 0.562185 0.864310 0.391396
O O3 0.912294 0.679661 0.397735
O O4 0.038111 0.755145 0.797495
O O5 0.367915 0.743133 0.444060
O O6 0.372084 0.632193 0.166580
O O7 0.879533 0.839993 0.226235
O O8 0.117355 0.536537 0.645110
O O9 0.787004 0.589019 0.133912
O O10 0.284881 0.504831 0.193958
O O11 0.802079 0.156396 0.056791
O O12 0.884247 0.092790 0.534795
O O13 0.330129 0.989316 0.973321
O O14 0.000000 0.000000 0.000000
O O15 0.500000 0.000000 0.500000
#
# Coordination Sequence:
#
# PCOD9050141 Si02
#       7
#     2   2   2   2   2   2   2
#     4  12  28  47  77 114 149 204 256 309 375 461
#     4  12  28  47  76 112 151 204 243 323 372 452
#     4  10  24  48  78 112 146 196 248 312 368 467
#     4  12  27  48  74 106 150 200 254 308 373 443
#     4  12  25  45  73 101 146 200 252 309 368 437
#     4  12  27  47  71 110 156 195 259 310 371 444
#     4  10  24  48  78 110 151 191 248 309 387 436
#
# _framework density 28.494924000000001
#
# number of rings (size 3 to 8) (size 9 to 14) (size 15 to 20)
#    0.000    0.571    4.286    2.143    6.000    2.286 
#    0.000    0.000    0.000    0.000    0.000    0.000 
#    0.000    0.000    0.000    0.000    0.000    0.000 
#
# Total GULP energy -78284.045028 kJ/mol
# GULP energy per Si atom -5591.717502 kJ/mol
# Density = 2.843007 g / cm^3
# Si number density = 28.494924 Si / 1000 Ang^3
#
#
#
# Elastic Constant Matrix: (Units=GPa)
#
#
# Indices 1 2 3 4 5 6 
#
# 1 79.9348 23.9861 19.1807 22.3034 14.2003 8.2417
# 2 23.9861 167.0298 45.2314 43.1207 -5.4645 10.9056
# 3 19.1807 45.2314 149.9953 25.1268 -8.6954 29.1186
# 4 22.3034 43.1207 25.1268 66.3027 -0.9689 5.7634
# 5 14.2003 -5.4645 -8.6954 -0.9689 37.1705 8.8992
# 6 8.2417 10.9056 29.1186 5.7634 8.8992 24.3832
#
#
#
# Elastic Compliance Matrix: (Units=1/GPa)
#
#
# Indices 1 2 3 4 5 6 
#
# 1 0.015436 -0.001001 -0.001417 -0.004125 -0.006552 0.000289
# 2 -0.001001 0.007619 -0.001170 -0.004047 0.001419 -0.001233
# 3 -0.001417 -0.001170 0.010340 -0.001451 0.005900 -0.013156
# 4 -0.004125 -0.004047 -0.001451 0.019682 0.001190 -0.000149
# 5 -0.006552 0.001419 0.005900 0.001190 0.035504 -0.018705
# 6 0.000289 -0.001233 -0.013156 -0.000149 -0.018705 0.064039
#
#
# Mechanical properties :
#
#
# Convention : Reuss Voigt Hill
#
# Bulk Modulus (GPa) = 38.13987 63.75070 50.94529
# Shear Modulus (GPa) = 29.66706 46.14207 37.90457
#
# Velocity S-wave (km/s) = 3.23016 4.02843 3.65118
# Velocity P-wave (km/s) = 5.22741 6.63769 5.97431
#
# Compressibility (1/GPa) = 0.02621928
#
# Stress axis : x y z
#
# Youngs Moduli (GPa) = 64.78430 131.24517 96.71156
#
# Poissons Ratio (x) = 0.13141 0.13702
# Poissons Ratio (y) = 0.06486 0.11315
# Poissons Ratio (z) = 0.09179 0.15355
#
# Static dielectric constant tensor:
#      x y z
#    x 2.604230 -0.036500 0.132110 
#    y -0.036500 2.153590 0.018950 
#    z 0.132110 0.018950 2.160880 
# 
# From -- ./inp_files/56567.got.cif
#   From: 2010.05.17/outbox.cif.g08.bks.cpg/sg2_29_cif.got.tgz:56567.got - 2010.06.03 11:33:40.
