data_PCOD9050396
_publ_section_title
;
Structure prediction by ZEFSAII (Michael W. Deem and Ramdas Pophale) SiO2 
 PCOD9050396
Probable space group: P -1
;
_chemical_formula_sum "Si O2"
_cell_formula_units_Z 14
_cell_length_a 12.243599
_cell_length_b 8.378063
_cell_length_c 9.352151
_cell_angle_alpha 118.606454
_cell_angle_beta 123.433739
_cell_angle_gamma 53.021406
_cell_volume 623.726857
_symmetry_space_group_name_H-M "P -1"
_symmetry_group_IT_number 2
_symmetry_cell_setting 'triclinic'
loop_
_space_group_symop_operation_xyz
x,y,z
-x,-y,-z
loop_
_atom_site_type_symbol
_atom_site_label
_atom_site_fract_x
_atom_site_fract_y
_atom_site_fract_z
Si Si1 0.432629 0.340832 0.406970
Si Si2 0.576562 0.278088 0.762160
Si Si3 0.659420 0.965986 0.231021
Si Si4 0.479254 0.744185 0.961289
Si Si5 0.896188 0.545098 0.803356
Si Si6 0.097959 0.071080 0.194737
Si Si7 0.968866 0.705311 0.480388
O O1 0.500000 0.500000 0.500000
O O2 0.450359 0.292985 0.568659
O O3 0.537338 0.131141 0.315469
O O4 0.268568 0.416403 0.265074
O O5 0.557576 0.220944 0.884217
O O6 0.737296 0.117996 0.752440
O O7 0.547544 0.511195 0.861827
O O8 0.602640 0.817092 0.056680
O O9 0.665593 0.110384 0.170974
O O10 0.801229 0.832395 0.365587
O O11 0.890474 0.743800 0.802413
O O12 0.948955 0.366515 0.643047
O O13 0.000000 0.500000 0.000000
O O14 0.017062 0.152921 0.324489
O O15 0.000000 0.000000 0.000000
O O16 0.000000 0.500000 0.500000
#
# Coordination Sequence:
#
# PCOD9050396 Si02
#       7
#     2   2   2   2   2   2   2
#     4  12  26  47  76 106 144 194 250 307 362 442
#     4  11  24  44  69 105 142 187 254 300 369 434
#     4  11  23  44  73 103 145 185 251 302 369 434
#     4  10  25  39  71 104 139 184 241 317 358 431
#     4  11  29  48  75 109 152 194 244 306 378 441
#     4  11  26  46  73 105 149 196 242 302 376 443
#     4  10  25  45  69 106 146 194 237 303 372 442
#
# _framework density 22.445722
#
# number of rings (size 3 to 8) (size 9 to 14) (size 15 to 20)
#    0.000    1.143    2.857    0.857   16.000    2.286 
#    0.000    1.429    0.000    0.000    0.000    0.000 
#    0.000    0.000    0.000    0.000    0.000    0.000 
#
# Total GULP energy -78207.101490 kJ/mol
# GULP energy per Si atom -5586.221535 kJ/mol
# Density = 2.239463 g / cm^3
# Si number density = 22.445722 Si / 1000 Ang^3
#
#
#
# Elastic Constant Matrix: (Units=GPa)
#
#
# Indices 1 2 3 4 5 6 
#
# 1 68.0933 38.8844 40.9478 -1.6638 -1.2169 -14.3346
# 2 38.8844 116.0081 51.9280 -12.3739 0.0225 -11.5968
# 3 40.9478 51.9280 170.5072 -16.2957 -14.7587 -11.6755
# 4 -1.6638 -12.3739 -16.2957 41.0359 -4.9869 0.9415
# 5 -1.2169 0.0225 -14.7587 -4.9869 45.3396 2.1956
# 6 -14.3346 -11.5968 -11.6755 0.9415 2.1956 34.3550
#
#
#
# Elastic Compliance Matrix: (Units=1/GPa)
#
#
# Indices 1 2 3 4 5 6 
#
# 1 0.020797 -0.005127 -0.003337 -0.002294 -0.001066 0.005943
# 2 -0.005127 0.011620 -0.002060 0.002380 -0.000603 0.001056
# 3 -0.003337 -0.002060 0.007807 0.002668 0.002731 0.000318
# 4 -0.002294 0.002380 0.002668 0.026512 0.003732 -0.000212
# 5 -0.001066 -0.000603 0.002731 0.003732 0.023391 -0.001317
# 6 0.005943 0.001056 0.000318 -0.000212 -0.001317 0.032142
#
#
# Mechanical properties :
#
#
# Convention : Reuss Voigt Hill
#
# Bulk Modulus (GPa) = 52.15239 68.68100 60.41669
# Shear Modulus (GPa) = 33.39803 39.00265 36.20034
#
# Velocity S-wave (km/s) = 3.86158 4.17303 4.02032
# Velocity P-wave (km/s) = 6.57021 7.34057 6.96605
#
# Compressibility (1/GPa) = 0.01917458
#
# Stress axis : x y z
#
# Youngs Moduli (GPa) = 48.08480 86.05530 128.09249
#
# Poissons Ratio (x) = 0.44122 0.42750
# Poissons Ratio (y) = 0.24654 0.26388
# Poissons Ratio (z) = 0.16048 0.17728
#
# Static dielectric constant tensor:
#      x y z
#    x 1.778810 0.070600 -0.142500 
#    y 0.070600 1.855420 0.012460 
#    z -0.142500 0.012460 1.786530 
# 
# From -- ./inp_files/243744.got.cif
#   From: 2010.05.17/outbox.cif.g08.bks.cpg/sg2_122_cif.got.tgz:243744.got - 2010.06.03 11:33:40.
