data_PCOD9050467
_publ_section_title
;
Structure prediction by ZEFSAII (Michael W. Deem and Ramdas Pophale) SiO2 
 PCOD9050467
Probable space group: P -1
;
_chemical_formula_sum "Si O2"
_cell_formula_units_Z 16
_cell_length_a 9.046742
_cell_length_b 6.980990
_cell_length_c 17.457778
_cell_angle_alpha 131.750350
_cell_angle_beta 119.453033
_cell_angle_gamma 79.339068
_cell_volume 698.826390
_symmetry_space_group_name_H-M "P -1"
_symmetry_group_IT_number 2
_symmetry_cell_setting 'triclinic'
loop_
_space_group_symop_operation_xyz
x,y,z
-x,-y,-z
loop_
_atom_site_type_symbol
_atom_site_label
_atom_site_fract_x
_atom_site_fract_y
_atom_site_fract_z
Si Si1 0.918959 0.170397 0.129044
Si Si2 0.184128 0.652001 0.553979
Si Si3 0.484639 0.420418 0.625281
Si Si4 0.046095 0.735026 0.241715
Si Si5 0.748353 0.999590 0.189706
Si Si6 0.261754 0.897734 0.477724
Si Si7 0.850261 0.236187 0.882637
Si Si8 0.380681 0.005975 0.113346
O O1 0.002734 0.440225 0.181811
O O2 0.839357 0.199992 0.200354
O O3 0.061888 0.001766 0.133754
O O4 0.768099 0.018564 0.994738
O O5 0.333025 0.482176 0.547831
O O6 0.177584 0.775795 0.502163
O O7 0.000000 0.500000 0.500000
O O8 0.250172 0.873794 0.693078
O O9 0.623957 0.298261 0.581230
O O10 0.566693 0.693218 0.762088
O O11 0.385378 0.186434 0.593183
O O12 0.117143 0.909416 0.379454
O O13 0.187358 0.783298 0.222502
O O14 0.871547 0.795059 0.176403
O O15 0.546833 0.916628 0.095864
O O16 0.689125 0.192707 0.887097
O O17 0.000000 0.500000 0.000000
#
# Coordination Sequence:
#
# PCOD9050467 Si02
#       8
#     2   2   2   2   2   2   2   2
#     4  11  23  44  67  95 133 174 218 264 329 390
#     4  11  23  43  67  94 136 175 220 272 324 385
#     4  10  25  43  65 100 130 168 225 271 327 386
#     4  11  24  43  68  96 134 172 219 268 327 391
#     4  10  25  42  61 100 131 174 217 267 325 387
#     4  11  24  43  69  96 130 177 218 272 326 389
#     4  11  24  43  66 100 128 167 222 270 325 389
#     4  11  23  44  69  95 135 174 213 276 327 390
#
# _framework density 22.895530000000001
#
# number of rings (size 3 to 8) (size 9 to 14) (size 15 to 20)
#    0.000    1.250    1.250    3.375    1.750   11.500 
#    2.250    0.000    0.000    0.000    0.000    0.000 
#    0.000    0.000    0.000    0.000    0.000    0.000 
#
# Total GULP energy -89489.544474 kJ/mol
# GULP energy per Si atom -5593.096530 kJ/mol
# Density = 2.284342 g / cm^3
# Si number density = 22.895530 Si / 1000 Ang^3
#
#
#
# Elastic Constant Matrix: (Units=GPa)
#
#
# Indices 1 2 3 4 5 6 
#
# 1 89.5415 34.7401 3.9597 -9.0572 3.3784 16.3428
# 2 34.7401 122.2536 32.8140 -1.4992 -2.0018 26.6663
# 3 3.9597 32.8140 89.6280 -0.1367 5.3747 16.8275
# 4 -9.0572 -1.4992 -0.1367 40.7882 7.5160 -8.6113
# 5 3.3784 -2.0018 5.3747 7.5160 31.1100 -4.7617
# 6 16.3428 26.6663 16.8275 -8.6113 -4.7617 34.0419
#
#
#
# Elastic Compliance Matrix: (Units=1/GPa)
#
#
# Indices 1 2 3 4 5 6 
#
# 1 0.013606 -0.003346 0.001681 0.002549 -0.003297 -0.004558
# 2 -0.003346 0.011225 -0.002892 -0.001823 0.001097 -0.006065
# 3 0.001681 -0.002892 0.013428 -0.000253 -0.003505 -0.005734
# 4 0.002549 -0.001823 -0.000253 0.027481 -0.006004 0.006441
# 5 -0.003297 0.001097 -0.003505 -0.006004 0.035533 0.005907
# 6 -0.004558 -0.006065 -0.005734 0.006441 0.005907 0.041605
#
#
# Mechanical properties :
#
#
# Convention : Reuss Voigt Hill
#
# Bulk Modulus (GPa) = 34.30978 49.38341 41.84660
# Shear Modulus (GPa) = 30.92021 36.51531 33.71776
#
# Velocity S-wave (km/s) = 3.67889 3.99791 3.84171
# Velocity P-wave (km/s) = 5.75009 6.55186 6.16403
#
# Compressibility (1/GPa) = 0.02914620
#
# Stress axis : x y z
#
# Youngs Moduli (GPa) = 73.49665 89.08477 74.47141
#
# Poissons Ratio (x) = 0.29809 -0.12521
# Poissons Ratio (y) = 0.24593 0.21536
# Poissons Ratio (z) = -0.12357 0.25762
#
# Static dielectric constant tensor:
#      x y z
#    x 1.918790 -0.039730 0.007100 
#    y -0.039730 1.827730 -0.003740 
#    z 0.007100 -0.003740 1.903430 
# 
# From -- ./inp_files/68640.got.cif
#   From: 2010.05.17/outbox.cif.g08.bks.cpg/sg2_35_cif.got.tgz:68640.got - 2010.06.03 11:33:40.
