data_PCOD9050187
_publ_section_title
;
Structure prediction by ZEFSAII (Michael W. Deem and Ramdas Pophale) SiO2 
 PCOD9050187
Probable space group: P -1
;
_chemical_formula_sum "Si O2"
_cell_formula_units_Z 14
_cell_length_a 5.552403
_cell_length_b 8.989256
_cell_length_c 17.501448
_cell_angle_alpha 45.244262
_cell_angle_beta 77.227296
_cell_angle_gamma 68.528366
_cell_volume 576.369873
_symmetry_space_group_name_H-M "P -1"
_symmetry_group_IT_number 2
_symmetry_cell_setting 'triclinic'
loop_
_space_group_symop_operation_xyz
x,y,z
-x,-y,-z
loop_
_atom_site_type_symbol
_atom_site_label
_atom_site_fract_x
_atom_site_fract_y
_atom_site_fract_z
Si Si1 0.603745 0.436649 0.601679
Si Si2 0.905513 0.485388 0.347379
Si Si3 0.098602 0.086686 0.711221
Si Si4 0.812622 0.470907 0.840291
Si Si5 0.366794 0.229267 0.965908
Si Si6 0.259865 0.127157 0.522753
Si Si7 0.521582 0.737240 0.888667
O O1 0.500000 0.500000 0.500000
O O2 0.392402 0.462922 0.673336
O O3 0.721320 0.632039 0.542692
O O4 0.793610 0.189336 0.679522
O O5 0.862624 0.691087 0.334896
O O6 0.095352 0.498966 0.261799
O O7 0.987890 0.230134 0.460967
O O8 0.228569 0.018310 0.644132
O O9 0.239939 0.897094 0.828320
O O10 0.575504 0.365625 0.891439
O O11 0.703783 0.691864 0.818101
O O12 0.078339 0.334123 0.914507
O O13 0.357152 0.189655 0.071803
O O14 0.500000 0.000000 0.000000
O O15 0.500000 0.000000 0.500000
O O16 0.500000 0.500000 0.000000
#
# Coordination Sequence:
#
# PCOD9050187 Si02
#       7
#     2   2   2   2   2   2   2
#     4  11  21  44  69  99 139 188 238 283 351 439
#     4  11  23  43  68 103 141 182 238 289 353 444
#     4  11  22  43  70  99 139 188 237 291 361 424
#     4  11  25  45  70 107 141 187 235 304 367 418
#     4  11  24  47  74 102 141 187 247 299 359 433
#     4  11  23  40  66 102 145 174 228 299 357 429
#     4  10  24  49  70 101 145 187 242 305 362 426
#
# _framework density 24.289957000000001
#
# number of rings (size 3 to 8) (size 9 to 14) (size 15 to 20)
#    0.000    1.143    2.857    3.429    4.000    1.714 
#   10.286    0.000    0.000    0.000    0.000    0.000 
#    0.000    0.000    0.000    0.000    0.000    0.000 
#
# Total GULP energy -78110.751502 kJ/mol
# GULP energy per Si atom -5579.339393 kJ/mol
# Density = 2.423467 g / cm^3
# Si number density = 24.289957 Si / 1000 Ang^3
#
#
#
# Elastic Constant Matrix: (Units=GPa)
#
#
# Indices 1 2 3 4 5 6 
#
# 1 56.0122 3.2368 16.2048 -11.3518 17.2460 -16.5319
# 2 3.2368 116.8800 25.5403 0.3910 17.9959 -8.3266
# 3 16.2048 25.5403 102.9042 -10.0974 32.4344 -7.6664
# 4 -11.3518 0.3910 -10.0974 47.0720 -17.5446 4.9504
# 5 17.2460 17.9959 32.4344 -17.5446 46.6570 -5.4392
# 6 -16.5319 -8.3266 -7.6664 4.9504 -5.4392 33.7414
#
#
#
# Elastic Compliance Matrix: (Units=1/GPa)
#
#
# Indices 1 2 3 4 5 6 
#
# 1 0.023514 0.001306 -0.000999 0.001911 -0.006585 0.010274
# 2 0.001306 0.009548 -0.001461 -0.001624 -0.003488 0.002340
# 3 -0.000999 -0.001461 0.012790 -0.000585 -0.008080 0.000839
# 4 0.001911 -0.001624 -0.000585 0.025381 0.009665 -0.001763
# 5 -0.006585 -0.003488 -0.008080 0.009665 0.034252 -0.001819
# 6 0.010274 0.002340 0.000839 -0.001763 -0.001819 0.035405
#
#
# Mechanical properties :
#
#
# Convention : Reuss Voigt Hill
#
# Bulk Modulus (GPa) = 22.96486 40.64003 31.80244
# Shear Modulus (GPa) = 31.70362 40.88171 36.29267
#
# Velocity S-wave (km/s) = 3.61670 4.10698 3.86961
# Velocity P-wave (km/s) = 5.18803 6.26556 5.75208
#
# Compressibility (1/GPa) = 0.04354479
#
# Stress axis : x y z
#
# Youngs Moduli (GPa) = 42.52808 104.73340 78.18799
#
# Poissons Ratio (x) = -0.13683 0.07808
# Poissons Ratio (y) = -0.05556 0.11425
# Poissons Ratio (z) = 0.04247 0.15304
#
# Static dielectric constant tensor:
#      x y z
#    x 3.521020 0.374140 0.936060 
#    y 0.374140 1.988890 0.282450 
#    z 0.936060 0.282450 2.864960 
# 
# From -- ./inp_files/93035.got.cif
#   From: 2010.05.17/outbox.cif.g08.bks.cpg/sg2_47_cif.got.tgz:93035.got - 2010.06.03 11:33:40.
