data_PCOD9050468
_publ_section_title
;
Structure prediction by ZEFSAII (Michael W. Deem and Ramdas Pophale) SiO2 
 PCOD9050468
Probable space group: P -1
;
_chemical_formula_sum "Si O2"
_cell_formula_units_Z 16
_cell_length_a 14.847759
_cell_length_b 9.154191
_cell_length_c 8.969568
_cell_angle_alpha 108.913694
_cell_angle_beta 141.504409
_cell_angle_gamma 77.049066
_cell_volume 716.978631
_symmetry_space_group_name_H-M "P -1"
_symmetry_group_IT_number 2
_symmetry_cell_setting 'triclinic'
loop_
_space_group_symop_operation_xyz
x,y,z
-x,-y,-z
loop_
_atom_site_type_symbol
_atom_site_label
_atom_site_fract_x
_atom_site_fract_y
_atom_site_fract_z
Si Si1 0.221802 0.979321 0.379242
Si Si2 0.847445 0.569944 0.277745
Si Si3 0.440851 0.822567 0.402065
Si Si4 0.693841 0.696366 0.876398
Si Si5 0.949914 0.144130 0.389723
Si Si6 0.082499 0.098521 0.955402
Si Si7 0.331257 0.681916 0.896796
Si Si8 0.426360 0.159696 0.929045
O O1 0.322707 0.859954 0.387333
O O2 0.088726 0.884785 0.254772
O O3 0.307554 0.098876 0.636556
O O4 0.149052 0.089641 0.201012
O O5 0.000000 0.500000 0.500000
O O6 0.909722 0.745050 0.415207
O O7 0.769538 0.551378 0.007170
O O8 0.729027 0.494233 0.212042
O O9 0.561070 0.712620 0.592868
O O10 0.385399 0.749525 0.149916
O O11 0.500000 0.000000 0.500000
O O12 0.826368 0.784671 0.991710
O O13 0.631809 0.780042 0.970076
O O14 0.898443 0.072062 0.142939
O O15 0.812311 0.227309 0.303127
O O16 0.000000 0.000000 0.500000
O O17 0.456964 0.719014 0.953856
O O18 0.500000 0.000000 0.000000
#
# Coordination Sequence:
#
# PCOD9050468 Si02
#       8
#     2   2   2   2   2   2   2   2
#     4  11  23  35  59 101 134 158 208 278 331 372
#     4  10  25  42  61  97 133 175 214 271 330 390
#     4  12  20  41  65  95 133 170 215 274 323 391
#     4  12  23  40  68  93 131 174 221 259 334 394
#     4  11  20  36  69  95 121 170 220 267 316 386
#     4  11  22  38  63  98 126 167 214 275 321 378
#     4  11  24  42  62  92 139 172 208 276 334 377
#     4  12  23  36  65 104 126 165 219 275 323 388
#
# _framework density 22.31587
#
# number of rings (size 3 to 8) (size 9 to 14) (size 15 to 20)
#    0.000    0.750    6.250    1.500    1.750    1.000 
#    0.000    0.000    0.000    2.250    0.000    0.000 
#    0.000    0.000    0.000    0.000    0.000    0.000 
#
# Total GULP energy -89227.157700 kJ/mol
# GULP energy per Si atom -5576.697356 kJ/mol
# Density = 2.226508 g / cm^3
# Si number density = 22.315870 Si / 1000 Ang^3
#
#
#
# Elastic Constant Matrix: (Units=GPa)
#
#
# Indices 1 2 3 4 5 6 
#
# 1 130.5430 28.1002 25.2062 1.7611 30.3186 32.5245
# 2 28.1002 103.7569 41.1404 -9.4402 16.6518 32.1311
# 3 25.2062 41.1404 106.6090 -20.5290 11.4859 21.9240
# 4 1.7611 -9.4402 -20.5290 38.9983 1.9427 8.2240
# 5 30.3186 16.6518 11.4859 1.9427 42.0594 2.4950
# 6 32.5245 32.1311 21.9240 8.2240 2.4950 35.6745
#
#
#
# Elastic Compliance Matrix: (Units=1/GPa)
#
#
# Indices 1 2 3 4 5 6 
#
# 1 0.012911 0.002834 0.000855 0.004239 -0.009960 -0.015129
# 2 0.002834 0.016936 -0.001129 0.007634 -0.007703 -0.018365
# 3 0.000855 -0.001129 0.013926 0.009362 -0.003799 -0.010213
# 4 0.004239 0.007634 0.009362 0.037858 -0.008924 -0.024597
# 5 -0.009960 -0.007703 -0.003799 -0.008924 0.034387 0.018006
# 6 -0.015129 -0.018365 -0.010213 -0.024597 0.018006 0.069052
#
#
# Mechanical properties :
#
#
# Convention : Reuss Voigt Hill
#
# Bulk Modulus (GPa) = 20.45340 58.86696 39.66018
# Shear Modulus (GPa) = 25.47784 39.77725 32.62754
#
# Velocity S-wave (km/s) = 3.38256 4.22650 3.82786
# Velocity P-wave (km/s) = 4.94377 7.08901 6.11126
#
# Compressibility (1/GPa) = 0.04889162
#
# Stress axis : x y z
#
# Youngs Moduli (GPa) = 77.45453 59.04594 71.80803
#
# Poissons Ratio (x) = -0.16733 -0.06137
# Poissons Ratio (y) = -0.21950 0.08108
# Poissons Ratio (z) = -0.06619 0.06667
#
# Static dielectric constant tensor:
#      x y z
#    x 1.862390 -0.025000 0.008880 
#    y -0.025000 1.899490 -0.063810 
#    z 0.008880 -0.063810 1.944680 
# 
# From -- ./inp_files/298629.got.cif
#   From: 2010.05.17/outbox.cif.g08.bks.cpg/sg2_150_cif.got.tgz:298629.got - 2010.06.03 11:33:40.
