data_PCOD9050548
_publ_section_title
;
Structure prediction by ZEFSAII (Michael W. Deem and Ramdas Pophale) SiO2 
 PCOD9050548
Probable space group: P -1
;
_chemical_formula_sum "Si O2"
_cell_formula_units_Z 10
_cell_length_a 9.230243
_cell_length_b 13.962505
_cell_length_c 9.898694
_cell_angle_alpha 134.235863
_cell_angle_beta 91.202480
_cell_angle_gamma 126.654281
_cell_volume 475.662545
_symmetry_space_group_name_H-M "P -1"
_symmetry_group_IT_number 2
_symmetry_cell_setting 'triclinic'
loop_
_space_group_symop_operation_xyz
x,y,z
-x,-y,-z
loop_
_atom_site_type_symbol
_atom_site_label
_atom_site_fract_x
_atom_site_fract_y
_atom_site_fract_z
Si Si1 0.286423 0.049965 0.025537
Si Si2 0.090539 0.134188 0.931208
Si Si3 0.537563 0.634438 0.255350
Si Si4 0.701796 0.267000 0.695798
Si Si5 0.234346 0.706549 0.594855
O O1 0.553661 0.246224 0.318690
O O2 0.262350 0.144317 0.005114
O O3 0.040904 0.890300 0.968345
O O4 0.300315 0.914916 0.826514
O O5 0.301955 0.397936 0.120617
O O6 0.838709 0.883779 0.582068
O O7 0.456392 0.716562 0.281337
O O8 0.500000 0.500000 0.000000
O O9 0.781544 0.310749 0.583204
O O10 0.500000 0.000000 0.500000
O O11 0.000000 0.500000 0.000000
O O12 0.000000 0.500000 0.500000
#
# Coordination Sequence:
#
# PCOD9050548 Si02
#       5
#     2   2   2   2   2
#     4  10  25  42  73 102 140 181 239 304 359 418
#     4  11  25  46  71 106 140 182 237 302 360 415
#     4  12  27  46  71 102 147 187 241 286 361 437
#     4  12  29  48  73 104 150 192 239 294 364 429
#     4  11  25  45  75 104 144 187 251 294 358 427
#
# _framework density 21.023308
#
# number of rings (size 3 to 8) (size 9 to 14) (size 15 to 20)
#    0.000    0.800    2.000    3.000   14.000    1.600 
#    0.000    0.000    0.000    0.000    0.000    0.000 
#    0.000    0.000    0.000    0.000    0.000    0.000 
#
# Total GULP energy -55779.449150 kJ/mol
# GULP energy per Si atom -5577.944915 kJ/mol
# Density = 2.097546 g / cm^3
# Si number density = 21.023308 Si / 1000 Ang^3
#
#
#
# Elastic Constant Matrix: (Units=GPa)
#
#
# Indices 1 2 3 4 5 6 
#
# 1 144.0059 66.8470 48.9341 -7.2198 -2.5150 -39.4129
# 2 66.8470 155.1468 75.0965 6.4949 6.7436 -25.2050
# 3 48.9341 75.0965 138.4516 -12.8193 3.5132 -22.9717
# 4 -7.2198 6.4949 -12.8193 45.5573 4.2104 -5.6499
# 5 -2.5150 6.7436 3.5132 4.2104 42.0474 -10.4856
# 6 -39.4129 -25.2050 -22.9717 -5.6499 -10.4856 39.3536
#
#
#
# Elastic Compliance Matrix: (Units=1/GPa)
#
#
# Indices 1 2 3 4 5 6 
#
# 1 0.011903 -0.003519 -0.000262 0.003334 0.003702 0.010980
# 2 -0.003519 0.010371 -0.004731 -0.003307 -0.001260 -0.000454
# 3 -0.000262 -0.004731 0.010875 0.004125 0.000355 0.003742
# 4 0.003334 -0.003307 0.004125 0.025027 -0.000343 0.007130
# 5 0.003702 -0.001260 0.000355 -0.000343 0.026751 0.010186
# 6 0.010980 -0.000454 0.003742 0.007130 0.010186 0.042038
#
#
# Mechanical properties :
#
#
# Convention : Reuss Voigt Hill
#
# Bulk Modulus (GPa) = 62.01162 91.03994 76.52578
# Shear Modulus (GPa) = 33.47488 41.84010 37.65749
#
# Velocity S-wave (km/s) = 3.99466 4.46598 4.23688
# Velocity P-wave (km/s) = 7.13001 8.36610 7.77267
#
# Compressibility (1/GPa) = 0.01612601
#
# Stress axis : x y z
#
# Youngs Moduli (GPa) = 84.00941 96.42139 91.95042
#
# Poissons Ratio (x) = 0.33926 0.02411
# Poissons Ratio (y) = 0.29559 0.43504
# Poissons Ratio (z) = 0.02202 0.45620
#
# Static dielectric constant tensor:
#      x y z
#    x 1.813090 0.008310 -0.007920 
#    y 0.008310 1.679200 -0.004580 
#    z -0.007920 -0.004580 1.850340 
# 
# From -- ./inp_files/15340.got.cif
#   From: 2010.05.17/outbox.cif.g08.bks.cpg/sg2_8_cif.got.tgz:15340.got - 2010.06.03 11:33:40.
