data_PCOD9050003
_publ_section_title
;
Structure prediction by ZEFSAII (Michael W. Deem and Ramdas Pophale) SiO2 
 PCOD9050003
Probable space group: P -1
;
_chemical_formula_sum "Si O2"
_cell_formula_units_Z 14
_cell_length_a 7.669256
_cell_length_b 15.670118
_cell_length_c 10.822648
_cell_angle_alpha 24.561539
_cell_angle_beta 100.993039
_cell_angle_gamma 101.819233
_cell_volume 529.146690
_symmetry_space_group_name_H-M "P -1"
_symmetry_group_IT_number 2
_symmetry_cell_setting 'triclinic'
loop_
_space_group_symop_operation_xyz
x,y,z
-x,-y,-z
loop_
_atom_site_type_symbol
_atom_site_label
_atom_site_fract_x
_atom_site_fract_y
_atom_site_fract_z
Si Si1 0.793218 0.063790 0.890732
Si Si2 0.679413 0.043645 0.387905
Si Si3 0.232943 0.476522 0.733388
Si Si4 0.187072 0.265788 0.513521
Si Si5 0.603957 0.434404 0.721943
Si Si6 0.703553 0.586800 0.910069
Si Si7 0.852974 0.990430 0.731921
O O1 0.802402 0.301617 0.616752
O O2 0.727609 0.023910 0.792317
O O3 0.696485 0.914265 0.176778
O O4 0.000000 0.000000 0.000000
O O5 0.500000 0.000000 0.500000
O O6 0.713195 0.830409 0.610582
O O7 0.811715 0.080186 0.473367
O O8 0.661687 0.211039 0.059454
O O9 0.445954 0.463950 0.761889
O O10 0.195103 0.495120 0.850579
O O11 0.147008 0.257427 0.960181
O O12 0.215087 0.416344 0.437372
O O13 0.230470 0.433454 0.192101
O O14 0.026779 0.126510 0.617054
O O15 0.500000 0.500000 0.500000
O O16 0.500000 0.500000 0.000000
#
# Coordination Sequence:
#
# PCOD9050003 Si02
#       7
#     2   2   2   2   2   2   2
#     4  10  25  46  69 104 144 187 234 296 361 420
#     4  11  23  43  71  98 142 188 232 296 348 426
#     4  11  24  44  75  96 146 193 230 298 360 425
#     4  11  25  44  69 107 139 184 238 296 358 417
#     4  12  26  44  68 109 141 185 242 294 356 426
#     4  11  23  43  68 103 138 185 238 290 358 423
#     4  10  24  48  72 105 143 188 243 291 362 420
#
# _framework density 26.457692000000002
#
# number of rings (size 3 to 8) (size 9 to 14) (size 15 to 20)
#    0.000    1.143    4.286    0.857    6.000    5.714 
#    7.714    0.000    0.000    0.000    0.000    0.000 
#    0.000    0.000    0.000    0.000    0.000    0.000 
#
# Total GULP energy -78073.338322 kJ/mol
# GULP energy per Si atom -5576.667023 kJ/mol
# Density = 2.639747 g / cm^3
# Si number density = 26.457692 Si / 1000 Ang^3
#
#
#
# Elastic Constant Matrix: (Units=GPa)
#
#
# Indices 1 2 3 4 5 6 
#
# 1 21.4130 11.7858 -9.9121 -10.6703 -8.5687 5.1916
# 2 11.7858 156.4721 53.4550 8.2354 -8.5494 31.3403
# 3 -9.9121 53.4550 201.3644 -7.0624 -1.2552 9.8389
# 4 -10.6703 8.2354 -7.0624 43.8563 -7.2320 -10.1775
# 5 -8.5687 -8.5494 -1.2552 -7.2320 37.9998 -3.2937
# 6 5.1916 31.3403 9.8389 -10.1775 -3.2937 44.1319
#
#
#
# Elastic Compliance Matrix: (Units=1/GPa)
#
#
# Indices 1 2 3 4 5 6 
#
# 1 0.074340 -0.008793 0.006834 0.024885 0.020025 0.003209
# 2 -0.008793 0.009623 -0.002889 -0.006249 -0.001685 -0.006723
# 3 0.006834 -0.002889 0.006169 0.003709 0.001876 0.000868
# 4 0.024885 -0.006249 0.003709 0.034795 0.011781 0.009587
# 5 0.020025 -0.001685 0.001876 0.011781 0.033069 0.003608
# 6 0.003209 -0.006723 0.000868 0.009587 0.003608 0.029343
#
#
# Mechanical properties :
#
#
# Convention : Reuss Voigt Hill
#
# Bulk Modulus (GPa) = 12.43192 54.43410 33.43301
# Shear Modulus (GPa) = 22.33687 46.79232 34.56460
#
# Velocity S-wave (km/s) = 2.90875 4.21000 3.61835
# Velocity P-wave (km/s) = 3.99876 6.65213 5.48821
#
# Compressibility (1/GPa) = 0.08043810
#
# Stress axis : x y z
#
# Youngs Moduli (GPa) = 13.45176 103.91334 162.10658
#
# Poissons Ratio (x) = 0.91366 -1.10789
# Poissons Ratio (y) = 0.11827 0.46828
# Poissons Ratio (z) = -0.09193 0.30017
#
# Static dielectric constant tensor:
#      x y z
#    x 2.394740 0.241830 0.438960 
#    y 0.241830 2.998040 1.660000 
#    z 0.438960 1.660000 4.995200 
# 
# From -- ./inp_files/402583.got.cif
#   From: 2010.05.17/outbox.cif.g08.bks.cpg/sg2_202_cif.got.tgz:402583.got - 2010.06.03 11:33:40.
