data_PCOD9050711
_publ_section_title
;
Structure prediction by ZEFSAII (Michael W. Deem and Ramdas Pophale) SiO2 
 PCOD9050711
Probable space group: P -1
;
_chemical_formula_sum "Si O2"
_cell_formula_units_Z 16
_cell_length_a 9.828579
_cell_length_b 12.381962
_cell_length_c 18.881402
_cell_angle_alpha 35.500153
_cell_angle_beta 141.889488
_cell_angle_gamma 147.244948
_cell_volume 682.719683
_symmetry_space_group_name_H-M "P -1"
_symmetry_group_IT_number 2
_symmetry_cell_setting 'triclinic'
loop_
_space_group_symop_operation_xyz
x,y,z
-x,-y,-z
loop_
_atom_site_type_symbol
_atom_site_label
_atom_site_fract_x
_atom_site_fract_y
_atom_site_fract_z
Si Si1 0.429167 0.255737 0.616259
Si Si2 0.386362 0.482840 0.211841
Si Si3 0.180961 0.638190 0.167292
Si Si4 0.462556 0.045025 0.607661
Si Si5 0.682109 0.887302 0.023074
Si Si6 0.930459 0.018941 0.641174
Si Si7 0.032381 0.276142 0.691205
Si Si8 0.435082 0.687047 0.882840
O O1 0.500000 0.500000 0.500000
O O2 0.697482 0.305486 0.734465
O O3 0.343846 0.106274 0.591243
O O4 0.197879 0.130965 0.645694
O O5 0.327923 0.553785 0.224725
O O6 0.430218 0.671282 0.074095
O O7 0.668655 0.505504 0.310803
O O8 0.159524 0.228898 0.240197
O O9 0.870933 0.448848 0.144975
O O10 0.248394 0.879102 0.042192
O O11 0.767356 0.259320 0.611142
O O12 0.292075 0.999658 0.492154
O O13 0.462775 0.830246 0.748329
O O14 0.918885 0.860280 0.156866
O O15 0.618180 0.851580 0.933237
O O16 0.970961 0.156253 0.654511
O O17 0.500000 0.500000 0.000000
#
# Coordination Sequence:
#
# PCOD9050711 Si02
#       8
#     2   2   2   2   2   2   2   2
#     4  12  25  47  75 105 145 190 242 298 356 430
#     4  10  25  43  73 103 140 191 240 296 348 427
#     4  12  23  45  72 102 144 193 237 299 364 416
#     4  12  26  46  75 106 146 192 237 298 364 425
#     4  10  25  46  68 107 141 186 238 295 355 428
#     4  12  25  50  72 106 145 186 250 292 356 427
#     4  10  26  47  70 104 147 185 238 296 359 423
#     4  12  28  45  73 109 145 187 242 294 362 434
#
# _framework density 23.435680999999999
#
# number of rings (size 3 to 8) (size 9 to 14) (size 15 to 20)
#    0.750    0.000    2.500    4.125    5.250    2.000 
#    2.250    0.000    0.000    0.000    0.000    0.000 
#    0.000    0.000    0.000    0.000    0.000    0.000 
#
# Total GULP energy -89481.105200 kJ/mol
# GULP energy per Si atom -5592.569075 kJ/mol
# Density = 2.338234 g / cm^3
# Si number density = 23.435681 Si / 1000 Ang^3
#
#
#
# Elastic Constant Matrix: (Units=GPa)
#
#
# Indices 1 2 3 4 5 6 
#
# 1 76.2222 20.7187 -8.7622 10.4790 0.3641 16.2846
# 2 20.7187 42.0162 15.5977 0.5805 -8.1244 17.3744
# 3 -8.7622 15.5977 70.9048 10.1007 -1.7126 4.2313
# 4 10.4790 0.5805 10.1007 51.6878 -3.1545 -3.2993
# 5 0.3641 -8.1244 -1.7126 -3.1545 21.7563 6.2117
# 6 16.2846 17.3744 4.2313 -3.2993 6.2117 37.0734
#
#
#
# Elastic Compliance Matrix: (Units=1/GPa)
#
#
# Indices 1 2 3 4 5 6 
#
# 1 0.017867 -0.009707 0.005202 -0.004965 -0.003147 -0.003807
# 2 -0.009707 0.044023 -0.009754 0.003515 0.021645 -0.018568
# 3 0.005202 -0.009754 0.017435 -0.004516 -0.003131 0.000419
# 4 -0.004965 0.003515 -0.004516 0.021561 0.003486 0.002384
# 5 -0.003147 0.021645 -0.003131 0.003486 0.059516 -0.018066
# 6 -0.003807 -0.018568 0.000419 0.002384 -0.018066 0.040539
#
#
# Mechanical properties :
#
#
# Convention : Reuss Voigt Hill
#
# Bulk Modulus (GPa) = 19.68259 27.13907 23.41083
# Shear Modulus (GPa) = 20.29261 32.87609 26.58435
#
# Velocity S-wave (km/s) = 2.94579 3.74949 3.37167
# Velocity P-wave (km/s) = 4.47068 5.50911 5.01683
#
# Compressibility (1/GPa) = 0.05080632
#
# Stress axis : x y z
#
# Youngs Moduli (GPa) = 55.96877 22.71542 57.35713
#
# Poissons Ratio (x) = 0.22050 -0.29836
# Poissons Ratio (y) = 0.54330 0.55945
# Poissons Ratio (z) = -0.29114 0.22156
#
# Static dielectric constant tensor:
#      x y z
#    x 1.858160 0.034440 0.000000 
#    y 0.034440 1.901230 -0.058800 
#    z 0.000000 -0.058800 1.958790 
# 
# From -- ./inp_files/559724.got.cif
#   From: 2010.05.17/outbox.cif.g08.bks.cpg/sg2_280_cif.got.tgz:559724.got - 2010.06.03 11:33:40.
