data_PCOD9050464
_publ_section_title
;
Structure prediction by ZEFSAII (Michael W. Deem and Ramdas Pophale) SiO2 
 PCOD9050464
Probable space group: P -1
;
_chemical_formula_sum "Si O2"
_cell_formula_units_Z 16
_cell_length_a 19.323716
_cell_length_b 12.702685
_cell_length_c 8.522879
_cell_angle_alpha 51.364731
_cell_angle_beta 117.548100
_cell_angle_gamma 152.880326
_cell_volume 718.958453
_symmetry_space_group_name_H-M "P -1"
_symmetry_group_IT_number 2
_symmetry_cell_setting 'triclinic'
loop_
_space_group_symop_operation_xyz
x,y,z
-x,-y,-z
loop_
_atom_site_type_symbol
_atom_site_label
_atom_site_fract_x
_atom_site_fract_y
_atom_site_fract_z
Si Si1 0.978577 0.337584 0.730697
Si Si2 0.332906 0.245000 0.650162
Si Si3 0.192792 0.530977 0.534720
Si Si4 0.330729 0.567691 0.892325
Si Si5 0.978886 0.112637 0.442732
Si Si6 0.672037 0.707123 0.044298
Si Si7 0.666788 0.055838 0.949681
Si Si8 0.812720 0.440278 0.003786
O O1 0.000000 0.500000 0.500000
O O2 0.062242 0.353904 0.694603
O O3 0.098930 0.533960 0.817893
O O4 0.804658 0.022215 0.872911
O O5 0.500000 0.500000 0.500000
O O6 0.337037 0.331732 0.740533
O O7 0.200730 0.110153 0.522275
O O8 0.292389 0.030193 0.858735
O O9 0.333605 0.675241 0.646450
O O10 0.233543 0.723613 0.292580
O O11 0.101766 0.298407 0.538789
O O12 0.280873 0.351757 0.958464
O O13 0.237334 0.506541 0.991446
O O14 0.496846 0.790098 0.940863
O O15 0.000000 0.000000 0.500000
O O16 0.049644 0.316227 0.196959
O O17 0.500000 0.500000 0.000000
O O18 0.678602 0.174830 0.000631
#
# Coordination Sequence:
#
# PCOD9050464 Si02
#       8
#     2   2   2   2   2   2   2   2
#     4  11  25  44  71 105 145 188 247 295 366 435
#     4  12  28  47  72 106 144 197 241 306 373 439
#     4  10  25  41  73 103 136 195 230 306 361 440
#     4  11  24  47  73 106 150 186 245 299 384 437
#     4  11  25  44  71 103 146 185 251 295 362 436
#     4  12  26  46  72 105 147 191 240 309 367 438
#     4  11  24  48  71 106 151 187 246 300 373 445
#     4  10  25  44  73 104 138 199 236 307 361 442
#
# _framework density 22.254414000000001
#
# number of rings (size 3 to 8) (size 9 to 14) (size 15 to 20)
#    0.000    1.000    2.500    2.250    7.000    2.000 
#    4.500    0.000    0.000    0.000    0.000    0.000 
#    0.000    0.000    0.000    0.000    0.000    0.000 
#
# Total GULP energy -89189.124568 kJ/mol
# GULP energy per Si atom -5574.320286 kJ/mol
# Density = 2.220376 g / cm^3
# Si number density = 22.254414 Si / 1000 Ang^3
#
#
#
# Elastic Constant Matrix: (Units=GPa)
#
#
# Indices 1 2 3 4 5 6 
#
# 1 84.4706 43.1736 17.2227 -4.0531 -1.0329 -13.1843
# 2 43.1736 99.3399 35.8432 -2.3849 -3.8772 -7.2595
# 3 17.2227 35.8432 66.5003 11.7164 0.4156 -5.2020
# 4 -4.0531 -2.3849 11.7164 31.7174 -0.2862 -1.9288
# 5 -1.0329 -3.8772 0.4156 -0.2862 31.2477 9.6082
# 6 -13.1843 -7.2595 -5.2020 -1.9288 9.6082 38.8746
#
#
#
# Elastic Compliance Matrix: (Units=1/GPa)
#
#
# Indices 1 2 3 4 5 6 
#
# 1 0.016063 -0.006400 -0.000705 0.002101 -0.001672 0.004676
# 2 -0.006400 0.015611 -0.007354 0.003055 0.002033 -0.000590
# 3 -0.000705 -0.007354 0.020738 -0.008248 -0.001644 0.001160
# 4 0.002101 0.003055 -0.008248 0.035189 0.000312 0.001848
# 5 -0.001672 0.002033 -0.001644 0.000312 0.035005 -0.009044
# 6 0.004676 -0.000590 0.001160 0.001848 -0.009044 0.029682
#
#
# Mechanical properties :
#
#
# Convention : Reuss Voigt Hill
#
# Bulk Modulus (GPa) = 42.56173 49.19889 45.88031
# Shear Modulus (GPa) = 26.45003 30.63935 28.54469
#
# Velocity S-wave (km/s) = 3.45125 3.71452 3.58530
# Velocity P-wave (km/s) = 5.92014 6.36807 6.14819
#
# Compressibility (1/GPa) = 0.02349529
#
# Stress axis : x y z
#
# Youngs Moduli (GPa) = 62.25301 64.05798 48.22128
#
# Poissons Ratio (x) = 0.40998 0.03397
# Poissons Ratio (y) = 0.39843 0.35460
# Poissons Ratio (z) = 0.04386 0.47106
#
# Static dielectric constant tensor:
#      x y z
#    x 2.169590 -0.122460 0.001790 
#    y -0.122460 2.015950 0.080080 
#    z 0.001790 0.080080 1.810270 
# 
# From -- ./inp_files/332934.got.cif
#   From: 2010.05.17/outbox.cif.g08.bks.cpg/sg2_167_cif.got.tgz:332934.got - 2010.06.03 11:33:40.
