data_PCOD9050569
_publ_section_title
;
Structure prediction by ZEFSAII (Michael W. Deem and Ramdas Pophale) SiO2 
 PCOD9050569
Probable space group: P -1
;
_chemical_formula_sum "Si O2"
_cell_formula_units_Z 16
_cell_length_a 8.410668
_cell_length_b 12.055125
_cell_length_c 11.487931
_cell_angle_alpha 103.639346
_cell_angle_beta 128.716140
_cell_angle_gamma 54.451774
_cell_volume 724.298958
_symmetry_space_group_name_H-M "P -1"
_symmetry_group_IT_number 2
_symmetry_cell_setting 'triclinic'
loop_
_space_group_symop_operation_xyz
x,y,z
-x,-y,-z
loop_
_atom_site_type_symbol
_atom_site_label
_atom_site_fract_x
_atom_site_fract_y
_atom_site_fract_z
Si Si1 0.862221 0.802408 0.602839
Si Si2 0.170993 0.649988 0.898317
Si Si3 0.664612 0.791929 0.829706
Si Si4 0.113097 0.099378 0.861238
Si Si5 0.358728 0.895435 0.310622
Si Si6 0.432989 0.807960 0.061770
Si Si7 0.261195 0.412554 0.025729
Si Si8 0.160196 0.061706 0.607192
O O1 0.611980 0.807449 0.478463
O O2 0.905414 0.832302 0.499393
O O3 0.109074 0.667418 0.736633
O O4 0.781943 0.943280 0.673119
O O5 0.319574 0.515376 0.017205
O O6 0.890979 0.708760 0.824827
O O7 0.269733 0.745344 0.988305
O O8 0.441665 0.926745 0.699228
O O9 0.791143 0.828851 0.997502
O O10 0.576953 0.702715 0.829333
O O11 0.131187 0.117537 0.737856
O O12 0.835743 0.144308 0.769751
O O13 0.292560 0.937137 0.940542
O O14 0.432526 0.868254 0.201561
O O15 0.689096 0.683400 0.089001
O O16 0.000000 0.500000 0.000000
O O17 0.000000 0.000000 0.500000
#
# Coordination Sequence:
#
# PCOD9050569 Si02
#       8
#     2   2   2   2   2   2   2   2
#     4  11  23  39  60  97 136 169 197 255 332 385
#     4  11  22  42  66  87 126 170 218 261 303 376
#     4  11  23  41  65  93 128 164 209 265 321 369
#     4  12  22  38  63 101 129 157 206 270 321 378
#     4  11  22  38  63  97 134 158 205 263 325 385
#     4  12  21  40  67  97 119 166 216 268 317 365
#     4  10  25  43  63  92 125 168 218 266 308 366
#     4  12  23  36  59  94 137 166 195 252 326 387
#
# _framework density 22.090328
#
# number of rings (size 3 to 8) (size 9 to 14) (size 15 to 20)
#    0.000    0.750    5.000    4.125    1.750    0.000 
#    0.000    0.625    0.000    0.750    0.000    0.000 
#    0.000    0.000    0.000    0.000    0.000    0.000 
#
# Total GULP energy -89248.959301 kJ/mol
# GULP energy per Si atom -5578.059956 kJ/mol
# Density = 2.204005 g / cm^3
# Si number density = 22.090328 Si / 1000 Ang^3
#
#
#
# Elastic Constant Matrix: (Units=GPa)
#
#
# Indices 1 2 3 4 5 6 
#
# 1 96.0418 31.3322 47.4366 -6.7527 -22.9157 8.6941
# 2 31.3322 51.5136 34.7557 -12.8980 -13.1680 15.8821
# 3 47.4366 34.7557 125.4651 -3.5132 -7.3355 7.1130
# 4 -6.7527 -12.8980 -3.5132 28.9514 1.8215 -10.4571
# 5 -22.9157 -13.1680 -7.3355 1.8215 52.7049 3.2594
# 6 8.6941 15.8821 7.1130 -10.4571 3.2594 49.4532
#
#
#
# Elastic Compliance Matrix: (Units=1/GPa)
#
#
# Indices 1 2 3 4 5 6 
#
# 1 0.015307 -0.005027 -0.004060 0.000257 0.004872 -0.000759
# 2 -0.005027 0.032516 -0.006137 0.009729 0.005178 -0.006960
# 3 -0.004060 -0.006137 0.011003 -0.001944 -0.001750 0.000806
# 4 0.000257 0.009729 -0.001944 0.040721 0.000513 0.005687
# 5 0.004872 0.005178 -0.001750 0.000513 0.022349 -0.003633
# 6 -0.000759 -0.006960 0.000806 0.005687 -0.003633 0.023916
#
#
# Mechanical properties :
#
#
# Convention : Reuss Voigt Hill
#
# Bulk Modulus (GPa) = 35.23821 55.56328 45.40074
# Shear Modulus (GPa) = 26.92257 36.85497 31.88877
#
# Velocity S-wave (km/s) = 3.49485 4.08901 3.80355
# Velocity P-wave (km/s) = 5.68082 6.89207 6.31555
#
# Compressibility (1/GPa) = 0.02837829
#
# Stress axis : x y z
#
# Youngs Moduli (GPa) = 65.33146 30.75398 90.88605
#
# Poissons Ratio (x) = 0.15460 0.36895
# Poissons Ratio (y) = 0.32843 0.55777
# Poissons Ratio (z) = 0.26521 0.18874
#
# Static dielectric constant tensor:
#      x y z
#    x 1.926350 -0.000590 -0.001220 
#    y -0.000590 1.884800 -0.028510 
#    z -0.001220 -0.028510 1.809680 
# 
# From -- ./inp_files/392698.got.cif
#   From: 2010.05.17/outbox.cif.g08.bks.cpg/sg2_197_cif.got.tgz:392698.got - 2010.06.03 11:33:40.
