data_PCOD9050167
_publ_section_title
;
Structure prediction by ZEFSAII (Michael W. Deem and Ramdas Pophale) SiO2 
 PCOD9050167
Probable space group: P -1
;
_chemical_formula_sum "Si O2"
_cell_formula_units_Z 11
_cell_length_a 8.268418
_cell_length_b 4.887545
_cell_length_c 11.332702
_cell_angle_alpha 102.866396
_cell_angle_beta 60.642582
_cell_angle_gamma 108.317192
_cell_volume 377.635671
_symmetry_space_group_name_H-M "P -1"
_symmetry_group_IT_number 2
_symmetry_cell_setting 'triclinic'
loop_
_space_group_symop_operation_xyz
x,y,z
-x,-y,-z
loop_
_atom_site_type_symbol
_atom_site_label
_atom_site_fract_x
_atom_site_fract_y
_atom_site_fract_z
Si Si1 0.077578 0.204791 0.717654
Si Si2 0.182136 0.120933 0.030629
Si Si3 0.500000 0.500000 0.000000
Si Si4 0.688665 0.197167 0.350258
Si Si5 0.831498 0.211975 0.540523
Si Si6 0.446309 0.093972 0.207628
O O1 0.127269 0.545757 0.723542
O O2 0.099091 0.052538 0.570791
O O3 0.250868 0.103845 0.714967
O O4 0.896551 0.042032 0.838666
O O5 0.267761 0.461008 0.043196
O O6 0.434326 0.331178 0.138436
O O7 0.000000 0.000000 0.000000
O O8 0.599578 0.921801 0.082678
O O9 0.670174 0.240482 0.501216
O O10 0.535708 0.230573 0.312895
O O11 0.000000 0.500000 0.500000
O O12 0.734915 0.134096 0.693523
#
# Coordination Sequence:
#
# PCOD9050167 Si02
#       6
#     2   2   1   2   2   2
#     4  10  25  45  81 118 159 213 275 333 428 496
#     4  12  26  50  79 117 166 222 273 349 420 505
#     4  12  32  44  80 118 172 216 282 334 428 502
#     4  10  24  48  82 116 157 215 274 343 422 490
#     4  10  26  48  79 119 165 215 277 349 420 497
#     4  12  27  51  79 121 167 216 283 345 417 515
#
# _framework density 29.128603999999999
#
# number of rings (size 3 to 8) (size 9 to 14) (size 15 to 20)
#    1.091    0.000    1.818    2.182    7.636    4.364 
#    0.000    0.000    0.000    0.000    0.000    0.000 
#    0.000    0.000    0.000    0.000    0.000    0.000 
#
# Total GULP energy -61296.434333 kJ/mol
# GULP energy per Si atom -5572.403121 kJ/mol
# Density = 2.906231 g / cm^3
# Si number density = 29.128604 Si / 1000 Ang^3
#
#
#
# Elastic Constant Matrix: (Units=GPa)
#
#
# Indices 1 2 3 4 5 6 
#
# 1 118.8608 43.4226 82.1907 -10.1345 0.9872 23.0480
# 2 43.4226 99.2553 61.8955 -30.1212 -2.1103 1.5219
# 3 82.1907 61.8955 258.7989 -48.1930 12.8439 21.2783
# 4 -10.1345 -30.1212 -48.1930 56.2271 9.3200 -6.4608
# 5 0.9872 -2.1103 12.8439 9.3200 82.4603 6.5941
# 6 23.0480 1.5219 21.2783 -6.4608 6.5941 65.6460
#
#
#
# Elastic Compliance Matrix: (Units=1/GPa)
#
#
# Indices 1 2 3 4 5 6 
#
# 1 0.012827 -0.004504 -0.003410 -0.003615 0.000970 -0.003747
# 2 -0.004504 0.014601 -0.001032 0.006436 -0.000319 0.002243
# 3 -0.003410 -0.001032 0.006069 0.004244 -0.001395 -0.000188
# 4 -0.003615 0.006436 0.004244 0.025093 -0.003494 0.002565
# 5 0.000970 -0.000319 -0.001395 -0.003494 0.012841 -0.001515
# 6 -0.003747 0.002243 -0.000188 0.002565 -0.001515 0.016962
#
#
# Mechanical properties :
#
#
# Convention : Reuss Voigt Hill
#
# Bulk Modulus (GPa) = 64.07995 94.65918 79.36956
# Shear Modulus (GPa) = 44.84931 60.16043 52.50487
#
# Velocity S-wave (km/s) = 3.92816 4.54953 4.25021
# Velocity P-wave (km/s) = 6.52845 7.75662 7.16888
#
# Compressibility (1/GPa) = 0.01560551
#
# Stress axis : x y z
#
# Youngs Moduli (GPa) = 77.96277 68.48904 164.78342
#
# Poissons Ratio (x) = 0.30849 0.56183
# Poissons Ratio (y) = 0.35116 0.16999
# Poissons Ratio (z) = 0.26582 0.07065
#
# Static dielectric constant tensor:
#      x y z
#    x 2.517720 0.082760 0.021080 
#    y 0.082760 1.437570 -0.104170 
#    z 0.021080 -0.104170 2.236850 
# 
# From -- ./inp_files/372114.got.cif
#   From: 2010.05.17/outbox.cif.g08.bks.cpg/sg2_187_cif.got.tgz:372114.got - 2010.06.03 11:33:40.
