data_PCOD9050650
_publ_section_title
;
Structure prediction by ZEFSAII (Michael W. Deem and Ramdas Pophale) SiO2 
 PCOD9050650
Probable space group: P -1
;
_chemical_formula_sum "Si O2"
_cell_formula_units_Z 14
_cell_length_a 8.758671
_cell_length_b 18.145056
_cell_length_c 13.286816
_cell_angle_alpha 38.950735
_cell_angle_beta 52.840364
_cell_angle_gamma 33.558223
_cell_volume 727.896092
_symmetry_space_group_name_H-M "P -1"
_symmetry_group_IT_number 2
_symmetry_cell_setting 'triclinic'
loop_
_space_group_symop_operation_xyz
x,y,z
-x,-y,-z
loop_
_atom_site_type_symbol
_atom_site_label
_atom_site_fract_x
_atom_site_fract_y
_atom_site_fract_z
Si Si1 0.169737 0.477423 0.052062
Si Si2 0.461571 0.487601 0.226415
Si Si3 0.097115 0.259443 0.934027
Si Si4 0.331810 0.850311 0.514495
Si Si5 0.709348 0.347622 0.501192
Si Si6 0.321878 0.181286 0.426817
Si Si7 0.647304 0.108157 0.767989
O O1 0.302534 0.306861 0.234932
O O2 0.000811 0.629166 0.043090
O O3 0.402381 0.459662 0.933560
O O4 0.000000 0.500000 0.000000
O O5 0.584031 0.316872 0.308186
O O6 0.567843 0.430553 0.359678
O O7 0.137126 0.626603 0.180597
O O8 0.380489 0.192114 0.851653
O O9 0.155436 0.094167 0.098746
O O10 0.506647 0.862885 0.495933
O O11 0.420339 0.835777 0.380674
O O12 0.000000 0.000000 0.500000
O O13 0.500000 0.500000 0.500000
O O14 0.754212 0.188968 0.673660
O O15 0.006834 0.278080 0.462901
O O16 0.500000 0.000000 0.500000
#
# Coordination Sequence:
#
# PCOD9050650 Si02
#       7
#     2   2   2   2   2   2   2
#     4  12  25  43  66  97 134 170 223 279 332 398
#     4  11  24  41  70  94 126 177 227 268 338 389
#     4  11  24  45  67  99 130 182 223 279 332 400
#     4  11  24  43  68  97 131 176 227 275 329 406
#     4  11  25  45  67  99 139 178 220 279 341 411
#     4  12  26  42  66 100 134 176 222 279 345 394
#     4  10  25  43  69  95 138 172 226 274 336 403
#
# _framework density 19.233515000000001
#
# number of rings (size 3 to 8) (size 9 to 14) (size 15 to 20)
#    0.000    0.857    2.857    3.857    8.000    1.143 
#    0.000    0.714    0.000    0.000    0.000    0.000 
#    0.000    0.000    0.000    0.000    0.000    0.000 
#
# Total GULP energy -78136.680525 kJ/mol
# GULP energy per Si atom -5581.191466 kJ/mol
# Density = 1.918974 g / cm^3
# Si number density = 19.233515 Si / 1000 Ang^3
#
#
#
# Elastic Constant Matrix: (Units=GPa)
#
#
# Indices 1 2 3 4 5 6 
#
# 1 130.4637 50.2557 32.7197 -4.7600 0.5980 6.3291
# 2 50.2557 106.9347 44.0525 -11.8219 -2.0380 13.0515
# 3 32.7197 44.0525 101.1489 -14.0313 -29.9744 3.6053
# 4 -4.7600 -11.8219 -14.0313 33.7124 6.8737 0.5448
# 5 0.5980 -2.0380 -29.9744 6.8737 35.5290 -6.9993
# 6 6.3291 13.0515 3.6053 0.5448 -6.9993 31.6280
#
#
#
# Elastic Compliance Matrix: (Units=1/GPa)
#
#
# Indices 1 2 3 4 5 6 
#
# 1 0.009654 -0.003595 -0.002282 -0.000354 -0.002364 -0.000705
# 2 -0.003595 0.014686 -0.006440 0.003360 -0.006377 -0.006076
# 3 -0.002282 -0.006440 0.018097 0.001724 0.015479 0.004447
# 4 -0.000354 0.003360 0.001724 0.032642 -0.005302 -0.003248
# 5 -0.002364 -0.006377 0.015479 -0.005302 0.044110 0.011193
# 6 -0.000705 -0.006076 0.004447 -0.003248 0.011193 0.036292
#
#
# Mechanical properties :
#
#
# Convention : Reuss Voigt Hill
#
# Bulk Modulus (GPa) = 56.17083 65.84478 61.00781
# Shear Modulus (GPa) = 26.87452 34.27517 30.57485
#
# Velocity S-wave (km/s) = 3.74207 4.22602 3.99139
# Velocity P-wave (km/s) = 6.92379 7.62371 7.28217
#
# Compressibility (1/GPa) = 0.01780283
#
# Stress axis : x y z
#
# Youngs Moduli (GPa) = 103.58086 68.09334 55.25768
#
# Poissons Ratio (x) = 0.24482 0.12608
# Poissons Ratio (y) = 0.37241 0.35586
# Poissons Ratio (z) = 0.23634 0.43853
#
# Static dielectric constant tensor:
#      x y z
#    x 1.531460 0.043700 -0.041020 
#    y 0.043700 1.661850 -0.011660 
#    z -0.041020 -0.011660 1.660610 
# 
# From -- ./inp_files/156981.got.cif
#   From: 2010.05.17/outbox.cif.g08.bks.cpg/sg2_79_cif.got.tgz:156981.got - 2010.06.03 11:33:40.
