data_PCOD9050577
_publ_section_title
;
Structure prediction by ZEFSAII (Michael W. Deem and Ramdas Pophale) SiO2 
 PCOD9050577
Probable space group: P -1
;
_chemical_formula_sum "Si O2"
_cell_formula_units_Z 16
_cell_length_a 10.400017
_cell_length_b 11.204492
_cell_length_c 6.439736
_cell_angle_alpha 72.764973
_cell_angle_beta 61.994567
_cell_angle_gamma 92.082178
_cell_volume 618.933872
_symmetry_space_group_name_H-M "P -1"
_symmetry_group_IT_number 2
_symmetry_cell_setting 'triclinic'
loop_
_space_group_symop_operation_xyz
x,y,z
-x,-y,-z
loop_
_atom_site_type_symbol
_atom_site_label
_atom_site_fract_x
_atom_site_fract_y
_atom_site_fract_z
Si Si1 0.631427 0.939904 0.849855
Si Si2 0.344296 0.729691 0.756241
Si Si3 0.894194 0.942215 0.836190
Si Si4 0.315757 0.525125 0.259993
Si Si5 0.093479 0.588519 0.710866
Si Si6 0.563464 0.673405 0.281233
Si Si7 0.235261 0.990719 0.703553
Si Si8 0.190704 0.314705 0.175092
O O1 0.650978 0.940280 0.589481
O O2 0.789049 0.029830 0.767075
O O3 0.583272 0.796718 0.050049
O O4 0.500000 0.000000 0.000000
O O5 0.220344 0.681243 0.697163
O O6 0.493817 0.715977 0.522807
O O7 0.302830 0.866412 0.776325
O O8 0.327741 0.632940 0.014262
O O9 0.860317 0.836202 0.737462
O O10 0.796313 0.917569 0.133646
O O11 0.064359 0.956057 0.762605
O O12 0.169740 0.525529 0.504225
O O13 0.447779 0.561488 0.308813
O O14 0.299939 0.389565 0.227067
O O15 0.000000 0.500000 0.000000
O O16 0.965898 0.650572 0.680130
O O17 0.727066 0.641628 0.132223
#
# Coordination Sequence:
#
# PCOD9050577 Si02
#       8
#     2   2   2   2   2   2   2   2
#     4  11  23  43  68  93 137 175 222 274 321 394
#     4  11  23  42  69  95 137 173 220 270 327 395
#     4  10  25  43  65 101 130 174 220 276 332 383
#     4  11  25  44  70  99 130 181 217 266 338 392
#     4  11  23  45  68 100 131 170 222 273 329 391
#     4  10  25  44  62 101 133 178 219 269 332 386
#     4  11  23  45  67  98 132 176 222 274 331 389
#     4  11  22  46  66  98 139 166 220 276 322 398
#
# _framework density 25.850905999999998
#
# number of rings (size 3 to 8) (size 9 to 14) (size 15 to 20)
#    0.000    1.250    3.750    1.125    1.750    3.000 
#   15.750    0.000    0.000    0.000    0.000    0.000 
#    0.000    0.000    0.000    0.000    0.000    0.000 
#
# Total GULP energy -89217.568922 kJ/mol
# GULP energy per Si atom -5576.098058 kJ/mol
# Density = 2.579207 g / cm^3
# Si number density = 25.850906 Si / 1000 Ang^3
#
#
#
# Elastic Constant Matrix: (Units=GPa)
#
#
# Indices 1 2 3 4 5 6 
#
# 1 119.8158 29.8293 17.7861 16.9868 -14.7539 -6.4582
# 2 29.8293 108.0902 51.2981 28.3665 5.4992 -4.4642
# 3 17.7861 51.2981 190.7099 34.8525 -21.9031 -25.8448
# 4 16.9868 28.3665 34.8525 41.9464 -11.1716 -3.4179
# 5 -14.7539 5.4992 -21.9031 -11.1716 46.8435 14.4673
# 6 -6.4582 -4.4642 -25.8448 -3.4179 14.4673 27.6679
#
#
#
# Elastic Compliance Matrix: (Units=1/GPa)
#
#
# Indices 1 2 3 4 5 6 
#
# 1 0.009546 -0.002558 0.000531 -0.001741 0.002973 0.000542
# 2 -0.002558 0.013427 -0.002504 -0.007380 -0.005717 0.001308
# 3 0.000531 -0.002504 0.007490 -0.003945 0.001310 0.005544
# 4 -0.001741 -0.007380 -0.003945 0.034609 0.008394 -0.005395
# 5 0.002973 -0.005717 0.001310 0.008394 0.029746 -0.013521
# 6 0.000542 0.001308 0.005544 -0.005395 -0.013521 0.048063
#
#
# Mechanical properties :
#
#
# Convention : Reuss Voigt Hill
#
# Bulk Modulus (GPa) = 46.72567 68.49364 57.60966
# Shear Modulus (GPa) = 31.43106 44.60504 38.01805
#
# Velocity S-wave (km/s) = 3.49070 4.15839 3.83909
# Velocity P-wave (km/s) = 5.86182 7.04339 6.47960
#
# Compressibility (1/GPa) = 0.02140151
#
# Stress axis : x y z
#
# Youngs Moduli (GPa) = 104.75185 74.47428 133.50696
#
# Poissons Ratio (x) = 0.19053 -0.07088
# Poissons Ratio (y) = 0.26799 0.33427
# Poissons Ratio (z) = -0.05561 0.18647
#
# Static dielectric constant tensor:
#      x y z
#    x 2.784860 -0.311250 -0.035990 
#    y -0.311250 2.286440 -0.022440 
#    z -0.035990 -0.022440 2.036540 
# 
# From -- ./inp_files/69606.got.cif
#   From: 2010.05.17/outbox.cif.g08.bks.cpg/sg2_35_cif.got.tgz:69606.got - 2010.06.03 11:33:40.
