data_PCOD9050923
_publ_section_title
;
Structure prediction by ZEFSAII (Michael W. Deem and Ramdas Pophale) SiO2 
 PCOD9050923
Probable space group: P -1
;
_chemical_formula_sum "Si O2"
_cell_formula_units_Z 14
_cell_length_a 15.458280
_cell_length_b 9.198533
_cell_length_c 8.262964
_cell_angle_alpha 46.920443
_cell_angle_beta 140.148250
_cell_angle_gamma 123.798595
_cell_volume 548.646044
_symmetry_space_group_name_H-M "P -1"
_symmetry_group_IT_number 2
_symmetry_cell_setting 'triclinic'
loop_
_space_group_symop_operation_xyz
x,y,z
-x,-y,-z
loop_
_atom_site_type_symbol
_atom_site_label
_atom_site_fract_x
_atom_site_fract_y
_atom_site_fract_z
Si Si1 0.698537 0.568083 0.847980
Si Si2 0.010941 0.233798 0.790596
Si Si3 0.897547 0.340225 0.881448
Si Si4 0.431453 0.827977 0.917669
Si Si5 0.117693 0.103469 0.738695
Si Si6 0.306609 0.370592 0.582629
Si Si7 0.623189 0.919805 0.642428
O O1 0.660897 0.336037 0.993915
O O2 0.688709 0.635678 0.598834
O O3 0.596012 0.696358 0.704704
O O4 0.846837 0.640888 0.066605
O O5 0.008242 0.215947 0.603611
O O6 0.921561 0.324790 0.734288
O O7 0.000000 0.000000 0.000000
O O8 0.745913 0.412414 0.622320
O O9 0.000000 0.500000 0.000000
O O10 0.922325 0.130074 0.164085
O O11 0.551222 0.708573 0.098858
O O12 0.349775 0.938064 0.581283
O O13 0.500000 0.000000 0.000000
O O14 0.189901 0.221955 0.605655
O O15 0.245230 0.083833 0.057591
O O16 0.500000 0.000000 0.500000
#
# Coordination Sequence:
#
# PCOD9050923 Si02
#       7
#     2   2   2   2   2   2   2
#     4  11  25  44  72 103 144 187 240 296 357 430
#     4   9  21  49  69  98 142 186 238 291 359 417
#     4  11  24  44  72 101 141 187 240 299 347 427
#     4  12  27  44  71 105 145 191 232 295 362 431
#     4  10  25  44  72 104 142 184 235 296 358 427
#     4  12  25  41  72 107 136 184 239 288 360 418
#     4  11  24  45  69 100 145 187 232 290 357 432
#
# _framework density 25.517363
#
# number of rings (size 3 to 8) (size 9 to 14) (size 15 to 20)
#    0.000    1.143    4.286    0.429    4.000    4.000 
#    0.000    2.857    0.000    0.000    0.000    0.000 
#    0.000    0.000    0.000    0.000    0.000    0.000 
#
# Total GULP energy -78317.075518 kJ/mol
# GULP energy per Si atom -5594.076823 kJ/mol
# Density = 2.545928 g / cm^3
# Si number density = 25.517363 Si / 1000 Ang^3
#
#
#
# Elastic Constant Matrix: (Units=GPa)
#
#
# Indices 1 2 3 4 5 6 
#
# 1 108.0786 40.7207 6.4565 -12.2018 7.2801 -6.8752
# 2 40.7207 134.0891 27.7816 -19.8781 -20.9858 8.0200
# 3 6.4565 27.7816 76.5555 -15.4397 -10.3116 11.2607
# 4 -12.2018 -19.8781 -15.4397 38.7784 6.5106 -2.4972
# 5 7.2801 -20.9858 -10.3116 6.5106 54.4478 -22.4733
# 6 -6.8752 8.0200 11.2607 -2.4972 -22.4733 45.3194
#
#
#
# Elastic Compliance Matrix: (Units=1/GPa)
#
#
# Indices 1 2 3 4 5 6 
#
# 1 0.011081 -0.003565 0.000312 0.002294 -0.002636 0.001054
# 2 -0.003565 0.009951 -0.002359 0.002439 0.003673 0.000240
# 3 0.000312 -0.002359 0.015315 0.004770 0.000137 -0.003010
# 4 0.002294 0.002439 0.004770 0.030007 -0.002380 -0.000795
# 5 -0.002636 0.003673 0.000137 -0.002380 0.025076 0.011220
# 6 0.001054 0.000240 -0.003010 -0.000795 0.011220 0.028451
#
#
# Mechanical properties :
#
#
# Convention : Reuss Voigt Hill
#
# Bulk Modulus (GPa) = 39.80581 52.07119 45.93850
# Shear Modulus (GPa) = 35.84743 43.96007 39.90375
#
# Velocity S-wave (km/s) = 3.75217 4.15511 3.95877
# Velocity P-wave (km/s) = 5.86558 6.59321 6.24001
#
# Compressibility (1/GPa) = 0.02512196
#
# Stress axis : x y z
#
# Youngs Moduli (GPa) = 90.24712 100.49006 65.29357
#
# Poissons Ratio (x) = 0.35827 -0.02036
# Poissons Ratio (y) = 0.32175 0.15405
# Poissons Ratio (z) = -0.02814 0.23709
#
# Static dielectric constant tensor:
#      x y z
#    x 2.035180 -0.034200 0.032410 
#    y -0.034200 2.054750 0.025910 
#    z 0.032410 0.025910 2.109910 
# 
# From -- ./inp_files/294336.got.cif
#   From: 2010.05.17/outbox.cif.g08.bks.cpg/sg2_148_cif.got.tgz:294336.got - 2010.06.03 11:33:40.
