data_PCOD9050857
_publ_section_title
;
Structure prediction by ZEFSAII (Michael W. Deem and Ramdas Pophale) SiO2 
 PCOD9050857
Probable space group: P -1
;
_chemical_formula_sum "Si O2"
_cell_formula_units_Z 13
_cell_length_a 16.382979
_cell_length_b 8.138431
_cell_length_c 13.051141
_cell_angle_alpha 129.540748
_cell_angle_beta 23.504180
_cell_angle_gamma 135.136931
_cell_volume 489.000089
_symmetry_space_group_name_H-M "P -1"
_symmetry_group_IT_number 2
_symmetry_cell_setting 'triclinic'
loop_
_space_group_symop_operation_xyz
x,y,z
-x,-y,-z
loop_
_atom_site_type_symbol
_atom_site_label
_atom_site_fract_x
_atom_site_fract_y
_atom_site_fract_z
Si Si1 0.371021 0.837072 0.987653
Si Si2 0.276665 0.500662 0.805935
Si Si3 0.817988 0.230090 0.152596
Si Si4 0.000000 0.000000 0.500000
Si Si5 0.224654 0.331377 0.187254
Si Si6 0.776654 0.190214 0.538411
Si Si7 0.438343 0.731261 0.369524
O O1 0.317576 0.572455 0.906900
O O2 0.123553 0.823615 0.285221
O O3 0.500000 0.000000 0.000000
O O4 0.557692 0.972554 0.741391
O O5 0.500000 0.500000 0.500000
O O6 0.197111 0.686310 0.912361
O O7 0.060195 0.272363 0.933504
O O8 0.707362 0.376447 0.405578
O O9 0.648875 0.964343 0.250135
O O10 0.187084 0.165999 0.263726
O O11 0.226599 0.578543 0.313228
O O12 0.006577 0.188402 0.312286
O O13 0.449353 0.385301 0.884587
O O14 0.738357 0.208215 0.470325
#
# Coordination Sequence:
#
# PCOD9050857 Si02
#       7
#     2   2   2   1   2   2   2
#     4  12  26  43  71 107 143 186 239 300 360 429
#     4  11  26  47  71 103 145 187 240 299 356 431
#     4  10  25  44  70 101 133 190 239 286 356 427
#     4  12  24  42  70 102 140 188 232 296 356 424
#     4  11  25  41  70 102 143 187 230 299 361 429
#     4  11  24  43  64 101 144 178 235 287 361 427
#     4  11  23  44  69  97 140 184 236 291 352 429
#
# _framework density 26.584862000000001
#
# number of rings (size 3 to 8) (size 9 to 14) (size 15 to 20)
#    0.000    0.923    4.615    0.462    4.308    4.923 
#    0.000    3.077    0.000    0.000    0.000    0.000 
#    0.000    0.000    0.000    0.000    0.000    0.000 
#
# Total GULP energy -72392.298812 kJ/mol
# GULP energy per Si atom -5568.638370 kJ/mol
# Density = 2.652435 g / cm^3
# Si number density = 26.584862 Si / 1000 Ang^3
#
#
#
# Elastic Constant Matrix: (Units=GPa)
#
#
# Indices 1 2 3 4 5 6 
#
# 1 80.1315 23.4436 28.1228 -15.0747 1.6921 28.9033
# 2 23.4436 85.2372 22.4417 -14.3329 -9.7874 37.2545
# 3 28.1228 22.4417 142.2542 4.6129 -18.9852 23.4938
# 4 -15.0747 -14.3329 4.6129 43.6700 8.9103 1.2241
# 5 1.6921 -9.7874 -18.9852 8.9103 37.9454 -12.2241
# 6 28.9033 37.2545 23.4938 1.2241 -12.2241 41.4851
#
#
#
# Elastic Compliance Matrix: (Units=1/GPa)
#
#
# Indices 1 2 3 4 5 6 
#
# 1 0.023172 0.005445 -0.003690 0.013255 -0.011951 -0.022857
# 2 0.005445 0.023237 -0.001669 0.011664 -0.006159 -0.025874
# 3 -0.003690 -0.001669 0.008717 -0.003836 0.005252 0.000794
# 4 0.013255 0.011664 -0.003836 0.035470 -0.015267 -0.023082
# 5 -0.011951 -0.006159 0.005252 -0.015267 0.038849 0.022781
# 6 -0.022857 -0.025874 0.000794 -0.023082 0.022781 0.070209
#
#
# Mechanical properties :
#
#
# Convention : Reuss Voigt Hill
#
# Bulk Modulus (GPa) = 18.08417 50.62657 34.35537
# Shear Modulus (GPa) = 22.94476 40.19442 31.56959
#
# Velocity S-wave (km/s) = 2.94100 3.89257 3.44975
# Velocity P-wave (km/s) = 4.28367 6.26798 5.36831
#
# Compressibility (1/GPa) = 0.05529699
#
# Stress axis : x y z
#
# Youngs Moduli (GPa) = 43.15609 43.03476 114.72371
#
# Poissons Ratio (x) = -0.23431 0.42330
# Poissons Ratio (y) = -0.23497 0.19149
# Poissons Ratio (z) = 0.15924 0.07183
#
# Static dielectric constant tensor:
#      x y z
#    x 2.185590 -0.009810 -0.010490 
#    y -0.009810 2.168120 0.051120 
#    z -0.010490 0.051120 2.063060 
# 
# From -- ./inp_files/448144.got.cif
#   From: 2010.05.17/outbox.cif.g08.bks.cpg/sg2_225_cif.got.tgz:448144.got - 2010.06.03 11:33:40.
