data_PCOD9050840
_publ_section_title
;
Structure prediction by ZEFSAII (Michael W. Deem and Ramdas Pophale) SiO2 
 PCOD9050840
Probable space group: P -1
;
_chemical_formula_sum "Si O2"
_cell_formula_units_Z 16
_cell_length_a 6.894731
_cell_length_b 24.969521
_cell_length_c 12.093000
_cell_angle_alpha 31.762436
_cell_angle_beta 134.312512
_cell_angle_gamma 133.131893
_cell_volume 761.594627
_symmetry_space_group_name_H-M "P -1"
_symmetry_group_IT_number 2
_symmetry_cell_setting 'triclinic'
loop_
_space_group_symop_operation_xyz
x,y,z
-x,-y,-z
loop_
_atom_site_type_symbol
_atom_site_label
_atom_site_fract_x
_atom_site_fract_y
_atom_site_fract_z
Si Si1 0.334813 0.266459 0.773330
Si Si2 0.723137 0.415228 0.492297
Si Si3 0.753997 0.977570 0.856940
Si Si4 0.495572 0.749433 0.887948
Si Si5 0.672484 0.880269 0.518611
Si Si6 0.196106 0.920923 0.517547
Si Si7 0.272023 0.697754 0.537674
Si Si8 0.686024 0.446683 0.997606
O O1 0.565587 0.346690 0.652737
O O2 0.028397 0.278707 0.594606
O O3 0.358331 0.146734 0.979406
O O4 0.369374 0.281634 0.892623
O O5 0.748285 0.334783 0.543039
O O6 0.000000 0.500000 0.500000
O O7 0.520992 0.481080 0.241200
O O8 0.511491 0.034850 0.691153
O O9 0.914074 0.034585 0.712965
O O10 0.000000 0.000000 0.000000
O O11 0.678675 0.828381 0.733218
O O12 0.252307 0.806515 0.725751
O O13 0.386997 0.649528 0.946409
O O14 0.509574 0.795210 0.511022
O O15 0.984967 0.922445 0.527906
O O16 0.500000 0.000000 0.500000
O O17 0.321017 0.599585 0.800675
O O18 0.000000 0.500000 0.000000
#
# Coordination Sequence:
#
# PCOD9050840 Si02
#       8
#     2   2   2   2   2   2   2   2
#     4  12  25  47  70 104 147 180 232 296 351 419
#     4  12  29  46  71 106 140 187 239 293 357 420
#     4  11  24  44  69 105 140 180 228 285 357 410
#     4  10  25  44  69 103 139 184 232 287 354 412
#     4  10  25  44  73 103 140 183 239 281 347 433
#     4  11  24  46  68 101 140 188 225 282 351 419
#     4  11  25  45  73 105 133 184 238 288 356 417
#     4  11  24  47  74  97 137 185 230 295 349 410
#
# _framework density 21.008551000000001
#
# number of rings (size 3 to 8) (size 9 to 14) (size 15 to 20)
#    0.000    1.000    3.750    1.125    5.250    7.500 
#    2.250    0.000    0.000    0.000    0.000    0.000 
#    0.000    0.000    0.000    0.000    0.000    0.000 
#
# Total GULP energy -89316.112451 kJ/mol
# GULP energy per Si atom -5582.257028 kJ/mol
# Density = 2.096074 g / cm^3
# Si number density = 21.008551 Si / 1000 Ang^3
#
#
#
# Elastic Constant Matrix: (Units=GPa)
#
#
# Indices 1 2 3 4 5 6 
#
# 1 141.6456 46.9928 48.6525 -2.3885 -6.0575 4.0615
# 2 46.9928 72.0656 17.5922 11.8324 -15.0813 -2.5900
# 3 48.6525 17.5922 119.3385 9.6026 -9.2009 3.6477
# 4 -2.3885 11.8324 9.6026 35.6800 -19.3072 -1.0549
# 5 -6.0575 -15.0813 -9.2009 -19.3072 25.4152 5.0484
# 6 4.0615 -2.5900 3.6477 -1.0549 5.0484 34.1575
#
#
#
# Elastic Compliance Matrix: (Units=1/GPa)
#
#
# Indices 1 2 3 4 5 6 
#
# 1 0.010649 -0.006647 -0.003601 0.004291 0.000823 -0.001375
# 2 -0.006647 0.020318 0.000555 -0.002769 0.008382 0.000947
# 3 -0.003601 0.000555 0.010100 -0.002344 0.001527 -0.000906
# 4 0.004291 -0.002769 -0.002344 0.049947 0.037358 -0.004449
# 5 0.000823 0.008382 0.001527 0.037358 0.075358 -0.009609
# 6 -0.001375 0.000947 -0.000906 -0.004449 -0.009609 0.030891
#
#
# Mechanical properties :
#
#
# Convention : Reuss Voigt Hill
#
# Bulk Modulus (GPa) = 46.12564 62.16940 54.14752
# Shear Modulus (GPa) = 22.33384 33.70469 28.01927
#
# Velocity S-wave (km/s) = 3.26403 4.00976 3.65596
# Velocity P-wave (km/s) = 6.01735 7.14802 6.60692
#
# Compressibility (1/GPa) = 0.02167992
#
# Stress axis : x y z
#
# Youngs Moduli (GPa) = 93.90601 49.21833 99.00972
#
# Poissons Ratio (x) = 0.32713 0.35658
# Poissons Ratio (y) = 0.62415 -0.05491
# Poissons Ratio (z) = 0.33820 -0.02730
#
# Static dielectric constant tensor:
#      x y z
#    x 2.392250 -0.973300 -0.811800 
#    y -0.973300 3.093900 1.119880 
#    z -0.811800 1.119880 2.719530 
# 
# From -- ./inp_files/371428.got.cif
#   From: 2010.05.17/outbox.cif.g08.bks.cpg/sg2_186_cif.got.tgz:371428.got - 2010.06.03 11:33:40.
