data_PCOD9050125
_publ_section_title
;
Structure prediction by ZEFSAII (Michael W. Deem and Ramdas Pophale) SiO2 
 PCOD9050125
Probable space group: P -1
;
_chemical_formula_sum "Si O2"
_cell_formula_units_Z 14
_cell_length_a 19.377126
_cell_length_b 5.310751
_cell_length_c 9.322174
_cell_angle_alpha 109.423675
_cell_angle_beta 137.518521
_cell_angle_gamma 95.439179
_cell_volume 516.635293
_symmetry_space_group_name_H-M "P -1"
_symmetry_group_IT_number 2
_symmetry_cell_setting 'triclinic'
loop_
_space_group_symop_operation_xyz
x,y,z
-x,-y,-z
loop_
_atom_site_type_symbol
_atom_site_label
_atom_site_fract_x
_atom_site_fract_y
_atom_site_fract_z
Si Si1 0.572840 0.380911 0.176101
Si Si2 0.540096 0.539828 0.731399
Si Si3 0.739925 0.190673 0.311295
Si Si4 0.731336 0.418202 0.936446
Si Si5 0.194335 0.062377 0.080596
Si Si6 0.932027 0.709235 0.535450
Si Si7 0.113393 0.862362 0.243541
O O1 0.572017 0.521389 0.354733
O O2 0.692784 0.429400 0.300295
O O3 0.500000 0.500000 0.000000
O O4 0.500000 0.000000 0.000000
O O5 0.500000 0.500000 0.500000
O O6 0.608991 0.352509 0.813523
O O7 0.646446 0.886652 0.017578
O O8 0.865659 0.382523 0.459162
O O9 0.770224 0.117412 0.500189
O O10 0.728986 0.100739 0.849807
O O11 0.751070 0.603513 0.852665
O O12 0.846722 0.641114 0.255874
O O13 0.149099 0.009216 0.166462
O O14 0.071231 0.836940 0.758019
O O15 0.927134 0.959262 0.679120
O O16 0.000000 0.500000 0.000000
#
# Coordination Sequence:
#
# PCOD9050125 Si02
#       7
#     2   2   2   2   2   2   2
#     4  10  24  48  77 110 143 196 259 318 379 441
#     4  11  26  52  76 109 147 198 261 318 373 443
#     4  11  25  48  81 110 152 202 249 319 388 440
#     4  12  27  49  73 112 155 206 247 315 384 448
#     4  12  28  45  77 116 155 201 250 306 378 472
#     4  12  25  48  79 110 158 197 253 306 385 462
#     4  12  26  47  76 114 158 198 255 304 376 464
#
# _framework density 27.098419
#
# number of rings (size 3 to 8) (size 9 to 14) (size 15 to 20)
#    0.000    0.571    2.857    3.857    6.000    1.143 
#    0.000    8.571    0.000    0.000    0.000    0.000 
#    0.000    0.000    0.000    0.000    0.000    0.000 
#
# Total GULP energy -78510.719064 kJ/mol
# GULP energy per Si atom -5607.908505 kJ/mol
# Density = 2.703674 g / cm^3
# Si number density = 27.098419 Si / 1000 Ang^3
#
#
#
# Elastic Constant Matrix: (Units=GPa)
#
#
# Indices 1 2 3 4 5 6 
#
# 1 123.4180 51.3696 27.8291 -5.8793 -22.9466 -27.8140
# 2 51.3696 147.7270 54.7380 -13.2373 -16.8324 -16.5335
# 3 27.8291 54.7380 163.1183 -13.4643 -35.3470 -10.3811
# 4 -5.8793 -13.2373 -13.4643 65.2096 4.7663 -1.0745
# 5 -22.9466 -16.8324 -35.3470 4.7663 59.6548 -6.2890
# 6 -27.8140 -16.5335 -10.3811 -1.0745 -6.2890 66.0291
#
#
#
# Elastic Compliance Matrix: (Units=1/GPa)
#
#
# Indices 1 2 3 4 5 6 
#
# 1 0.011003 -0.002971 0.000279 0.000226 0.003997 0.004320
# 2 -0.002971 0.008825 -0.002343 0.001054 -0.000061 0.000601
# 3 0.000279 -0.002343 0.007929 0.000900 0.004198 0.001192
# 4 0.000226 0.001054 0.000900 0.015787 -0.000267 0.000732
# 5 0.003997 -0.000061 0.004198 -0.000267 0.021251 0.004348
# 6 0.004320 0.000601 0.001192 0.000732 0.004348 0.017728
#
#
# Mechanical properties :
#
#
# Convention : Reuss Voigt Hill
#
# Bulk Modulus (GPa) = 56.53112 78.01519 67.27315
# Shear Modulus (GPa) = 50.76778 58.20049 54.48413
#
# Velocity S-wave (km/s) = 4.33304 4.63940 4.48884
# Velocity P-wave (km/s) = 6.77793 7.58623 7.19344
#
# Compressibility (1/GPa) = 0.01768937
#
# Stress axis : x y z
#
# Youngs Moduli (GPa) = 90.88083 113.31391 126.12134
#
# Poissons Ratio (x) = 0.33661 -0.03523
# Poissons Ratio (y) = 0.26997 0.29546
# Poissons Ratio (z) = -0.02538 0.26546
#
# Static dielectric constant tensor:
#      x y z
#    x 1.583130 -0.190930 -0.092880 
#    y -0.190930 2.002690 -0.068960 
#    z -0.092880 -0.068960 2.130850 
# 
# From -- ./inp_files/340582.got.cif
#   From: 2010.05.17/outbox.cif.g08.bks.cpg/sg2_171_cif.got.tgz:340582.got - 2010.06.03 11:33:40.
