data_PCOD9050777
_publ_section_title
;
Structure prediction by ZEFSAII (Michael W. Deem and Ramdas Pophale) SiO2 
 PCOD9050777
Probable space group: P -1
;
_chemical_formula_sum "Si O2"
_cell_formula_units_Z 16
_cell_length_a 4.939325
_cell_length_b 8.750997
_cell_length_c 15.539785
_cell_angle_alpha 96.511933
_cell_angle_beta 117.180389
_cell_angle_gamma 92.027924
_cell_volume 590.767963
_symmetry_space_group_name_H-M "P -1"
_symmetry_group_IT_number 2
_symmetry_cell_setting 'triclinic'
loop_
_space_group_symop_operation_xyz
x,y,z
-x,-y,-z
loop_
_atom_site_type_symbol
_atom_site_label
_atom_site_fract_x
_atom_site_fract_y
_atom_site_fract_z
Si Si1 0.767871 0.777984 0.592774
Si Si2 0.952697 0.452171 0.135454
Si Si3 0.292070 0.884508 0.340137
Si Si4 0.298125 0.105288 0.867518
Si Si5 0.969088 0.262737 0.960721
Si Si6 0.529967 0.567577 0.671059
Si Si7 0.644253 0.231133 0.202291
Si Si8 0.116910 0.269660 0.590741
O O1 0.549792 0.628935 0.581487
O O2 0.895375 0.768085 0.514730
O O3 0.037218 0.768685 0.700213
O O4 0.644526 0.941346 0.604861
O O5 0.677416 0.368482 0.145883
O O6 0.917202 0.595815 0.077626
O O7 0.198174 0.511967 0.247854
O O8 0.027223 0.319030 0.070013
O O9 0.602276 0.827956 0.344007
O O10 0.000593 0.875077 0.233684
O O11 0.178611 0.781664 0.399643
O O12 0.602176 0.220031 0.899348
O O13 0.160738 0.128686 0.944059
O O14 0.403561 0.936698 0.855273
O O15 0.551265 0.720530 0.743263
O O16 0.231832 0.449068 0.631120
#
# Coordination Sequence:
#
# PCOD9050777 Si02
#       8
#     2   2   2   2   2   2   2   2
#     4  10  25  44  66  99 135 178 224 274 334 392
#     4  10  25  45  66 104 132 175 217 282 335 387
#     4  11  25  43  70 100 137 172 223 283 332 386
#     4  11  25  45  68 102 133 181 220 272 332 399
#     4  11  26  44  75  99 134 170 229 274 328 404
#     4  11  25  44  68  95 139 180 219 275 336 398
#     4  10  26  43  69  93 144 176 219 274 336 396
#     4  12  26  43  72 100 131 179 229 276 326 401
#
# _framework density 27.083390999999999
#
# number of rings (size 3 to 8) (size 9 to 14) (size 15 to 20)
#    0.000    1.250    0.000    3.375   19.250    2.500 
#    0.000    0.000    0.000    0.000    0.000    0.000 
#    0.000    0.000    0.000    0.000    0.000    0.000 
#
# Total GULP energy -89651.086286 kJ/mol
# GULP energy per Si atom -5603.192893 kJ/mol
# Density = 2.702175 g / cm^3
# Si number density = 27.083391 Si / 1000 Ang^3
#
#
#
# Elastic Constant Matrix: (Units=GPa)
#
#
# Indices 1 2 3 4 5 6 
#
# 1 84.5793 6.5014 44.7017 0.8232 -10.6716 -1.9138
# 2 6.5014 65.7283 42.7758 13.7926 4.4064 3.5707
# 3 44.7017 42.7758 123.3944 10.1075 -10.2904 6.6920
# 4 0.8232 13.7926 10.1075 44.7204 -9.9349 -13.4369
# 5 -10.6716 4.4064 -10.2904 -9.9349 38.9545 6.6777
# 6 -1.9138 3.5707 6.6920 -13.4369 6.6777 38.6813
#
#
#
# Elastic Compliance Matrix: (Units=1/GPa)
#
#
# Indices 1 2 3 4 5 6 
#
# 1 0.015307 0.001957 -0.006251 0.001606 0.002422 0.001798
# 2 0.001957 0.022307 -0.008237 -0.006885 -0.005582 -0.001965
# 3 -0.006251 -0.008237 0.013673 -0.000529 0.003149 -0.002642
# 4 0.001606 -0.006885 -0.000529 0.029004 0.006812 0.009706
# 5 0.002422 -0.005582 0.003149 0.006812 0.030002 -0.002723
# 6 0.001798 -0.001965 -0.002642 0.009706 -0.002723 0.030421
#
#
# Mechanical properties :
#
#
# Convention : Reuss Voigt Hill
#
# Bulk Modulus (GPa) = 38.13032 51.29553 44.71292
# Shear Modulus (GPa) = 28.65049 36.45279 32.55164
#
# Velocity S-wave (km/s) = 3.25601 3.67269 3.47061
# Velocity P-wave (km/s) = 5.31459 6.07996 5.71011
#
# Compressibility (1/GPa) = 0.02622585
#
# Stress axis : x y z
#
# Youngs Moduli (GPa) = 65.32947 44.82954 73.13661
#
# Poissons Ratio (x) = -0.08772 0.45715
# Poissons Ratio (y) = -0.12784 0.60240
# Poissons Ratio (z) = 0.40835 0.36925
#
# Static dielectric constant tensor:
#      x y z
#    x 2.128920 -0.057410 0.053710 
#    y -0.057410 2.119400 -0.012130 
#    z 0.053710 -0.012130 2.099060 
# 
# From -- ./inp_files/38730.got.cif
#   From: 2010.05.17/outbox.cif.g08.bks.cpg/sg2_20_cif.got.tgz:38730.got - 2010.06.03 11:33:40.
