data_PCOD9050979
_publ_section_title
;
Structure prediction by ZEFSAII (Michael W. Deem and Ramdas Pophale) SiO2 
 PCOD9050979
Probable space group: P -1
;
_chemical_formula_sum "Si O2"
_cell_formula_units_Z 16
_cell_length_a 14.293516
_cell_length_b 13.730546
_cell_length_c 13.713871
_cell_angle_alpha 46.538101
_cell_angle_beta 47.631716
_cell_angle_gamma 19.897432
_cell_volume 660.855325
_symmetry_space_group_name_H-M "P -1"
_symmetry_group_IT_number 2
_symmetry_cell_setting 'triclinic'
loop_
_space_group_symop_operation_xyz
x,y,z
-x,-y,-z
loop_
_atom_site_type_symbol
_atom_site_label
_atom_site_fract_x
_atom_site_fract_y
_atom_site_fract_z
Si Si1 0.463777 0.434456 0.480417
Si Si2 0.914293 0.791623 0.611697
Si Si3 0.839335 0.373970 0.026276
Si Si4 0.526526 0.049275 0.553178
Si Si5 0.281294 0.485722 0.293127
Si Si6 0.209119 0.105458 0.771361
Si Si7 0.282336 0.760042 0.191162
Si Si8 0.242245 0.262610 0.070511
O O1 0.500000 0.500000 0.500000
O O2 0.383057 0.602050 0.330141
O O3 0.226543 0.543642 0.583845
O O4 0.749256 0.085619 0.510426
O O5 0.803741 0.811707 0.767630
O O6 0.811725 0.805222 0.578040
O O7 0.551246 0.569595 0.082505
O O8 0.040961 0.095435 0.144514
O O9 0.024695 0.215339 0.909065
O O10 0.760184 0.594352 0.969289
O O11 0.394714 0.314434 0.431432
O O12 0.344846 0.118974 0.698128
O O13 0.500000 0.000000 0.500000
O O14 0.188669 0.724047 0.214474
O O15 0.013930 0.661945 0.318192
O O16 0.538111 0.223547 0.219074
O O17 0.000000 0.500000 0.000000
O O18 0.500000 0.000000 0.000000
#
# Coordination Sequence:
#
# PCOD9050979 Si02
#       8
#     2   2   2   2   2   2   2   2
#     4  12  29  50  79 111 150 195 256 319 379 450
#     4  12  28  50  83 112 148 199 258 314 388 453
#     4  12  29  47  75 107 149 203 252 310 375 457
#     4  10  25  44  78 114 154 196 247 322 381 451
#     4  11  24  45  72 109 154 200 249 309 378 444
#     4  11  26  44  73 109 154 199 251 307 376 453
#     4  12  27  47  76 106 153 198 256 307 377 451
#     4  12  30  51  78 110 150 194 253 318 381 450
#
# _framework density 24.211048999999999
#
# number of rings (size 3 to 8) (size 9 to 14) (size 15 to 20)
#    0.000    0.500    1.250    4.500   17.500    3.000 
#    0.000    0.000    0.000    0.000    0.000    0.000 
#    0.000    0.000    0.000    0.000    0.000    0.000 
#
# Total GULP energy -89595.710332 kJ/mol
# GULP energy per Si atom -5599.731896 kJ/mol
# Density = 2.415594 g / cm^3
# Si number density = 24.211049 Si / 1000 Ang^3
#
#
#
# Elastic Constant Matrix: (Units=GPa)
#
#
# Indices 1 2 3 4 5 6 
#
# 1 116.5981 21.3219 28.0983 18.2586 -1.2754 -6.7553
# 2 21.3219 118.7689 13.5927 9.7195 3.6879 -3.1493
# 3 28.0983 13.5927 105.9873 4.9598 6.9839 1.6392
# 4 18.2586 9.7195 4.9598 45.7841 -6.5576 -5.5463
# 5 -1.2754 3.6879 6.9839 -6.5576 36.4754 -0.0268
# 6 -6.7553 -3.1493 1.6392 -5.5463 -0.0268 44.4902
#
#
#
# Elastic Compliance Matrix: (Units=1/GPa)
#
#
# Indices 1 2 3 4 5 6 
#
# 1 0.009951 -0.001229 -0.002367 -0.003269 0.000339 0.001104
# 2 -0.001229 0.008877 -0.000679 -0.001439 -0.001069 0.000287
# 3 -0.002367 -0.000679 0.010319 -0.000428 -0.002067 -0.000842
# 4 -0.003269 -0.001439 -0.000428 0.024442 0.004509 0.002467
# 5 0.000339 -0.001069 -0.002067 0.004509 0.028743 0.000631
# 6 0.001104 0.000287 -0.000842 0.002467 0.000631 0.023004
#
#
# Mechanical properties :
#
#
# Convention : Reuss Voigt Hill
#
# Bulk Modulus (GPa) = 48.55306 51.93114 50.24210
# Shear Modulus (GPa) = 41.40747 43.90606 42.65676
#
# Velocity S-wave (km/s) = 4.14003 4.26311 4.20202
# Velocity P-wave (km/s) = 6.55368 6.76225 6.65878
#
# Compressibility (1/GPa) = 0.02059602
#
# Stress axis : x y z
#
# Youngs Moduli (GPa) = 100.49027 112.65467 96.90895
#
# Poissons Ratio (x) = 0.13849 0.22938
# Poissons Ratio (y) = 0.12354 0.06582
# Poissons Ratio (z) = 0.23785 0.07651
#
# Static dielectric constant tensor:
#      x y z
#    x 2.121030 -0.020550 -0.135890 
#    y -0.020550 1.941980 0.046230 
#    z -0.135890 0.046230 2.067370 
# 
# From -- ./inp_files/534248.got.cif
#   From: 2010.05.17/outbox.cif.g08.bks.cpg/sg2_268_cif.got.tgz:534248.got - 2010.06.03 11:33:40.
