data_PCOD9050279
_publ_section_title
;
Structure prediction by ZEFSAII (Michael W. Deem and Ramdas Pophale) SiO2 
 PCOD9050279
Probable space group: P -1
;
_chemical_formula_sum "Si O2"
_cell_formula_units_Z 16
_cell_length_a 18.001729
_cell_length_b 10.534846
_cell_length_c 5.640076
_cell_angle_alpha 114.359148
_cell_angle_beta 121.760411
_cell_angle_gamma 46.423425
_cell_volume 656.711328
_symmetry_space_group_name_H-M "P -1"
_symmetry_group_IT_number 2
_symmetry_cell_setting 'triclinic'
loop_
_space_group_symop_operation_xyz
x,y,z
-x,-y,-z
loop_
_atom_site_type_symbol
_atom_site_label
_atom_site_fract_x
_atom_site_fract_y
_atom_site_fract_z
Si Si1 0.868430 0.106334 0.316014
Si Si2 0.426249 0.956540 0.557003
Si Si3 0.236146 0.575645 0.320436
Si Si4 0.944746 0.199167 0.133178
Si Si5 0.615977 0.713953 0.335131
Si Si6 0.901560 0.703182 0.456221
Si Si7 0.796626 0.863388 0.911773
Si Si8 0.461942 0.386074 0.261579
O O1 0.791273 0.240520 0.496326
O O2 0.850598 0.236704 0.179360
O O3 0.000000 0.000000 0.500000
O O4 0.839966 0.979853 0.092811
O O5 0.542023 0.838066 0.524192
O O6 0.442395 0.817278 0.663430
O O7 0.393861 0.141776 0.740901
O O8 0.333843 0.010083 0.248748
O O9 0.266796 0.439996 0.478252
O O10 0.344006 0.473270 0.258968
O O11 0.120679 0.651932 0.061399
O O12 0.038876 0.204587 0.398539
O O13 0.000000 0.000000 0.000000
O O14 0.564867 0.625323 0.064528
O O15 0.839116 0.765427 0.652328
O O16 0.000000 0.500000 0.500000
O O17 0.833588 0.753170 0.134649
O O18 0.500000 0.500000 0.500000
#
# Coordination Sequence:
#
# PCOD9050279 Si02
#       8
#     2   2   2   2   2   2   2   2
#     4  12  23  43  68 101 146 190 248 301 367 438
#     4  10  26  45  75  99 144 193 243 301 377 448
#     4  11  25  40  71 101 136 191 241 296 377 435
#     4  12  23  44  69  98 142 193 240 301 365 441
#     4  10  24  50  69 102 142 187 246 304 375 454
#     4  12  28  47  72 109 153 188 251 308 366 438
#     4  12  27  46  75 109 144 203 244 305 376 443
#     4  11  26  44  70 109 143 177 244 315 373 449
#
# _framework density 24.363826
#
# number of rings (size 3 to 8) (size 9 to 14) (size 15 to 20)
#    0.000    0.750    3.750    1.500    8.750    3.000 
#    0.000    0.000    0.000    0.000    0.000    0.000 
#    0.000    0.000    0.000    0.000    0.000    0.000 
#
# Total GULP energy -89328.242168 kJ/mol
# GULP energy per Si atom -5583.015135 kJ/mol
# Density = 2.430837 g / cm^3
# Si number density = 24.363826 Si / 1000 Ang^3
#
#
#
# Elastic Constant Matrix: (Units=GPa)
#
#
# Indices 1 2 3 4 5 6 
#
# 1 39.0063 22.8893 18.7335 4.7147 2.5431 -2.3218
# 2 22.8893 140.1893 51.2299 -24.1853 -0.6451 -3.2594
# 3 18.7335 51.2299 124.5050 -25.1355 2.9755 6.9144
# 4 4.7147 -24.1853 -25.1355 53.6121 1.3459 -4.3580
# 5 2.5431 -0.6451 2.9755 1.3459 42.9806 5.8536
# 6 -2.3218 -3.2594 6.9144 -4.3580 5.8536 32.3224
#
#
#
# Elastic Compliance Matrix: (Units=1/GPa)
#
#
# Indices 1 2 3 4 5 6 
#
# 1 0.031463 -0.004702 -0.004218 -0.006652 -0.001718 0.002102
# 2 -0.004702 0.009502 -0.002567 0.003621 0.000266 0.001610
# 3 -0.004218 -0.002567 0.010672 0.004043 -0.000350 -0.002236
# 4 -0.006652 0.003621 0.004043 0.022973 -0.000861 0.002276
# 5 -0.001718 0.000266 -0.000350 -0.000861 0.024035 -0.004491
# 6 0.002102 0.001610 -0.002236 0.002276 -0.004491 0.032850
#
#
# Mechanical properties :
#
#
# Convention : Reuss Voigt Hill
#
# Bulk Modulus (GPa) = 34.88884 54.37845 44.63365
# Shear Modulus (GPa) = 30.48342 39.83954 35.16148
#
# Velocity S-wave (km/s) = 3.54103 4.04814 3.80305
# Velocity P-wave (km/s) = 5.57401 6.64964 6.13544
#
# Compressibility (1/GPa) = 0.02866246
#
# Stress axis : x y z
#
# Youngs Moduli (GPa) = 31.78330 105.23629 93.70745
#
# Poissons Ratio (x) = 0.49486 0.39523
# Poissons Ratio (y) = 0.14946 0.24056
# Poissons Ratio (z) = 0.13405 0.27016
#
# Static dielectric constant tensor:
#      x y z
#    x 2.367120 0.103090 -0.245500 
#    y 0.103090 1.948870 -0.024610 
#    z -0.245500 -0.024610 2.124730 
# 
# From -- ./inp_files/118884.got.cif
#   From: 2010.05.17/outbox.cif.g08.bks.cpg/sg2_60_cif.got.tgz:118884.got - 2010.06.03 11:33:40.
