data_PCOD9050932
_publ_section_title
;
Structure prediction by ZEFSAII (Michael W. Deem and Ramdas Pophale) SiO2 
 PCOD9050932
Probable space group: P -1
;
_chemical_formula_sum "Si O2"
_cell_formula_units_Z 16
_cell_length_a 9.004897
_cell_length_b 9.500074
_cell_length_c 15.866487
_cell_angle_alpha 58.823331
_cell_angle_beta 102.685210
_cell_angle_gamma 59.365377
_cell_volume 753.633024
_symmetry_space_group_name_H-M "P -1"
_symmetry_group_IT_number 2
_symmetry_cell_setting 'triclinic'
loop_
_space_group_symop_operation_xyz
x,y,z
-x,-y,-z
loop_
_atom_site_type_symbol
_atom_site_label
_atom_site_fract_x
_atom_site_fract_y
_atom_site_fract_z
Si Si1 0.461902 0.717607 0.461360
Si Si2 0.070453 0.099886 0.424454
Si Si3 0.570750 0.061802 0.771225
Si Si4 0.414148 0.818654 0.860004
Si Si5 0.779701 0.156345 0.867749
Si Si6 0.064691 0.505576 0.602754
Si Si7 0.939032 0.296575 0.711712
Si Si8 0.599073 0.494985 0.148616
O O1 0.500000 0.500000 0.500000
O O2 0.363947 0.920604 0.316887
O O3 0.721606 0.557220 0.561025
O O4 0.299441 0.869257 0.474084
O O5 0.086844 0.231307 0.455388
O O6 0.861723 0.303228 0.270015
O O7 0.000000 0.000000 0.500000
O O8 0.755883 0.992802 0.877412
O O9 0.328300 0.346767 0.673498
O O10 0.516445 0.912484 0.816385
O O11 0.457624 0.638442 0.855688
O O12 0.518468 0.684411 0.005652
O O13 0.135419 0.044787 0.762194
O O14 0.822564 0.262019 0.770320
O O15 0.559555 0.359785 0.834777
O O16 0.000000 0.000000 0.000000
O O17 0.000000 0.500000 0.500000
O O18 0.079896 0.351284 0.725841
#
# Coordination Sequence:
#
# PCOD9050932 Si02
#       8
#     2   2   2   2   2   2   2   2
#     4  12  23  41  69 102 141 175 228 285 344 407
#     4  12  27  41  70 103 140 183 230 288 349 413
#     4  11  24  43  69 101 136 180 229 282 350 405
#     4  10  25  44  72  95 136 189 221 288 341 414
#     4  12  24  42  68  97 132 178 227 281 336 411
#     4  11  24  44  67 101 139 182 225 284 354 412
#     4  11  23  41  67  97 136 177 226 274 349 401
#     4  11  24  46  67  99 138 177 238 276 351 411
#
# _framework density 21.230492000000002
#
# number of rings (size 3 to 8) (size 9 to 14) (size 15 to 20)
#    0.000    0.750    5.000    2.250    3.500    3.000 
#    0.000    1.250    0.000    0.000    0.000    0.000 
#    0.000    0.000    0.000    0.000    0.000    0.000 
#
# Total GULP energy -89155.115077 kJ/mol
# GULP energy per Si atom -5572.194692 kJ/mol
# Density = 2.118217 g / cm^3
# Si number density = 21.230492 Si / 1000 Ang^3
#
#
#
# Elastic Constant Matrix: (Units=GPa)
#
#
# Indices 1 2 3 4 5 6 
#
# 1 87.3591 54.6578 41.0658 13.6376 -20.7568 1.8041
# 2 54.6578 119.3930 31.6069 4.8718 -24.6537 9.8224
# 3 41.0658 31.6069 59.6146 5.7590 3.7610 4.8111
# 4 13.6376 4.8718 5.7590 25.0500 1.5101 2.7254
# 5 -20.7568 -24.6537 3.7610 1.5101 50.7480 -3.3816
# 6 1.8041 9.8224 4.8111 2.7254 -3.3816 29.5685
#
#
#
# Elastic Compliance Matrix: (Units=1/GPa)
#
#
# Indices 1 2 3 4 5 6 
#
# 1 0.025840 -0.006000 -0.014573 -0.010642 0.009373 0.004841
# 2 -0.006000 0.012831 -0.002798 0.001533 0.003731 -0.003155
# 3 -0.014573 -0.002798 0.028986 0.002874 -0.009839 -0.004288
# 4 -0.010642 0.001533 0.002874 0.045650 -0.005524 -0.005167
# 5 0.009373 0.003731 -0.009839 -0.005524 0.026467 0.003326
# 6 0.004841 -0.003155 -0.004288 -0.005167 0.003326 0.036127
#
#
# Mechanical properties :
#
#
# Convention : Reuss Voigt Hill
#
# Bulk Modulus (GPa) = 47.81446 57.89197 52.85322
# Shear Modulus (GPa) = 21.77573 30.34240 26.05907
#
# Velocity S-wave (km/s) = 3.20610 3.78456 3.50728
# Velocity P-wave (km/s) = 6.02295 6.81357 6.43042
#
# Compressibility (1/GPa) = 0.02091417
#
# Stress axis : x y z
#
# Youngs Moduli (GPa) = 38.69983 77.93816 34.49980
#
# Poissons Ratio (x) = 0.46763 0.50275
# Poissons Ratio (y) = 0.23220 0.09654
# Poissons Ratio (z) = 0.56396 0.21809
#
# Static dielectric constant tensor:
#      x y z
#    x 1.813710 0.061450 0.079400 
#    y 0.061450 1.811600 -0.034250 
#    z 0.079400 -0.034250 1.828580 
# 
# From -- ./inp_files/493886.got.cif
#   From: 2010.05.17/outbox.cif.g08.bks.cpg/sg2_247_cif.got.tgz:493886.got - 2010.06.03 11:33:40.
