data_PCOD9050273
_publ_section_title
;
Structure prediction by ZEFSAII (Michael W. Deem and Ramdas Pophale) SiO2 
 PCOD9050273
Probable space group: P -1
;
_chemical_formula_sum "Si O2"
_cell_formula_units_Z 13
_cell_length_a 11.434090
_cell_length_b 13.727073
_cell_length_c 9.254545
_cell_angle_alpha 48.372505
_cell_angle_beta 112.137414
_cell_angle_gamma 148.538663
_cell_volume 495.096670
_symmetry_space_group_name_H-M "P -1"
_symmetry_group_IT_number 2
_symmetry_cell_setting 'triclinic'
loop_
_space_group_symop_operation_xyz
x,y,z
-x,-y,-z
loop_
_atom_site_type_symbol
_atom_site_label
_atom_site_fract_x
_atom_site_fract_y
_atom_site_fract_z
Si Si1 0.551112 0.196097 0.807555
Si Si2 0.083358 0.749058 0.367603
Si Si3 0.721133 0.980221 0.427598
Si Si4 0.289320 0.496714 0.147413
Si Si5 0.796949 0.850546 0.930659
Si Si6 0.500000 0.000000 0.500000
Si Si7 0.197842 0.420435 0.875774
O O1 0.821807 0.460535 0.594712
O O2 0.341084 0.062528 0.729692
O O3 0.585158 0.302111 0.869523
O O4 0.500000 0.000000 0.000000
O O5 0.011984 0.712694 0.201395
O O6 0.986237 0.804588 0.637534
O O7 0.148950 0.949512 0.270214
O O8 0.477844 0.684080 0.671564
O O9 0.697864 0.095057 0.391038
O O10 0.510756 0.594060 0.114450
O O11 0.234961 0.526448 0.941426
O O12 0.690707 0.143282 0.587662
O O13 0.836974 0.764725 0.928174
O O14 0.000000 0.000000 0.000000
#
# Coordination Sequence:
#
# PCOD9050273 Si02
#       7
#     2   2   2   2   2   1   2
#     4  11  28  48  71 115 154 202 264 319 377 468
#     4  10  24  51  77 111 159 203 255 322 392 452
#     4  11  28  47  75 114 154 205 260 315 392 454
#     4  12  26  49  79 112 156 202 265 312 387 461
#     4  10  24  49  82 114 154 205 259 320 387 461
#     4  12  24  48  78 106 158 206 246 318 384 456
#     4  10  25  51  78 114 155 207 261 319 385 461
#
# _framework density 26.257498999999999
#
# number of rings (size 3 to 8) (size 9 to 14) (size 15 to 20)
#    0.000    1.231    1.538    1.385    8.615    6.154 
#    2.769    2.308    0.000    0.000    0.000    0.000 
#    0.000    0.000    0.000    0.000    0.000    0.000 
#
# Total GULP energy -72581.912251 kJ/mol
# GULP energy per Si atom -5583.224019 kJ/mol
# Density = 2.619774 g / cm^3
# Si number density = 26.257499 Si / 1000 Ang^3
#
#
#
# Elastic Constant Matrix: (Units=GPa)
#
#
# Indices 1 2 3 4 5 6 
#
# 1 103.2669 51.7818 24.2723 13.2144 -0.4283 14.8144
# 2 51.7818 186.4038 40.8958 31.9899 -1.3592 9.2264
# 3 24.2723 40.8958 78.7690 17.9334 -16.7420 -7.4746
# 4 13.2144 31.9899 17.9334 61.8587 -9.0524 -9.4119
# 5 -0.4283 -1.3592 -16.7420 -9.0524 34.0551 1.7721
# 6 14.8144 9.2264 -7.4746 -9.4119 1.7721 74.8035
#
#
#
# Elastic Compliance Matrix: (Units=1/GPa)
#
#
# Indices 1 2 3 4 5 6 
#
# 1 0.012040 -0.002445 -0.002732 -0.001103 -0.001454 -0.002460
# 2 -0.002445 0.007177 -0.002818 -0.002789 -0.001820 -0.000990
# 3 -0.002732 -0.002818 0.017205 -0.001464 0.007806 0.002239
# 4 -0.001103 -0.002789 -0.001464 0.019292 0.004140 0.002745
# 5 -0.001454 -0.001820 0.007806 0.004140 0.034159 0.001004
# 6 -0.002460 -0.000990 0.002239 0.002745 0.001004 0.014523
#
#
# Mechanical properties :
#
#
# Convention : Reuss Voigt Hill
#
# Bulk Modulus (GPa) = 48.94545 66.92660 57.93602
# Shear Modulus (GPa) = 39.30917 50.90945 45.10931
#
# Velocity S-wave (km/s) = 3.87339 4.40802 4.14932
# Velocity P-wave (km/s) = 6.21974 7.17296 6.71329
#
# Compressibility (1/GPa) = 0.02043091
#
# Stress axis : x y z
#
# Youngs Moduli (GPa) = 83.05836 139.34264 58.12117
#
# Poissons Ratio (x) = 0.34065 0.15880
# Poissons Ratio (y) = 0.20305 0.16381
# Poissons Ratio (z) = 0.22694 0.39273
#
# Static dielectric constant tensor:
#      x y z
#    x 2.267410 -0.391450 0.844190 
#    y -0.391450 2.519100 -1.141670 
#    z 0.844190 -1.141670 5.436290 
# 
# From -- ./inp_files/309305.got.cif
#   From: 2010.05.17/outbox.cif.g08.bks.cpg/sg2_155_cif.got.tgz:309305.got - 2010.06.03 11:33:40.
