data_PCOD9050210
_publ_section_title
;
Structure prediction by ZEFSAII (Michael W. Deem and Ramdas Pophale) SiO2 
 PCOD9050210
Probable space group: P -1
;
_chemical_formula_sum "Si O2"
_cell_formula_units_Z 16
_cell_length_a 11.739011
_cell_length_b 12.230958
_cell_length_c 15.060172
_cell_angle_alpha 116.182568
_cell_angle_beta 30.187028
_cell_angle_gamma 94.523088
_cell_volume 723.916482
_symmetry_space_group_name_H-M "P -1"
_symmetry_group_IT_number 2
_symmetry_cell_setting 'triclinic'
loop_
_space_group_symop_operation_xyz
x,y,z
-x,-y,-z
loop_
_atom_site_type_symbol
_atom_site_label
_atom_site_fract_x
_atom_site_fract_y
_atom_site_fract_z
Si Si1 0.146988 0.523368 0.121117
Si Si2 0.857963 0.294790 0.113941
Si Si3 0.274010 0.255664 0.676448
Si Si4 0.820797 0.420781 0.367546
Si Si5 0.790796 0.146166 0.565498
Si Si6 0.187488 0.802661 0.621467
Si Si7 0.333030 0.914841 0.814512
Si Si8 0.123878 0.144966 0.503311
O O1 0.970457 0.590121 0.168720
O O2 0.937444 0.515835 0.324681
O O3 0.127276 0.672261 0.218125
O O4 0.473444 0.338153 0.838318
O O5 0.967144 0.317232 0.139783
O O6 0.538590 0.471920 0.365821
O O7 0.737072 0.202224 0.175612
O O8 0.100090 0.226401 0.848123
O O9 0.475127 0.273281 0.607272
O O10 0.511068 0.110696 0.394225
O O11 0.876644 0.318733 0.379501
O O12 0.911954 0.099582 0.367054
O O13 0.000419 0.144042 0.492341
O O14 0.785593 0.009999 0.558055
O O15 0.984002 0.915552 0.882001
O O16 0.574811 0.880965 0.709360
#
# Coordination Sequence:
#
# PCOD9050210 Si02
#       8
#     2   2   2   2   2   2   2   2
#     4  11  22  45  74 104 143 184 231 293 354 419
#     4  11  22  39  67  95 142 189 226 279 350 418
#     4  11  23  41  69 104 139 190 228 281 357 426
#     4  11  21  40  63 100 141 180 229 285 343 427
#     4  11  25  45  75 105 135 191 239 294 356 416
#     4  12  25  41  66 105 143 184 238 285 354 425
#     4  11  24  44  64  99 142 181 234 292 341 414
#     4  10  24  49  72 101 141 183 244 299 347 411
#
# _framework density 22.101997000000001
#
# number of rings (size 3 to 8) (size 9 to 14) (size 15 to 20)
#    0.000    1.000    3.750    3.750    3.500    2.500 
#    0.000    0.625    0.000    0.000    0.000    0.000 
#    0.000    0.000    0.000    0.000    0.000    0.000 
#
# Total GULP energy -89257.766839 kJ/mol
# GULP energy per Si atom -5578.610427 kJ/mol
# Density = 2.205169 g / cm^3
# Si number density = 22.101997 Si / 1000 Ang^3
#
#
#
# Elastic Constant Matrix: (Units=GPa)
#
#
# Indices 1 2 3 4 5 6 
#
# 1 116.1189 68.2233 35.7732 -9.9717 -4.5907 -6.9401
# 2 68.2233 99.4139 16.1888 -5.5539 -0.6503 5.5261
# 3 35.7732 16.1888 88.7508 -18.0303 4.4841 0.6595
# 4 -9.9717 -5.5539 -18.0303 37.0010 -3.1182 0.5039
# 5 -4.5907 -0.6503 4.4841 -3.1182 21.7135 0.9536
# 6 -6.9401 5.5261 0.6595 0.5039 0.9536 36.4514
#
#
#
# Elastic Compliance Matrix: (Units=1/GPa)
#
#
# Indices 1 2 3 4 5 6 
#
# 1 0.017310 -0.011266 -0.005006 0.000825 0.004256 0.004971
# 2 -0.011266 0.017820 0.001476 0.000263 -0.001903 -0.004827
# 3 -0.005006 0.001476 0.014323 0.005610 -0.003104 -0.001432
# 4 0.000825 0.000263 0.005610 0.030315 0.003399 -0.000492
# 5 0.004256 -0.001903 -0.003104 0.003399 0.048033 -0.000148
# 6 0.004971 -0.004827 -0.001432 -0.000492 -0.000148 0.029149
#
#
# Mechanical properties :
#
#
# Convention : Reuss Voigt Hill
#
# Bulk Modulus (GPa) = 50.35068 60.51713 55.43391
# Shear Modulus (GPa) = 25.88491 31.30641 28.59566
#
# Velocity S-wave (km/s) = 3.42593 3.76766 3.60085
# Velocity P-wave (km/s) = 6.20321 6.80935 6.51334
#
# Compressibility (1/GPa) = 0.01986070
#
# Stress axis : x y z
#
# Youngs Moduli (GPa) = 57.77167 56.11521 69.81587
#
# Poissons Ratio (x) = 0.63219 0.34953
# Poissons Ratio (y) = 0.65085 -0.10304
# Poissons Ratio (z) = 0.28923 -0.08282
#
# Static dielectric constant tensor:
#      x y z
#    x 1.781020 0.001680 -0.002840 
#    y 0.001680 1.922330 0.090490 
#    z -0.002840 0.090490 1.889290 
# 
# From -- ./inp_files/519800.got.cif
#   From: 2010.05.17/outbox.cif.g08.bks.cpg/sg2_260_cif.got.tgz:519800.got - 2010.06.03 11:33:40.
