data_PCOD9050735
_publ_section_title
;
Structure prediction by ZEFSAII (Michael W. Deem and Ramdas Pophale) SiO2 
 PCOD9050735
Probable space group: P -1
;
_chemical_formula_sum "Si O2"
_cell_formula_units_Z 14
_cell_length_a 12.480490
_cell_length_b 5.059507
_cell_length_c 13.163161
_cell_angle_alpha 89.349824
_cell_angle_beta 126.883239
_cell_angle_gamma 74.468434
_cell_volume 624.388724
_symmetry_space_group_name_H-M "P -1"
_symmetry_group_IT_number 2
_symmetry_cell_setting 'triclinic'
loop_
_space_group_symop_operation_xyz
x,y,z
-x,-y,-z
loop_
_atom_site_type_symbol
_atom_site_label
_atom_site_fract_x
_atom_site_fract_y
_atom_site_fract_z
Si Si1 0.166555 0.377726 0.125464
Si Si2 0.306997 0.795694 0.306847
Si Si3 0.404606 0.898242 0.771724
Si Si4 0.837330 0.549507 0.392171
Si Si5 0.617602 0.446313 0.424942
Si Si6 0.679867 0.933183 0.986582
Si Si7 0.292575 0.604667 0.864627
O O1 0.228601 0.614829 0.199718
O O2 0.215917 0.122872 0.236537
O O3 0.239875 0.226672 0.064951
O O4 0.000000 0.500000 0.000000
O O5 0.472383 0.708459 0.363706
O O6 0.323076 0.701776 0.434098
O O7 0.432241 0.751122 0.679285
O O8 0.413151 0.669090 0.864666
O O9 0.248794 0.126669 0.683609
O O10 0.515122 0.054343 0.859124
O O11 0.745377 0.498953 0.434881
O O12 0.824663 0.366227 0.288903
O O13 0.000000 0.500000 0.500000
O O14 0.686348 0.695859 0.073802
O O15 0.737336 0.165112 0.064493
#
# Coordination Sequence:
#
# PCOD9050735 Si02
#       7
#     2   2   2   2   2   2   2
#     4  12  27  48  70 107 147 187 236 299 361 425
#     4  11  25  49  75 107 140 188 251 293 356 425
#     4  11  23  44  72 103 140 181 235 294 349 417
#     4  11  26  47  68 108 149 187 234 294 363 431
#     4  10  25  43  79 105 140 193 241 306 351 422
#     4  12  24  44  72 101 139 182 237 286 347 420
#     4  11  25  42  71 103 135 183 232 284 349 418
#
# _framework density 22.421928999999999
#
# number of rings (size 3 to 8) (size 9 to 14) (size 15 to 20)
#    0.000    0.857    2.857    3.000    6.000    4.571 
#    5.143    0.000    0.000    0.000    0.000    0.000 
#    0.000    0.000    0.000    0.000    0.000    0.000 
#
# Total GULP energy -78273.862645 kJ/mol
# GULP energy per Si atom -5590.990189 kJ/mol
# Density = 2.237090 g / cm^3
# Si number density = 22.421929 Si / 1000 Ang^3
#
#
#
# Elastic Constant Matrix: (Units=GPa)
#
#
# Indices 1 2 3 4 5 6 
#
# 1 61.7710 13.9950 52.2567 -23.5233 12.0502 2.6349
# 2 13.9950 88.8426 17.1022 -16.7324 6.2463 3.6269
# 3 52.2567 17.1022 111.6473 -18.3913 2.8957 1.3891
# 4 -23.5233 -16.7324 -18.3913 41.3339 -7.2052 -2.5970
# 5 12.0502 6.2463 2.8957 -7.2052 47.7070 4.0301
# 6 2.6349 3.6269 1.3891 -2.5970 4.0301 20.0362
#
#
#
# Elastic Compliance Matrix: (Units=1/GPa)
#
#
# Indices 1 2 3 4 5 6 
#
# 1 0.033233 0.000026 -0.013441 0.011899 -0.005721 -0.000750
# 2 0.000026 0.012398 -0.001167 0.004286 -0.000789 -0.001453
# 3 -0.013441 -0.001167 0.015210 -0.000906 0.002462 0.000312
# 4 0.011899 0.004286 -0.000906 0.032625 0.001273 0.001695
# 5 -0.005721 -0.000789 0.002462 0.001273 0.022866 -0.003710
# 6 -0.000750 -0.001453 0.000312 0.001695 -0.003710 0.051216
#
#
# Mechanical properties :
#
#
# Convention : Reuss Voigt Hill
#
# Bulk Modulus (GPa) = 31.56808 47.66319 39.61563
# Shear Modulus (GPa) = 24.12310 33.74256 28.93283
#
# Velocity S-wave (km/s) = 3.28361 3.88350 3.59608
# Velocity P-wave (km/s) = 5.33721 6.43524 5.91177
#
# Compressibility (1/GPa) = 0.03167757
#
# Stress axis : x y z
#
# Youngs Moduli (GPa) = 30.09064 80.65600 65.74750
#
# Poissons Ratio (x) = -0.00211 0.88371
# Poissons Ratio (y) = -0.00079 0.07672
# Poissons Ratio (z) = 0.40445 0.09412
#
# Static dielectric constant tensor:
#      x y z
#    x 1.852470 0.024450 -0.023960 
#    y 0.024450 1.855100 -0.022930 
#    z -0.023960 -0.022930 1.850890 
# 
# From -- ./inp_files/410642.got.cif
#   From: 2010.05.17/outbox.cif.g08.bks.cpg/sg2_206_cif.got.tgz:410642.got - 2010.06.03 11:33:40.
