data_PCOD9050012
_publ_section_title
;
Structure prediction by ZEFSAII (Michael W. Deem and Ramdas Pophale) SiO2 
 PCOD9050012
Probable space group: P -1
;
_chemical_formula_sum "Si O2"
_cell_formula_units_Z 10
_cell_length_a 5.782154
_cell_length_b 8.061850
_cell_length_c 10.844271
_cell_angle_alpha 64.500323
_cell_angle_beta 115.008833
_cell_angle_gamma 123.188896
_cell_volume 369.933100
_symmetry_space_group_name_H-M "P -1"
_symmetry_group_IT_number 2
_symmetry_cell_setting 'triclinic'
loop_
_space_group_symop_operation_xyz
x,y,z
-x,-y,-z
loop_
_atom_site_type_symbol
_atom_site_label
_atom_site_fract_x
_atom_site_fract_y
_atom_site_fract_z
Si Si1 0.241837 0.427154 0.865209
Si Si2 0.343906 0.161638 0.802119
Si Si3 0.547722 0.773230 0.461422
Si Si4 0.879096 0.263999 0.411430
Si Si5 0.138648 0.747713 0.962596
O O1 0.244536 0.330065 0.763733
O O2 0.193273 0.624899 0.755368
O O3 0.500000 0.500000 0.000000
O O4 0.000303 0.240042 0.943823
O O5 0.526617 0.230198 0.698254
O O6 0.119068 0.921918 0.817456
O O7 0.532494 0.184759 0.958732
O O8 0.278903 0.693274 0.518645
O O9 0.784890 0.684306 0.541331
O O10 0.723373 0.016545 0.451262
O O11 0.000000 0.500000 0.000000
#
# Coordination Sequence:
#
# PCOD9050012 Si02
#       5
#     2   2   2   2   2
#     4  12  26  44  73 109 147 198 243 314 371 440
#     4  11  26  44  75 108 143 198 250 299 375 443
#     4  10  24  48  72 109 146 200 248 305 364 450
#     4  10  25  46  75 104 152 195 247 307 373 432
#     4  11  24  46  70 108 150 190 249 309 370 439
#
# _framework density 27.031915000000001
#
# number of rings (size 3 to 8) (size 9 to 14) (size 15 to 20)
#    0.000    1.200    2.000    1.800    8.400    6.400 
#    0.000    0.000    0.000    0.000    0.000    0.000 
#    0.000    0.000    0.000    0.000    0.000    0.000 
#
# Total GULP energy -55744.862336 kJ/mol
# GULP energy per Si atom -5574.486234 kJ/mol
# Density = 2.697039 g / cm^3
# Si number density = 27.031915 Si / 1000 Ang^3
#
#
#
# Elastic Constant Matrix: (Units=GPa)
#
#
# Indices 1 2 3 4 5 6 
#
# 1 157.4968 62.7067 64.8414 -6.0756 -11.3500 -12.3321
# 2 62.7067 143.7168 52.1365 -31.4336 -0.0007 -20.6718
# 3 64.8414 52.1365 151.7932 -29.9136 8.4506 -1.1413
# 4 -6.0756 -31.4336 -29.9136 38.6783 -2.2087 -2.7072
# 5 -11.3500 -0.0007 8.4506 -2.2087 53.7460 7.5288
# 6 -12.3321 -20.6718 -1.1413 -2.7072 7.5288 53.4655
#
#
#
# Elastic Compliance Matrix: (Units=1/GPa)
#
#
# Indices 1 2 3 4 5 6 
#
# 1 0.009337 -0.003633 -0.003700 -0.004204 0.002363 0.000124
# 2 -0.003633 0.011131 -0.000561 0.008270 -0.000899 0.003999
# 3 -0.003700 -0.000561 0.009722 0.006349 -0.002013 -0.000258
# 4 -0.004204 0.008270 0.006349 0.037076 -0.000976 0.004378
# 5 0.002363 -0.000899 -0.002013 -0.000976 0.019756 -0.002677
# 6 0.000124 0.003999 -0.000258 0.004378 -0.002677 0.020872
#
#
# Mechanical properties :
#
#
# Convention : Reuss Voigt Hill
#
# Bulk Modulus (GPa) = 69.43522 90.26400 79.84961
# Shear Modulus (GPa) = 38.91562 47.39944 43.15753
#
# Velocity S-wave (km/s) = 3.79835 4.19198 4.00001
# Velocity P-wave (km/s) = 6.70662 7.54284 7.13698
#
# Compressibility (1/GPa) = 0.01440191
#
# Stress axis : x y z
#
# Youngs Moduli (GPa) = 107.10173 89.83905 102.85606
#
# Poissons Ratio (x) = 0.32642 0.38052
# Poissons Ratio (y) = 0.38914 0.05773
# Poissons Ratio (z) = 0.39623 0.05042
#
# Static dielectric constant tensor:
#      x y z
#    x 2.402580 -0.124780 0.111600 
#    y -0.124780 2.321390 0.038380 
#    z 0.111600 0.038380 2.124410 
# 
# From -- ./inp_files/114982.got.cif
#   From: 2010.05.17/outbox.cif.g08.bks.cpg/sg2_58_cif.got.tgz:114982.got - 2010.06.03 11:33:40.
