data_PCOD9050080
_publ_section_title
;
Structure prediction by ZEFSAII (Michael W. Deem and Ramdas Pophale) SiO2 
 PCOD9050080
Probable space group: P -1
;
_chemical_formula_sum "Si O2"
_cell_formula_units_Z 12
_cell_length_a 14.960373
_cell_length_b 9.149460
_cell_length_c 5.865635
_cell_angle_alpha 95.084583
_cell_angle_beta 120.232701
_cell_angle_gamma 47.591231
_cell_volume 470.886400
_symmetry_space_group_name_H-M "P -1"
_symmetry_group_IT_number 2
_symmetry_cell_setting 'triclinic'
loop_
_space_group_symop_operation_xyz
x,y,z
-x,-y,-z
loop_
_atom_site_type_symbol
_atom_site_label
_atom_site_fract_x
_atom_site_fract_y
_atom_site_fract_z
Si Si1 0.546719 0.832704 0.343558
Si Si2 0.845525 0.062318 0.793865
Si Si3 0.211234 0.391050 0.734198
Si Si4 0.919928 0.688638 0.102154
Si Si5 0.398067 0.747083 0.828660
Si Si6 0.649557 0.515222 0.785016
O O1 0.656561 0.601517 0.577255
O O2 0.500000 0.000000 0.500000
O O3 0.430163 0.843022 0.064482
O O4 0.344789 0.204214 0.709183
O O5 0.773543 0.110172 0.453765
O O6 0.717913 0.287331 0.795207
O O7 0.868648 0.884821 0.927662
O O8 0.000000 0.000000 0.000000
O O9 0.197910 0.288796 0.906889
O O10 0.051249 0.582272 0.437875
O O11 0.254965 0.501785 0.905651
O O12 0.000000 0.500000 0.000000
O O13 0.480565 0.704074 0.691095
O O14 0.500000 0.500000 0.000000
#
# Coordination Sequence:
#
# PCOD9050080 Si02
#       6
#     2   2   2   2   2   2
#     4  11  25  48  80 115 156 212 274 331 394 477
#     4  12  26  48  82 118 156 210 267 335 401 479
#     4  10  24  48  75 107 159 209 262 332 404 479
#     4  11  25  48  74 116 162 206 265 333 408 478
#     4  11  26  51  79 114 160 210 268 326 409 483
#     4  11  25  49  75 111 157 204 268 332 395 480
#
# _framework density 25.483855999999999
#
# number of rings (size 3 to 8) (size 9 to 14) (size 15 to 20)
#    0.000    1.000    1.667    3.500    2.333    7.333 
#    9.000    2.500    0.000    0.000    0.000    1.167 
#    0.000    0.000    0.000    0.000    0.000    0.000 
#
# Total GULP energy -67203.714938 kJ/mol
# GULP energy per Si atom -5600.309578 kJ/mol
# Density = 2.542585 g / cm^3
# Si number density = 25.483856 Si / 1000 Ang^3
#
#
#
# Elastic Constant Matrix: (Units=GPa)
#
#
# Indices 1 2 3 4 5 6 
#
# 1 119.3551 49.3163 45.9521 20.4330 -13.1963 11.7317
# 2 49.3163 211.9836 67.9867 11.4311 -15.3889 22.4566
# 3 45.9521 67.9867 164.7436 14.0216 27.3898 12.7089
# 4 20.4330 11.4311 14.0216 51.3385 15.2157 -16.8835
# 5 -13.1963 -15.3889 27.3898 15.2157 53.6099 -0.7043
# 6 11.7317 22.4566 12.7089 -16.8835 -0.7043 35.3944
#
#
#
# Elastic Compliance Matrix: (Units=1/GPa)
#
#
# Indices 1 2 3 4 5 6 
#
# 1 0.012634 -0.000172 -0.003401 -0.008366 0.007085 -0.006707
# 2 -0.000172 0.006618 -0.002716 -0.003453 0.004163 -0.004731
# 3 -0.003401 -0.002716 0.009112 0.001510 -0.006699 0.000166
# 4 -0.008366 -0.003453 0.001510 0.033711 -0.013124 0.020241
# 5 0.007085 0.004163 -0.006699 -0.013124 0.028631 -0.008275
# 6 -0.006707 -0.004731 0.000166 0.020241 -0.008275 0.042909
#
#
# Mechanical properties :
#
#
# Convention : Reuss Voigt Hill
#
# Bulk Modulus (GPa) = 63.35471 91.39918 77.37694
# Shear Modulus (GPa) = 33.01284 50.25703 41.63493
#
# Velocity S-wave (km/s) = 3.60313 4.44566 4.04639
# Velocity P-wave (km/s) = 6.49806 7.89274 7.22911
#
# Compressibility (1/GPa) = 0.01578415
#
# Stress axis : x y z
#
# Youngs Moduli (GPa) = 79.15220 151.09857 109.74286
#
# Poissons Ratio (x) = 0.02605 0.37326
# Poissons Ratio (y) = 0.01365 0.29811
# Poissons Ratio (z) = 0.26921 0.41045
#
# Static dielectric constant tensor:
#      x y z
#    x 1.802000 -0.015080 -0.494810 
#    y -0.015080 1.953440 0.019480 
#    z -0.494810 0.019480 1.235380 
# 
# From -- ./inp_files/95686.got.cif
#   From: 2010.05.17/outbox.cif.g08.bks.cpg/sg2_48_cif.got.tgz:95686.got - 2010.06.03 11:33:40.
