data_PCOD9050408
_publ_section_title
;
Structure prediction by ZEFSAII (Michael W. Deem and Ramdas Pophale) SiO2 
 PCOD9050408
Probable space group: P -1
;
_chemical_formula_sum "Si O2"
_cell_formula_units_Z 14
_cell_length_a 9.173535
_cell_length_b 18.077798
_cell_length_c 8.240020
_cell_angle_alpha 120.489177
_cell_angle_beta 56.584339
_cell_angle_gamma 148.807623
_cell_volume 588.656125
_symmetry_space_group_name_H-M "P -1"
_symmetry_group_IT_number 2
_symmetry_cell_setting 'triclinic'
loop_
_space_group_symop_operation_xyz
x,y,z
-x,-y,-z
loop_
_atom_site_type_symbol
_atom_site_label
_atom_site_fract_x
_atom_site_fract_y
_atom_site_fract_z
Si Si1 0.999960 0.018424 0.266058
Si Si2 0.206861 0.323379 0.246964
Si Si3 0.940570 0.552864 0.473424
Si Si4 0.151041 0.881550 0.071116
Si Si5 0.404595 0.660235 0.851807
Si Si6 0.582241 0.195547 0.762691
Si Si7 0.890409 0.155707 0.595653
O O1 0.306809 0.182426 0.223560
O O2 0.846133 0.035888 0.480112
O O3 0.073907 0.952361 0.203876
O O4 0.753670 0.911398 0.160629
O O5 0.489359 0.373484 0.129645
O O6 0.243615 0.439579 0.337249
O O7 0.084363 0.260506 0.437708
O O8 0.987714 0.207726 0.110375
O O9 0.247917 0.713584 0.403916
O O10 0.000000 0.500000 0.500000
O O11 0.774352 0.449047 0.306112
O O12 0.010155 0.787262 0.217717
O O13 0.500000 0.000000 0.000000
O O14 0.266966 0.685106 0.061611
O O15 0.612273 0.107892 0.689258
#
# Coordination Sequence:
#
# PCOD9050408 Si02
#       7
#     2   2   2   2   2   2   2
#     4  11  24  43  73 107 141 178 232 293 348 414
#     4  10  25  48  67  97 142 186 234 284 352 417
#     4  11  27  45  70  99 140 186 234 287 348 418
#     4  12  26  40  69 108 140 181 236 293 346 413
#     4  11  23  46  72  99 144 184 229 286 352 417
#     4  11  23  44  73 102 139 183 232 283 356 417
#     4  10  25  40  68 100 146 179 225 283 357 408
#
# _framework density 23.782986000000001
#
# number of rings (size 3 to 8) (size 9 to 14) (size 15 to 20)
#    0.000    1.143    1.429    3.000   14.000    2.286 
#    0.000    0.714    0.000    0.000    0.000    0.000 
#    0.000    0.000    0.000    0.000    0.000    0.000 
#
# Total GULP energy -78164.344854 kJ/mol
# GULP energy per Si atom -5583.167490 kJ/mol
# Density = 2.372885 g / cm^3
# Si number density = 23.782986 Si / 1000 Ang^3
#
#
#
# Elastic Constant Matrix: (Units=GPa)
#
#
# Indices 1 2 3 4 5 6 
#
# 1 177.1580 42.3977 75.5486 9.6517 -22.1541 -8.6196
# 2 42.3977 77.2988 31.1553 8.5969 4.7509 3.9518
# 3 75.5486 31.1553 104.4796 22.6602 -3.5375 -10.6547
# 4 9.6517 8.5969 22.6602 25.5895 -7.5193 -1.9484
# 5 -22.1541 4.7509 -3.5375 -7.5193 42.4547 8.6456
# 6 -8.6196 3.9518 -10.6547 -1.9484 8.6456 33.4996
#
#
#
# Elastic Compliance Matrix: (Units=1/GPa)
#
#
# Indices 1 2 3 4 5 6 
#
# 1 0.010018 -0.003542 -0.007250 0.005588 0.006125 -0.000566
# 2 -0.003542 0.016463 -0.001914 -0.003877 -0.003996 -0.002656
# 3 -0.007250 -0.001914 0.018866 -0.014594 -0.005591 0.004955
# 4 0.005588 -0.003877 -0.014594 0.054622 0.012371 -0.002762
# 5 0.006125 -0.003996 -0.005591 0.012371 0.030315 -0.006835
# 6 -0.000566 -0.002656 0.004955 -0.002762 -0.006835 0.033198
#
#
# Mechanical properties :
#
#
# Convention : Reuss Voigt Hill
#
# Bulk Modulus (GPa) = 50.16069 73.01551 61.58810
# Shear Modulus (GPa) = 25.57049 34.29774 29.93412
#
# Velocity S-wave (km/s) = 3.28252 3.80164 3.55157
# Velocity P-wave (km/s) = 5.95847 7.07370 6.53990
#
# Compressibility (1/GPa) = 0.01993593
#
# Stress axis : x y z
#
# Youngs Moduli (GPa) = 99.81963 60.74156 53.00599
#
# Poissons Ratio (x) = 0.21512 0.38431
# Poissons Ratio (y) = 0.35352 0.10144
# Poissons Ratio (z) = 0.72372 0.11624
#
# Static dielectric constant tensor:
#      x y z
#    x 1.925370 0.030350 -0.036720 
#    y 0.030350 1.922530 -0.049530 
#    z -0.036720 -0.049530 2.044280 
# 
# From -- ./inp_files/218207.got.cif
#   From: 2010.05.17/outbox.cif.g08.bks.cpg/sg2_110_cif.got.tgz:218207.got - 2010.06.03 11:33:40.
