data_PCOD9050038
_publ_section_title
;
Structure prediction by ZEFSAII (Michael W. Deem and Ramdas Pophale) SiO2 
 PCOD9050038
Probable space group: P -1
;
_chemical_formula_sum "Si O2"
_cell_formula_units_Z 13
_cell_length_a 8.625065
_cell_length_b 8.008170
_cell_length_c 8.692899
_cell_angle_alpha 110.384442
_cell_angle_beta 93.221049
_cell_angle_gamma 112.555183
_cell_volume 507.130057
_symmetry_space_group_name_H-M "P -1"
_symmetry_group_IT_number 2
_symmetry_cell_setting 'triclinic'
loop_
_space_group_symop_operation_xyz
x,y,z
-x,-y,-z
loop_
_atom_site_type_symbol
_atom_site_label
_atom_site_fract_x
_atom_site_fract_y
_atom_site_fract_z
Si Si1 0.388761 0.087329 0.121169
Si Si2 0.323647 0.552769 0.863363
Si Si3 0.020483 0.463729 0.307962
Si Si4 0.287397 0.159511 0.606012
Si Si5 0.000000 0.000000 0.000000
Si Si6 0.025552 0.101614 0.320853
Si Si7 0.352836 0.768627 0.252629
O O1 0.520285 0.316737 0.200997
O O2 0.356165 0.964827 0.237733
O O3 0.500000 0.000000 0.000000
O O4 0.213449 0.061507 0.023659
O O5 0.300891 0.333663 0.774569
O O6 0.151125 0.563710 0.796797
O O7 0.356470 0.636260 0.064114
O O8 0.037905 0.254927 0.233629
O O9 0.185135 0.637306 0.298903
O O10 0.000000 0.500000 0.500000
O O11 0.196170 0.189429 0.457640
O O12 0.475061 0.171767 0.619896
O O13 0.139562 0.956400 0.600603
O O14 0.997904 0.078484 0.846152
#
# Coordination Sequence:
#
# PCOD9050038 Si02
#       7
#     2   2   2   2   1   2   2
#     4  10  24  48  73 110 148 188 249 307 357 440
#     4  11  23  46  73 105 145 190 245 302 363 440
#     4  12  26  46  70 105 151 188 245 305 364 431
#     4  11  25  46  70 105 146 186 246 304 373 428
#     4  12  26  44  82 102 142 198 248 290 376 436
#     4  11  26  45  71 103 149 192 241 305 365 439
#     4  11  25  44  74 106 145 195 243 297 368 443
#
# _framework density 25.634449
#
# number of rings (size 3 to 8) (size 9 to 14) (size 15 to 20)
#    0.000    0.923    1.538    5.538    6.462    1.846 
#    0.000    2.308    0.000    0.000    0.000    0.000 
#    0.000    0.000    0.000    0.000    0.000    0.000 
#
# Total GULP energy -72604.928722 kJ/mol
# GULP energy per Si atom -5584.994517 kJ/mol
# Density = 2.557610 g / cm^3
# Si number density = 25.634449 Si / 1000 Ang^3
#
#
#
# Elastic Constant Matrix: (Units=GPa)
#
#
# Indices 1 2 3 4 5 6 
#
# 1 201.7578 73.7570 63.8434 4.2756 56.1047 34.3176
# 2 73.7570 150.4920 31.8564 -14.0595 5.8662 34.6949
# 3 63.8434 31.8564 139.8932 -0.2383 39.8765 15.3204
# 4 4.2756 -14.0595 -0.2383 31.9954 -3.5097 -7.6047
# 5 56.1047 5.8662 39.8765 -3.5097 46.2193 18.0262
# 6 34.3176 34.6949 15.3204 -7.6047 18.0262 45.9161
#
#
#
# Elastic Compliance Matrix: (Units=1/GPa)
#
#
# Indices 1 2 3 4 5 6 
#
# 1 0.010309 -0.005041 -0.000098 -0.004905 -0.012208 0.000117
# 2 -0.005041 0.011305 -0.002282 0.005029 0.009772 -0.007017
# 3 -0.000098 -0.002282 0.010117 -0.001498 -0.009118 0.001754
# 4 -0.004905 0.005029 -0.001498 0.035735 0.008113 0.003100
# 5 -0.012208 0.009772 -0.009118 0.008113 0.048776 -0.013023
# 6 0.000117 -0.007017 0.001754 0.003100 -0.013023 0.032034
#
#
# Mechanical properties :
#
#
# Convention : Reuss Voigt Hill
#
# Bulk Modulus (GPa) = 59.21299 92.33962 75.77631
# Shear Modulus (GPa) = 29.62969 46.33857 37.98413
#
# Velocity S-wave (km/s) = 3.40347 4.25628 3.85354
# Velocity P-wave (km/s) = 6.21241 7.76237 7.03024
#
# Compressibility (1/GPa) = 0.01688819
#
# Stress axis : x y z
#
# Youngs Moduli (GPa) = 97.00135 88.45472 98.84127
#
# Poissons Ratio (x) = 0.44591 0.00971
# Poissons Ratio (y) = 0.48900 0.22559
# Poissons Ratio (z) = 0.00953 0.20188
#
# Static dielectric constant tensor:
#      x y z
#    x 1.948970 0.090270 0.027780 
#    y 0.090270 1.926040 -0.177780 
#    z 0.027780 -0.177780 1.765370 
# 
# From -- ./inp_files/147925.got.cif
#   From: 2010.05.17/outbox.cif.g08.bks.cpg/sg2_74_cif.got.tgz:147925.got - 2010.06.03 11:33:40.
