data_PCOD9050356
_publ_section_title
;
Structure prediction by ZEFSAII (Michael W. Deem and Ramdas Pophale) SiO2 
 PCOD9050356
Probable space group: P -1
;
_chemical_formula_sum "Si O2"
_cell_formula_units_Z 13
_cell_length_a 5.718692
_cell_length_b 11.728732
_cell_length_c 9.271115
_cell_angle_alpha 118.100983
_cell_angle_beta 104.670469
_cell_angle_gamma 102.773798
_cell_volume 486.610538
_symmetry_space_group_name_H-M "P -1"
_symmetry_group_IT_number 2
_symmetry_cell_setting 'triclinic'
loop_
_space_group_symop_operation_xyz
x,y,z
-x,-y,-z
loop_
_atom_site_type_symbol
_atom_site_label
_atom_site_fract_x
_atom_site_fract_y
_atom_site_fract_z
Si Si1 0.180840 0.179396 0.967298
Si Si2 0.872370 0.565628 0.713562
Si Si3 0.808988 0.965361 0.589971
Si Si4 0.037352 0.762066 0.607931
Si Si5 0.500000 0.000000 0.000000
Si Si6 0.362532 0.607345 0.005490
Si Si7 0.705266 0.287620 0.647320
O O1 0.280179 0.071354 0.996308
O O2 0.400965 0.249775 0.921630
O O3 0.175162 0.307634 0.137406
O O4 0.904527 0.097999 0.792407
O O5 0.656232 0.409836 0.620040
O O6 0.916364 0.617518 0.588724
O O7 0.144053 0.566849 0.823309
O O8 0.508352 0.869541 0.450975
O O9 0.859694 0.849245 0.626098
O O10 0.000000 0.000000 0.500000
O O11 0.083437 0.736816 0.433811
O O12 0.306295 0.863740 0.789328
O O13 0.228586 0.638111 0.144530
O O14 0.500000 0.500000 0.000000
#
# Coordination Sequence:
#
# PCOD9050356 Si02
#       7
#     2   2   2   2   1   2   2
#     4  11  25  48  79 107 149 203 257 308 380 453
#     4  12  28  49  80 109 152 208 254 313 379 460
#     4  11  27  46  72 112 153 196 248 321 379 450
#     4  11  28  46  73 113 153 200 256 308 383 451
#     4  10  24  52  70 110 150 204 252 314 372 456
#     4  12  26  49  77 113 153 199 258 314 385 454
#     4  12  28  46  76 111 154 194 253 321 380 451
#
# _framework density 26.715406999999999
#
# number of rings (size 3 to 8) (size 9 to 14) (size 15 to 20)
#    0.000    0.615    4.615    0.923    8.615    2.462 
#    0.000    0.000    0.000    0.000    0.000    0.000 
#    0.000    0.000    0.000    0.000    0.000    0.000 
#
# Total GULP energy -72539.499830 kJ/mol
# GULP energy per Si atom -5579.961525 kJ/mol
# Density = 2.665460 g / cm^3
# Si number density = 26.715407 Si / 1000 Ang^3
#
#
#
# Elastic Constant Matrix: (Units=GPa)
#
#
# Indices 1 2 3 4 5 6 
#
# 1 58.3844 57.4589 34.2741 3.5330 6.4494 -9.9928
# 2 57.4589 142.8149 40.6938 13.5563 -3.6307 -0.4891
# 3 34.2741 40.6938 82.8284 21.1023 -4.2265 3.1783
# 4 3.5330 13.5563 21.1023 55.9402 -2.3702 -3.5952
# 5 6.4494 -3.6307 -4.2265 -2.3702 50.9260 1.2205
# 6 -9.9928 -0.4891 3.1783 -3.5952 1.2205 58.6323
#
#
#
# Elastic Compliance Matrix: (Units=1/GPa)
#
#
# Indices 1 2 3 4 5 6 
#
# 1 0.037997 -0.012660 -0.011447 0.005185 -0.006602 0.007446
# 2 -0.012660 0.012380 -0.000069 -0.002215 0.002431 -0.002237
# 3 -0.011447 -0.000069 0.018757 -0.006438 0.002784 -0.003421
# 4 0.005185 -0.002215 -0.006438 0.020655 -0.000447 0.002490
# 5 -0.006602 0.002431 0.002784 -0.000447 0.020897 -0.001718
# 6 0.007446 -0.002237 -0.003421 0.002490 -0.001718 0.018680
#
#
# Mechanical properties :
#
#
# Convention : Reuss Voigt Hill
#
# Bulk Modulus (GPa) = 48.11882 60.98681 54.55281
# Shear Modulus (GPa) = 27.07886 43.20641 35.14263
#
# Velocity S-wave (km/s) = 3.18717 4.02591 3.63084
# Velocity P-wave (km/s) = 5.62093 6.66997 6.16779
#
# Compressibility (1/GPa) = 0.02078189
#
# Stress axis : x y z
#
# Youngs Moduli (GPa) = 26.31780 80.77639 53.31274
#
# Poissons Ratio (x) = 1.02266 0.61025
# Poissons Ratio (y) = 0.33319 0.00369
# Poissons Ratio (z) = 0.30125 0.00559
#
# Static dielectric constant tensor:
#      x y z
#    x 2.163190 0.044830 0.044320 
#    y 0.044830 2.130070 -0.000830 
#    z 0.044320 -0.000830 2.107890 
# 
# From -- ./inp_files/131981.got.cif
#   From: 2010.05.17/outbox.cif.g08.bks.cpg/sg2_66_cif.got.tgz:131981.got - 2010.06.03 11:33:40.
