data_PCOD9050539
_publ_section_title
;
Structure prediction by ZEFSAII (Michael W. Deem and Ramdas Pophale) SiO2 
 PCOD9050539
Probable space group: P -1
;
_chemical_formula_sum "Si O2"
_cell_formula_units_Z 16
_cell_length_a 11.568063
_cell_length_b 5.670201
_cell_length_c 11.044864
_cell_angle_alpha 117.552149
_cell_angle_beta 88.334566
_cell_angle_gamma 92.005762
_cell_volume 641.845325
_symmetry_space_group_name_H-M "P -1"
_symmetry_group_IT_number 2
_symmetry_cell_setting 'triclinic'
loop_
_space_group_symop_operation_xyz
x,y,z
-x,-y,-z
loop_
_atom_site_type_symbol
_atom_site_label
_atom_site_fract_x
_atom_site_fract_y
_atom_site_fract_z
Si Si1 0.547678 0.802734 0.060232
Si Si2 0.195341 0.059283 0.937915
Si Si3 0.037476 0.124318 0.721359
Si Si4 0.569643 0.733344 0.411617
Si Si5 0.572227 0.779120 0.700349
Si Si6 0.208293 0.501838 0.721773
Si Si7 0.876785 0.363786 0.500780
Si Si8 0.173096 0.172398 0.228544
O O1 0.685380 0.776888 0.039576
O O2 0.515187 0.979702 0.221211
O O3 0.500000 0.500000 0.000000
O O4 0.500000 0.000000 0.000000
O O5 0.109850 0.090826 0.835304
O O6 0.236242 0.754776 0.863392
O O7 0.136615 0.133813 0.082736
O O8 0.078422 0.411769 0.743161
O O9 0.094806 0.943597 0.571975
O O10 0.909326 0.016282 0.729927
O O11 0.600294 0.690108 0.542315
O O12 0.487974 0.489572 0.308892
O O13 0.690252 0.711873 0.330347
O O14 0.500000 0.000000 0.500000
O O15 0.691957 0.886104 0.778684
O O16 0.200578 0.595319 0.605468
O O17 0.832008 0.522522 0.653653
O O18 0.000000 0.500000 0.500000
#
# Coordination Sequence:
#
# PCOD9050539 Si02
#       8
#     2   2   2   2   2   2   2   2
#     4  12  28  48  74 108 149 195 246 306 375 442
#     4  11  25  44  70 100 148 190 242 299 366 442
#     4  10  25  42  71  99 140 192 236 297 368 443
#     4  11  26  41  70 102 139 190 242 308 374 445
#     4  11  25  45  68 102 144 185 248 306 370 442
#     4  11  23  44  67 102 139 186 241 298 369 444
#     4   9  21  43  66  95 133 179 237 299 358 429
#     4  11  22  45  68 101 143 182 245 296 368 435
#
# _framework density 24.928122999999999
#
# number of rings (size 3 to 8) (size 9 to 14) (size 15 to 20)
#    0.000    1.250    3.750    0.375    7.000    2.500 
#    0.000    5.000    0.000    0.000    0.000    0.000 
#    0.000    0.000    0.000    0.000    0.000    0.000 
#
# Total GULP energy -89383.969926 kJ/mol
# GULP energy per Si atom -5586.498120 kJ/mol
# Density = 2.487139 g / cm^3
# Si number density = 24.928123 Si / 1000 Ang^3
#
#
#
# Elastic Constant Matrix: (Units=GPa)
#
#
# Indices 1 2 3 4 5 6 
#
# 1 99.6973 36.5347 14.0448 3.2804 -0.3212 15.5700
# 2 36.5347 92.2834 36.5738 22.2090 4.0041 19.9391
# 3 14.0448 36.5738 145.5113 6.2502 -17.4086 -0.6540
# 4 3.2804 22.2090 6.2502 36.4455 2.2172 12.2137
# 5 -0.3212 4.0041 -17.4086 2.2172 36.2343 -0.5932
# 6 15.5700 19.9391 -0.6540 12.2137 -0.5932 44.7747
#
#
#
# Elastic Compliance Matrix: (Units=1/GPa)
#
#
# Indices 1 2 3 4 5 6 
#
# 1 0.012177 -0.004896 -0.000028 0.002810 0.000417 -0.002816
# 2 -0.004896 0.017227 -0.003948 -0.007855 -0.003427 -0.003930
# 3 -0.000028 -0.003948 0.008414 0.000041 0.004507 0.001939
# 4 0.002810 -0.007855 0.000041 0.034344 -0.001301 -0.006865
# 5 0.000417 -0.003427 0.004507 -0.001301 0.030262 0.002203
# 6 -0.002816 -0.003930 0.001939 -0.006865 0.002203 0.026993
#
#
# Mechanical properties :
#
#
# Convention : Reuss Voigt Hill
#
# Bulk Modulus (GPa) = 49.81540 56.86651 53.34095
# Shear Modulus (GPa) = 32.49881 40.18015 36.33948
#
# Velocity S-wave (km/s) = 3.61460 4.01913 3.82222
# Velocity P-wave (km/s) = 6.11943 6.66330 6.39715
#
# Compressibility (1/GPa) = 0.02007411
#
# Stress axis : x y z
#
# Youngs Moduli (GPa) = 82.12183 58.04826 118.85657
#
# Poissons Ratio (x) = 0.28419 0.00336
# Poissons Ratio (y) = 0.40205 0.46922
# Poissons Ratio (z) = 0.00232 0.22916
#
# Static dielectric constant tensor:
#      x y z
#    x 1.975450 -0.048790 0.045160 
#    y -0.048790 2.103320 -0.046120 
#    z 0.045160 -0.046120 2.011500 
# 
# From -- ./inp_files/411243.got.cif
#   From: 2010.05.17/outbox.cif.g08.bks.cpg/sg2_206_cif.got.tgz:411243.got - 2010.06.03 11:33:40.
