data_PCOD9050953
_publ_section_title
;
Structure prediction by ZEFSAII (Michael W. Deem and Ramdas Pophale) SiO2 
 PCOD9050953
Probable space group: P -1
;
_chemical_formula_sum "Si O2"
_cell_formula_units_Z 14
_cell_length_a 16.273998
_cell_length_b 9.182831
_cell_length_c 9.928159
_cell_angle_alpha 140.684963
_cell_angle_beta 132.483285
_cell_angle_gamma 38.617259
_cell_volume 577.187851
_symmetry_space_group_name_H-M "P -1"
_symmetry_group_IT_number 2
_symmetry_cell_setting 'triclinic'
loop_
_space_group_symop_operation_xyz
x,y,z
-x,-y,-z
loop_
_atom_site_type_symbol
_atom_site_label
_atom_site_fract_x
_atom_site_fract_y
_atom_site_fract_z
Si Si1 0.937067 0.817877 0.623297
Si Si2 0.919267 0.887825 0.064777
Si Si3 0.344249 0.610311 0.897350
Si Si4 0.679351 0.326668 0.798439
Si Si5 0.894422 0.758664 0.232966
Si Si6 0.563296 0.746030 0.491348
Si Si7 0.372495 0.199874 0.097094
O O1 0.893095 0.869082 0.455962
O O2 0.000000 0.500000 0.500000
O O3 0.806913 0.016919 0.710172
O O4 0.033419 0.928488 0.818114
O O5 0.940311 0.857517 0.227799
O O6 0.760271 0.061346 0.987123
O O7 0.005297 0.574823 0.885809
O O8 0.323905 0.496158 0.654028
O O9 0.500000 0.500000 0.000000
O O10 0.319000 0.527279 0.956503
O O11 0.546032 0.326245 0.650293
O O12 0.680254 0.493941 0.793405
O O13 0.745797 0.841739 0.093235
O O14 0.598631 0.813537 0.722080
O O15 0.500000 0.000000 0.500000
O O16 0.500000 0.000000 0.000000
#
# Coordination Sequence:
#
# PCOD9050953 Si02
#       7
#     2   2   2   2   2   2   2
#     4  12  27  46  74 107 149 198 248 309 376 441
#     4  11  26  48  73 102 152 193 254 297 377 447
#     4  10  25  44  74 101 144 188 241 303 364 443
#     4  11  25  46  69 108 148 187 253 306 375 436
#     4  11  27  47  75 108 147 200 249 306 375 449
#     4  11  26  44  71 106 144 196 245 297 375 447
#     4  12  26  45  75 107 152 191 247 317 371 438
#
# _framework density 24.255531999999999
#
# number of rings (size 3 to 8) (size 9 to 14) (size 15 to 20)
#    0.000    0.857    1.429    3.429   14.000    3.429 
#    0.000    0.000    0.000    0.000    0.000    0.000 
#    0.000    0.000    0.000    0.000    0.000    0.000 
#
# Total GULP energy -78356.638961 kJ/mol
# GULP energy per Si atom -5596.902783 kJ/mol
# Density = 2.420033 g / cm^3
# Si number density = 24.255532 Si / 1000 Ang^3
#
#
#
# Elastic Constant Matrix: (Units=GPa)
#
#
# Indices 1 2 3 4 5 6 
#
# 1 76.3587 26.5155 38.9415 0.0447 -14.3196 14.9004
# 2 26.5155 113.2131 38.3456 8.7979 -16.3061 -7.8046
# 3 38.9415 38.3456 127.7473 -18.3579 -43.6758 -11.1586
# 4 0.0447 8.7979 -18.3579 44.0906 1.1828 -5.8925
# 5 -14.3196 -16.3061 -43.6758 1.1828 49.8076 4.6262
# 6 14.9004 -7.8046 -11.1586 -5.8925 4.6262 47.9878
#
#
#
# Elastic Compliance Matrix: (Units=1/GPa)
#
#
# Indices 1 2 3 4 5 6 
#
# 1 0.018653 -0.002637 -0.006023 -0.003071 0.000034 -0.008002
# 2 -0.002637 0.010722 -0.002564 -0.003008 0.000431 0.001555
# 3 -0.006023 -0.002564 0.015460 0.007339 0.010351 0.004951
# 4 -0.003071 -0.003008 0.007339 0.026935 0.003450 0.005146
# 5 0.000034 0.000431 0.010351 0.003450 0.029216 0.000074
# 6 -0.008002 0.001555 0.004951 0.005146 0.000074 0.025352
#
#
# Mechanical properties :
#
#
# Convention : Reuss Voigt Hill
#
# Bulk Modulus (GPa) = 44.66796 58.32491 51.49644
# Shear Modulus (GPa) = 32.00062 42.61163 37.30612
#
# Velocity S-wave (km/s) = 3.63617 4.19594 3.92605
# Velocity P-wave (km/s) = 6.00704 6.89730 6.46751
#
# Compressibility (1/GPa) = 0.02238741
#
# Stress axis : x y z
#
# Youngs Moduli (GPa) = 53.61082 93.26809 64.68443
#
# Poissons Ratio (x) = 0.24592 0.38961
# Poissons Ratio (y) = 0.14135 0.16583
# Poissons Ratio (z) = 0.32291 0.23910
#
# Static dielectric constant tensor:
#      x y z
#    x 1.962080 -0.020340 0.024630 
#    y -0.020340 1.961220 0.001850 
#    z 0.024630 0.001850 2.007700 
# 
# From -- ./inp_files/296947.got.cif
#   From: 2010.05.17/outbox.cif.g08.bks.cpg/sg2_149_cif.got.tgz:296947.got - 2010.06.03 11:33:40.
