data_PCOD9050368
_publ_section_title
;
Structure prediction by ZEFSAII (Michael W. Deem and Ramdas Pophale) SiO2 
 PCOD9050368
Probable space group: P -1
;
_chemical_formula_sum "Si O2"
_cell_formula_units_Z 16
_cell_length_a 13.991094
_cell_length_b 17.740672
_cell_length_c 5.453973
_cell_angle_alpha 104.126575
_cell_angle_beta 115.346560
_cell_angle_gamma 30.163963
_cell_volume 590.578410
_symmetry_space_group_name_H-M "P -1"
_symmetry_group_IT_number 2
_symmetry_cell_setting 'triclinic'
loop_
_space_group_symop_operation_xyz
x,y,z
-x,-y,-z
loop_
_atom_site_type_symbol
_atom_site_label
_atom_site_fract_x
_atom_site_fract_y
_atom_site_fract_z
Si Si1 0.186490 0.734203 0.399160
Si Si2 0.991669 0.256116 0.142309
Si Si3 0.808859 0.615284 0.581120
Si Si4 0.065515 0.333500 0.860481
Si Si5 0.595809 0.517844 0.231684
Si Si6 0.254361 0.008886 0.607830
Si Si7 0.454039 0.098611 0.733659
Si Si8 0.234133 0.851871 0.276941
O O1 0.107098 0.762072 0.066539
O O2 0.332718 0.567314 0.500648
O O3 0.241825 0.788715 0.472310
O O4 0.980228 0.857228 0.435952
O O5 0.036315 0.283148 0.982561
O O6 0.807200 0.407586 0.230433
O O7 0.200651 0.094744 0.380769
O O8 0.605082 0.781210 0.361052
O O9 0.000000 0.500000 0.500000
O O10 0.843253 0.509753 0.657079
O O11 0.842411 0.655368 0.866955
O O12 0.236159 0.213936 0.735406
O O13 0.415505 0.697376 0.184138
O O14 0.500000 0.500000 0.000000
O O15 0.389696 0.971111 0.928245
O O16 0.315119 0.884106 0.485791
O O17 0.500000 0.000000 0.500000
O O18 0.000000 0.000000 0.000000
#
# Coordination Sequence:
#
# PCOD9050368 Si02
#       8
#     2   2   2   2   2   2   2   2
#     4  11  24  49  77 113 164 219 277 334 413 508
#     4  11  25  50  79 121 162 220 283 333 429 513
#     4   9  22  51  77 110 156 217 277 340 429 495
#     4  10  24  52  83 111 164 221 278 358 414 507
#     4  11  24  47  79 117 166 218 282 332 416 519
#     4  11  27  49  78 122 167 216 283 344 434 506
#     4  11  27  53  82 119 168 222 286 355 426 509
#     4  12  23  51  82 116 169 215 265 361 416 495
#
# _framework density 27.092085000000001
#
# number of rings (size 3 to 8) (size 9 to 14) (size 15 to 20)
#    0.000    1.250    2.500    1.500    1.750    6.000 
#   11.250    3.750    0.000    0.000    0.000    0.000 
#    0.000    0.000    0.000    0.000    0.000    0.000 
#
# Total GULP energy -89388.962495 kJ/mol
# GULP energy per Si atom -5586.810156 kJ/mol
# Density = 2.703042 g / cm^3
# Si number density = 27.092085 Si / 1000 Ang^3
#
#
#
# Elastic Constant Matrix: (Units=GPa)
#
#
# Indices 1 2 3 4 5 6 
#
# 1 161.5312 81.9550 39.6736 -6.9974 -20.3206 19.5775
# 2 81.9550 235.8531 78.9955 -0.5504 -9.1923 20.1848
# 3 39.6736 78.9955 156.7346 -13.9752 5.4799 33.5251
# 4 -6.9974 -0.5504 -13.9752 62.0957 15.0699 -0.8224
# 5 -20.3206 -9.1923 5.4799 15.0699 48.8657 3.7267
# 6 19.5775 20.1848 33.5251 -0.8224 3.7267 54.8244
#
#
#
# Elastic Compliance Matrix: (Units=1/GPa)
#
#
# Indices 1 2 3 4 5 6 
#
# 1 0.008156 -0.002352 -0.000585 -0.000028 0.003169 -0.001905
# 2 -0.002352 0.005916 -0.002527 -0.000949 0.000700 0.000145
# 3 -0.000585 -0.002527 0.008983 0.002399 -0.002148 -0.004172
# 4 -0.000028 -0.000949 0.002399 0.018084 -0.006003 -0.000429
# 5 0.003169 0.000700 -0.002148 -0.006003 0.024144 -0.001807
# 6 -0.001905 0.000145 -0.004172 -0.000429 -0.001807 0.021534
#
#
# Mechanical properties :
#
#
# Convention : Reuss Voigt Hill
#
# Bulk Modulus (GPa) = 82.45041 106.15191 94.30116
# Shear Modulus (GPa) = 49.12258 56.72349 52.92304
#
# Velocity S-wave (km/s) = 4.26275 4.58069 4.42458
# Velocity P-wave (km/s) = 7.39781 8.20024 7.80934
#
# Compressibility (1/GPa) = 0.01212850
#
# Stress axis : x y z
#
# Youngs Moduli (GPa) = 122.61164 169.03409 111.31999
#
# Poissons Ratio (x) = 0.39750 0.06513
# Poissons Ratio (y) = 0.28834 0.28125
# Poissons Ratio (z) = 0.07174 0.42707
#
# Static dielectric constant tensor:
#      x y z
#    x 2.222950 -0.119730 0.066470 
#    y -0.119730 2.315610 -0.225640 
#    z 0.066470 -0.225640 2.656760 
# 
# From -- ./inp_files/99843.got.cif
#   From: 2010.05.17/outbox.cif.g08.bks.cpg/sg2_50_cif.got.tgz:99843.got - 2010.06.03 11:33:40.
