data_PCOD9050172
_publ_section_title
;
Structure prediction by ZEFSAII (Michael W. Deem and Ramdas Pophale) SiO2 
 PCOD9050172
Probable space group: P -1
;
_chemical_formula_sum "Si O2"
_cell_formula_units_Z 16
_cell_length_a 7.948670
_cell_length_b 21.859736
_cell_length_c 12.777978
_cell_angle_alpha 146.983852
_cell_angle_beta 37.960122
_cell_angle_gamma 120.742943
_cell_volume 665.528110
_symmetry_space_group_name_H-M "P -1"
_symmetry_group_IT_number 2
_symmetry_cell_setting 'triclinic'
loop_
_space_group_symop_operation_xyz
x,y,z
-x,-y,-z
loop_
_atom_site_type_symbol
_atom_site_label
_atom_site_fract_x
_atom_site_fract_y
_atom_site_fract_z
Si Si1 0.432127 0.832687 0.844040
Si Si2 0.766300 0.352409 0.073878
Si Si3 0.050034 0.260393 0.137906
Si Si4 0.298027 0.397429 0.920883
Si Si5 0.515768 0.504930 0.229004
Si Si6 0.830577 0.664770 0.592923
Si Si7 0.617524 0.236738 0.703862
Si Si8 0.869205 0.892666 0.584628
O O1 0.700152 0.736661 0.650439
O O2 0.594996 0.860652 0.705264
O O3 0.178920 0.792886 0.869246
O O4 0.259875 0.964041 0.178820
O O5 0.716917 0.462158 0.172622
O O6 0.436585 0.375997 0.307742
O O7 0.029092 0.357906 0.021684
O O8 0.914414 0.213019 0.752360
O O9 0.147568 0.252432 0.201469
O O10 0.833642 0.409473 0.447569
O O11 0.350001 0.211706 0.849916
O O12 0.153614 0.539395 0.242913
O O13 0.376361 0.419817 0.796790
O O14 0.581736 0.277236 0.659012
O O15 0.565124 0.370959 0.969989
O O16 0.932292 0.130190 0.439088
#
# Coordination Sequence:
#
# PCOD9050172 Si02
#       8
#     2   2   2   2   2   2   2   2
#     4  11  26  46  68  91 126 175 218 261 320 373
#     4  11  22  41  62  96 131 172 209 263 324 375
#     4  12  23  42  66  97 129 171 209 263 323 378
#     4  12  23  36  66 100 129 169 212 255 325 391
#     4  11  21  37  62  93 134 167 203 263 317 383
#     4  12  23  41  67  98 131 167 213 264 316 388
#     4  11  22  41  63  93 134 164 205 268 319 371
#     4  10  24  49  64  88 131 168 213 274 310 370
#
# _framework density 24.041059000000001
#
# number of rings (size 3 to 8) (size 9 to 14) (size 15 to 20)
#    0.000    0.750    3.750    6.000    1.750    1.000 
#    2.250    1.250    0.000    0.000    0.000    0.000 
#    0.000    0.000    0.000    0.000    0.000    0.000 
#
# Total GULP energy -89389.905081 kJ/mol
# GULP energy per Si atom -5586.869068 kJ/mol
# Density = 2.398634 g / cm^3
# Si number density = 24.041059 Si / 1000 Ang^3
#
#
#
# Elastic Constant Matrix: (Units=GPa)
#
#
# Indices 1 2 3 4 5 6 
#
# 1 72.6516 32.3573 -10.1336 8.4469 -8.6025 9.0201
# 2 32.3573 64.8633 16.9326 -12.4615 -1.4489 10.0840
# 3 -10.1336 16.9326 75.9600 2.3750 -8.1752 -4.1686
# 4 8.4469 -12.4615 2.3750 38.4181 0.3129 -7.1969
# 5 -8.6025 -1.4489 -8.1752 0.3129 31.5339 -8.4708
# 6 9.0201 10.0840 -4.1686 -7.1969 -8.4708 26.8101
#
#
#
# Elastic Compliance Matrix: (Units=1/GPa)
#
#
# Indices 1 2 3 4 5 6 
#
# 1 0.024456 -0.016048 0.007935 -0.011436 0.007674 -0.001603
# 2 -0.016048 0.029297 -0.010208 0.012563 -0.007467 -0.006194
# 3 0.007935 -0.010208 0.017762 -0.005292 0.007679 0.004937
# 4 -0.011436 0.012563 -0.005292 0.034223 -0.002451 0.006712
# 5 0.007674 -0.007467 0.007679 -0.002451 0.038992 0.013082
# 6 -0.001603 -0.006194 0.004937 0.006712 0.013082 0.046871
#
#
# Mechanical properties :
#
#
# Convention : Reuss Voigt Hill
#
# Bulk Modulus (GPa) = 28.67464 32.42083 30.54773
# Shear Modulus (GPa) = 20.84495 30.97367 25.90931
#
# Velocity S-wave (km/s) = 2.94778 3.59327 3.28641
# Velocity P-wave (km/s) = 4.85171 5.54350 5.20910
#
# Compressibility (1/GPa) = 0.03487402
#
# Stress axis : x y z
#
# Youngs Moduli (GPa) = 40.89010 34.13310 56.30046
#
# Poissons Ratio (x) = 0.54776 -0.44676
# Poissons Ratio (y) = 0.65619 0.57471
# Poissons Ratio (z) = -0.32448 0.34843
#
# Static dielectric constant tensor:
#      x y z
#    x 2.099470 -0.008130 0.011720 
#    y -0.008130 1.914990 -0.033090 
#    z 0.011720 -0.033090 1.915530 
# 
# From -- ./inp_files/216689.got.cif
#   From: 2010.05.17/outbox.cif.g08.bks.cpg/sg2_109_cif.got.tgz:216689.got - 2010.06.03 11:33:40.
