data_PCOD9050163
_publ_section_title
;
Structure prediction by ZEFSAII (Michael W. Deem and Ramdas Pophale) SiO2 
 PCOD9050163
Probable space group: P -1
;
_chemical_formula_sum "Si O2"
_cell_formula_units_Z 15
_cell_length_a 16.951030
_cell_length_b 5.350994
_cell_length_c 11.911953
_cell_angle_alpha 46.023591
_cell_angle_beta 50.407776
_cell_angle_gamma 53.509818
_cell_volume 576.173700
_symmetry_space_group_name_H-M "P -1"
_symmetry_group_IT_number 2
_symmetry_cell_setting 'triclinic'
loop_
_space_group_symop_operation_xyz
x,y,z
-x,-y,-z
loop_
_atom_site_type_symbol
_atom_site_label
_atom_site_fract_x
_atom_site_fract_y
_atom_site_fract_z
Si Si1 0.065125 0.762445 0.305448
Si Si2 0.607263 0.319216 0.695082
Si Si3 0.557629 0.326073 0.113327
Si Si4 0.743390 0.574938 0.903576
Si Si5 0.673907 0.589859 0.217217
Si Si6 0.500000 0.500000 0.500000
Si Si7 0.150368 0.734303 0.673664
Si Si8 0.213092 0.460792 0.450964
O O1 0.134764 0.571696 0.196658
O O2 0.149648 0.767633 0.325622
O O3 0.000000 0.500000 0.500000
O O4 0.977285 0.129185 0.239577
O O5 0.493434 0.390450 0.834168
O O6 0.585910 0.436172 0.551475
O O7 0.663986 0.552920 0.649663
O O8 0.682504 0.922378 0.776700
O O9 0.562594 0.905908 0.258656
O O10 0.500000 0.500000 0.000000
O O11 0.682365 0.285211 0.008617
O O12 0.715768 0.627376 0.043117
O O13 0.608229 0.293980 0.380927
O O14 0.775280 0.535312 0.222536
O O15 0.172506 0.580020 0.576245
O O16 0.188077 0.096399 0.548748
#
# Coordination Sequence:
#
# PCOD9050163 Si02
#       8
#     2   2   2   2   2   1   2   2
#     4  10  24  48  81 109 147 198 261 317 386 449
#     4  12  24  45  79 109 152 201 256 309 387 460
#     4  12  25  45  70 107 148 204 250 309 380 462
#     4  12  26  49  73 107 152 201 255 314 382 463
#     4  12  28  46  74 109 157 200 254 313 386 454
#     4  12  26  44  74 104 154 198 248 310 378 444
#     4  11  26  48  75 115 153 199 256 327 380 450
#     4  11  24  47  80 114 151 198 258 319 382 458
#
# _framework density 26.033814
#
# number of rings (size 3 to 8) (size 9 to 14) (size 15 to 20)
#    0.000    0.533    4.000    4.000    3.733    2.133 
#    0.000    0.667    0.000    0.000    0.000    0.000 
#    0.000    0.000    0.000    0.000    0.000    0.000 
#
# Total GULP energy -83704.622415 kJ/mol
# GULP energy per Si atom -5580.308161 kJ/mol
# Density = 2.597456 g / cm^3
# Si number density = 26.033814 Si / 1000 Ang^3
#
#
#
# Elastic Constant Matrix: (Units=GPa)
#
#
# Indices 1 2 3 4 5 6 
#
# 1 133.9440 40.2863 61.5745 4.4109 48.9956 -24.8299
# 2 40.2863 125.6514 57.9447 19.3082 26.1369 -26.4407
# 3 61.5745 57.9447 116.5445 39.6184 39.6256 -21.1693
# 4 4.4109 19.3082 39.6184 56.4720 2.4471 1.2040
# 5 48.9956 26.1369 39.6256 2.4471 60.1646 -5.3403
# 6 -24.8299 -26.4407 -21.1693 1.2040 -5.3403 57.7752
#
#
#
# Elastic Compliance Matrix: (Units=1/GPa)
#
#
# Indices 1 2 3 4 5 6 
#
# 1 0.012655 -0.000293 -0.004420 0.002457 -0.007103 0.002978
# 2 -0.000293 0.011028 -0.003731 -0.001127 -0.001746 0.003416
# 3 -0.004420 -0.003731 0.019891 -0.012096 -0.007098 0.003277
# 4 0.002457 -0.001127 -0.012096 0.026254 0.005035 -0.003974
# 5 -0.007103 -0.001746 -0.007098 0.005035 0.027276 -0.004036
# 6 0.002978 0.003416 0.003277 -0.003974 -0.004036 0.021062
#
#
# Mechanical properties :
#
#
# Convention : Reuss Voigt Hill
#
# Bulk Modulus (GPa) = 37.47037 77.30566 57.38802
# Shear Modulus (GPa) = 34.73450 49.30465 42.01957
#
# Velocity S-wave (km/s) = 3.65664 4.35658 4.02187
# Velocity P-wave (km/s) = 5.67911 7.42059 6.60748
#
# Compressibility (1/GPa) = 0.02668775
#
# Stress axis : x y z
#
# Youngs Moduli (GPa) = 79.02039 90.67578 50.27393
#
# Poissons Ratio (x) = 0.02653 0.22219
# Poissons Ratio (y) = 0.02312 0.18757
# Poissons Ratio (z) = 0.34924 0.33831
#
# Static dielectric constant tensor:
#      x y z
#    x 2.028470 -0.182690 0.113960 
#    y -0.182690 1.748220 0.452400 
#    z 0.113960 0.452400 1.608870 
# 
# From -- ./inp_files/458974.got.cif
#   From: 2010.05.17/outbox.cif.g08.bks.cpg/sg2_230_cif.got.tgz:458974.got - 2010.06.03 11:33:40.
