data_PCOD9050161
_publ_section_title
;
Structure prediction by ZEFSAII (Michael W. Deem and Ramdas Pophale) SiO2 
 PCOD9050161
Probable space group: P -1
;
_chemical_formula_sum "Si O2"
_cell_formula_units_Z 10
_cell_length_a 4.743541
_cell_length_b 5.146823
_cell_length_c 13.413434
_cell_angle_alpha 94.341872
_cell_angle_beta 96.611012
_cell_angle_gamma 83.013735
_cell_volume 322.252136
_symmetry_space_group_name_H-M "P -1"
_symmetry_group_IT_number 2
_symmetry_cell_setting 'triclinic'
loop_
_space_group_symop_operation_xyz
x,y,z
-x,-y,-z
loop_
_atom_site_type_symbol
_atom_site_label
_atom_site_fract_x
_atom_site_fract_y
_atom_site_fract_z
Si Si1 0.825181 0.087844 0.095148
Si Si2 0.166465 0.760782 0.628931
Si Si3 0.459966 0.147760 0.760232
Si Si4 0.761781 0.304314 0.597361
Si Si5 0.776375 0.555516 0.901215
O O1 0.042312 0.271973 0.158250
O O2 0.767392 0.854765 0.159247
O O3 0.515278 0.259741 0.071344
O O4 0.000000 0.000000 0.000000
O O5 0.301367 0.719846 0.522755
O O6 0.952831 0.540331 0.627252
O O7 0.413791 0.850401 0.714039
O O8 0.957794 0.035821 0.625857
O O9 0.493525 0.295788 0.660283
O O10 0.679806 0.302432 0.836789
O O11 0.000000 0.500000 0.000000
#
# Coordination Sequence:
#
# PCOD9050161 Si02
#       5
#     2   2   2   2   2
#     4  12  32  54  84 122 170 235 303 374 449 532
#     4  10  24  48  80 122 173 228 291 364 447 539
#     4  12  29  46  84 116 176 226 305 356 458 520
#     4  10  24  48  80 122 173 228 291 364 447 539
#     4  12  32  54  84 122 170 235 303 374 449 532
#
# _framework density 31.031597999999999
#
# number of rings (size 3 to 8) (size 9 to 14) (size 15 to 20)
#    0.000    0.800    0.000    3.000   19.600    0.000 
#    0.000    6.000    0.000    0.000    0.000    0.000 
#    0.000    0.000    0.000    2.400    0.000    0.000 
#
# Total GULP energy -55970.223098 kJ/mol
# GULP energy per Si atom -5597.022310 kJ/mol
# Density = 3.096097 g / cm^3
# Si number density = 31.031598 Si / 1000 Ang^3
#
#
#
# Elastic Constant Matrix: (Units=GPa)
#
#
# Indices 1 2 3 4 5 6 
#
# 1 253.1287 86.3746 78.2913 2.8487 -7.0421 41.9698
# 2 86.3746 288.0940 69.5124 18.3919 -7.6332 75.6961
# 3 78.2913 69.5124 244.3962 2.8396 2.1393 39.4190
# 4 2.8487 18.3919 2.8396 69.0702 26.4642 -6.5429
# 5 -7.0421 -7.6332 2.1393 26.4642 40.6161 -8.6811
# 6 41.9698 75.6961 39.4190 -6.5429 -8.6811 85.9537
#
#
#
# Elastic Compliance Matrix: (Units=1/GPa)
#
#
# Indices 1 2 3 4 5 6 
#
# 1 0.004783 -0.000859 -0.001127 -0.000285 0.000696 -0.001013
# 2 -0.000859 0.005031 -0.000532 -0.002195 0.001445 -0.003788
# 3 -0.001127 -0.000532 0.004815 0.000245 -0.000980 -0.001270
# 4 -0.000285 -0.002195 0.000245 0.020356 -0.013274 0.002168
# 5 0.000696 0.001445 -0.000980 -0.013274 0.033983 0.001259
# 6 -0.001013 -0.003788 -0.001270 0.002168 0.001259 0.016339
#
#
# Mechanical properties :
#
#
# Convention : Reuss Voigt Hill
#
# Bulk Modulus (GPa) = 104.25437 139.33061 121.79249
# Shear Modulus (GPa) = 53.45325 75.89071 64.67198
#
# Velocity S-wave (km/s) = 4.15486 4.95066 4.57011
# Velocity P-wave (km/s) = 7.52903 8.81339 8.19640
#
# Compressibility (1/GPa) = 0.00959192
#
# Stress axis : x y z
#
# Youngs Moduli (GPa) = 209.07668 198.77974 207.70313
#
# Poissons Ratio (x) = 0.17078 0.23412
# Poissons Ratio (y) = 0.17963 0.11045
# Poissons Ratio (z) = 0.23567 0.10571
#
# Static dielectric constant tensor:
#      x y z
#    x 2.652100 -0.333250 0.081340 
#    y -0.333250 2.754120 -0.083030 
#    z 0.081340 -0.083030 2.463060 
# 
# From -- ./inp_files/2884.got.cif
#   From: 2010.05.17/outbox.cif.g08.bks.cpg/sg2_2_cif.got.tgz:2884.got - 2010.06.03 11:33:40.
