data_PCOD9050704
_publ_section_title
;
Structure prediction by ZEFSAII (Michael W. Deem and Ramdas Pophale) SiO2 
 PCOD9050704
Probable space group: P -1
;
_chemical_formula_sum "Si O2"
_cell_formula_units_Z 16
_cell_length_a 17.388790
_cell_length_b 7.447820
_cell_length_c 5.378968
_cell_angle_alpha 108.911494
_cell_angle_beta 112.073059
_cell_angle_gamma 88.060109
_cell_volume 607.635900
_symmetry_space_group_name_H-M "P -1"
_symmetry_group_IT_number 2
_symmetry_cell_setting 'triclinic'
loop_
_space_group_symop_operation_xyz
x,y,z
-x,-y,-z
loop_
_atom_site_type_symbol
_atom_site_label
_atom_site_fract_x
_atom_site_fract_y
_atom_site_fract_z
Si Si1 0.259216 0.349947 0.412312
Si Si2 0.698590 0.340199 0.757208
Si Si3 0.082890 0.976342 0.304760
Si Si4 0.759973 0.869906 0.204927
Si Si5 0.598086 0.075514 0.170613
Si Si6 0.022479 0.315922 0.658838
Si Si7 0.595240 0.476816 0.089133
Si Si8 0.874061 0.319184 0.147815
O O1 0.255415 0.560384 0.384895
O O2 0.227943 0.270756 0.606441
O O3 0.358119 0.368694 0.600860
O O4 0.227333 0.216853 0.088089
O O5 0.636276 0.159329 0.517839
O O6 0.640325 0.485541 0.881010
O O7 0.774506 0.311616 0.020682
O O8 0.002294 0.837066 0.227681
O O9 0.165810 0.966163 0.571776
O O10 0.107659 0.882390 0.037089
O O11 0.058656 0.188091 0.427346
O O12 0.667204 0.935896 0.120919
O O13 0.606006 0.263080 0.093733
O O14 0.500000 0.000000 0.000000
O O15 0.932416 0.368192 0.478815
O O16 0.085109 0.498560 0.884555
O O17 0.500000 0.500000 0.000000
#
# Coordination Sequence:
#
# PCOD9050704 Si02
#       8
#     2   2   2   2   2   2   2   2
#     4  11  26  47  74 108 146 199 252 306 386 442
#     4  11  25  47  75 107 147 205 251 315 376 468
#     4  11  24  45  69 110 148 202 254 312 393 447
#     4  12  26  47  76 111 150 199 251 322 371 465
#     4  11  27  43  71 109 149 194 247 313 381 450
#     4  10  25  43  72 104 153 196 252 321 384 463
#     4  11  26  48  74 107 151 198 256 314 383 462
#     4  11  23  47  70 109 147 197 257 316 382 461
#
# _framework density 26.331558999999999
#
# number of rings (size 3 to 8) (size 9 to 14) (size 15 to 20)
#    0.000    1.000    2.500    2.250    7.000    1.500 
#    4.500    0.000    0.000    0.000    0.000    0.000 
#    0.000    0.000    0.000    0.000    0.000    0.000 
#
# Total GULP energy -89343.754161 kJ/mol
# GULP energy per Si atom -5583.984635 kJ/mol
# Density = 2.627163 g / cm^3
# Si number density = 26.331559 Si / 1000 Ang^3
#
#
#
# Elastic Constant Matrix: (Units=GPa)
#
#
# Indices 1 2 3 4 5 6 
#
# 1 135.5459 41.4066 67.2833 -1.6314 38.9528 -1.6288
# 2 41.4066 95.8341 22.5045 6.6052 -1.8371 1.5815
# 3 67.2833 22.5045 159.9127 14.9876 22.8789 6.1000
# 4 -1.6314 6.6052 14.9876 35.2379 -3.4945 4.7016
# 5 38.9528 -1.8371 22.8789 -3.4945 59.4325 -0.0155
# 6 -1.6288 1.5815 6.1000 4.7016 -0.0155 43.3806
#
#
#
# Elastic Compliance Matrix: (Units=1/GPa)
#
#
# Indices 1 2 3 4 5 6 
#
# 1 0.012912 -0.004953 -0.004007 0.002415 -0.006931 0.000965
# 2 -0.004953 0.012801 0.000005 -0.002228 0.003509 -0.000411
# 3 -0.004007 0.000005 0.008446 -0.003738 -0.000845 -0.000933
# 4 0.002415 -0.002228 -0.003738 0.031013 0.001610 -0.002663
# 5 -0.006931 0.003509 -0.000845 0.001610 0.021897 -0.000436
# 6 0.000965 -0.000411 -0.000933 -0.002663 -0.000436 0.023523
#
#
# Mechanical properties :
#
#
# Convention : Reuss Voigt Hill
#
# Bulk Modulus (GPa) = 61.54519 72.63129 67.08824
# Shear Modulus (GPa) = 37.33621 44.95009 41.14315
#
# Velocity S-wave (km/s) = 3.76962 4.13617 3.95714
# Velocity P-wave (km/s) = 6.50927 7.10308 6.81265
#
# Compressibility (1/GPa) = 0.01624822
#
# Stress axis : x y z
#
# Youngs Moduli (GPa) = 77.44535 78.11746 118.40583
#
# Poissons Ratio (x) = 0.38693 0.47448
# Poissons Ratio (y) = 0.38360 -0.00059
# Poissons Ratio (z) = 0.31034 -0.00039
#
# Static dielectric constant tensor:
#      x y z
#    x 2.105850 0.084160 -0.055270 
#    y 0.084160 2.233200 -0.040250 
#    z -0.055270 -0.040250 2.074650 
# 
# From -- ./inp_files/107724.got.cif
#   From: 2010.05.17/outbox.cif.g08.bks.cpg/sg2_54_cif.got.tgz:107724.got - 2010.06.03 11:33:40.
