data_PCOD9050716
_publ_section_title
;
Structure prediction by ZEFSAII (Michael W. Deem and Ramdas Pophale) SiO2 
 PCOD9050716
Probable space group: P -1
;
_chemical_formula_sum "Si O2"
_cell_formula_units_Z 16
_cell_length_a 9.441339
_cell_length_b 20.136830
_cell_length_c 9.715720
_cell_angle_alpha 150.950366
_cell_angle_beta 55.296597
_cell_angle_gamma 134.473437
_cell_volume 635.038236
_symmetry_space_group_name_H-M "P -1"
_symmetry_group_IT_number 2
_symmetry_cell_setting 'triclinic'
loop_
_space_group_symop_operation_xyz
x,y,z
-x,-y,-z
loop_
_atom_site_type_symbol
_atom_site_label
_atom_site_fract_x
_atom_site_fract_y
_atom_site_fract_z
Si Si1 0.100532 0.201888 0.161738
Si Si2 0.045497 0.077470 0.458668
Si Si3 0.516424 0.863873 0.653081
Si Si4 0.563755 0.342820 0.242235
Si Si5 0.696112 0.497731 0.915569
Si Si6 0.138108 0.432747 0.756199
Si Si7 0.634146 0.060488 0.671245
Si Si8 0.136627 0.422603 0.300415
O O1 0.335787 0.274057 0.198658
O O2 0.024260 0.259575 0.436596
O O3 0.061557 0.281240 0.192873
O O4 0.008775 0.026627 0.842257
O O5 0.863568 0.114300 0.614624
O O6 0.000000 0.000000 0.500000
O O7 0.286334 0.148325 0.445400
O O8 0.337217 0.678230 0.414425
O O9 0.546015 0.925721 0.592231
O O10 0.500000 0.000000 0.000000
O O11 0.706602 0.450489 0.233509
O O12 0.645478 0.453659 0.532225
O O13 0.611245 0.205640 0.998002
O O14 0.842888 0.619957 0.942129
O O15 0.500000 0.500000 0.000000
O O16 0.756756 0.559098 0.145930
O O17 0.000000 0.500000 0.000000
O O18 0.500000 0.000000 0.500000
O O19 0.000000 0.500000 0.500000
#
# Coordination Sequence:
#
# PCOD9050716 Si02
#       8
#     2   2   2   2   2   2   2   2
#     4  11  23  46  70 100 138 185 237 282 353 417
#     4  10  25  43  73  98 140 184 236 284 350 426
#     4  11  27  45  70 102 146 186 229 296 364 418
#     4  11  22  43  70  97 136 184 236 283 349 421
#     4  12  25  43  69 100 139 176 228 292 357 409
#     4  11  25  42  66 101 140 180 224 296 351 413
#     4  11  22  44  70  98 131 181 238 281 342 426
#     4  11  25  39  71 102 131 179 233 285 337 424
#
# _framework density 25.195333000000002
#
# number of rings (size 3 to 8) (size 9 to 14) (size 15 to 20)
#    0.000    1.000    1.250    6.000   12.250    1.000 
#    0.000    0.625    0.000    0.000    0.000    0.000 
#    0.000    0.000    0.000    0.000    0.000    0.000 
#
# Total GULP energy -89409.758558 kJ/mol
# GULP energy per Si atom -5588.109910 kJ/mol
# Density = 2.513799 g / cm^3
# Si number density = 25.195333 Si / 1000 Ang^3
#
#
#
# Elastic Constant Matrix: (Units=GPa)
#
#
# Indices 1 2 3 4 5 6 
#
# 1 166.1274 43.1105 32.7234 -11.6198 -4.4833 -11.9604
# 2 43.1105 56.8693 25.2978 -13.6072 14.9756 -18.3383
# 3 32.7234 25.2978 105.7456 -14.1650 6.6623 -1.9755
# 4 -11.6198 -13.6072 -14.1650 35.3541 -2.1964 -4.5881
# 5 -4.4833 14.9756 6.6623 -2.1964 66.3498 -3.6828
# 6 -11.9604 -18.3383 -1.9755 -4.5881 -3.6828 36.5863
#
#
#
# Elastic Compliance Matrix: (Units=1/GPa)
#
#
# Indices 1 2 3 4 5 6 
#
# 1 0.007848 -0.006147 -0.001113 -0.000159 0.002002 -0.000394
# 2 -0.006147 0.033048 -0.003893 0.010702 -0.006294 0.015054
# 3 -0.001113 -0.003893 0.011039 0.002351 -0.000308 -0.001455
# 4 -0.000159 0.010702 0.002351 0.034487 -0.000984 0.009665
# 5 0.002002 -0.006294 -0.000308 -0.000984 0.016572 -0.000972
# 6 -0.000394 0.015054 -0.001455 0.009665 -0.000972 0.035785
#
#
# Mechanical properties :
#
#
# Convention : Reuss Voigt Hill
#
# Bulk Modulus (GPa) = 33.74859 59.00065 46.37462
# Shear Modulus (GPa) = 29.24641 42.83209 36.03925
#
# Velocity S-wave (km/s) = 3.41073 4.12758 3.78616
# Velocity P-wave (km/s) = 5.37909 6.79588 6.12857
#
# Compressibility (1/GPa) = 0.02963087
#
# Stress axis : x y z
#
# Youngs Moduli (GPa) = 127.41493 30.25934 90.58390
#
# Poissons Ratio (x) = 0.18599 0.10082
# Poissons Ratio (y) = 0.78318 0.35261
# Poissons Ratio (z) = 0.14181 0.11779
#
# Static dielectric constant tensor:
#      x y z
#    x 1.872470 0.110440 0.092420 
#    y 0.110440 2.094030 0.272260 
#    z 0.092420 0.272260 2.361840 
# 
# From -- ./inp_files/224346.got.cif
#   From: 2010.05.17/outbox.cif.g08.bks.cpg/sg2_113_cif.got.tgz:224346.got - 2010.06.03 11:33:40.
