data_PCOD9050616
_publ_section_title
;
Structure prediction by ZEFSAII (Michael W. Deem and Ramdas Pophale) SiO2 
 PCOD9050616
Probable space group: P -1
;
_chemical_formula_sum "Si O2"
_cell_formula_units_Z 16
_cell_length_a 17.557078
_cell_length_b 13.214936
_cell_length_c 21.160066
_cell_angle_alpha 152.664708
_cell_angle_beta 19.317725
_cell_angle_gamma 149.939057
_cell_volume 733.744851
_symmetry_space_group_name_H-M "P -1"
_symmetry_group_IT_number 2
_symmetry_cell_setting 'triclinic'
loop_
_space_group_symop_operation_xyz
x,y,z
-x,-y,-z
loop_
_atom_site_type_symbol
_atom_site_label
_atom_site_fract_x
_atom_site_fract_y
_atom_site_fract_z
Si Si1 0.947630 0.938837 0.403100
Si Si2 0.134659 0.060090 0.861635
Si Si3 0.163880 0.210719 0.270728
Si Si4 0.648161 0.326795 0.591195
Si Si5 0.970362 0.201002 0.941196
Si Si6 0.338538 0.462138 0.664003
Si Si7 0.368218 0.981249 0.186189
Si Si8 0.539707 0.469393 0.270188
O O1 0.855029 0.747554 0.318935
O O2 0.753597 0.976189 0.627779
O O3 0.037613 0.147943 0.402573
O O4 0.155857 0.873409 0.246546
O O5 0.211891 0.857055 0.648166
O O6 0.392062 0.216234 0.757895
O O7 0.972860 0.160163 0.992163
O O8 0.000000 0.000000 0.000000
O O9 0.203049 0.476135 0.374626
O O10 0.035073 0.035220 0.221904
O O11 0.427377 0.157158 0.040064
O O12 0.588042 0.455826 0.647235
O O13 0.194610 0.398924 0.867828
O O14 0.773884 0.313870 0.122922
O O15 0.500000 0.500000 0.500000
O O16 0.513456 0.427852 0.564099
O O17 0.478031 0.207628 0.187950
#
# Coordination Sequence:
#
# PCOD9050616 Si02
#       8
#     2   2   2   2   2   2   2   2
#     4  11  23  35  57  90 138 176 204 244 306 380
#     4  10  25  49  68  88 118 161 220 264 313 376
#     4  12  22  40  62  92 134 158 207 264 311 372
#     4  10  25  43  67  94 117 168 209 262 316 367
#     4  11  24  39  66  92 123 174 207 255 322 367
#     4  12  22  35  58  97 133 165 205 249 307 376
#     4  11  23  36  54  97 134 173 210 241 308 380
#     4  11  20  39  60  90 134 162 208 247 302 378
#
# _framework density 21.805945000000001
#
# number of rings (size 3 to 8) (size 9 to 14) (size 15 to 20)
#    0.000    1.000    5.000    1.500    5.250    1.500 
#    0.000    0.625    0.000    0.000    0.000    0.000 
#    0.000    0.000    0.000    0.000    0.000    0.000 
#
# Total GULP energy -89171.367147 kJ/mol
# GULP energy per Si atom -5573.210447 kJ/mol
# Density = 2.175631 g / cm^3
# Si number density = 21.805945 Si / 1000 Ang^3
#
#
#
# Elastic Constant Matrix: (Units=GPa)
#
#
# Indices 1 2 3 4 5 6 
#
# 1 77.3067 25.7109 29.1476 -12.7511 15.1694 3.7997
# 2 25.7109 126.6744 39.0667 -4.2451 15.0307 15.0817
# 3 29.1476 39.0667 65.7340 -10.8898 8.8648 -7.1026
# 4 -12.7511 -4.2451 -10.8898 26.8686 -4.6069 17.5989
# 5 15.1694 15.0307 8.8648 -4.6069 29.6161 -6.8489
# 6 3.7997 15.0817 -7.1026 17.5989 -6.8489 39.9692
#
#
#
# Elastic Compliance Matrix: (Units=1/GPa)
#
#
# Indices 1 2 3 4 5 6 
#
# 1 0.019460 0.000878 -0.007135 0.011552 -0.008803 -0.010044
# 2 0.000878 0.011609 -0.006767 0.004056 -0.005632 -0.008418
# 3 -0.007135 -0.006767 0.022988 0.000263 0.001993 0.007543
# 4 0.011552 0.004056 0.000263 0.062977 -0.005485 -0.031251
# 5 -0.008803 -0.005632 0.001993 -0.005485 0.042700 0.013048
# 6 -0.010044 -0.008418 0.007543 -0.031251 0.013048 0.046487
#
#
# Mechanical properties :
#
#
# Convention : Reuss Voigt Hill
#
# Bulk Modulus (GPa) = 35.70221 50.84061 43.27141
# Shear Modulus (GPa) = 20.69482 31.01013 25.85247
#
# Velocity S-wave (km/s) = 3.08400 3.77516 3.44695
# Velocity P-wave (km/s) = 5.39348 6.50908 5.97736
#
# Compressibility (1/GPa) = 0.02800947
#
# Stress axis : x y z
#
# Youngs Moduli (GPa) = 51.38711 86.13716 43.50043
#
# Poissons Ratio (x) = -0.07565 0.31039
# Poissons Ratio (y) = -0.04513 0.29437
# Poissons Ratio (z) = 0.36666 0.58290
#
# Static dielectric constant tensor:
#      x y z
#    x 1.853770 -0.016250 0.040270 
#    y -0.016250 1.964370 0.042030 
#    z 0.040270 0.042030 1.812020 
# 
# From -- ./inp_files/437093.got.cif
#   From: 2010.05.17/outbox.cif.g08.bks.cpg/sg2_219_cif.got.tgz:437093.got - 2010.06.03 11:33:40.
