data_PCOD9050271
_publ_section_title
;
Structure prediction by ZEFSAII (Michael W. Deem and Ramdas Pophale) SiO2 
 PCOD9050271
Probable space group: P -1
;
_chemical_formula_sum "Si O2"
_cell_formula_units_Z 14
_cell_length_a 8.725811
_cell_length_b 6.041440
_cell_length_c 18.210578
_cell_angle_alpha 128.542384
_cell_angle_beta 126.906887
_cell_angle_gamma 61.235955
_cell_volume 591.540007
_symmetry_space_group_name_H-M "P -1"
_symmetry_group_IT_number 2
_symmetry_cell_setting 'triclinic'
loop_
_space_group_symop_operation_xyz
x,y,z
-x,-y,-z
loop_
_atom_site_type_symbol
_atom_site_label
_atom_site_fract_x
_atom_site_fract_y
_atom_site_fract_z
Si Si1 0.528599 0.803385 0.750132
Si Si2 0.067468 0.253167 0.867139
Si Si3 0.896770 0.788646 0.485095
Si Si4 0.417271 0.792591 0.876511
Si Si5 0.148282 0.813889 0.058625
Si Si6 0.186489 0.674407 0.332008
Si Si7 0.773967 0.698357 0.282808
O O1 0.537909 0.718807 0.821623
O O2 0.615334 0.551738 0.666236
O O3 0.676475 0.029661 0.837471
O O4 0.318174 0.978706 0.701655
O O5 0.970951 0.213701 0.908204
O O6 0.899624 0.309838 0.771162
O O7 0.213876 0.974139 0.828817
O O8 0.191391 0.507144 0.967780
O O9 0.757087 0.680441 0.362377
O O10 0.000000 0.500000 0.500000
O O11 0.798111 0.020038 0.564162
O O12 0.000000 0.000000 0.500000
O O13 0.355927 0.511025 0.834947
O O14 0.500000 0.000000 0.000000
O O15 0.000000 0.000000 0.000000
O O16 0.999309 0.590526 0.303961
#
# Coordination Sequence:
#
# PCOD9050271 Si02
#       7
#     2   2   2   2   2   2   2
#     4  12  26  42  68 106 143 183 247 294 369 431
#     4  11  23  40  67  94 139 186 239 294 361 429
#     4  10  24  49  81 109 143 195 247 305 379 444
#     4  12  26  41  66 102 144 190 240 298 364 438
#     4  11  23  40  64  99 140 187 239 292 356 438
#     4  11  24  47  73 104 139 189 242 302 371 434
#     4  11  26  48  71 101 147 185 245 305 365 445
#
# _framework density 23.667037000000001
#
# number of rings (size 3 to 8) (size 9 to 14) (size 15 to 20)
#    0.000    0.857    2.857    3.429    8.000    2.857 
#    0.000    0.714    0.000    0.000    0.000    0.000 
#    0.000    0.000    0.000    0.000    0.000    0.000 
#
# Total GULP energy -78127.383437 kJ/mol
# GULP energy per Si atom -5580.527388 kJ/mol
# Density = 2.361317 g / cm^3
# Si number density = 23.667037 Si / 1000 Ang^3
#
#
#
# Elastic Constant Matrix: (Units=GPa)
#
#
# Indices 1 2 3 4 5 6 
#
# 1 72.3621 23.8195 31.2152 19.2175 -23.8340 -3.2963
# 2 23.8195 87.4584 27.2319 20.0851 -22.6675 -10.3230
# 3 31.2152 27.2319 121.5592 9.3441 -27.7265 13.8536
# 4 19.2175 20.0851 9.3441 44.6844 -0.7366 -7.3733
# 5 -23.8340 -22.6675 -27.7265 -0.7366 39.6109 6.3832
# 6 -3.2963 -10.3230 13.8536 -7.3733 6.3832 33.4724
#
#
#
# Elastic Compliance Matrix: (Units=1/GPa)
#
#
# Indices 1 2 3 4 5 6 
#
# 1 0.020468 -0.000437 -0.001943 -0.008217 0.010742 -0.001174
# 2 -0.000437 0.015542 -0.001668 -0.005868 0.006898 0.002832
# 3 -0.001943 -0.001668 0.011746 -0.001970 0.007252 -0.007384
# 4 -0.008217 -0.005868 -0.001970 0.029905 -0.010210 0.006731
# 5 0.010742 0.006898 0.007252 -0.010210 0.042172 -0.010107
# 6 -0.001174 0.002832 -0.007384 0.006731 -0.010107 0.037099
#
#
# Mechanical properties :
#
#
# Convention : Reuss Voigt Hill
#
# Bulk Modulus (GPa) = 25.21352 49.54587 37.37970
# Shear Modulus (GPa) = 28.05088 36.82776 32.43932
#
# Velocity S-wave (km/s) = 3.44645 3.94900 3.70625
# Velocity P-wave (km/s) = 5.14917 6.46318 5.84323
#
# Compressibility (1/GPa) = 0.03966126
#
# Stress axis : x y z
#
# Youngs Moduli (GPa) = 48.85658 64.34101 85.13590
#
# Poissons Ratio (x) = 0.02812 0.16538
# Poissons Ratio (y) = 0.02135 0.14200
# Poissons Ratio (z) = 0.09490 0.10731
#
# Static dielectric constant tensor:
#      x y z
#    x 1.842470 0.100980 0.023270 
#    y 0.100980 1.894840 0.050660 
#    z 0.023270 0.050660 1.939240 
# 
# From -- ./inp_files/47604.got.cif
#   From: 2010.05.17/outbox.cif.g08.bks.cpg/sg2_24_cif.got.tgz:47604.got - 2010.06.03 11:33:40.
