data_PCOD9050211
_publ_section_title
;
Structure prediction by ZEFSAII (Michael W. Deem and Ramdas Pophale) SiO2 
 PCOD9050211
Probable space group: P -1
;
_chemical_formula_sum "Si O2"
_cell_formula_units_Z 16
_cell_length_a 9.284575
_cell_length_b 5.074057
_cell_length_c 21.965556
_cell_angle_alpha 100.663345
_cell_angle_beta 49.902382
_cell_angle_gamma 119.088775
_cell_volume 678.911445
_symmetry_space_group_name_H-M "P -1"
_symmetry_group_IT_number 2
_symmetry_cell_setting 'triclinic'
loop_
_space_group_symop_operation_xyz
x,y,z
-x,-y,-z
loop_
_atom_site_type_symbol
_atom_site_label
_atom_site_fract_x
_atom_site_fract_y
_atom_site_fract_z
Si Si1 0.385184 0.122670 0.695819
Si Si2 0.939447 0.210942 0.458904
Si Si3 0.102000 0.021187 0.882239
Si Si4 0.947850 0.299380 0.320786
Si Si5 0.652527 0.824228 0.619826
Si Si6 0.291870 0.707954 0.905163
Si Si7 0.189925 0.916558 0.207863
Si Si8 0.751409 0.125011 0.947582
O O1 0.198259 0.001418 0.791026
O O2 0.474831 0.474063 0.666839
O O3 0.282748 0.904569 0.656768
O O4 0.568926 0.058720 0.671090
O O5 0.913955 0.293375 0.401490
O O6 0.000000 0.500000 0.500000
O O7 0.135520 0.136000 0.402647
O O8 0.734681 0.920646 0.532301
O O9 0.214013 0.383185 0.881359
O O10 0.848017 0.908957 0.936988
O O11 0.190038 0.883714 0.903394
O O12 0.066940 0.636212 0.274821
O O13 0.093948 0.144245 0.255371
O O14 0.552229 0.906001 0.843694
O O15 0.210494 0.661796 0.995062
O O16 0.149736 0.787375 0.143361
O O17 0.500000 0.000000 0.000000
#
# Coordination Sequence:
#
# PCOD9050211 Si02
#       8
#     2   2   2   2   2   2   2   2
#     4  12  26  45  71 106 146 189 231 302 342 427
#     4  11  27  49  75 107 143 187 235 295 346 437
#     4  12  25  44  71 109 143 185 243 295 352 413
#     4  12  28  45  73 102 147 183 239 284 360 424
#     4  11  26  47  74 104 143 187 234 289 360 410
#     4  11  26  43  74 104 140 192 236 301 350 422
#     4  11  26  46  69 105 140 193 232 291 356 427
#     4  10  24  49  72 102 150 188 240 290 361 421
#
# _framework density 23.567136999999999
#
# number of rings (size 3 to 8) (size 9 to 14) (size 15 to 20)
#    0.000    0.750    2.500    3.000   10.500    2.000 
#    0.000    5.625    0.000    0.000    0.000    0.000 
#    0.000    0.000    0.000    0.000    0.000    0.000 
#
# Total GULP energy -89534.966033 kJ/mol
# GULP energy per Si atom -5595.935377 kJ/mol
# Density = 2.351350 g / cm^3
# Si number density = 23.567137 Si / 1000 Ang^3
#
#
#
# Elastic Constant Matrix: (Units=GPa)
#
#
# Indices 1 2 3 4 5 6 
#
# 1 132.1998 29.7626 29.0716 4.9725 2.6202 -11.2513
# 2 29.7626 58.2755 0.2007 -3.5930 7.9081 -13.9948
# 3 29.0716 0.2007 55.2801 7.9346 12.9473 11.2541
# 4 4.9725 -3.5930 7.9346 38.0938 6.9819 2.8913
# 5 2.6202 7.9081 12.9473 6.9819 53.9970 10.6273
# 6 -11.2513 -13.9948 11.2541 2.8913 10.6273 33.4713
#
#
#
# Elastic Compliance Matrix: (Units=1/GPa)
#
#
# Indices 1 2 3 4 5 6 
#
# 1 0.010263 -0.004638 -0.006185 -0.000948 0.001135 0.003312
# 2 -0.004638 0.022589 0.001441 0.002775 -0.005543 0.008922
# 3 -0.006185 0.001441 0.024291 -0.002805 -0.003757 -0.008209
# 4 -0.000948 0.002775 -0.002805 0.027804 -0.003372 0.000453
# 5 0.001135 -0.005543 -0.003757 -0.003372 0.022067 -0.007388
# 6 0.003312 0.008922 -0.008209 0.000453 -0.007388 0.039787
#
#
# Mechanical properties :
#
#
# Convention : Reuss Voigt Hill
#
# Bulk Modulus (GPa) = 26.05513 40.42501 33.24007
# Shear Modulus (GPa) = 28.03339 37.56045 32.79692
#
# Velocity S-wave (km/s) = 3.45267 3.99653 3.73451
# Velocity P-wave (km/s) = 5.19368 6.20376 5.72106
#
# Compressibility (1/GPa) = 0.03838016
#
# Stress axis : x y z
#
# Youngs Moduli (GPa) = 97.43280 44.26857 41.16814
#
# Poissons Ratio (x) = 0.20530 0.25461
# Poissons Ratio (y) = 0.45185 -0.05930
# Poissons Ratio (z) = 0.60259 -0.06377
#
# Static dielectric constant tensor:
#      x y z
#    x 1.901460 0.020710 -0.023810 
#    y 0.020710 1.877590 0.000650 
#    z -0.023810 0.000650 1.890230 
# 
# From -- ./inp_files/585726.got.cif
#   From: 2010.05.17/outbox.cif.g08.bks.cpg/sg2_293_cif.got.tgz:585726.got - 2010.06.03 11:33:40.
