data_PCOD9050328
_publ_section_title
;
Structure prediction by ZEFSAII (Michael W. Deem and Ramdas Pophale) SiO2 
 PCOD9050328
Probable space group: P -1
;
_chemical_formula_sum "Si O2"
_cell_formula_units_Z 11
_cell_length_a 13.622940
_cell_length_b 6.655972
_cell_length_c 14.523000
_cell_angle_alpha 69.708992
_cell_angle_beta 20.247889
_cell_angle_gamma 74.476473
_cell_volume 420.646341
_symmetry_space_group_name_H-M "P -1"
_symmetry_group_IT_number 2
_symmetry_cell_setting 'triclinic'
loop_
_space_group_symop_operation_xyz
x,y,z
-x,-y,-z
loop_
_atom_site_type_symbol
_atom_site_label
_atom_site_fract_x
_atom_site_fract_y
_atom_site_fract_z
Si Si1 0.000000 0.500000 0.000000
Si Si2 0.880002 0.969418 0.341111
Si Si3 0.634732 0.686168 0.439158
Si Si4 0.901344 0.443586 0.699962
Si Si5 0.515216 0.246716 0.734733
Si Si6 0.538573 0.752873 0.009805
O O1 0.315807 0.662580 0.681832
O O2 0.112768 0.332849 0.851934
O O3 0.724628 0.886384 0.396679
O O4 0.963037 0.746258 0.344164
O O5 0.679302 0.070246 0.572697
O O6 0.173868 0.147121 0.043465
O O7 0.585157 0.467664 0.581096
O O8 0.576309 0.317731 0.980194
O O9 0.000000 0.500000 0.500000
O O10 0.835306 0.660724 0.771904
O O11 0.590849 0.311570 0.764300
O O12 0.500000 0.000000 0.000000
#
# Coordination Sequence:
#
# PCOD9050328 Si02
#       6
#     1   2   2   2   2   2
#     4  10  24  50  80 104 136 192 220 300 378 440
#     4  12  27  44  72 109 144 188 247 290 360 420
#     4  11  25  49  76 105 148 177 237 296 368 430
#     4  11  25  40  66  97 141 200 240 300 342 403
#     4  12  27  44  73 109 145 196 237 295 355 425
#     4  11  24  42  64 100 146 189 247 285 343 408
#
# _framework density 26.150233
#
# number of rings (size 3 to 8) (size 9 to 14) (size 15 to 20)
#    0.000    0.727    1.818    4.364   12.727    1.455 
#    0.000   18.182    0.000    0.000    0.000    0.000 
#    0.000    0.000    0.000    0.000    0.000    0.000 
#
# Total GULP energy -61235.015232 kJ/mol
# GULP energy per Si atom -5566.819567 kJ/mol
# Density = 2.609071 g / cm^3
# Si number density = 26.150233 Si / 1000 Ang^3
#
#
#
# Elastic Constant Matrix: (Units=GPa)
#
#
# Indices 1 2 3 4 5 6 
#
# 1 91.8144 21.4438 7.0138 1.6565 8.0553 26.6484
# 2 21.4438 108.4197 9.8102 30.5383 7.8341 -23.3550
# 3 7.0138 9.8102 166.0837 38.1084 21.0388 5.6457
# 4 1.6565 30.5383 38.1084 45.1548 4.9828 10.3258
# 5 8.0553 7.8341 21.0388 4.9828 40.9455 -8.6869
# 6 26.6484 -23.3550 5.6457 10.3258 -8.6869 54.9895
#
#
#
# Elastic Compliance Matrix: (Units=1/GPa)
#
#
# Indices 1 2 3 4 5 6 
#
# 1 0.018120 -0.009635 -0.001559 0.011391 -0.005647 -0.015744
# 2 -0.009635 0.019850 0.002828 -0.019613 0.002618 0.016906
# 3 -0.001559 0.002828 0.008287 -0.009068 -0.002890 0.002352
# 4 0.011391 -0.019613 -0.009068 0.048339 -0.004530 -0.022712
# 5 -0.005647 0.002618 -0.002890 -0.004530 0.029104 0.009593
# 6 -0.015744 0.016906 0.002352 -0.022712 0.009593 0.038534
#
#
# Mechanical properties :
#
#
# Convention : Reuss Voigt Hill
#
# Bulk Modulus (GPa) = 33.86865 49.20594 41.53729
# Shear Modulus (GPa) = 26.48204 50.08795 38.28499
#
# Velocity S-wave (km/s) = 3.18573 4.38127 3.83043
# Velocity P-wave (km/s) = 5.14893 6.66719 5.95663
#
# Compressibility (1/GPa) = 0.02952583
#
# Stress axis : x y z
#
# Youngs Moduli (GPa) = 55.18634 50.37788 120.67597
#
# Poissons Ratio (x) = 0.48538 0.18816
# Poissons Ratio (y) = 0.53170 -0.34131
# Poissons Ratio (z) = 0.08605 -0.14249
#
# Static dielectric constant tensor:
#      x y z
#    x 1.327300 0.519930 1.965180 
#    y 0.519930 1.773670 -1.301370 
#    z 1.965180 -1.301370 -3.253090 
# 
# From -- ./inp_files/3519.got.cif
#   From: 2010.05.17/outbox.cif.g08.bks.cpg/sg2_2_cif.got.tgz:3519.got - 2010.06.03 11:33:40.
