data_PCOD9050805
_publ_section_title
;
Structure prediction by ZEFSAII (Michael W. Deem and Ramdas Pophale) SiO2 
 PCOD9050805
Probable space group: P -1
;
_chemical_formula_sum "Si O2"
_cell_formula_units_Z 12
_cell_length_a 17.834622
_cell_length_b 14.358742
_cell_length_c 6.009157
_cell_angle_alpha 114.949627
_cell_angle_beta 62.791169
_cell_angle_gamma 158.952146
_cell_volume 491.457787
_symmetry_space_group_name_H-M "P -1"
_symmetry_group_IT_number 2
_symmetry_cell_setting 'triclinic'
loop_
_space_group_symop_operation_xyz
x,y,z
-x,-y,-z
loop_
_atom_site_type_symbol
_atom_site_label
_atom_site_fract_x
_atom_site_fract_y
_atom_site_fract_z
Si Si1 0.173689 0.753750 0.294752
Si Si2 0.717342 0.930450 0.245111
Si Si3 0.483597 0.206096 0.012147
Si Si4 0.943570 0.019663 0.285577
Si Si5 0.681463 0.578546 0.473885
Si Si6 0.278580 0.700787 0.426941
O O1 0.200145 0.670093 0.275626
O O2 0.925737 0.506738 0.347101
O O3 0.260222 0.930485 0.543300
O O4 0.331556 0.952300 0.078732
O O5 0.903820 0.076796 0.255327
O O6 0.515512 0.640060 0.312021
O O7 0.678345 0.901084 0.008807
O O8 0.614879 0.416968 0.225656
O O9 0.648246 0.333094 0.755016
O O10 0.745932 0.751737 0.423924
O O11 0.121305 0.230224 0.444782
O O12 0.000000 0.000000 0.000000
O O13 0.500000 0.000000 0.500000
#
# Coordination Sequence:
#
# PCOD9050805 Si02
#       6
#     2   2   2   2   2   2
#     4  10  25  44  68 105 139 184 236 282 346 421
#     4  11  24  45  67 104 139 178 235 288 342 417
#     4  11  24  46  74 103 144 186 226 295 348 409
#     4  11  25  44  71 100 138 186 230 286 347 416
#     4  10  25  45  67 101 138 186 228 284 347 414
#     4  11  23  47  71 101 143 184 233 284 347 419
#
# _framework density 24.417152999999999
#
# number of rings (size 3 to 8) (size 9 to 14) (size 15 to 20)
#    0.000    1.333    1.667    2.000    4.667    8.667 
#    3.000    0.000    0.000    0.000    0.000    0.000 
#    0.000    0.000    0.000    0.000    0.000    0.000 
#
# Total GULP energy -67109.143486 kJ/mol
# GULP energy per Si atom -5592.428624 kJ/mol
# Density = 2.436158 g / cm^3
# Si number density = 24.417153 Si / 1000 Ang^3
#
#
#
# Elastic Constant Matrix: (Units=GPa)
#
#
# Indices 1 2 3 4 5 6 
#
# 1 113.3981 0.7037 12.8348 10.3167 20.7796 12.1268
# 2 0.7037 145.9486 15.1118 -0.7062 12.7877 13.4208
# 3 12.8348 15.1118 49.8312 22.5563 12.4933 8.0268
# 4 10.3167 -0.7062 22.5563 39.4019 4.8981 7.5229
# 5 20.7796 12.7877 12.4933 4.8981 16.0828 -0.1541
# 6 12.1268 13.4208 8.0268 7.5229 -0.1541 34.2537
#
#
#
# Elastic Compliance Matrix: (Units=1/GPa)
#
#
# Indices 1 2 3 4 5 6 
#
# 1 0.012878 0.001933 0.002555 -0.001239 -0.019838 -0.005732
# 2 0.001933 0.008113 -0.001041 0.002120 -0.008824 -0.004124
# 3 0.002555 -0.001041 0.033814 -0.016125 -0.023877 -0.004987
# 4 -0.001239 0.002120 -0.016125 0.035626 0.001549 -0.004430
# 5 -0.019838 -0.008824 -0.023877 0.001549 0.113058 0.016244
# 6 -0.005732 -0.004124 -0.004987 -0.004430 0.016244 0.035054
#
#
# Mechanical properties :
#
#
# Convention : Reuss Voigt Hill
#
# Bulk Modulus (GPa) = 16.20785 40.71981 28.46383
# Shear Modulus (GPa) = 19.82429 36.64952 28.23690
#
# Velocity S-wave (km/s) = 2.85248 3.87844 3.40433
# Velocity P-wave (km/s) = 4.18344 6.06377 5.20915
#
# Compressibility (1/GPa) = 0.06169849
#
# Stress axis : x y z
#
# Youngs Moduli (GPa) = 77.64981 123.26130 29.57370
#
# Poissons Ratio (x) = -0.23822 -0.07556
# Poissons Ratio (y) = -0.15007 0.03078
# Poissons Ratio (z) = -0.19839 0.12830
#
# Static dielectric constant tensor:
#      x y z
#    x 2.083130 0.032080 -0.008720 
#    y 0.032080 1.976160 -0.007670 
#    z -0.008720 -0.007670 1.929570 
# 
# From -- ./inp_files/3127.got.cif
#   From: 2010.05.17/outbox.cif.g08.bks.cpg/sg2_2_cif.got.tgz:3127.got - 2010.06.03 11:33:40.
