data_PCOD9050352
_publ_section_title
;
Structure prediction by ZEFSAII (Michael W. Deem and Ramdas Pophale) SiO2 
 PCOD9050352
Probable space group: P -1
;
_chemical_formula_sum "Si O2"
_cell_formula_units_Z 14
_cell_length_a 15.792785
_cell_length_b 8.437341
_cell_length_c 10.178593
_cell_angle_alpha 44.036127
_cell_angle_beta 54.827492
_cell_angle_gamma 87.015636
_cell_volume 593.936935
_symmetry_space_group_name_H-M "P -1"
_symmetry_group_IT_number 2
_symmetry_cell_setting 'triclinic'
loop_
_space_group_symop_operation_xyz
x,y,z
-x,-y,-z
loop_
_atom_site_type_symbol
_atom_site_label
_atom_site_fract_x
_atom_site_fract_y
_atom_site_fract_z
Si Si1 0.931958 0.384313 0.988392
Si Si2 0.134179 0.198606 0.673945
Si Si3 0.229711 0.896927 0.350648
Si Si4 0.260907 0.267771 0.774502
Si Si5 0.278900 0.795811 0.079351
Si Si6 0.549486 0.095695 0.748607
Si Si7 0.146243 0.242591 0.163387
O O1 0.834074 0.461590 0.008451
O O2 0.072062 0.602070 0.651840
O O3 0.000000 0.500000 0.000000
O O4 0.861779 0.043281 0.248948
O O5 0.240875 0.371456 0.593329
O O6 0.162796 0.443080 0.401884
O O7 0.000000 0.000000 0.000000
O O8 0.284877 0.925032 0.140000
O O9 0.320083 0.888289 0.379840
O O10 0.235302 0.177541 0.194773
O O11 0.397451 0.573226 0.522304
O O12 0.155577 0.190721 0.030007
O O13 0.253014 0.990901 0.906371
O O14 0.424737 0.882295 0.888916
O O15 0.500000 0.000000 0.000000
O O16 0.000000 0.000000 0.500000
#
# Coordination Sequence:
#
# PCOD9050352 Si02
#       7
#     2   2   2   2   2   2   2
#     4  11  21  37  58  82 122 164 198 243 311 364
#     4  12  22  38  58  89 128 155 201 259 301 358
#     4   9  17  35  56  84 115 151 202 250 284 362
#     4  11  21  38  64  90 123 159 199 258 304 349
#     4  10  21  36  58  96 119 153 205 252 306 352
#     4  10  17  34  62  90 120 156 201 256 299 354
#     4   9  20  36  56  89 120 157 207 238 299 373
#
# _framework density 23.571527
#
# number of rings (size 3 to 8) (size 9 to 14) (size 15 to 20)
#    0.000    1.714    4.286    2.143    0.000    0.571 
#    7.714    0.000    0.000    4.286    0.000    0.000 
#    0.000    0.000    0.000    0.000    0.000    0.143 
#
# Total GULP energy -77998.438772 kJ/mol
# GULP energy per Si atom -5571.317055 kJ/mol
# Density = 2.351788 g / cm^3
# Si number density = 23.571527 Si / 1000 Ang^3
#
#
#
# Elastic Constant Matrix: (Units=GPa)
#
#
# Indices 1 2 3 4 5 6 
#
# 1 54.7341 26.0709 17.2400 -7.5055 7.4461 -37.7961
# 2 26.0709 86.5074 31.1268 -25.9032 8.7564 -31.3183
# 3 17.2400 31.1268 109.5750 -27.0449 13.5229 -16.0929
# 4 -7.5055 -25.9032 -27.0449 35.0722 -5.4772 19.7134
# 5 7.4461 8.7564 13.5229 -5.4772 32.3100 -7.4645
# 6 -37.7961 -31.3183 -16.0929 19.7134 -7.4645 46.2749
#
#
#
# Elastic Compliance Matrix: (Units=1/GPa)
#
#
# Indices 1 2 3 4 5 6 
#
# 1 0.050979 -0.002817 -0.005593 -0.022121 -0.001545 0.046961
# 2 -0.002817 0.017390 -0.001685 0.007754 -0.000784 0.005452
# 3 -0.005593 -0.001685 0.012477 0.010177 -0.003188 -0.006219
# 4 -0.022121 0.007754 0.010177 0.056024 0.000599 -0.033051
# 5 -0.001545 -0.000784 -0.003188 0.000599 0.033473 0.002243
# 6 0.046961 0.005452 -0.006219 -0.033051 0.002243 0.075935
#
#
# Mechanical properties :
#
#
# Convention : Reuss Voigt Hill
#
# Bulk Modulus (GPa) = 16.48660 44.41021 30.44841
# Shear Modulus (GPa) = 17.44060 34.49001 25.96531
#
# Velocity S-wave (km/s) = 2.72306 3.82934 3.32257
# Velocity P-wave (km/s) = 4.11050 6.19946 5.25973
#
# Compressibility (1/GPa) = 0.06065531
#
# Stress axis : x y z
#
# Youngs Moduli (GPa) = 19.61602 57.50291 80.14866
#
# Poissons Ratio (x) = 0.16201 0.44824
# Poissons Ratio (y) = 0.05527 0.13508
# Poissons Ratio (z) = 0.10970 0.09691
#
# Static dielectric constant tensor:
#      x y z
#    x 2.056860 -0.094630 -0.080360 
#    y -0.094630 1.971730 0.088570 
#    z -0.080360 0.088570 2.193500 
# 
# From -- ./inp_files/257840.got.cif
#   From: 2010.05.17/outbox.cif.g08.bks.cpg/sg2_129_cif.got.tgz:257840.got - 2010.06.03 11:33:40.
