data_PCOD9050682
_publ_section_title
;
Structure prediction by ZEFSAII (Michael W. Deem and Ramdas Pophale) SiO2 
 PCOD9050682
Probable space group: P -1
;
_chemical_formula_sum "Si O2"
_cell_formula_units_Z 14
_cell_length_a 8.108261
_cell_length_b 11.127404
_cell_length_c 8.306502
_cell_angle_alpha 59.592109
_cell_angle_beta 69.792581
_cell_angle_gamma 59.873615
_cell_volume 554.834670
_symmetry_space_group_name_H-M "P -1"
_symmetry_group_IT_number 2
_symmetry_cell_setting 'triclinic'
loop_
_space_group_symop_operation_xyz
x,y,z
-x,-y,-z
loop_
_atom_site_type_symbol
_atom_site_label
_atom_site_fract_x
_atom_site_fract_y
_atom_site_fract_z
Si Si1 0.934114 0.862333 0.082365
Si Si2 0.731774 0.684040 0.787769
Si Si3 0.384379 0.516079 0.858161
Si Si4 0.115310 0.699203 0.575564
Si Si5 0.529142 0.997177 0.301200
Si Si6 0.233425 0.550316 0.334718
Si Si7 0.845954 0.021768 0.681158
O O1 0.081048 0.690956 0.189443
O O2 0.737237 0.904137 0.220848
O O3 0.898235 0.889804 0.884894
O O4 0.000000 0.000000 0.000000
O O5 0.539693 0.821162 0.823066
O O6 0.723051 0.606539 0.671498
O O7 0.898107 0.743581 0.672692
O O8 0.763546 0.557785 0.997834
O O9 0.255799 0.667348 0.702323
O O10 0.563367 0.434645 0.737104
O O11 0.500000 0.500000 0.000000
O O12 0.164225 0.554747 0.538055
O O13 0.144816 0.821835 0.366417
O O14 0.500000 0.000000 0.500000
O O15 0.369856 0.945007 0.319338
O O16 0.000000 0.000000 0.500000
#
# Coordination Sequence:
#
# PCOD9050682 Si02
#       7
#     2   2   2   2   2   2   2
#     4  12  25  50  77 111 151 192 250 305 375 440
#     4  11  25  46  72 107 145 191 243 300 374 433
#     4  10  25  43  71 102 145 192 237 299 365 433
#     4  12  24  47  71 110 144 192 246 305 366 440
#     4  12  27  48  77 109 148 199 247 305 369 449
#     4  11  25  48  75 106 146 192 240 310 365 439
#     4  12  27  46  77 107 151 196 252 303 372 441
#
# _framework density 25.232741999999998
#
# number of rings (size 3 to 8) (size 9 to 14) (size 15 to 20)
#    0.000    0.571    2.857    4.286    8.000    1.143 
#    2.571    0.000    0.000    0.000    0.000    0.000 
#    0.000    0.000    0.000    0.000    0.000    0.000 
#
# Total GULP energy -78161.436186 kJ/mol
# GULP energy per Si atom -5582.959728 kJ/mol
# Density = 2.517531 g / cm^3
# Si number density = 25.232742 Si / 1000 Ang^3
#
#
#
# Elastic Constant Matrix: (Units=GPa)
#
#
# Indices 1 2 3 4 5 6 
#
# 1 116.6518 21.2753 33.2251 -4.0731 -16.2368 -16.9324
# 2 21.2753 86.8394 0.0902 2.8986 -12.4120 -18.4643
# 3 33.2251 0.0902 107.2005 -4.1864 2.7003 -9.6292
# 4 -4.0731 2.8986 -4.1864 39.4781 -8.4735 -3.5521
# 5 -16.2368 -12.4120 2.7003 -8.4735 42.6232 1.6110
# 6 -16.9324 -18.4643 -9.6292 -3.5521 1.6110 44.3071
#
#
#
# Elastic Compliance Matrix: (Units=1/GPa)
#
#
# Indices 1 2 3 4 5 6 
#
# 1 0.010799 -0.001513 -0.003117 0.002045 0.004170 0.002832
# 2 -0.001513 0.013407 0.000839 0.000071 0.003097 0.005084
# 3 -0.003117 0.000839 0.010492 0.000533 -0.001560 0.001538
# 4 0.002045 0.000071 0.000533 0.027152 0.006054 0.002883
# 5 0.004170 0.003097 -0.001560 0.006054 0.027177 0.002042
# 6 0.002832 0.005084 0.001538 0.002883 0.002042 0.026262
#
#
# Mechanical properties :
#
#
# Convention : Reuss Voigt Hill
#
# Bulk Modulus (GPa) = 36.87734 46.65253 41.76494
# Shear Modulus (GPa) = 37.90550 42.35508 40.13029
#
# Velocity S-wave (km/s) = 3.88007 4.10149 3.99232
# Velocity P-wave (km/s) = 5.89236 6.39989 6.15136
#
# Compressibility (1/GPa) = 0.02711692
#
# Stress axis : x y z
#
# Youngs Moduli (GPa) = 92.60214 74.59065 95.31245
#
# Poissons Ratio (x) = 0.11283 0.29704
# Poissons Ratio (y) = 0.14007 -0.07997
# Poissons Ratio (z) = 0.28860 -0.06258
#
# Static dielectric constant tensor:
#      x y z
#    x 2.047550 0.087420 0.043380 
#    y 0.087420 2.240980 -0.105450 
#    z 0.043380 -0.105450 2.120050 
# 
# From -- ./inp_files/184000.got.cif
#   From: 2010.05.17/outbox.cif.g08.bks.cpg/sg2_92_cif.got.tgz:184000.got - 2010.06.03 11:33:40.
