data_PCOD9050887
_publ_section_title
;
Structure prediction by ZEFSAII (Michael W. Deem and Ramdas Pophale) SiO2 
 PCOD9050887
Probable space group: P -1
;
_chemical_formula_sum "Si O2"
_cell_formula_units_Z 13
_cell_length_a 16.745862
_cell_length_b 8.112945
_cell_length_c 4.918584
_cell_angle_alpha 120.105420
_cell_angle_beta 99.404470
_cell_angle_gamma 62.876432
_cell_volume 512.661080
_symmetry_space_group_name_H-M "P -1"
_symmetry_group_IT_number 2
_symmetry_cell_setting 'triclinic'
loop_
_space_group_symop_operation_xyz
x,y,z
-x,-y,-z
loop_
_atom_site_type_symbol
_atom_site_label
_atom_site_fract_x
_atom_site_fract_y
_atom_site_fract_z
Si Si1 0.926409 0.831055 0.894333
Si Si2 0.688124 0.627504 0.338382
Si Si3 0.553158 0.035101 0.808052
Si Si4 0.886451 0.427089 0.502358
Si Si5 0.348757 0.574751 0.365099
Si Si6 0.148949 0.878179 0.410732
Si Si7 0.500000 0.500000 0.000000
O O1 0.132793 0.980166 0.189132
O O2 0.911612 0.931953 0.265534
O O3 0.898665 0.638686 0.731249
O O4 0.027140 0.731967 0.749557
O O5 0.792895 0.496082 0.347936
O O6 0.635193 0.522031 0.402735
O O7 0.653426 0.858354 0.644694
O O8 0.666935 0.592251 0.987849
O O9 0.500000 0.000000 0.500000
O O10 0.538496 0.272114 0.993301
O O11 0.500000 0.000000 0.000000
O O12 0.877343 0.310175 0.673074
O O13 0.254115 0.783076 0.470462
O O14 0.426135 0.611632 0.298092
#
# Coordination Sequence:
#
# PCOD9050887 Si02
#       7
#     2   2   2   2   2   2   1
#     4  11  25  44  70 103 132 182 231 267 343 396
#     4  11  23  47  66  99 140 177 216 286 334 393
#     4  12  25  47  69 101 135 173 225 278 340 399
#     4  10  25  44  71 100 139 178 225 281 329 405
#     4  11  25  44  70 101 135 178 230 268 341 399
#     4  11  24  45  67 101 139 177 222 285 329 397
#     4  12  26  46  74 100 132 182 224 280 332 410
#
# _framework density 25.357885
#
# number of rings (size 3 to 8) (size 9 to 14) (size 15 to 20)
#    0.000    0.923    3.077    2.769    2.154   11.077 
#    2.769    0.000    0.000    0.000    0.000    0.000 
#    0.000    0.000    0.000    0.000    0.000    0.000 
#
# Total GULP energy -72630.612035 kJ/mol
# GULP energy per Si atom -5586.970157 kJ/mol
# Density = 2.530017 g / cm^3
# Si number density = 25.357885 Si / 1000 Ang^3
#
#
#
# Elastic Constant Matrix: (Units=GPa)
#
#
# Indices 1 2 3 4 5 6 
#
# 1 89.6827 18.1606 16.6139 19.3417 -31.4107 13.5112
# 2 18.1606 94.9425 46.7036 26.5252 -4.6756 5.4279
# 3 16.6139 46.7036 107.2470 -2.2521 -17.8534 8.6971
# 4 19.3417 26.5252 -2.2521 50.5020 -3.5163 -6.1625
# 5 -31.4107 -4.6756 -17.8534 -3.5163 39.1488 11.2718
# 6 13.5112 5.4279 8.6971 -6.1625 11.2718 43.7582
#
#
#
# Elastic Compliance Matrix: (Units=1/GPa)
#
#
# Indices 1 2 3 4 5 6 
#
# 1 0.022713 -0.000852 0.001499 -0.008363 0.022107 -0.014078
# 2 -0.000852 0.017098 -0.007911 -0.009310 -0.002836 -0.000866
# 3 0.001499 -0.007911 0.014320 0.004327 0.008286 -0.003852
# 4 -0.008363 -0.009310 0.004327 0.028715 -0.005684 0.008385
# 5 0.022107 -0.002836 0.008286 -0.005684 0.052687 -0.022493
# 6 -0.014078 -0.000866 -0.003852 0.008385 -0.022493 0.035048
#
#
# Mechanical properties :
#
#
# Convention : Reuss Voigt Hill
#
# Bulk Modulus (GPa) = 25.25123 50.53649 37.89386
# Shear Modulus (GPa) = 25.21315 40.70808 32.96061
#
# Velocity S-wave (km/s) = 3.15666 4.01102 3.60921
# Velocity P-wave (km/s) = 4.82344 6.43612 5.68723
#
# Compressibility (1/GPa) = 0.03960203
#
# Stress axis : x y z
#
# Youngs Moduli (GPa) = 44.02842 58.48533 69.83272
#
# Poissons Ratio (x) = 0.04980 -0.10464
# Poissons Ratio (y) = 0.03749 0.55247
# Poissons Ratio (z) = -0.06598 0.46270
#
# Static dielectric constant tensor:
#      x y z
#    x 2.122770 -0.039020 0.082430 
#    y -0.039020 2.012540 0.090490 
#    z 0.082430 0.090490 2.090690 
# 
# From -- ./inp_files/104331.got.cif
#   From: 2010.05.17/outbox.cif.g08.bks.cpg/sg2_53_cif.got.tgz:104331.got - 2010.06.03 11:33:40.
