data_PCOD9050855
_publ_section_title
;
Structure prediction by ZEFSAII (Michael W. Deem and Ramdas Pophale) SiO2 
 PCOD9050855
Probable space group: P -1
;
_chemical_formula_sum "Si O2"
_cell_formula_units_Z 16
_cell_length_a 5.357911
_cell_length_b 12.454471
_cell_length_c 10.896160
_cell_angle_alpha 76.216633
_cell_angle_beta 93.124026
_cell_angle_gamma 67.778069
_cell_volume 645.202003
_symmetry_space_group_name_H-M "P -1"
_symmetry_group_IT_number 2
_symmetry_cell_setting 'triclinic'
loop_
_space_group_symop_operation_xyz
x,y,z
-x,-y,-z
loop_
_atom_site_type_symbol
_atom_site_label
_atom_site_fract_x
_atom_site_fract_y
_atom_site_fract_z
Si Si1 0.088118 0.038404 0.257570
Si Si2 0.745224 0.834028 0.977584
Si Si3 0.612186 0.309817 0.999410
Si Si4 0.524893 0.843151 0.455380
Si Si5 0.828637 0.468705 0.111192
Si Si6 0.330509 0.645151 0.452902
Si Si7 0.974258 0.742610 0.662865
Si Si8 0.875141 0.847933 0.240617
O O1 0.926120 0.169074 0.280386
O O2 0.229971 0.946787 0.398034
O O3 0.268984 0.070801 0.152581
O O4 0.967257 0.958351 0.198907
O O5 0.544976 0.772519 0.946254
O O6 0.693577 0.854702 0.114992
O O7 0.076752 0.757885 0.015246
O O8 0.391501 0.406319 0.875671
O O9 0.649456 0.395412 0.081963
O O10 0.000000 0.500000 0.000000
O O11 0.530856 0.714383 0.449868
O O12 0.667087 0.828516 0.592734
O O13 0.703791 0.875146 0.352592
O O14 0.030957 0.371939 0.234313
O O15 0.500000 0.500000 0.500000
O O16 0.151705 0.688400 0.561264
O O17 0.124648 0.716857 0.315367
#
# Coordination Sequence:
#
# PCOD9050855 Si02
#       8
#     2   2   2   2   2   2   2   2
#     4  11  24  46  69 105 143 189 246 304 366 437
#     4  12  26  44  75 107 149 196 242 307 371 435
#     4  11  25  43  68 110 148 190 240 298 370 438
#     4  10  25  44  70 100 139 189 245 302 359 433
#     4  11  23  45  69 111 150 188 242 304 371 441
#     4  10  25  46  68 101 139 191 238 298 365 442
#     4  11  24  44  72 104 139 189 239 302 369 431
#     4  10  26  45  68 102 144 190 249 297 367 431
#
# _framework density 24.798435000000001
#
# number of rings (size 3 to 8) (size 9 to 14) (size 15 to 20)
#    0.000    1.250    2.500    0.750    7.000   12.000 
#    0.000    0.000    0.000    0.000    0.000    0.000 
#    0.000    0.000    0.000    0.000    0.000    0.000 
#
# Total GULP energy -89248.921435 kJ/mol
# GULP energy per Si atom -5578.057590 kJ/mol
# Density = 2.474199 g / cm^3
# Si number density = 24.798435 Si / 1000 Ang^3
#
#
#
# Elastic Constant Matrix: (Units=GPa)
#
#
# Indices 1 2 3 4 5 6 
#
# 1 104.4125 33.6048 26.8862 -8.5982 -9.1113 19.9311
# 2 33.6048 134.6438 43.2555 -33.5709 -1.6115 -2.6302
# 3 26.8862 43.2555 124.2273 -19.7473 7.9798 9.0345
# 4 -8.5982 -33.5709 -19.7473 32.0111 0.3963 -6.9521
# 5 -9.1113 -1.6115 7.9798 0.3963 35.3470 -8.7505
# 6 19.9311 -2.6302 9.0345 -6.9521 -8.7505 53.0481
#
#
#
# Elastic Compliance Matrix: (Units=1/GPa)
#
#
# Indices 1 2 3 4 5 6 
#
# 1 0.011788 -0.002923 -0.001673 -0.001862 0.002275 -0.004158
# 2 -0.002923 0.011605 -0.001998 0.010924 0.000998 0.003610
# 3 -0.001673 -0.001998 0.009930 0.003351 -0.003107 -0.001235
# 4 -0.001862 0.010924 0.003351 0.045719 0.000415 0.006731
# 5 0.002275 0.000998 -0.003107 0.000415 0.030823 0.004863
# 6 -0.004158 0.003610 -0.001235 0.006731 0.004863 0.022486
#
#
# Mechanical properties :
#
#
# Convention : Reuss Voigt Hill
#
# Bulk Modulus (GPa) = 49.66876 63.41963 56.54420
# Shear Modulus (GPa) = 32.84058 41.38373 37.11215
#
# Velocity S-wave (km/s) = 3.64304 4.08953 3.87273
# Velocity P-wave (km/s) = 6.14558 6.92305 6.54587
#
# Compressibility (1/GPa) = 0.02013338
#
# Stress axis : x y z
#
# Youngs Moduli (GPa) = 84.83402 86.17273 100.70751
#
# Poissons Ratio (x) = 0.25187 0.16851
# Poissons Ratio (y) = 0.24795 0.20124
# Poissons Ratio (z) = 0.14195 0.17220
#
# Static dielectric constant tensor:
#      x y z
#    x 2.052040 -0.077220 0.074760 
#    y -0.077220 2.032850 0.001390 
#    z 0.074760 0.001390 2.037560 
# 
# From -- ./inp_files/364073.got.cif
#   From: 2010.05.17/outbox.cif.g08.bks.cpg/sg2_183_cif.got.tgz:364073.got - 2010.06.03 11:33:40.
