data_PCOD9050732
_publ_section_title
;
Structure prediction by ZEFSAII (Michael W. Deem and Ramdas Pophale) SiO2 
 PCOD9050732
Probable space group: P -1
;
_chemical_formula_sum "Si O2"
_cell_formula_units_Z 14
_cell_length_a 14.687714
_cell_length_b 16.006846
_cell_length_c 7.458554
_cell_angle_alpha 104.040025
_cell_angle_beta 55.439179
_cell_angle_gamma 148.172025
_cell_volume 635.436008
_symmetry_space_group_name_H-M "P -1"
_symmetry_group_IT_number 2
_symmetry_cell_setting 'triclinic'
loop_
_space_group_symop_operation_xyz
x,y,z
-x,-y,-z
loop_
_atom_site_type_symbol
_atom_site_label
_atom_site_fract_x
_atom_site_fract_y
_atom_site_fract_z
Si Si1 0.337515 0.563833 0.449486
Si Si2 0.680930 0.541982 0.965373
Si Si3 0.170506 0.800106 0.598815
Si Si4 0.798346 0.790381 0.160983
Si Si5 0.844637 0.148156 0.759124
Si Si6 0.512735 0.138348 0.664712
Si Si7 0.874611 0.824746 0.492872
O O1 0.539532 0.659864 0.399503
O O2 0.413242 0.712739 0.387034
O O3 0.057766 0.356783 0.714828
O O4 0.350122 0.515127 0.229562
O O5 0.783774 0.708026 0.982123
O O6 0.408686 0.359811 0.246536
O O7 0.885531 0.620514 0.857685
O O8 0.221778 0.855845 0.359859
O O9 0.253365 0.761588 0.533872
O O10 0.334697 0.978062 0.626329
O O11 0.879255 0.806735 0.267011
O O12 0.000000 0.000000 0.000000
O O13 0.976623 0.149086 0.571097
O O14 0.631345 0.977665 0.047664
O O15 0.000000 0.000000 0.500000
#
# Coordination Sequence:
#
# PCOD9050732 Si02
#       7
#     2   2   2   2   2   2   2
#     4  11  25  41  70  98 136 181 228 284 342 411
#     4  11  23  43  63  99 135 172 224 278 341 409
#     4  10  25  43  76  93 140 183 228 294 336 409
#     4  12  24  39  66  97 138 179 218 285 343 412
#     4  11  24  44  68  99 138 181 227 288 344 409
#     4  11  24  50  66 104 134 182 243 281 343 405
#     4  12  26  40  66 102 138 179 225 279 352 416
#
# _framework density 22.032115999999998
#
# number of rings (size 3 to 8) (size 9 to 14) (size 15 to 20)
#    0.000    0.857    1.429    5.571   10.000    2.286 
#    0.000    4.286    0.000    0.000    0.000    0.000 
#    0.000    0.000    0.000    0.000    0.000    0.000 
#
# Total GULP energy -78263.810211 kJ/mol
# GULP energy per Si atom -5590.272158 kJ/mol
# Density = 2.198197 g / cm^3
# Si number density = 22.032116 Si / 1000 Ang^3
#
#
#
# Elastic Constant Matrix: (Units=GPa)
#
#
# Indices 1 2 3 4 5 6 
#
# 1 84.6084 23.4536 -2.5752 7.1662 -20.3193 7.0382
# 2 23.4536 112.4163 13.1076 1.0846 -3.0699 -14.1286
# 3 -2.5752 13.1076 65.1291 -8.2320 -20.6900 -9.2639
# 4 7.1662 1.0846 -8.2320 25.4559 3.4733 0.0629
# 5 -20.3193 -3.0699 -20.6900 3.4733 34.8026 -3.9158
# 6 7.0382 -14.1286 -9.2639 0.0629 -3.9158 35.9368
#
#
#
# Elastic Compliance Matrix: (Units=1/GPa)
#
#
# Indices 1 2 3 4 5 6 
#
# 1 0.016523 -0.003869 0.004352 -0.004725 0.012105 -0.002308
# 2 -0.003869 0.010417 -0.002404 0.000177 -0.002339 0.003978
# 3 0.004352 -0.002404 0.022356 0.003928 0.015867 0.005688
# 4 -0.004725 0.000177 0.003928 0.042485 -0.004486 0.001444
# 5 0.012105 -0.002339 0.015867 -0.004486 0.046131 0.005834
# 6 -0.002308 0.003978 0.005688 0.001444 0.005834 0.031942
#
#
# Mechanical properties :
#
#
# Convention : Reuss Voigt Hill
#
# Bulk Modulus (GPa) = 22.00013 36.68065 29.34039
# Shear Modulus (GPa) = 26.47615 34.45025 30.46320
#
# Velocity S-wave (km/s) = 3.47033 3.95858 3.72246
# Velocity P-wave (km/s) = 5.10536 6.13014 5.64107
#
# Compressibility (1/GPa) = 0.04545428
#
# Stress axis : x y z
#
# Youngs Moduli (GPa) = 60.52086 95.99354 44.73045
#
# Poissons Ratio (x) = 0.37136 -0.19466
# Poissons Ratio (y) = 0.23413 0.10755
# Poissons Ratio (z) = -0.26337 0.23080
#
# Static dielectric constant tensor:
#      x y z
#    x 1.808540 0.003190 0.011150 
#    y 0.003190 1.765690 -0.028040 
#    z 0.011150 -0.028040 1.858340 
# 
# From -- ./inp_files/225872.got.cif
#   From: 2010.05.17/outbox.cif.g08.bks.cpg/sg2_113_cif.got.tgz:225872.got - 2010.06.03 11:33:40.
