data_PCOD9050185
_publ_section_title
;
Structure prediction by ZEFSAII (Michael W. Deem and Ramdas Pophale) SiO2 
 PCOD9050185
Probable space group: P -1
;
_chemical_formula_sum "Si O2"
_cell_formula_units_Z 14
_cell_length_a 8.133842
_cell_length_b 5.173326
_cell_length_c 18.534726
_cell_angle_alpha 86.442816
_cell_angle_beta 122.657452
_cell_angle_gamma 61.375630
_cell_volume 519.327930
_symmetry_space_group_name_H-M "P -1"
_symmetry_group_IT_number 2
_symmetry_cell_setting 'triclinic'
loop_
_space_group_symop_operation_xyz
x,y,z
-x,-y,-z
loop_
_atom_site_type_symbol
_atom_site_label
_atom_site_fract_x
_atom_site_fract_y
_atom_site_fract_z
Si Si1 0.625166 0.306897 0.278377
Si Si2 0.613204 0.407379 0.433401
Si Si3 0.081034 0.445812 0.863645
Si Si4 0.026396 0.372134 0.589199
Si Si5 0.326404 0.741281 0.867498
Si Si6 0.279916 0.169013 0.360159
Si Si7 0.169709 0.635828 0.077368
O O1 0.677858 0.399694 0.364397
O O2 0.762684 0.245251 0.236222
O O3 0.339667 0.591746 0.186855
O O4 0.704335 0.945188 0.318691
O O5 0.144393 0.748163 0.458980
O O6 0.480809 0.238758 0.409021
O O7 0.424393 0.784143 0.404051
O O8 0.282184 0.509742 0.902123
O O9 0.866453 0.691916 0.752185
O O10 0.976532 0.481505 0.918430
O O11 0.189755 0.085307 0.867921
O O12 0.901168 0.630784 0.619160
O O13 0.000000 0.500000 0.500000
O O14 0.605377 0.600070 0.919302
O O15 0.000000 0.000000 0.000000
#
# Coordination Sequence:
#
# PCOD9050185 Si02
#       7
#     2   2   2   2   2   2   2
#     4  10  24  49  69 110 154 200 250 325 386 454
#     4  12  26  44  73 102 147 197 253 305 378 443
#     4  12  24  48  82 109 155 207 251 316 398 460
#     4  12  27  44  71 108 151 203 250 316 383 452
#     4  10  26  46  79 111 153 202 256 312 394 464
#     4  12  25  47  70 107 146 194 256 313 364 463
#     4  10  25  50  80 116 154 196 259 326 389 467
#
# _framework density 26.957916999999998
#
# number of rings (size 3 to 8) (size 9 to 14) (size 15 to 20)
#    0.857    0.000    2.857    3.000    2.000    5.714 
#    0.000    1.429    0.000    0.000    0.000    0.000 
#    0.000    0.000    0.000    0.000    0.000    0.000 
#
# Total GULP energy -78462.992059 kJ/mol
# GULP energy per Si atom -5604.499433 kJ/mol
# Density = 2.689656 g / cm^3
# Si number density = 26.957917 Si / 1000 Ang^3
#
#
#
# Elastic Constant Matrix: (Units=GPa)
#
#
# Indices 1 2 3 4 5 6 
#
# 1 163.7812 57.4801 50.2398 1.2653 -32.2087 0.0080
# 2 57.4801 119.9834 27.2721 -2.9905 -6.8712 -13.9021
# 3 50.2398 27.2721 148.1751 -0.6994 -18.6872 -24.2711
# 4 1.2653 -2.9905 -0.6994 51.6204 -10.7472 -0.4393
# 5 -32.2087 -6.8712 -18.6872 -10.7472 62.0387 3.2175
# 6 0.0080 -13.9021 -24.2711 -0.4393 3.2175 50.0059
#
#
#
# Elastic Compliance Matrix: (Units=1/GPa)
#
#
# Indices 1 2 3 4 5 6 
#
# 1 0.008835 -0.003785 -0.002223 0.000278 0.003669 -0.002366
# 2 -0.003785 0.010504 -0.000302 0.000524 -0.000949 0.002840
# 3 -0.002223 -0.000302 0.008350 0.000433 0.001201 0.003895
# 4 0.000278 0.000524 0.000433 0.020199 0.003817 0.000288
# 5 0.003669 -0.000949 0.001201 0.003817 0.018987 -0.000870
# 6 -0.002366 0.002840 0.003895 0.000288 -0.000870 0.022737
#
#
# Mechanical properties :
#
#
# Convention : Reuss Voigt Hill
#
# Bulk Modulus (GPa) = 66.35651 77.99154 72.17403
# Shear Modulus (GPa) = 46.61876 52.52951 49.57413
#
# Velocity S-wave (km/s) = 4.16302 4.41905 4.29294
# Velocity P-wave (km/s) = 6.91201 7.41829 7.16962
#
# Compressibility (1/GPa) = 0.01507011
#
# Stress axis : x y z
#
# Youngs Moduli (GPa) = 113.18309 95.20204 119.76744
#
# Poissons Ratio (x) = 0.36030 0.26619
# Poissons Ratio (y) = 0.42835 0.03619
# Poissons Ratio (z) = 0.25156 0.02877
#
# Static dielectric constant tensor:
#      x y z
#    x 2.213310 0.028390 0.008490 
#    y 0.028390 1.998820 0.035720 
#    z 0.008490 0.035720 2.134850 
# 
# From -- ./inp_files/585156.got.cif
#   From: 2010.05.17/outbox.cif.g08.bks.cpg/sg2_293_cif.got.tgz:585156.got - 2010.06.03 11:33:40.
