data_PCOD9050875
_publ_section_title
;
Structure prediction by ZEFSAII (Michael W. Deem and Ramdas Pophale) SiO2 
 PCOD9050875
Probable space group: P -1
;
_chemical_formula_sum "Si O2"
_cell_formula_units_Z 16
_cell_length_a 12.288116
_cell_length_b 23.329929
_cell_length_c 9.628063
_cell_angle_alpha 127.761460
_cell_angle_beta 126.661659
_cell_angle_gamma 18.048538
_cell_volume 674.823623
_symmetry_space_group_name_H-M "P -1"
_symmetry_group_IT_number 2
_symmetry_cell_setting 'triclinic'
loop_
_space_group_symop_operation_xyz
x,y,z
-x,-y,-z
loop_
_atom_site_type_symbol
_atom_site_label
_atom_site_fract_x
_atom_site_fract_y
_atom_site_fract_z
Si Si1 0.579874 0.689643 0.461494
Si Si2 0.874494 0.846284 0.015923
Si Si3 0.285759 0.629518 0.759257
Si Si4 0.502530 0.829207 0.832492
Si Si5 0.693143 0.565916 0.083593
Si Si6 0.721516 0.965975 0.616295
Si Si7 0.206529 0.739837 0.393470
Si Si8 0.412439 0.816080 0.031424
O O1 0.415460 0.841954 0.632457
O O2 0.502838 0.702830 0.266857
O O3 0.430598 0.699491 0.460089
O O4 0.000000 0.500000 0.500000
O O5 0.085094 0.761574 0.189231
O O6 0.766544 0.974648 0.049267
O O7 0.065745 0.705591 0.835060
O O8 0.500000 0.000000 0.000000
O O9 0.525454 0.448803 0.611966
O O10 0.044027 0.786905 0.696329
O O11 0.515524 0.578585 0.929371
O O12 0.912628 0.647849 0.884517
O O13 0.480828 0.782510 0.869926
O O14 0.651048 0.640322 0.032025
O O15 0.879511 0.908880 0.500715
O O16 0.500000 0.000000 0.500000
O O17 0.533869 0.129737 0.781693
O O18 0.000000 0.000000 0.000000
#
# Coordination Sequence:
#
# PCOD9050875 Si02
#       8
#     2   2   2   2   2   2   2   2
#     4  10  25  44  70 108 139 179 240 299 354 432
#     4  12  25  43  73 104 139 184 234 295 356 429
#     4  12  25  48  72 100 143 187 246 285 363 436
#     4  11  25  45  70 103 142 182 238 291 359 424
#     4  11  24  45  73 102 139 190 236 297 351 439
#     4  12  28  48  71 109 147 187 243 303 359 428
#     4  12  27  45  74 103 144 193 233 298 365 422
#     4  12  24  47  73  99 143 188 245 293 360 427
#
# _framework density 23.709899
#
# number of rings (size 3 to 8) (size 9 to 14) (size 15 to 20)
#    0.000    0.500    3.750    3.375    7.000    2.500 
#    0.000    0.000    0.000    0.000    0.000    0.000 
#    0.000    0.000    0.000    0.000    0.000    0.000 
#
# Total GULP energy -89506.150790 kJ/mol
# GULP energy per Si atom -5594.134424 kJ/mol
# Density = 2.365593 g / cm^3
# Si number density = 23.709899 Si / 1000 Ang^3
#
#
#
# Elastic Constant Matrix: (Units=GPa)
#
#
# Indices 1 2 3 4 5 6 
#
# 1 97.1284 13.4792 18.0998 -12.0080 -6.1720 -19.6607
# 2 13.4792 59.2357 8.1474 -3.4437 8.8067 -0.7825
# 3 18.0998 8.1474 79.1627 -0.8410 -10.4372 -16.5339
# 4 -12.0080 -3.4437 -0.8410 32.9377 -5.2211 -2.4899
# 5 -6.1720 8.8067 -10.4372 -5.2211 45.1157 -4.8987
# 6 -19.6607 -0.7825 -16.5339 -2.4899 -4.8987 46.7722
#
#
#
# Elastic Compliance Matrix: (Units=1/GPa)
#
#
# Indices 1 2 3 4 5 6 
#
# 1 0.012899 -0.002914 -0.000969 0.005331 0.003341 0.005664
# 2 -0.002914 0.018548 -0.002351 -0.000118 -0.004822 -0.002257
# 3 -0.000969 -0.002351 0.014794 0.000880 0.004426 0.005293
# 4 0.005331 -0.000118 0.000880 0.033535 0.005369 0.004897
# 5 0.003341 -0.004822 0.004426 0.005369 0.025847 0.005881
# 6 0.005664 -0.002257 0.005293 0.004897 0.005881 0.026471
#
#
# Mechanical properties :
#
#
# Convention : Reuss Voigt Hill
#
# Bulk Modulus (GPa) = 29.60943 34.99773 32.30358
# Shear Modulus (GPa) = 32.08822 38.01849 35.05335
#
# Velocity S-wave (km/s) = 3.68281 4.00870 3.84920
# Velocity P-wave (km/s) = 5.53167 6.01823 5.78007
#
# Compressibility (1/GPa) = 0.03377302
#
# Stress axis : x y z
#
# Youngs Moduli (GPa) = 77.52821 53.91315 67.59418
#
# Poissons Ratio (x) = 0.15709 0.06550
# Poissons Ratio (y) = 0.22590 0.15892
# Poissons Ratio (z) = 0.07513 0.12676
#
# Static dielectric constant tensor:
#      x y z
#    x 1.492870 0.385230 -0.013820 
#    y 0.385230 1.509740 0.046610 
#    z -0.013820 0.046610 1.872010 
# 
# From -- ./inp_files/285190.got.cif
#   From: 2010.05.17/outbox.cif.g08.bks.cpg/sg2_143_cif.got.tgz:285190.got - 2010.06.03 11:33:40.
