data_PCOD9050233
_publ_section_title
;
Structure prediction by ZEFSAII (Michael W. Deem and Ramdas Pophale) SiO2 
 PCOD9050233
Probable space group: P -1
;
_chemical_formula_sum "Si O2"
_cell_formula_units_Z 14
_cell_length_a 11.609700
_cell_length_b 6.687303
_cell_length_c 7.367424
_cell_angle_alpha 94.840741
_cell_angle_beta 92.835979
_cell_angle_gamma 77.393860
_cell_volume 555.925418
_symmetry_space_group_name_H-M "P -1"
_symmetry_group_IT_number 2
_symmetry_cell_setting 'triclinic'
loop_
_space_group_symop_operation_xyz
x,y,z
-x,-y,-z
loop_
_atom_site_type_symbol
_atom_site_label
_atom_site_fract_x
_atom_site_fract_y
_atom_site_fract_z
Si Si1 0.557920 0.300207 0.374327
Si Si2 0.489200 0.930396 0.197664
Si Si3 0.182428 0.920721 0.491625
Si Si4 0.090144 0.036951 0.856110
Si Si5 0.317359 0.462631 0.827308
Si Si6 0.743955 0.224743 0.878736
Si Si7 0.890753 0.631037 0.391261
O O1 0.500000 0.500000 0.500000
O O2 0.589236 0.395415 0.194858
O O3 0.479136 0.133263 0.333764
O O4 0.685737 0.178467 0.441026
O O5 0.610903 0.765608 0.219060
O O6 0.379085 0.823930 0.199542
O O7 0.500000 0.000000 0.000000
O O8 0.166415 0.165662 0.481913
O O9 0.169003 0.816263 0.290853
O O10 0.905872 0.083432 0.345597
O O11 0.083026 0.265504 0.793402
O O12 0.210143 0.934415 0.965425
O O13 0.000000 0.000000 0.000000
O O14 0.209780 0.489978 0.679568
O O15 0.269149 0.546415 0.025686
O O16 0.000000 0.500000 0.500000
#
# Coordination Sequence:
#
# PCOD9050233 Si02
#       7
#     2   2   2   2   2   2   2
#     4  12  26  44  77 115 159 213 262 327 400 492
#     4  12  24  45  72 114 165 208 265 322 405 489
#     4  10  24  49  74 115 156 202 272 333 399 479
#     4  10  24  52  80 108 158 208 275 342 398 482
#     4  12  24  47  75 112 163 207 271 325 404 489
#     4  12  25  44  79 115 159 217 259 336 408 481
#     4  10  24  50  82 113 156 214 272 340 406 472
#
# _framework density 25.183230999999999
#
# number of rings (size 3 to 8) (size 9 to 14) (size 15 to 20)
#    0.857    0.000    4.286    2.143    4.000    4.000 
#    0.000    4.286    0.000    0.857    0.000    0.000 
#    0.000    0.000    0.000    0.000    0.000    0.000 
#
# Total GULP energy -78225.875970 kJ/mol
# GULP energy per Si atom -5587.562569 kJ/mol
# Density = 2.512591 g / cm^3
# Si number density = 25.183231 Si / 1000 Ang^3
#
#
#
# Elastic Constant Matrix: (Units=GPa)
#
#
# Indices 1 2 3 4 5 6 
#
# 1 104.7141 44.9461 49.1313 12.6453 3.6721 -17.3999
# 2 44.9461 141.2284 47.1088 18.7513 13.5836 -33.3309
# 3 49.1313 47.1088 138.0066 17.4752 -23.0564 -15.1658
# 4 12.6453 18.7513 17.4752 65.0848 -2.1695 -1.0724
# 5 3.6721 13.5836 -23.0564 -2.1695 54.6433 0.8004
# 6 -17.3999 -33.3309 -15.1658 -1.0724 0.8004 37.3886
#
#
#
# Elastic Compliance Matrix: (Units=1/GPa)
#
#
# Indices 1 2 3 4 5 6 
#
# 1 0.012788 -0.001785 -0.003869 -0.000956 -0.002127 0.002809
# 2 -0.001785 0.011089 -0.002663 -0.002133 -0.003962 0.007998
# 3 -0.003869 -0.002663 0.010564 -0.001140 0.005335 -0.000036
# 4 -0.000956 -0.002133 -0.001140 0.016459 0.000801 -0.002354
# 5 -0.002127 -0.003962 0.005335 0.000801 0.021752 -0.002801
# 6 0.002809 0.007998 -0.000036 -0.002354 -0.002801 0.035162
#
#
# Mechanical properties :
#
#
# Convention : Reuss Voigt Hill
#
# Bulk Modulus (GPa) = 56.15426 74.03572 65.09499
# Shear Modulus (GPa) = 38.34867 47.60753 42.97810
#
# Velocity S-wave (km/s) = 3.90652 4.35264 4.13560
# Velocity P-wave (km/s) = 6.53411 7.39752 6.97918
#
# Compressibility (1/GPa) = 0.01780809
#
# Stress axis : x y z
#
# Youngs Moduli (GPa) = 78.19813 90.18023 94.66103
#
# Poissons Ratio (x) = 0.16094 0.36625
# Poissons Ratio (y) = 0.13956 0.25205
# Poissons Ratio (z) = 0.30255 0.24012
#
# Static dielectric constant tensor:
#      x y z
#    x 2.077770 -0.008090 -0.016080 
#    y -0.008090 2.011610 -0.004130 
#    z -0.016080 -0.004130 2.020490 
# 
# From -- ./inp_files/229280.got.cif
#   From: 2010.05.17/outbox.cif.g08.bks.cpg/sg2_115_cif.got.tgz:229280.got - 2010.06.03 11:33:40.
