data_PCOD9050449
_publ_section_title
;
Structure prediction by ZEFSAII (Michael W. Deem and Ramdas Pophale) SiO2 
 PCOD9050449
Probable space group: P -1
;
_chemical_formula_sum "Si O2"
_cell_formula_units_Z 16
_cell_length_a 5.448040
_cell_length_b 12.829629
_cell_length_c 10.817190
_cell_angle_alpha 117.391343
_cell_angle_beta 82.054906
_cell_angle_gamma 81.418845
_cell_volume 645.107968
_symmetry_space_group_name_H-M "P -1"
_symmetry_group_IT_number 2
_symmetry_cell_setting 'triclinic'
loop_
_space_group_symop_operation_xyz
x,y,z
-x,-y,-z
loop_
_atom_site_type_symbol
_atom_site_label
_atom_site_fract_x
_atom_site_fract_y
_atom_site_fract_z
Si Si1 0.142763 0.997535 0.172473
Si Si2 0.298474 0.804452 0.699915
Si Si3 0.519404 0.991708 0.639014
Si Si4 0.471121 0.212372 0.077117
Si Si5 0.016767 0.586850 0.200911
Si Si6 0.856445 0.787765 0.115302
Si Si7 0.840625 0.420512 0.542980
Si Si8 0.442774 0.542290 0.829639
O O1 0.216568 0.045577 0.324992
O O2 0.005985 0.891176 0.149939
O O3 0.391486 0.924701 0.043033
O O4 0.956188 0.107438 0.174647
O O5 0.523860 0.780029 0.771733
O O6 0.227920 0.686200 0.588604
O O7 0.372807 0.891681 0.639589
O O8 0.410396 0.130476 0.766973
O O9 0.500000 0.000000 0.500000
O O10 0.622402 0.313188 0.081154
O O11 0.213998 0.252100 0.037313
O O12 0.006038 0.630679 0.369048
O O13 0.311714 0.511243 0.129275
O O14 0.963913 0.687889 0.154956
O O15 0.799850 0.512213 0.164291
O O16 0.423512 0.498259 0.335627
O O17 0.000000 0.500000 0.500000
#
# Coordination Sequence:
#
# PCOD9050449 Si02
#       8
#     2   2   2   2   2   2   2   2
#     4  10  25  44  69 103 139 192 244 302 365 438
#     4  11  25  44  72 106 143 192 239 305 373 438
#     4  10  25  41  69 103 142 187 243 304 368 438
#     4  11  25  45  70  99 149 188 250 300 364 442
#     4  10  25  45  71 106 145 192 245 305 370 428
#     4  10  25  43  68 101 143 191 247 303 359 445
#     4  10  25  44  72 108 148 189 247 303 367 438
#     4  10  26  45  72 109 146 194 248 301 369 436
#
# _framework density 24.802047999999999
#
# number of rings (size 3 to 8) (size 9 to 14) (size 15 to 20)
#    0.750    1.000    0.000    1.125   10.500   10.500 
#    0.000    0.000    0.000    0.000    0.000    0.000 
#    0.000    0.000    0.000    0.000    0.000    0.000 
#
# Total GULP energy -89445.358869 kJ/mol
# GULP energy per Si atom -5590.334929 kJ/mol
# Density = 2.474560 g / cm^3
# Si number density = 24.802048 Si / 1000 Ang^3
#
#
#
# Elastic Constant Matrix: (Units=GPa)
#
#
# Indices 1 2 3 4 5 6 
#
# 1 112.0790 58.0479 46.4055 -3.2189 31.3618 1.0836
# 2 58.0479 176.0539 84.4567 -20.6318 19.6118 6.6227
# 3 46.4055 84.4567 142.3395 -10.7003 34.1889 2.2544
# 4 -3.2189 -20.6318 -10.7003 45.9550 -6.9636 1.1962
# 5 31.3618 19.6118 34.1889 -6.9636 36.7072 5.9737
# 6 1.0836 6.6227 2.2544 1.1962 5.9737 39.7450
#
#
#
# Elastic Compliance Matrix: (Units=1/GPa)
#
#
# Indices 1 2 3 4 5 6 
#
# 1 0.013675 -0.003714 0.000064 -0.002336 -0.010510 0.001892
# 2 -0.003714 0.009321 -0.004931 0.003389 0.003727 -0.001834
# 3 0.000064 -0.004931 0.012008 -0.000818 -0.009007 0.001517
# 4 -0.002336 0.003389 -0.000818 0.023861 0.005807 -0.002045
# 5 -0.010510 0.003727 -0.009007 0.005807 0.044817 -0.006734
# 6 0.001892 -0.001834 0.001517 -0.002045 -0.006734 0.026402
#
#
# Mechanical properties :
#
#
# Convention : Reuss Voigt Hill
#
# Bulk Modulus (GPa) = 56.04661 89.81028 72.92844
# Shear Modulus (GPa) = 32.63836 40.58560 36.61198
#
# Velocity S-wave (km/s) = 3.63154 4.04961 3.84626
# Velocity P-wave (km/s) = 6.34277 7.62596 7.01377
#
# Compressibility (1/GPa) = 0.01784229
#
# Stress axis : x y z
#
# Youngs Moduli (GPa) = 73.12793 107.28207 83.27491
#
# Poissons Ratio (x) = 0.39842 -0.00534
# Poissons Ratio (y) = 0.27158 0.41066
# Poissons Ratio (z) = -0.00469 0.52905
#
# Static dielectric constant tensor:
#      x y z
#    x 2.081360 -0.043700 -0.062060 
#    y -0.043700 1.910370 -0.020970 
#    z -0.062060 -0.020970 2.007430 
# 
# From -- ./inp_files/70798.got.cif
#   From: 2010.05.17/outbox.cif.g08.bks.cpg/sg2_36_cif.got.tgz:70798.got - 2010.06.03 11:33:40.
