data_PCOD9050950
_publ_section_title
;
Structure prediction by ZEFSAII (Michael W. Deem and Ramdas Pophale) SiO2 
 PCOD9050950
Probable space group: P -1
;
_chemical_formula_sum "Si O2"
_cell_formula_units_Z 13
_cell_length_a 8.172974
_cell_length_b 7.736307
_cell_length_c 11.505997
_cell_angle_alpha 74.071541
_cell_angle_beta 90.070297
_cell_angle_gamma 56.868372
_cell_volume 575.413820
_symmetry_space_group_name_H-M "P -1"
_symmetry_group_IT_number 2
_symmetry_cell_setting 'triclinic'
loop_
_space_group_symop_operation_xyz
x,y,z
-x,-y,-z
loop_
_atom_site_type_symbol
_atom_site_label
_atom_site_fract_x
_atom_site_fract_y
_atom_site_fract_z
Si Si1 0.946223 0.711830 0.796696
Si Si2 0.500000 0.500000 0.500000
Si Si3 0.252793 0.939638 0.063045
Si Si4 0.089423 0.288062 0.619896
Si Si5 0.308353 0.995612 0.474905
Si Si6 0.943504 0.302100 0.850695
Si Si7 0.641029 0.622279 0.247106
O O1 0.910668 0.522265 0.858330
O O2 0.177287 0.580704 0.785964
O O3 0.874369 0.886329 0.866197
O O4 0.818452 0.838297 0.659400
O O5 0.379248 0.757315 0.482971
O O6 0.545861 0.550815 0.355672
O O7 0.198208 0.763225 0.089457
O O8 0.480147 0.803788 0.125324
O O9 0.164743 0.093524 0.922321
O O10 0.259494 0.281000 0.694559
O O11 0.000000 0.500000 0.500000
O O12 0.929283 0.322208 0.706977
O O13 0.173474 0.084163 0.573931
O O14 0.500000 0.000000 0.500000
#
# Coordination Sequence:
#
# PCOD9050950 Si02
#       7
#     2   1   2   2   2   2   2
#     4  11  24  44  68  99 134 180 224 281 343 402
#     4  12  26  38  64 102 136 180 222 282 334 400
#     4  11  24  48  67 102 135 177 235 270 349 398
#     4  11  22  43  68 100 138 177 226 276 349 403
#     4  12  24  40  66  99 140 178 223 278 346 403
#     4  10  25  44  73  93 138 182 219 292 328 416
#     4  11  25  41  68 103 135 177 228 281 334 414
#
# _framework density 22.592437
#
# number of rings (size 3 to 8) (size 9 to 14) (size 15 to 20)
#    0.000    0.923    6.154    0.462    6.462    3.077 
#    0.000    4.615    0.000    0.000    0.000    0.000 
#    0.000    0.000    0.000    0.000    0.000    0.000 
#
# Total GULP energy -72483.020266 kJ/mol
# GULP energy per Si atom -5575.616944 kJ/mol
# Density = 2.254102 g / cm^3
# Si number density = 22.592437 Si / 1000 Ang^3
#
#
#
# Elastic Constant Matrix: (Units=GPa)
#
#
# Indices 1 2 3 4 5 6 
#
# 1 50.7560 17.0630 20.8291 -15.1920 14.7233 0.9913
# 2 17.0630 131.6632 9.9034 -11.6229 2.2505 -5.8338
# 3 20.8291 9.9034 80.3727 -17.5433 2.4173 1.6199
# 4 -15.1920 -11.6229 -17.5433 41.0354 -6.7661 -10.3535
# 5 14.7233 2.2505 2.4173 -6.7661 26.9963 -9.2500
# 6 0.9913 -5.8338 1.6199 -10.3535 -9.2500 22.9361
#
#
#
# Elastic Compliance Matrix: (Units=1/GPa)
#
#
# Indices 1 2 3 4 5 6 
#
# 1 0.028994 -0.003100 -0.005878 0.002775 -0.016779 -0.007141
# 2 -0.003100 0.008430 0.000260 0.003233 0.003538 0.005146
# 3 -0.005878 0.000260 0.015042 0.006087 0.004699 0.003901
# 4 0.002775 0.003233 0.006087 0.037192 0.014898 0.023069
# 5 -0.016779 0.003538 0.004699 0.014898 0.060290 0.032333
# 6 -0.007141 0.005146 0.003901 0.023069 0.032333 0.068395
#
#
# Mechanical properties :
#
#
# Convention : Reuss Voigt Hill
#
# Bulk Modulus (GPa) = 28.54618 39.82032 34.18325
# Shear Modulus (GPa) = 20.20580 32.52665 26.36622
#
# Velocity S-wave (km/s) = 2.99383 3.79847 3.41990
# Velocity P-wave (km/s) = 4.96119 6.07467 5.54595
#
# Compressibility (1/GPa) = 0.03503096
#
# Stress axis : x y z
#
# Youngs Moduli (GPa) = 34.49042 118.62015 66.48058
#
# Poissons Ratio (x) = 0.36772 0.39075
# Poissons Ratio (y) = 0.10692 -0.01730
# Poissons Ratio (z) = 0.20272 -0.03087
#
# Static dielectric constant tensor:
#      x y z
#    x 1.902140 -0.029520 0.005530 
#    y -0.029520 1.783980 0.020360 
#    z 0.005530 0.020360 1.864750 
# 
# From -- ./inp_files/184726.got.cif
#   From: 2010.05.17/outbox.cif.g08.bks.cpg/sg2_93_cif.got.tgz:184726.got - 2010.06.03 11:33:40.
