data_PCOD9050942
_publ_section_title
;
Structure prediction by ZEFSAII (Michael W. Deem and Ramdas Pophale) SiO2 
 PCOD9050942
Probable space group: P -1
;
_chemical_formula_sum "Si O2"
_cell_formula_units_Z 14
_cell_length_a 13.236998
_cell_length_b 12.856934
_cell_length_c 5.120461
_cell_angle_alpha 50.014688
_cell_angle_beta 98.935472
_cell_angle_gamma 105.060305
_cell_volume 644.689469
_symmetry_space_group_name_H-M "P -1"
_symmetry_group_IT_number 2
_symmetry_cell_setting 'triclinic'
loop_
_space_group_symop_operation_xyz
x,y,z
-x,-y,-z
loop_
_atom_site_type_symbol
_atom_site_label
_atom_site_fract_x
_atom_site_fract_y
_atom_site_fract_z
Si Si1 0.950697 0.913329 0.870896
Si Si2 0.230329 0.576466 0.532592
Si Si3 0.525901 0.416147 0.393929
Si Si4 0.587629 0.907526 0.143740
Si Si5 0.841857 0.291773 0.214468
Si Si6 0.733405 0.974891 0.596743
Si Si7 0.037354 0.371911 0.858382
O O1 0.825565 0.894882 0.830563
O O2 0.980599 0.764691 0.103148
O O3 0.000000 0.000000 0.500000
O O4 0.000000 0.000000 0.000000
O O5 0.351869 0.583381 0.572903
O O6 0.196880 0.683353 0.552831
O O7 0.160676 0.430643 0.841313
O O8 0.201248 0.612035 0.169435
O O9 0.500000 0.500000 0.500000
O O10 0.464726 0.255953 0.624386
O O11 0.500000 0.500000 0.000000
O O12 0.673037 0.935973 0.364454
O O13 0.647457 0.950649 0.828196
O O14 0.500000 0.000000 0.000000
O O15 0.794229 0.135071 0.364723
O O16 0.966753 0.331830 0.151682
O O17 0.000000 0.500000 0.500000
#
# Coordination Sequence:
#
# PCOD9050942 Si02
#       7
#     2   2   2   2   2   2   2
#     4  12  27  46  71 105 151 188 232 295 358 426
#     4  11  25  44  70 100 140 186 229 292 355 413
#     4  12  27  48  71 102 143 183 237 296 355 417
#     4  12  27  48  76 105 142 188 247 294 351 424
#     4  11  22  43  71 105 138 178 235 287 348 429
#     4  12  25  44  76 105 145 186 238 292 366 411
#     4  10  25  44  73 104 140 184 238 281 356 430
#
# _framework density 21.715883000000002
#
# number of rings (size 3 to 8) (size 9 to 14) (size 15 to 20)
#    0.000    0.571    1.429    6.000    8.000    2.286 
#    0.000    0.000    0.000    0.000    0.000    0.000 
#    0.000    0.000    0.000    0.000    0.000    0.000 
#
# Total GULP energy -78367.465783 kJ/mol
# GULP energy per Si atom -5597.676127 kJ/mol
# Density = 2.166646 g / cm^3
# Si number density = 21.715883 Si / 1000 Ang^3
#
#
#
# Elastic Constant Matrix: (Units=GPa)
#
#
# Indices 1 2 3 4 5 6 
#
# 1 88.0744 20.7709 20.5061 -16.7241 -13.8722 -1.5260
# 2 20.7709 152.0883 41.4765 -18.6471 0.6205 -1.9371
# 3 20.5061 41.4765 95.4571 -14.4300 -10.6333 1.8875
# 4 -16.7241 -18.6471 -14.4300 52.2089 5.1802 -1.0238
# 5 -13.8722 0.6205 -10.6333 5.1802 43.6060 -4.0444
# 6 -1.5260 -1.9371 1.8875 -1.0238 -4.0444 38.4130
#
#
#
# Elastic Compliance Matrix: (Units=1/GPa)
#
#
# Indices 1 2 3 4 5 6 
#
# 1 0.013108 -0.000992 -0.001544 0.003087 0.003534 0.001001
# 2 -0.000992 0.007770 -0.003055 0.001754 -0.001342 0.000408
# 3 -0.001544 -0.003055 0.012664 0.001666 0.002392 -0.000541
# 4 0.003087 0.001754 0.001666 0.021352 -0.001119 0.000580
# 5 0.003534 -0.001342 0.002392 -0.001119 0.025030 0.002561
# 6 0.001001 0.000408 -0.000541 0.000580 0.002561 0.026405
#
#
# Mechanical properties :
#
#
# Convention : Reuss Voigt Hill
#
# Bulk Modulus (GPa) = 44.72646 55.68077 50.20362
# Shear Modulus (GPa) = 40.01163 43.70333 41.85748
#
# Velocity S-wave (km/s) = 4.29710 4.49096 4.39510
# Velocity P-wave (km/s) = 6.72763 7.25175 6.99460
#
# Compressibility (1/GPa) = 0.02235813
#
# Stress axis : x y z
#
# Youngs Moduli (GPa) = 76.29178 128.70809 78.96271
#
# Poissons Ratio (x) = 0.12771 0.12194
# Poissons Ratio (y) = 0.07570 0.24124
# Poissons Ratio (z) = 0.11781 0.39322
#
# Static dielectric constant tensor:
#      x y z
#    x 1.781510 0.030340 0.002810 
#    y 0.030340 1.781660 -0.006310 
#    z 0.002810 -0.006310 1.754580 
# 
# From -- ./inp_files/68163.got.cif
#   From: 2010.05.17/outbox.cif.g08.bks.cpg/sg2_35_cif.got.tgz:68163.got - 2010.06.03 11:33:40.
