data_PCOD9050111
_publ_section_title
;
Structure prediction by ZEFSAII (Michael W. Deem and Ramdas Pophale) SiO2 
 PCOD9050111
Probable space group: P -1
;
_chemical_formula_sum "Si O2"
_cell_formula_units_Z 12
_cell_length_a 10.373277
_cell_length_b 8.421165
_cell_length_c 11.313757
_cell_angle_alpha 67.030508
_cell_angle_beta 138.852730
_cell_angle_gamma 133.109329
_cell_volume 458.570384
_symmetry_space_group_name_H-M "P -1"
_symmetry_group_IT_number 2
_symmetry_cell_setting 'triclinic'
loop_
_space_group_symop_operation_xyz
x,y,z
-x,-y,-z
loop_
_atom_site_type_symbol
_atom_site_label
_atom_site_fract_x
_atom_site_fract_y
_atom_site_fract_z
Si Si1 0.695762 0.133688 0.831017
Si Si2 0.810132 0.573042 0.765150
Si Si3 0.297691 0.682812 0.631019
Si Si4 0.968140 0.005699 0.336535
Si Si5 0.912617 0.199860 0.728682
Si Si6 0.558241 0.458657 0.880275
O O1 0.699485 0.326750 0.725173
O O2 0.803844 0.074079 0.816814
O O3 0.429202 0.897734 0.744841
O O4 0.891682 0.261885 0.035706
O O5 0.664185 0.526073 0.800055
O O6 0.840818 0.727256 0.638692
O O7 0.279395 0.766433 0.466975
O O8 0.426987 0.571696 0.769762
O O9 0.000000 0.500000 0.500000
O O10 0.657316 0.809054 0.168610
O O11 0.056102 0.921288 0.318837
O O12 0.000000 0.000000 0.500000
O O13 0.195868 0.423685 0.899002
#
# Coordination Sequence:
#
# PCOD9050111 Si02
#       6
#     2   2   2   2   2   2
#     4  10  24  48  76 113 144 200 253 309 377 443
#     4  10  25  49  78 107 156 196 246 315 380 443
#     4  12  25  42  75 111 149 191 254 310 364 450
#     4  12  27  45  74 112 150 199 248 306 380 444
#     4  11  25  49  76 108 146 199 252 304 374 443
#     4  11  26  50  78 110 149 201 250 309 378 443
#
# _framework density 26.168282999999999
#
# number of rings (size 3 to 8) (size 9 to 14) (size 15 to 20)
#    0.000    1.000    1.667    3.000    7.000    3.333 
#    0.000    2.500    0.000    0.000    0.000    0.000 
#    0.000    0.000    0.000    0.000    0.000    0.000 
#
# Total GULP energy -67049.090553 kJ/mol
# GULP energy per Si atom -5587.424213 kJ/mol
# Density = 2.610872 g / cm^3
# Si number density = 26.168283 Si / 1000 Ang^3
#
#
#
# Elastic Constant Matrix: (Units=GPa)
#
#
# Indices 1 2 3 4 5 6 
#
# 1 79.0809 49.0404 17.4234 -0.3400 -26.0626 4.2639
# 2 49.0404 138.2756 18.4773 25.9263 -4.9406 7.6794
# 3 17.4234 18.4773 102.8007 25.9858 4.0078 -10.9599
# 4 -0.3400 25.9263 25.9858 51.7611 14.4665 -6.4835
# 5 -26.0626 -4.9406 4.0078 14.4665 43.1413 0.3296
# 6 4.2639 7.6794 -10.9599 -6.4835 0.3296 25.9544
#
#
#
# Elastic Compliance Matrix: (Units=1/GPa)
#
#
# Indices 1 2 3 4 5 6 
#
# 1 0.022042 -0.007057 -0.003687 0.001744 0.012287 -0.002811
# 2 -0.007057 0.010925 0.000392 -0.005837 -0.001065 -0.003352
# 3 -0.003687 0.000392 0.012154 -0.005349 -0.001551 0.004305
# 4 0.001744 -0.005837 -0.005349 0.028136 -0.008601 0.006319
# 5 0.012287 -0.001065 -0.001551 -0.008601 0.033546 -0.004933
# 6 -0.002811 -0.003352 0.004305 0.006319 -0.004933 0.043442
#
#
# Mechanical properties :
#
#
# Convention : Reuss Voigt Hill
#
# Bulk Modulus (GPa) = 40.95437 54.44882 47.70160
# Shear Modulus (GPa) = 27.91934 39.85243 33.88589
#
# Velocity S-wave (km/s) = 3.26991 3.90671 3.60241
# Velocity P-wave (km/s) = 5.47182 6.41889 5.96418
#
# Compressibility (1/GPa) = 0.02441742
#
# Stress axis : x y z
#
# Youngs Moduli (GPa) = 45.36762 91.53457 82.27953
#
# Poissons Ratio (x) = 0.64593 0.30337
# Poissons Ratio (y) = 0.32014 -0.03226
# Poissons Ratio (z) = 0.16727 -0.03589
#
# Static dielectric constant tensor:
#      x y z
#    x 2.149480 0.002280 0.049900 
#    y 0.002280 2.285740 -0.080030 
#    z 0.049900 -0.080030 2.172340 
# 
# From -- ./inp_files/419273.got.cif
#   From: 2010.05.17/outbox.cif.g08.bks.cpg/sg2_210_cif.got.tgz:419273.got - 2010.06.03 11:33:40.
