data_PCOD9050388
_publ_section_title
;
Structure prediction by ZEFSAII (Michael W. Deem and Ramdas Pophale) SiO2 
 PCOD9050388
Probable space group: P -1
;
_chemical_formula_sum "Si O2"
_cell_formula_units_Z 13
_cell_length_a 13.701272
_cell_length_b 8.608522
_cell_length_c 4.835367
_cell_angle_alpha 82.601644
_cell_angle_beta 81.879359
_cell_angle_gamma 117.828980
_cell_volume 486.797269
_symmetry_space_group_name_H-M "P -1"
_symmetry_group_IT_number 2
_symmetry_cell_setting 'triclinic'
loop_
_space_group_symop_operation_xyz
x,y,z
-x,-y,-z
loop_
_atom_site_type_symbol
_atom_site_label
_atom_site_fract_x
_atom_site_fract_y
_atom_site_fract_z
Si Si1 0.000000 0.500000 0.500000
Si Si2 0.832124 0.142960 0.780009
Si Si3 0.482511 0.727824 0.548237
Si Si4 0.007487 0.183926 0.326631
Si Si5 0.388796 0.915746 0.881930
Si Si6 0.356554 0.407122 0.272019
Si Si7 0.199250 0.225053 0.880061
O O1 0.925621 0.341716 0.792556
O O2 0.937126 0.620571 0.590426
O O3 0.878210 0.146366 0.448174
O O4 0.822547 0.971531 0.977662
O O5 0.714804 0.136281 0.865540
O O6 0.586456 0.918774 0.365459
O O7 0.418598 0.602572 0.342040
O O8 0.546953 0.650241 0.724686
O O9 0.392090 0.763033 0.735032
O O10 0.081527 0.216072 0.014342
O O11 0.000000 0.000000 0.500000
O O12 0.500000 0.000000 0.000000
O O13 0.300858 0.366296 0.003925
O O14 0.249407 0.281481 0.542778
#
# Coordination Sequence:
#
# PCOD9050388 Si02
#       7
#     1   2   2   2   2   2   2
#     4   8  18  34  68  94 132 176 228 278 338 408
#     4   9  19  39  64  94 136 175 225 278 336 405
#     4  10  25  39  59 101 130 178 230 272 343 401
#     4   8  18  36  64  98 128 175 223 279 337 405
#     4  11  22  40  66  93 136 181 221 284 337 400
#     4  11  25  41  69  99 134 177 224 282 333 414
#     4  11  22  43  69  97 134 178 221 280 348 398
#
# _framework density 26.705162000000001
#
# number of rings (size 3 to 8) (size 9 to 14) (size 15 to 20)
#    0.923    1.231    1.538    0.923    4.308    1.231 
#    0.000    6.923    0.000    2.769    0.000    0.000 
#    0.000    0.000    0.000    0.000    0.000    0.000 
#
# Total GULP energy -72398.699003 kJ/mol
# GULP energy per Si atom -5569.130693 kJ/mol
# Density = 2.664438 g / cm^3
# Si number density = 26.705162 Si / 1000 Ang^3
#
#
#
# Elastic Constant Matrix: (Units=GPa)
#
#
# Indices 1 2 3 4 5 6 
#
# 1 142.9958 41.1022 41.1431 4.0231 -49.2403 -7.3561
# 2 41.1022 143.9370 18.8453 -8.9103 8.1481 -28.2453
# 3 41.1431 18.8453 83.0925 -5.1239 -22.5269 0.4334
# 4 4.0231 -8.9103 -5.1239 44.4502 8.5836 -2.9276
# 5 -49.2403 8.1481 -22.5269 8.5836 60.3375 -1.0323
# 6 -7.3561 -28.2453 0.4334 -2.9276 -1.0323 39.1925
#
#
#
# Elastic Compliance Matrix: (Units=1/GPa)
#
#
# Indices 1 2 3 4 5 6 
#
# 1 0.012744 -0.004295 -0.002738 -0.004420 0.010574 -0.000725
# 2 -0.004295 0.010285 -0.001611 0.003854 -0.005928 0.006755
# 3 -0.002738 -0.001611 0.014720 0.000868 0.003326 -0.001685
# 4 -0.004420 0.003854 0.000868 0.025431 -0.007358 0.003644
# 5 0.010574 -0.005928 0.003326 -0.007358 0.028256 -0.002130
# 6 -0.000725 0.006755 -0.001685 0.003644 -0.002130 0.030482
#
#
# Mechanical properties :
#
#
# Convention : Reuss Voigt Hill
#
# Bulk Modulus (GPa) = 48.87305 63.57852 56.22579
# Shear Modulus (GPa) = 34.24085 46.72501 40.48293
#
# Velocity S-wave (km/s) = 3.58464 4.18743 3.89771
# Velocity P-wave (km/s) = 5.95597 6.87304 6.43087
#
# Compressibility (1/GPa) = 0.02046117
#
# Stress axis : x y z
#
# Youngs Moduli (GPa) = 78.46987 97.23256 67.93519
#
# Poissons Ratio (x) = 0.41761 0.18601
# Poissons Ratio (y) = 0.33703 0.10941
# Poissons Ratio (z) = 0.21485 0.15660
#
# Static dielectric constant tensor:
#      x y z
#    x 2.090180 0.019620 0.087320 
#    y 0.019620 2.177580 0.022730 
#    z 0.087320 0.022730 2.184820 
# 
# From -- ./inp_files/87590.got.cif
#   From: 2010.05.17/outbox.cif.g08.bks.cpg/sg2_44_cif.got.tgz:87590.got - 2010.06.03 11:33:40.
