data_PCOD9050344
_publ_section_title
;
Structure prediction by ZEFSAII (Michael W. Deem and Ramdas Pophale) SiO2 
 PCOD9050344
Probable space group: P -1
;
_chemical_formula_sum "Si O2"
_cell_formula_units_Z 12
_cell_length_a 8.887352
_cell_length_b 9.444283
_cell_length_c 12.605146
_cell_angle_alpha 113.713224
_cell_angle_beta 132.189658
_cell_angle_gamma 40.779063
_cell_volume 499.477364
_symmetry_space_group_name_H-M "P -1"
_symmetry_group_IT_number 2
_symmetry_cell_setting 'triclinic'
loop_
_space_group_symop_operation_xyz
x,y,z
-x,-y,-z
loop_
_atom_site_type_symbol
_atom_site_label
_atom_site_fract_x
_atom_site_fract_y
_atom_site_fract_z
Si Si1 0.036984 0.161755 0.552543
Si Si2 0.192017 0.587163 0.906821
Si Si3 0.144549 0.756024 0.153651
Si Si4 0.245944 0.196849 0.861278
Si Si5 0.158501 0.078351 0.337856
Si Si6 0.711316 0.581497 0.434742
O O1 0.264235 0.097507 0.727711
O O2 0.083730 0.147498 0.444704
O O3 0.783127 0.431883 0.523545
O O4 0.000000 0.000000 0.500000
O O5 0.248382 0.377371 0.895940
O O6 0.966844 0.730501 0.746516
O O7 0.500000 0.500000 0.000000
O O8 0.055603 0.744584 0.993413
O O9 0.494223 0.593061 0.265110
O O10 0.047245 0.693130 0.181047
O O11 0.020268 0.990746 0.201586
O O12 0.500000 0.000000 0.000000
O O13 0.504164 0.156460 0.571071
O O14 0.000000 0.500000 0.500000
#
# Coordination Sequence:
#
# PCOD9050344 Si02
#       6
#     2   2   2   2   2   2
#     4  12  26  51  79 113 162 207 265 333 392 478
#     4  12  26  48  84 115 166 207 263 334 393 478
#     4  10  24  51  75 113 161 204 265 318 401 470
#     4  12  29  49  81 118 159 214 265 323 406 474
#     4  10  25  48  81 115 155 206 264 324 401 457
#     4  10  26  48  75 116 157 204 267 320 395 466
#
# _framework density 24.025112
#
# number of rings (size 3 to 8) (size 9 to 14) (size 15 to 20)
#    1.000    0.000    1.667    3.000    7.000    4.667 
#    6.000    0.000    0.000    0.000    0.000    0.000 
#    0.000    0.000    0.000    0.000    0.000    0.000 
#
# Total GULP energy -67005.928383 kJ/mol
# GULP energy per Si atom -5583.827365 kJ/mol
# Density = 2.397043 g / cm^3
# Si number density = 24.025112 Si / 1000 Ang^3
#
#
#
# Elastic Constant Matrix: (Units=GPa)
#
#
# Indices 1 2 3 4 5 6 
#
# 1 128.8961 69.6914 55.4395 2.6666 -1.3241 25.8918
# 2 69.6914 156.8615 78.7334 -11.2079 -5.4034 48.5693
# 3 55.4395 78.7334 198.1187 -4.3365 -33.9589 7.5987
# 4 2.6666 -11.2079 -4.3365 56.3926 -2.2340 -2.3874
# 5 -1.3241 -5.4034 -33.9589 -2.2340 46.9051 0.6914
# 6 25.8918 48.5693 7.5987 -2.3874 0.6914 50.5575
#
#
#
# Elastic Compliance Matrix: (Units=1/GPa)
#
#
# Indices 1 2 3 4 5 6 
#
# 1 0.010831 -0.003376 -0.001899 -0.001476 -0.001498 -0.002068
# 2 -0.003376 0.013180 -0.004079 0.001982 -0.001285 -0.010209
# 3 -0.001899 -0.004079 0.007956 0.000251 0.005195 0.003636
# 4 -0.001476 0.001982 0.000251 0.018251 0.001242 -0.000341
# 5 -0.001498 -0.001285 0.005195 0.001242 0.024936 0.000938
# 6 -0.002068 -0.010209 0.003636 -0.000341 0.000938 0.030071
#
#
# Mechanical properties :
#
#
# Convention : Reuss Voigt Hill
#
# Bulk Modulus (GPa) = 75.41008 99.06721 87.23865
# Shear Modulus (GPa) = 38.95560 49.43849 44.19704
#
# Velocity S-wave (km/s) = 4.03110 4.54120 4.29373
# Velocity P-wave (km/s) = 7.28852 8.29585 7.80844
#
# Compressibility (1/GPa) = 0.01326083
#
# Stress axis : x y z
#
# Youngs Moduli (GPa) = 92.33171 75.86991 125.68680
#
# Poissons Ratio (x) = 0.25610 0.23868
# Poissons Ratio (y) = 0.31167 0.51264
# Poissons Ratio (z) = 0.17534 0.30945
#
# Static dielectric constant tensor:
#      x y z
#    x 1.971130 -0.077840 0.070870 
#    y -0.077840 2.237340 -0.016220 
#    z 0.070870 -0.016220 1.979270 
# 
# From -- ./inp_files/176901.got.cif
#   From: 2010.05.17/outbox.cif.g08.bks.cpg/sg2_89_cif.got.tgz:176901.got - 2010.06.03 11:33:40.
