data_PCOD9050871
_publ_section_title
;
Structure prediction by ZEFSAII (Michael W. Deem and Ramdas Pophale) SiO2 
 PCOD9050871
Probable space group: P -1
;
_chemical_formula_sum "Si O2"
_cell_formula_units_Z 16
_cell_length_a 18.305212
_cell_length_b 5.097965
_cell_length_c 11.387060
_cell_angle_alpha 74.105700
_cell_angle_beta 138.236154
_cell_angle_gamma 102.072211
_cell_volume 680.700173
_symmetry_space_group_name_H-M "P -1"
_symmetry_group_IT_number 2
_symmetry_cell_setting 'triclinic'
loop_
_space_group_symop_operation_xyz
x,y,z
-x,-y,-z
loop_
_atom_site_type_symbol
_atom_site_label
_atom_site_fract_x
_atom_site_fract_y
_atom_site_fract_z
Si Si1 0.097957 0.215286 0.577443
Si Si2 0.347880 0.576443 0.711149
Si Si3 0.769114 0.119288 0.683557
Si Si4 0.885205 0.598292 0.901875
Si Si5 0.904001 0.525892 0.209340
Si Si6 0.511732 0.903497 0.169947
Si Si7 0.554508 0.791555 0.503972
Si Si8 0.735954 0.200023 0.189653
O O1 0.121385 0.281634 0.733648
O O2 0.031623 0.444960 0.397263
O O3 0.197098 0.061506 0.652269
O O4 0.000000 0.000000 0.500000
O O5 0.404945 0.302258 0.769295
O O6 0.275448 0.587978 0.741653
O O7 0.281155 0.719180 0.507505
O O8 0.446941 0.788053 0.832827
O O9 0.864309 0.906075 0.792076
O O10 0.681280 0.889794 0.652271
O O11 0.802163 0.357706 0.785573
O O12 0.889978 0.610887 0.048069
O O13 0.000000 0.500000 0.000000
O O14 0.810222 0.301651 0.157408
O O15 0.523184 0.842772 0.326996
O O16 0.385920 0.864000 0.990384
O O17 0.500000 0.500000 0.500000
O O18 0.500000 0.000000 0.500000
#
# Coordination Sequence:
#
# PCOD9050871 Si02
#       8
#     2   2   2   2   2   2   2   2
#     4   9  22  44  64 101 133 179 228 292 356 416
#     4  11  25  47  69 101 148 184 240 282 358 428
#     4  11  26  47  71 105 140 194 236 290 364 430
#     4  12  28  47  75 104 145 184 242 301 354 431
#     4  10  25  44  70 105 139 176 246 291 362 426
#     4  11  25  43  66 110 141 183 241 288 346 428
#     4  11  23  42  70 100 145 190 232 290 349 427
#     4  11  25  40  76  96 141 185 230 300 354 415
#
# _framework density 23.505209000000001
#
# number of rings (size 3 to 8) (size 9 to 14) (size 15 to 20)
#    0.000    1.250    0.000    4.875   12.250    3.000 
#    0.000    0.000    0.000    0.000    0.000    0.000 
#    0.000    0.000    0.000    0.000    0.000    0.000 
#
# Total GULP energy -89338.488398 kJ/mol
# GULP energy per Si atom -5583.655525 kJ/mol
# Density = 2.345171 g / cm^3
# Si number density = 23.505209 Si / 1000 Ang^3
#
#
#
# Elastic Constant Matrix: (Units=GPa)
#
#
# Indices 1 2 3 4 5 6 
#
# 1 110.4790 20.9589 54.9801 -3.9211 -3.1336 -12.1985
# 2 20.9589 117.8207 39.4119 13.8451 -3.3953 -19.6041
# 3 54.9801 39.4119 128.7668 12.6183 -9.8331 -16.9656
# 4 -3.9211 13.8451 12.6183 32.5582 -6.9459 7.2978
# 5 -3.1336 -3.3953 -9.8331 -6.9459 38.1685 -4.7496
# 6 -12.1985 -19.6041 -16.9656 7.2978 -4.7496 43.7851
#
#
#
# Elastic Compliance Matrix: (Units=1/GPa)
#
#
# Indices 1 2 3 4 5 6 
#
# 1 0.011949 -0.000764 -0.005158 0.003741 0.000315 0.000399
# 2 -0.000764 0.010584 -0.001811 -0.004913 0.000097 0.004653
# 3 -0.005158 -0.001811 0.011548 -0.004631 0.001947 0.003210
# 4 0.003741 -0.004913 -0.004631 0.037979 0.004494 -0.008794
# 5 0.000315 0.000097 0.001947 0.004494 0.027948 0.003168
# 6 0.000399 0.004653 0.003210 -0.008794 0.003168 0.028087
#
#
# Mechanical properties :
#
#
# Convention : Reuss Voigt Hill
#
# Bulk Modulus (GPa) = 53.72319 65.30760 59.51539
# Shear Modulus (GPa) = 33.38553 39.01671 36.20112
#
# Velocity S-wave (km/s) = 3.77284 4.07863 3.92871
# Velocity P-wave (km/s) = 6.47183 7.07283 6.77899
#
# Compressibility (1/GPa) = 0.01861394
#
# Stress axis : x y z
#
# Youngs Moduli (GPa) = 83.68796 94.48523 86.59517
#
# Poissons Ratio (x) = 0.07222 0.44666
# Poissons Ratio (y) = 0.06397 0.15683
# Poissons Ratio (z) = 0.43167 0.17111
#
# Static dielectric constant tensor:
#      x y z
#    x 1.859390 0.098590 0.008240 
#    y 0.098590 1.959470 0.042890 
#    z 0.008240 0.042890 1.852240 
# 
# From -- ./inp_files/459193.got.cif
#   From: 2010.05.17/outbox.cif.g08.bks.cpg/sg2_230_cif.got.tgz:459193.got - 2010.06.03 11:33:40.
