data_PCOD9050286
_publ_section_title
;
Structure prediction by ZEFSAII (Michael W. Deem and Ramdas Pophale) SiO2 
 PCOD9050286
Probable space group: P -1
;
_chemical_formula_sum "Si O2"
_cell_formula_units_Z 14
_cell_length_a 6.349506
_cell_length_b 11.511895
_cell_length_c 11.782100
_cell_angle_alpha 82.019311
_cell_angle_beta 54.985392
_cell_angle_gamma 60.787339
_cell_volume 603.498783
_symmetry_space_group_name_H-M "P -1"
_symmetry_group_IT_number 2
_symmetry_cell_setting 'triclinic'
loop_
_space_group_symop_operation_xyz
x,y,z
-x,-y,-z
loop_
_atom_site_type_symbol
_atom_site_label
_atom_site_fract_x
_atom_site_fract_y
_atom_site_fract_z
Si Si1 0.065940 0.796446 0.497011
Si Si2 0.242892 0.787264 0.822286
Si Si3 0.248514 0.347228 0.454591
Si Si4 0.254254 0.359579 0.706186
Si Si5 0.368677 0.398307 0.070675
Si Si6 0.012392 0.003436 0.301101
Si Si7 0.331436 0.212100 0.924348
O O1 0.404264 0.673492 0.387369
O O2 0.845069 0.739398 0.582460
O O3 0.045318 0.882054 0.602989
O O4 0.974285 0.894932 0.402143
O O5 0.441911 0.673990 0.682890
O O6 0.425603 0.723796 0.889936
O O7 0.187253 0.924759 0.757869
O O8 0.921321 0.804869 0.935305
O O9 0.246087 0.309035 0.590075
O O10 0.000000 0.500000 0.500000
O O11 0.227710 0.266754 0.822280
O O12 0.971120 0.508870 0.791982
O O13 0.500000 0.500000 0.000000
O O14 0.363701 0.327973 0.964694
O O15 0.352387 0.922726 0.165410
#
# Coordination Sequence:
#
# PCOD9050286 Si02
#       7
#     2   2   2   2   2   2   2
#     4  10  25  48  73 105 148 187 238 296 357 426
#     4  12  26  45  69 110 143 183 246 293 357 418
#     4  12  27  44  73 114 142 184 242 299 363 425
#     4  11  24  45  74 103 141 192 231 295 365 422
#     4  12  27  45  72 112 143 190 239 291 372 422
#     4  10  24  50  71 102 143 200 238 284 360 423
#     4  11  27  47  74  99 150 192 234 300 352 429
#
# _framework density 23.198056999999999
#
# number of rings (size 3 to 8) (size 9 to 14) (size 15 to 20)
#    0.000    0.857    4.286    0.857    8.000    1.714 
#    2.571    0.000    0.000    0.000    0.000    0.000 
#    0.000    0.000    0.000    0.000    0.000    0.000 
#
# Total GULP energy -78239.265769 kJ/mol
# GULP energy per Si atom -5588.518984 kJ/mol
# Density = 2.314526 g / cm^3
# Si number density = 23.198057 Si / 1000 Ang^3
#
#
#
# Elastic Constant Matrix: (Units=GPa)
#
#
# Indices 1 2 3 4 5 6 
#
# 1 33.2773 38.8378 22.2393 -10.0483 -4.7491 -8.7126
# 2 38.8378 69.9577 26.9056 6.7398 -12.9487 -28.3162
# 3 22.2393 26.9056 127.8905 17.7415 -15.2314 0.3748
# 4 -10.0483 6.7398 17.7415 42.0348 -17.3124 -5.5956
# 5 -4.7491 -12.9487 -15.2314 -17.3124 35.7858 5.4777
# 6 -8.7126 -28.3162 0.3748 -5.5956 5.4777 29.9754
#
#
#
# Elastic Compliance Matrix: (Units=1/GPa)
#
#
# Indices 1 2 3 4 5 6 
#
# 1 0.234725 -0.154243 -0.018004 0.088178 0.020205 -0.064488
# 2 -0.154243 0.128970 0.006077 -0.054297 -0.007929 0.068236
# 3 -0.018004 0.006077 0.011072 -0.010233 -0.000198 -0.001505
# 4 0.088178 -0.054297 -0.010233 0.064446 0.021547 -0.017442
# 5 0.020205 -0.007929 -0.000198 0.021547 0.038813 -0.004686
# 6 -0.064488 0.068236 -0.001505 -0.017442 -0.004686 0.076695
#
#
# Mechanical properties :
#
#
# Convention : Reuss Voigt Hill
#
# Bulk Modulus (GPa) = 23.57058 45.23234 34.40146
# Shear Modulus (GPa) = 5.54813 31.10206 18.32510
#
# Velocity S-wave (km/s) = 1.54817 3.66555 2.81364
# Velocity P-wave (km/s) = 3.65765 6.12011 5.04153
#
# Compressibility (1/GPa) = 0.04242577
#
# Stress axis : x y z
#
# Youngs Moduli (GPa) = 4.26031 7.75374 90.31849
#
# Poissons Ratio (x) = 1.19596 1.62613
# Poissons Ratio (y) = 0.65712 -0.54889
# Poissons Ratio (z) = 0.07670 -0.04712
#
# Static dielectric constant tensor:
#      x y z
#    x 1.847200 -0.054630 -0.004560 
#    y -0.054630 1.869290 -0.007070 
#    z -0.004560 -0.007070 1.877790 
# 
# From -- ./inp_files/364210.got.cif
#   From: 2010.05.17/outbox.cif.g08.bks.cpg/sg2_183_cif.got.tgz:364210.got - 2010.06.03 11:33:40.
