data_PCOD9050869
_publ_section_title
;
Structure prediction by ZEFSAII (Michael W. Deem and Ramdas Pophale) SiO2 
 PCOD9050869
Probable space group: P -1
;
_chemical_formula_sum "Si O2"
_cell_formula_units_Z 13
_cell_length_a 13.643670
_cell_length_b 8.867600
_cell_length_c 5.643468
_cell_angle_alpha 103.590583
_cell_angle_beta 118.149921
_cell_angle_gamma 65.830942
_cell_volume 548.506547
_symmetry_space_group_name_H-M "P -1"
_symmetry_group_IT_number 2
_symmetry_cell_setting 'triclinic'
loop_
_space_group_symop_operation_xyz
x,y,z
-x,-y,-z
loop_
_atom_site_type_symbol
_atom_site_label
_atom_site_fract_x
_atom_site_fract_y
_atom_site_fract_z
Si Si1 0.444296 0.143082 0.680337
Si Si2 0.061772 0.571789 0.403936
Si Si3 0.566573 0.503809 0.330673
Si Si4 0.814174 0.207717 0.482682
Si Si5 0.143718 0.243745 0.129220
Si Si6 0.314485 0.030138 0.881722
Si Si7 0.000000 0.000000 0.000000
O O1 0.416718 0.320445 0.601959
O O2 0.339076 0.118724 0.707326
O O3 0.500000 0.000000 0.500000
O O4 0.557840 0.108789 0.973417
O O5 0.119756 0.707425 0.592381
O O6 0.151871 0.403336 0.334422
O O7 0.000000 0.500000 0.500000
O O8 0.957010 0.666906 0.144013
O O9 0.500000 0.500000 0.500000
O O10 0.689717 0.351419 0.439219
O O11 0.500000 0.500000 0.000000
O O12 0.783370 0.055837 0.288300
O O13 0.901067 0.141039 0.778189
O O14 0.090739 0.114971 0.145699
O O15 0.264149 0.150777 0.089473
#
# Coordination Sequence:
#
# PCOD9050869 Si02
#       7
#     2   2   2   2   2   2   1
#     4  11  27  48  75 117 154 205 267 330 408 488
#     4  10  25  46  67 106 144 196 255 319 391 461
#     4  12  28  51  79 119 163 209 268 335 411 484
#     4  11  26  48  74 111 153 209 258 335 388 483
#     4  10  25  44  70 104 145 196 256 321 387 467
#     4  11  26  46  76 109 152 203 261 329 400 477
#     4  10  26  44  76 108 150 202 270 316 396 468
#
# _framework density 23.700718999999999
#
# number of rings (size 3 to 8) (size 9 to 14) (size 15 to 20)
#    0.000    1.231    1.538    0.923   15.077    1.231 
#    2.769    0.000    0.000    0.000    0.000    0.000 
#    0.000    0.000    0.000    0.000    0.000    0.000 
#
# Total GULP energy -72388.368223 kJ/mol
# GULP energy per Si atom -5568.336017 kJ/mol
# Density = 2.364678 g / cm^3
# Si number density = 23.700719 Si / 1000 Ang^3
#
#
#
# Elastic Constant Matrix: (Units=GPa)
#
#
# Indices 1 2 3 4 5 6 
#
# 1 142.4110 65.7568 48.3059 -0.6211 -9.5823 25.5777
# 2 65.7568 145.9723 51.1407 -24.2725 -6.2601 19.3823
# 3 48.3059 51.1407 85.7722 -15.3442 5.0624 10.7918
# 4 -0.6211 -24.2725 -15.3442 47.5383 4.0151 6.3755
# 5 -9.5823 -6.2601 5.0624 4.0151 41.8005 -6.0464
# 6 25.5777 19.3823 10.7918 6.3755 -6.0464 59.6979
#
#
#
# Elastic Compliance Matrix: (Units=1/GPa)
#
#
# Indices 1 2 3 4 5 6 
#
# 1 0.010567 -0.003330 -0.004362 -0.002893 0.002426 -0.002103
# 2 -0.003330 0.010551 -0.003429 0.004432 0.000546 -0.001797
# 3 -0.004362 -0.003429 0.017297 0.004264 -0.004166 -0.001022
# 4 -0.002893 0.004432 0.004264 0.025480 -0.003549 -0.004051
# 5 0.002426 0.000546 -0.004166 -0.003549 0.025772 0.002526
# 6 -0.002103 -0.001797 -0.001022 -0.004051 0.002526 0.019109
#
#
# Mechanical properties :
#
#
# Convention : Reuss Voigt Hill
#
# Bulk Modulus (GPa) = 61.82802 78.28471 70.05636
# Shear Modulus (GPa) = 36.65440 43.73748 40.19594
#
# Velocity S-wave (km/s) = 3.93689 4.30048 4.12270
# Velocity P-wave (km/s) = 6.84172 7.60007 7.23084
#
# Compressibility (1/GPa) = 0.01617390
#
# Stress axis : x y z
#
# Youngs Moduli (GPa) = 94.63006 94.77905 57.81270
#
# Poissons Ratio (x) = 0.31560 0.25219
# Poissons Ratio (y) = 0.31510 0.19823
# Poissons Ratio (z) = 0.41279 0.32498
#
# Static dielectric constant tensor:
#      x y z
#    x 2.034680 -0.033130 0.000340 
#    y -0.033130 1.917440 0.072400 
#    z 0.000340 0.072400 2.006080 
# 
# From -- ./inp_files/59499.got.cif
#   From: 2010.05.17/outbox.cif.g08.bks.cpg/sg2_30_cif.got.tgz:59499.got - 2010.06.03 11:33:40.
