data_PCOD9050061
_publ_section_title
;
Structure prediction by ZEFSAII (Michael W. Deem and Ramdas Pophale) SiO2 
 PCOD9050061
Probable space group: P -1
;
_chemical_formula_sum "Si O2"
_cell_formula_units_Z 14
_cell_length_a 14.009232
_cell_length_b 12.026038
_cell_length_c 4.816355
_cell_angle_alpha 123.055521
_cell_angle_beta 104.045273
_cell_angle_gamma 52.805606
_cell_volume 537.136389
_symmetry_space_group_name_H-M "P -1"
_symmetry_group_IT_number 2
_symmetry_cell_setting 'triclinic'
loop_
_space_group_symop_operation_xyz
x,y,z
-x,-y,-z
loop_
_atom_site_type_symbol
_atom_site_label
_atom_site_fract_x
_atom_site_fract_y
_atom_site_fract_z
Si Si1 0.414889 0.854146 0.299783
Si Si2 0.607319 0.868020 0.660336
Si Si3 0.776647 0.143075 0.221949
Si Si4 0.870809 0.587132 0.697459
Si Si5 0.427765 0.617086 0.357429
Si Si6 0.918128 0.825915 0.268176
Si Si7 0.932050 0.248971 0.238926
O O1 0.555694 0.789315 0.321745
O O2 0.419230 0.780557 0.504076
O O3 0.366137 0.032362 0.397753
O O4 0.329887 0.823625 0.016194
O O5 0.737339 0.725192 0.673935
O O6 0.500000 0.000000 0.000000
O O7 0.711322 0.304560 0.592295
O O8 0.868219 0.162650 0.144950
O O9 0.826010 0.991131 0.258039
O O10 0.868273 0.433227 0.551349
O O11 0.000000 0.500000 0.500000
O O12 0.886964 0.695198 0.071603
O O13 0.500000 0.500000 0.500000
O O14 0.500000 0.500000 0.000000
O O15 0.942704 0.848293 0.628708
O O16 0.036841 0.757476 0.070321
#
# Coordination Sequence:
#
# PCOD9050061 Si02
#       7
#     2   2   2   2   2   2   2
#     4  11  26  47  76 111 157 205 261 325 397 476
#     4  11  25  48  78 117 151 211 263 325 389 481
#     4  12  26  46  77 109 151 206 258 324 396 475
#     4  10  24  48  74 109 154 200 258 323 393 457
#     4  12  28  46  71 107 153 200 252 318 399 461
#     4  11  25  48  74 107 150 202 263 313 387 478
#     4  11  27  45  73 113 149 199 254 328 388 460
#
# _framework density 26.064143000000001
#
# number of rings (size 3 to 8) (size 9 to 14) (size 15 to 20)
#    0.000    0.857    2.857    2.143    6.000    0.000 
#   15.429    0.000    0.000    0.000    0.000    0.000 
#    0.000    0.000    0.000    0.000    0.000    0.000 
#
# Total GULP energy -77950.000359 kJ/mol
# GULP energy per Si atom -5567.857169 kJ/mol
# Density = 2.600482 g / cm^3
# Si number density = 26.064143 Si / 1000 Ang^3
#
#
#
# Elastic Constant Matrix: (Units=GPa)
#
#
# Indices 1 2 3 4 5 6 
#
# 1 86.6597 62.4609 47.3295 17.4866 20.5455 -10.6058
# 2 62.4609 191.9427 47.8347 -0.5896 1.5583 14.9456
# 3 47.3295 47.8347 82.4184 -7.0664 6.0339 -5.7087
# 4 17.4866 -0.5896 -7.0664 46.1917 0.3639 2.8330
# 5 20.5455 1.5583 6.0339 0.3639 47.6210 -8.3051
# 6 -10.6058 14.9456 -5.7087 2.8330 -8.3051 50.4977
#
#
#
# Elastic Compliance Matrix: (Units=1/GPa)
#
#
# Indices 1 2 3 4 5 6 
#
# 1 0.029004 -0.006653 -0.012835 -0.013308 -0.009559 0.005784
# 2 -0.006653 0.007881 -0.000928 0.002685 0.002074 -0.003644
# 3 -0.012835 -0.000928 0.020508 0.007966 0.002896 -0.000073
# 4 -0.013308 0.002685 0.007966 0.028133 0.003794 -0.003643
# 5 -0.009559 0.002074 0.002896 0.003794 0.024938 0.001594
# 6 0.005784 -0.003644 -0.000073 -0.003643 0.001594 0.022555
#
#
# Mechanical properties :
#
#
# Convention : Reuss Voigt Hill
#
# Bulk Modulus (GPa) = 60.37962 75.14124 67.76043
# Shear Modulus (GPa) = 27.87504 42.42177 35.14840
#
# Velocity S-wave (km/s) = 3.27384 4.03872 3.67622
# Velocity P-wave (km/s) = 6.12427 7.11620 6.63879
#
# Compressibility (1/GPa) = 0.01656188
#
# Stress axis : x y z
#
# Youngs Moduli (GPa) = 34.47757 126.88180 48.76132
#
# Poissons Ratio (x) = 0.84420 0.62585
# Poissons Ratio (y) = 0.22940 0.04523
# Poissons Ratio (z) = 0.44252 0.11769
#
# Static dielectric constant tensor:
#      x y z
#    x 2.085140 -0.070650 -0.115140 
#    y -0.070650 2.177070 0.050420 
#    z -0.115140 0.050420 2.268400 
# 
# From -- ./inp_files/94131.got.cif
#   From: 2010.05.17/outbox.cif.g08.bks.cpg/sg2_48_cif.got.tgz:94131.got - 2010.06.03 11:33:40.
