data_PCOD9050189
_publ_section_title
;
Structure prediction by ZEFSAII (Michael W. Deem and Ramdas Pophale) SiO2 
 PCOD9050189
Probable space group: P -1
;
_chemical_formula_sum "Si O2"
_cell_formula_units_Z 14
_cell_length_a 23.785685
_cell_length_b 7.038808
_cell_length_c 14.983183
_cell_angle_alpha 77.101493
_cell_angle_beta 17.178581
_cell_angle_gamma 68.768007
_cell_volume 618.139959
_symmetry_space_group_name_H-M "P -1"
_symmetry_group_IT_number 2
_symmetry_cell_setting 'triclinic'
loop_
_space_group_symop_operation_xyz
x,y,z
-x,-y,-z
loop_
_atom_site_type_symbol
_atom_site_label
_atom_site_fract_x
_atom_site_fract_y
_atom_site_fract_z
Si Si1 0.872755 0.805994 0.461040
Si Si2 0.662362 0.608295 0.566460
Si Si3 0.151471 0.897801 0.366460
Si Si4 0.678712 0.888592 0.355417
Si Si5 0.093773 0.901468 0.770412
Si Si6 0.281117 0.484053 0.316973
Si Si7 0.642674 0.625784 0.267425
O O1 0.690108 0.732149 0.755288
O O2 0.880293 0.928021 0.526178
O O3 0.830463 0.962219 0.421820
O O4 0.110049 0.572205 0.112662
O O5 0.727022 0.741883 0.386832
O O6 0.718989 0.362181 0.472342
O O7 0.788115 0.548944 0.476423
O O8 0.403318 0.769529 0.962534
O O9 0.118502 0.709088 0.486026
O O10 0.000000 0.000000 0.500000
O O11 0.642654 0.744691 0.348930
O O12 0.473630 0.149654 0.642978
O O13 0.891976 0.913506 0.018031
O O14 0.000000 0.000000 0.000000
O O15 0.500000 0.500000 0.000000
O O16 0.500000 0.500000 0.500000
#
# Coordination Sequence:
#
# PCOD9050189 Si02
#       7
#     2   2   2   2   2   2   2
#     4  12  25  45  77 104 148 190 245 295 364 437
#     4  11  24  46  72 101 149 188 240 296 363 425
#     4  11  28  47  71 104 146 195 240 300 361 425
#     4  11  25  44  71 107 150 186 240 301 362 427
#     4  12  24  43  75 111 142 191 239 297 367 433
#     4  10  24  49  70 102 140 187 243 299 356 422
#     4  11  25  44  72 107 147 195 239 297 366 428
#
# _framework density 22.648589999999999
#
# number of rings (size 3 to 8) (size 9 to 14) (size 15 to 20)
#    0.000    0.857    2.857    3.000    4.000    2.857 
#    5.143    0.000    0.000    0.000    0.000    0.000 
#    0.000    0.000    0.000    0.000    0.000    0.000 
#
# Total GULP energy -78278.080058 kJ/mol
# GULP energy per Si atom -5591.291433 kJ/mol
# Density = 2.259704 g / cm^3
# Si number density = 22.648590 Si / 1000 Ang^3
#
#
#
# Elastic Constant Matrix: (Units=GPa)
#
#
# Indices 1 2 3 4 5 6 
#
# 1 138.3993 82.8325 16.5583 5.7993 7.4228 -8.1524
# 2 82.8325 199.8530 50.7867 8.6586 2.8196 0.1860
# 3 16.5583 50.7867 94.8178 27.1864 -0.2217 6.4765
# 4 5.7993 8.6586 27.1864 46.6912 6.1524 -6.2007
# 5 7.4228 2.8196 -0.2217 6.1524 28.2571 6.8139
# 6 -8.1524 0.1860 6.4765 -6.2007 6.8139 51.8015
#
#
#
# Elastic Compliance Matrix: (Units=1/GPa)
#
#
# Indices 1 2 3 4 5 6 
#
# 1 0.009933 -0.004179 0.000399 -0.000099 -0.002616 0.001861
# 2 -0.004179 0.007622 -0.003704 0.001244 0.000057 -0.000080
# 3 0.000399 -0.003704 0.015320 -0.009148 0.003185 -0.003353
# 4 -0.000099 0.001244 -0.009148 0.028266 -0.007654 0.005514
# 5 -0.002616 0.000057 0.003185 -0.007654 0.039429 -0.006913
# 6 0.001861 -0.000080 -0.003353 0.005514 -0.006913 0.021586
#
#
# Mechanical properties :
#
#
# Convention : Reuss Voigt Hill
#
# Bulk Modulus (GPa) = 55.84192 81.49166 68.66679
# Shear Modulus (GPa) = 34.94204 44.20948 39.57576
#
# Velocity S-wave (km/s) = 3.93210 4.42291 4.18471
# Velocity P-wave (km/s) = 6.73235 7.88301 7.33029
#
# Compressibility (1/GPa) = 0.01790769
#
# Stress axis : x y z
#
# Youngs Moduli (GPa) = 100.67673 131.19499 65.27278
#
# Poissons Ratio (x) = 0.54822 -0.02603
# Poissons Ratio (y) = 0.42070 0.24177
# Poissons Ratio (z) = -0.04016 0.48595
#
# Static dielectric constant tensor:
#      x y z
#    x 1.816730 -0.005890 0.030750 
#    y -0.005890 1.883110 0.011060 
#    z 0.030750 0.011060 1.831410 
# 
# From -- ./inp_files/68212.got.cif
#   From: 2010.05.17/outbox.cif.g08.bks.cpg/sg2_35_cif.got.tgz:68212.got - 2010.06.03 11:33:40.
