data_PCOD9050686
_publ_section_title
;
Structure prediction by ZEFSAII (Michael W. Deem and Ramdas Pophale) SiO2 
 PCOD9050686
Probable space group: P -1
;
_chemical_formula_sum "Si O2"
_cell_formula_units_Z 16
_cell_length_a 5.348986
_cell_length_b 18.529448
_cell_length_c 18.505103
_cell_angle_alpha 156.908323
_cell_angle_beta 73.368057
_cell_angle_gamma 97.358509
_cell_volume 643.088862
_symmetry_space_group_name_H-M "P -1"
_symmetry_group_IT_number 2
_symmetry_cell_setting 'triclinic'
loop_
_space_group_symop_operation_xyz
x,y,z
-x,-y,-z
loop_
_atom_site_type_symbol
_atom_site_label
_atom_site_fract_x
_atom_site_fract_y
_atom_site_fract_z
Si Si1 0.011916 0.508211 0.420868
Si Si2 0.684013 0.034876 0.581282
Si Si3 0.529734 0.192853 0.059919
Si Si4 0.247463 0.796740 0.805429
Si Si5 0.614355 0.648042 0.995444
Si Si6 0.890824 0.766955 0.452094
Si Si7 0.439963 0.205818 0.357865
Si Si8 0.071165 0.846292 0.125460
O O1 0.304297 0.407962 0.265238
O O2 0.000000 0.500000 0.500000
O O3 0.845766 0.358731 0.285780
O O4 0.847899 0.717535 0.593709
O O5 0.500000 0.000000 0.500000
O O6 0.723651 0.873907 0.493399
O O7 0.535566 0.256761 0.829187
O O8 0.000000 0.000000 0.500000
O O9 0.538732 0.169328 0.123747
O O10 0.825017 0.159471 0.969851
O O11 0.440264 0.028819 0.876210
O O12 0.368193 0.724218 0.648523
O O13 0.000000 0.000000 0.000000
O O14 0.836810 0.425134 0.765376
O O15 0.348755 0.703422 0.014118
O O16 0.812361 0.776028 0.084867
O O17 0.672056 0.728811 0.492269
O O18 0.983701 0.937279 0.638049
#
# Coordination Sequence:
#
# PCOD9050686 Si02
#       8
#     2   2   2   2   2   2   2   2
#     4  12  24  39  62  91 130 175 240 296 352 413
#     4  11  25  48  78 112 148 184 235 291 357 442
#     4  11  24  42  62  89 134 181 235 295 356 400
#     4  12  24  39  65  90 129 184 234 296 353 405
#     4  11  24  47  75 111 149 189 237 287 365 428
#     4  10  25  45  75 107 146 193 240 297 365 438
#     4  11  23  44  63  95 133 179 237 290 353 423
#     4  10  25  43  71 105 151 193 242 302 351 432
#
# _framework density 24.879921
#
# number of rings (size 3 to 8) (size 9 to 14) (size 15 to 20)
#    0.000    1.000    2.500    3.750    3.500    5.000 
#    0.000    2.500    0.000    0.000    0.000    0.000 
#    0.000    0.000    0.000    0.000    0.000    0.000 
#
# Total GULP energy -89414.614495 kJ/mol
# GULP energy per Si atom -5588.413406 kJ/mol
# Density = 2.482329 g / cm^3
# Si number density = 24.879921 Si / 1000 Ang^3
#
#
#
# Elastic Constant Matrix: (Units=GPa)
#
#
# Indices 1 2 3 4 5 6 
#
# 1 94.8278 38.9098 30.2694 -10.9431 -13.9161 -0.5533
# 2 38.9098 112.6966 36.7091 -32.5885 -9.8468 -12.7326
# 3 30.2694 36.7091 187.7230 -20.3573 -37.9328 -13.3016
# 4 -10.9431 -32.5885 -20.3573 36.2183 -1.4279 -6.5435
# 5 -13.9161 -9.8468 -37.9328 -1.4279 40.2598 -5.4185
# 6 -0.5533 -12.7326 -13.3016 -6.5435 -5.4185 43.7434
#
#
#
# Elastic Compliance Matrix: (Units=1/GPa)
#
#
# Indices 1 2 3 4 5 6 
#
# 1 0.012844 -0.004209 -0.000900 -0.000520 0.002394 -0.001118
# 2 -0.004209 0.015574 0.000651 0.014625 0.004486 0.007421
# 3 -0.000900 0.000651 0.007953 0.005917 0.008156 0.004492
# 4 -0.000520 0.014625 0.005917 0.047084 0.012615 0.014656
# 5 0.002394 0.004486 0.008156 0.012615 0.036267 0.010196
# 6 -0.001118 0.007421 0.004492 0.014656 0.010196 0.029828
#
#
# Mechanical properties :
#
#
# Convention : Reuss Voigt Hill
#
# Bulk Modulus (GPa) = 36.42133 67.44712 51.93422
# Shear Modulus (GPa) = 29.82984 43.33489 36.58237
#
# Velocity S-wave (km/s) = 3.46635 4.17797 3.83868
# Velocity P-wave (km/s) = 5.53998 7.10224 6.36919
#
# Compressibility (1/GPa) = 0.02745644
#
# Stress axis : x y z
#
# Youngs Moduli (GPa) = 77.85445 64.20963 125.74299
#
# Poissons Ratio (x) = 0.27026 0.11316
# Poissons Ratio (y) = 0.32769 -0.08192
# Poissons Ratio (z) = 0.07006 -0.04183
#
# Static dielectric constant tensor:
#      x y z
#    x 2.113190 -0.228100 0.225280 
#    y -0.228100 0.965610 0.421560 
#    z 0.225280 0.421560 1.864630 
# 
# From -- ./inp_files/584315.got.cif
#   From: 2010.05.17/outbox.cif.g08.bks.cpg/sg2_293_cif.got.tgz:584315.got - 2010.06.03 11:33:40.
