data_PCOD9050652
_publ_section_title
;
Structure prediction by ZEFSAII (Michael W. Deem and Ramdas Pophale) SiO2 
 PCOD9050652
Probable space group: P -1
;
_chemical_formula_sum "Si O2"
_cell_formula_units_Z 12
_cell_length_a 13.358349
_cell_length_b 13.779632
_cell_length_c 4.716118
_cell_angle_alpha 60.503517
_cell_angle_beta 81.517074
_cell_angle_gamma 40.363379
_cell_volume 447.665371
_symmetry_space_group_name_H-M "P -1"
_symmetry_group_IT_number 2
_symmetry_cell_setting 'triclinic'
loop_
_space_group_symop_operation_xyz
x,y,z
-x,-y,-z
loop_
_atom_site_type_symbol
_atom_site_label
_atom_site_fract_x
_atom_site_fract_y
_atom_site_fract_z
Si Si1 0.135183 0.809614 0.044242
Si Si2 0.755720 0.768426 0.273286
Si Si3 0.651855 0.312683 0.379511
Si Si4 0.010660 0.276376 0.059863
Si Si5 0.284141 0.347106 0.041769
Si Si6 0.623907 0.093789 0.574777
O O1 0.295716 0.665979 0.395168
O O2 0.063151 0.754501 0.063761
O O3 0.194166 0.815423 0.723040
O O4 0.000000 0.000000 0.000000
O O5 0.746594 0.741255 0.641240
O O6 0.928095 0.673582 0.229033
O O7 0.722674 0.684640 0.232160
O O8 0.627220 0.979566 0.929927
O O9 0.618675 0.211586 0.588837
O O10 0.500000 0.500000 0.000000
O O11 0.867136 0.439700 0.103064
O O12 0.189318 0.076284 0.403770
O O13 0.465276 0.231470 0.234246
#
# Coordination Sequence:
#
# PCOD9050652 Si02
#       6
#     2   2   2   2   2   2
#     4  12  25  48  72 103 142 185 235 293 355 420
#     4  10  25  43  69  97 141 178 230 283 345 409
#     4  12  27  48  73 106 143 184 238 296 353 424
#     4  10  25  43  72 101 136 184 231 282 350 416
#     4  12  23  47  64 103 138 179 228 290 338 413
#     4  10  25  44  70 103 133 187 229 283 351 416
#
# _framework density 26.805738000000002
#
# number of rings (size 3 to 8) (size 9 to 14) (size 15 to 20)
#    1.000    0.000    1.667    4.000    0.000    8.000 
#    0.000    0.000    0.000    0.000    0.000    0.000 
#    0.000    0.000    0.000    0.000    0.000    0.000 
#
# Total GULP energy -67336.035421 kJ/mol
# GULP energy per Si atom -5611.336285 kJ/mol
# Density = 2.674473 g / cm^3
# Si number density = 26.805738 Si / 1000 Ang^3
#
#
#
# Elastic Constant Matrix: (Units=GPa)
#
#
# Indices 1 2 3 4 5 6 
#
# 1 171.5707 60.0180 32.8954 -10.2157 28.1772 18.6669
# 2 60.0180 147.1305 35.3833 -19.2771 15.3113 2.6261
# 3 32.8954 35.3833 82.6170 -0.4006 18.4592 -8.7738
# 4 -10.2157 -19.2771 -0.4006 52.8749 -6.8945 6.0487
# 5 28.1772 15.3113 18.4592 -6.8945 48.7720 -5.8201
# 6 18.6669 2.6261 -8.7738 6.0487 -5.8201 45.7294
#
#
#
# Elastic Compliance Matrix: (Units=1/GPa)
#
#
# Indices 1 2 3 4 5 6 
#
# 1 0.008069 -0.002307 -0.001843 0.000696 -0.003627 -0.004068
# 2 -0.002307 0.008809 -0.002892 0.002800 -0.000001 -0.000490
# 3 -0.001843 -0.002892 0.015279 -0.002195 -0.003682 0.003672
# 4 0.000696 0.002800 -0.002195 0.020704 0.002078 -0.003340
# 5 -0.003627 -0.000001 -0.003682 0.002078 0.024721 0.003646
# 6 -0.004068 -0.000490 0.003672 -0.003340 0.003646 0.025167
#
#
# Mechanical properties :
#
#
# Convention : Reuss Voigt Hill
#
# Bulk Modulus (GPa) = 55.33592 73.10130 64.21861
# Shear Modulus (GPa) = 40.69763 47.67668 44.18716
#
# Velocity S-wave (km/s) = 3.90069 4.22192 4.06448
# Velocity P-wave (km/s) = 6.40120 7.14815 6.78496
#
# Compressibility (1/GPa) = 0.01807144
#
# Stress axis : x y z
#
# Youngs Moduli (GPa) = 123.93754 113.52079 65.45095
#
# Poissons Ratio (x) = 0.26188 0.12063
# Poissons Ratio (y) = 0.28591 0.18932
# Poissons Ratio (z) = 0.22842 0.32836
#
# Static dielectric constant tensor:
#      x y z
#    x 2.086360 -0.067780 0.034160 
#    y -0.067780 2.077770 -0.076350 
#    z 0.034160 -0.076350 2.064960 
# 
# From -- ./inp_files/61687.got.cif
#   From: 2010.05.17/outbox.cif.g08.bks.cpg/sg2_31_cif.got.tgz:61687.got - 2010.06.03 11:33:40.
