data_PCOD9050140
_publ_section_title
;
Structure prediction by ZEFSAII (Michael W. Deem and Ramdas Pophale) SiO2 
 PCOD9050140
Probable space group: P -1
;
_chemical_formula_sum "Si O2"
_cell_formula_units_Z 14
_cell_length_a 22.300227
_cell_length_b 9.462995
_cell_length_c 5.111239
_cell_angle_alpha 75.628141
_cell_angle_beta 85.662121
_cell_angle_gamma 144.869671
_cell_volume 520.744499
_symmetry_space_group_name_H-M "P -1"
_symmetry_group_IT_number 2
_symmetry_cell_setting 'triclinic'
loop_
_space_group_symop_operation_xyz
x,y,z
-x,-y,-z
loop_
_atom_site_type_symbol
_atom_site_label
_atom_site_fract_x
_atom_site_fract_y
_atom_site_fract_z
Si Si1 0.115411 0.301791 0.476989
Si Si2 0.064310 0.506921 0.631026
Si Si3 0.156201 0.110716 0.856040
Si Si4 0.670010 0.883602 0.767696
Si Si5 0.377987 0.398098 0.563983
Si Si6 0.684699 0.425335 0.028207
Si Si7 0.549150 0.921703 0.657032
O O1 0.093562 0.423442 0.491304
O O2 0.123990 0.208961 0.759074
O O3 0.240803 0.532759 0.183402
O O4 0.000000 0.000000 0.500000
O O5 0.000000 0.500000 0.500000
O O6 0.194921 0.832995 0.524913
O O7 0.962202 0.233778 0.985817
O O8 0.267779 0.275399 0.592354
O O9 0.215342 0.246816 0.062559
O O10 0.594025 0.634988 0.689368
O O11 0.624821 0.954154 0.750608
O O12 0.666116 0.801236 0.091839
O O13 0.485116 0.713480 0.519166
O O14 0.562216 0.247599 0.061900
O O15 0.633233 0.227499 0.385791
#
# Coordination Sequence:
#
# PCOD9050140 Si02
#       7
#     2   2   2   2   2   2   2
#     4  12  27  45  83 107 154 208 259 330 392 478
#     4  12  27  48  75 118 159 203 263 326 402 473
#     4  11  25  48  72 112 157 204 260 330 396 472
#     4  12  27  49  76 116 160 212 261 329 401 471
#     4  11  27  48  78 111 159 209 266 328 397 466
#     4  10  24  50  74 111 149 203 271 324 395 464
#     4  10  24  48  78 108 157 206 268 330 387 471
#
# _framework density 26.884585000000001
#
# number of rings (size 3 to 8) (size 9 to 14) (size 15 to 20)
#    0.000    0.857    2.857    2.143   10.000    0.571 
#    5.143    2.857    0.000    0.000    0.000    0.000 
#    0.000    0.000    0.000    0.000    0.000    0.000 
#
# Total GULP energy -78483.899983 kJ/mol
# GULP energy per Si atom -5605.992856 kJ/mol
# Density = 2.682339 g / cm^3
# Si number density = 26.884585 Si / 1000 Ang^3
#
#
#
# Elastic Constant Matrix: (Units=GPa)
#
#
# Indices 1 2 3 4 5 6 
#
# 1 216.7014 17.6920 31.4453 0.7836 -3.2362 7.7894
# 2 17.6920 115.0696 14.9967 -11.1657 8.0890 12.3393
# 3 31.4453 14.9967 96.9073 -9.0282 -5.0355 13.2219
# 4 0.7836 -11.1657 -9.0282 49.6276 2.9510 -10.2593
# 5 -3.2362 8.0890 -5.0355 2.9510 43.9710 -9.3010
# 6 7.7894 12.3393 13.2219 -10.2593 -9.3010 50.3334
#
#
#
# Elastic Compliance Matrix: (Units=1/GPa)
#
#
# Indices 1 2 3 4 5 6 
#
# 1 0.004897 -0.000602 -0.001495 -0.000559 0.000278 -0.000280
# 2 -0.000602 0.009466 -0.000956 0.001680 -0.002449 -0.002087
# 3 -0.001495 -0.000956 0.011412 0.001402 0.000836 -0.002092
# 4 -0.000559 0.001680 0.001402 0.021577 -0.000889 0.003540
# 5 0.000278 -0.002449 0.000836 -0.000889 0.024354 0.004657
# 6 -0.000280 -0.002087 -0.002092 0.003540 0.004657 0.022554
#
#
# Mechanical properties :
#
#
# Convention : Reuss Voigt Hill
#
# Bulk Modulus (GPa) = 50.84034 61.88289 56.36162
# Shear Modulus (GPa) = 46.76318 53.08936 49.92627
#
# Velocity S-wave (km/s) = 4.17514 4.44860 4.31404
# Velocity P-wave (km/s) = 6.49570 7.03240 6.76937
#
# Compressibility (1/GPa) = 0.01966942
#
# Stress axis : x y z
#
# Youngs Moduli (GPa) = 204.20638 105.63649 87.62907
#
# Poissons Ratio (x) = 0.06357 0.13103
# Poissons Ratio (y) = 0.12289 0.08375
# Poissons Ratio (z) = 0.30535 0.10096
#
# Static dielectric constant tensor:
#      x y z
#    x 2.085750 0.009420 0.017430 
#    y 0.009420 2.087110 0.009190 
#    z 0.017430 0.009190 2.176320 
# 
# From -- ./inp_files/116837.got.cif
#   From: 2010.05.17/outbox.cif.g08.bks.cpg/sg2_59_cif.got.tgz:116837.got - 2010.06.03 11:33:40.
