data_PCOD9050769
_publ_section_title
;
Structure prediction by ZEFSAII (Michael W. Deem and Ramdas Pophale) SiO2 
 PCOD9050769
Probable space group: P -1
;
_chemical_formula_sum "Si O2"
_cell_formula_units_Z 16
_cell_length_a 24.569017
_cell_length_b 8.477330
_cell_length_c 13.645563
_cell_angle_alpha 56.450420
_cell_angle_beta 156.661755
_cell_angle_gamma 135.441894
_cell_volume 735.335873
_symmetry_space_group_name_H-M "P -1"
_symmetry_group_IT_number 2
_symmetry_cell_setting 'triclinic'
loop_
_space_group_symop_operation_xyz
x,y,z
-x,-y,-z
loop_
_atom_site_type_symbol
_atom_site_label
_atom_site_fract_x
_atom_site_fract_y
_atom_site_fract_z
Si Si1 0.761434 0.262804 0.388235
Si Si2 0.921832 0.695803 0.820537
Si Si3 0.989139 0.029936 0.314260
Si Si4 0.278187 0.345678 0.846070
Si Si5 0.935338 0.589762 0.278660
Si Si6 0.255089 0.798076 0.395785
Si Si7 0.470975 0.661721 0.331249
Si Si8 0.627908 0.741030 0.346445
O O1 0.734557 0.438761 0.228788
O O2 0.710949 0.249643 0.422350
O O3 0.964827 0.388148 0.662066
O O4 0.660650 0.986126 0.282351
O O5 0.795629 0.409822 0.691436
O O6 0.806643 0.775982 0.632625
O O7 0.011964 0.810845 0.824064
O O8 0.081689 0.780559 0.125437
O O9 0.817214 0.856512 0.157136
O O10 0.004103 0.848916 0.341922
O O11 0.158530 0.202899 0.603278
O O12 0.486608 0.503357 0.129876
O O13 0.000000 0.500000 0.500000
O O14 0.729454 0.442138 0.972711
O O15 0.412963 0.065167 0.531797
O O16 0.500000 0.500000 0.500000
O O17 0.545938 0.682310 0.339659
#
# Coordination Sequence:
#
# PCOD9050769 Si02
#       8
#     2   2   2   2   2   2   2   2
#     4  11  22  41  65  95 127 166 211 262 323 380
#     4  11  23  45  64  94 126 171 214 261 324 381
#     4  11  22  41  63  90 131 173 208 262 320 382
#     4  11  23  41  62  97 129 172 207 265 321 380
#     4  12  23  41  66  98 130 170 216 268 323 380
#     4  10  25  44  66  91 130 166 211 270 319 381
#     4  11  25  44  67  94 130 170 219 266 319 385
#     4  11  24  39  67  96 127 164 217 263 317 384
#
# _framework density 21.758763999999999
#
# number of rings (size 3 to 8) (size 9 to 14) (size 15 to 20)
#    0.000    1.000    5.000    1.125    1.750    3.500 
#    0.000    0.625    0.000    0.000    0.000    0.000 
#    0.000    0.000    0.000    0.000    0.000    0.000 
#
# Total GULP energy -89362.729518 kJ/mol
# GULP energy per Si atom -5585.170595 kJ/mol
# Density = 2.170924 g / cm^3
# Si number density = 21.758764 Si / 1000 Ang^3
#
#
#
# Elastic Constant Matrix: (Units=GPa)
#
#
# Indices 1 2 3 4 5 6 
#
# 1 30.8437 10.0049 10.0915 3.4283 5.0012 15.9121
# 2 10.0049 134.1206 48.4808 14.1175 -3.7166 11.4885
# 3 10.0915 48.4808 101.7241 5.6686 9.5711 3.9369
# 4 3.4283 14.1175 5.6686 30.8928 -1.8263 -2.9985
# 5 5.0012 -3.7166 9.5711 -1.8263 27.1745 -3.2359
# 6 15.9121 11.4885 3.9369 -2.9985 -3.2359 32.7651
#
#
#
# Elastic Compliance Matrix: (Units=1/GPa)
#
#
# Indices 1 2 3 4 5 6 
#
# 1 0.049180 -0.000141 -0.002255 -0.008154 -0.011858 -0.025480
# 2 -0.000141 0.009836 -0.004572 -0.003785 0.002377 -0.002942
# 3 -0.002255 -0.004572 0.012648 -0.000184 -0.004593 0.000708
# 4 -0.008154 -0.003785 -0.000184 0.036188 0.004560 0.009071
# 5 -0.011858 0.002377 -0.004593 0.004560 0.042432 0.010085
# 6 -0.025480 -0.002942 0.000708 0.009071 0.010085 0.045667
#
#
# Mechanical properties :
#
#
# Convention : Reuss Voigt Hill
#
# Bulk Modulus (GPa) = 17.32326 44.87142 31.09734
# Shear Modulus (GPa) = 21.82159 31.37390 26.59775
#
# Velocity S-wave (km/s) = 3.17028 3.80135 3.50007
# Velocity P-wave (km/s) = 4.62381 6.31934 5.53686
#
# Compressibility (1/GPa) = 0.05772586
#
# Stress axis : x y z
#
# Youngs Moduli (GPa) = 20.33365 101.67127 79.06129
#
# Poissons Ratio (x) = 0.01435 0.17831
# Poissons Ratio (y) = 0.00287 0.36150
# Poissons Ratio (z) = 0.04586 0.46488
#
# Static dielectric constant tensor:
#      x y z
#    x 1.805310 0.027080 -0.008440 
#    y 0.027080 1.835360 -0.000690 
#    z -0.008440 -0.000690 1.823120 
# 
# From -- ./inp_files/206425.got.cif
#   From: 2010.05.17/outbox.cif.g08.bks.cpg/sg2_104_cif.got.tgz:206425.got - 2010.06.03 11:33:40.
