data_PCOD9050658
_publ_section_title
;
Structure prediction by ZEFSAII (Michael W. Deem and Ramdas Pophale) SiO2 
 PCOD9050658
Probable space group: P -1
;
_chemical_formula_sum "Si O2"
_cell_formula_units_Z 16
_cell_length_a 15.016630
_cell_length_b 11.604129
_cell_length_c 7.415822
_cell_angle_alpha 79.439345
_cell_angle_beta 122.871036
_cell_angle_gamma 137.877460
_cell_volume 670.544226
_symmetry_space_group_name_H-M "P -1"
_symmetry_group_IT_number 2
_symmetry_cell_setting 'triclinic'
loop_
_space_group_symop_operation_xyz
x,y,z
-x,-y,-z
loop_
_atom_site_type_symbol
_atom_site_label
_atom_site_fract_x
_atom_site_fract_y
_atom_site_fract_z
Si Si1 0.444013 0.618377 0.737880
Si Si2 0.401165 0.488878 0.120541
Si Si3 0.968396 0.842101 0.077975
Si Si4 0.872787 0.567740 0.742723
Si Si5 0.833086 0.300506 0.195747
Si Si6 0.383253 0.711875 0.173747
Si Si7 0.227942 0.896978 0.478265
Si Si8 0.375955 0.981686 0.265072
O O1 0.508480 0.555305 0.732558
O O2 0.249189 0.474864 0.523065
O O3 0.548177 0.822886 0.733023
O O4 0.467866 0.607556 0.977524
O O5 0.200849 0.298369 0.948917
O O6 0.419068 0.604775 0.254270
O O7 0.937121 0.725129 0.907321
O O8 0.121866 0.924882 0.343907
O O9 0.000000 0.000000 0.000000
O O10 0.743704 0.376848 0.772379
O O11 0.006904 0.601222 0.776516
O O12 0.852212 0.261263 0.423998
O O13 0.747769 0.356114 0.104236
O O14 0.681450 0.109569 0.967641
O O15 0.573384 0.922256 0.307785
O O16 0.225939 0.855347 0.280843
O O17 0.500000 0.000000 0.500000
#
# Coordination Sequence:
#
# PCOD9050658 Si02
#       8
#     2   2   2   2   2   2   2   2
#     4  11  23  46  67 100 139 181 235 288 346 423
#     4  10  25  43  69  99 137 184 233 285 353 412
#     4  11  25  44  68  99 142 181 240 286 350 416
#     4  11  24  43  68  97 140 182 228 288 352 405
#     4  12  25  44  69 106 143 178 238 284 345 416
#     4  11  24  44  69 100 137 185 230 280 348 418
#     4  12  24  43  69 104 135 185 232 287 347 404
#     4  12  24  43  72 101 140 186 232 287 345 408
#
# _framework density 23.861215000000001
#
# number of rings (size 3 to 8) (size 9 to 14) (size 15 to 20)
#    0.000    0.750    3.750    3.000    3.500    1.000 
#    0.000    4.375    0.000    0.000    0.000    0.000 
#    0.000    0.000    0.000    0.000    0.000    0.000 
#
# Total GULP energy -89298.292139 kJ/mol
# GULP energy per Si atom -5581.143259 kJ/mol
# Density = 2.380691 g / cm^3
# Si number density = 23.861215 Si / 1000 Ang^3
#
#
#
# Elastic Constant Matrix: (Units=GPa)
#
#
# Indices 1 2 3 4 5 6 
#
# 1 88.2503 36.7898 26.0525 -0.3671 28.4797 -5.6512
# 2 36.7898 98.9366 18.9625 -23.2378 -0.4906 0.4190
# 3 26.0525 18.9625 108.1759 -17.9841 27.9532 -4.9321
# 4 -0.3671 -23.2378 -17.9841 43.8802 2.0110 2.4184
# 5 28.4797 -0.4906 27.9532 2.0110 47.2985 -6.2183
# 6 -5.6512 0.4190 -4.9321 2.4184 -6.2183 36.2730
#
#
#
# Elastic Compliance Matrix: (Units=1/GPa)
#
#
# Indices 1 2 3 4 5 6 
#
# 1 0.018043 -0.007469 -0.001032 -0.003841 -0.009998 0.001299
# 2 -0.007469 0.014782 -0.000849 0.007265 0.004695 -0.001129
# 3 -0.001032 -0.000849 0.012209 0.004856 -0.006807 0.000018
# 4 -0.003841 0.007265 0.004856 0.028813 -0.002008 -0.002287
# 5 -0.009998 0.004695 -0.006807 -0.002008 0.031718 0.003034
# 6 0.001299 -0.001129 0.000018 -0.002287 0.003034 0.028459
#
#
# Mechanical properties :
#
#
# Convention : Reuss Voigt Hill
#
# Bulk Modulus (GPa) = 37.97460 50.99693 44.48577
# Shear Modulus (GPa) = 30.95933 39.72754 35.34344
#
# Velocity S-wave (km/s) = 3.60596 4.08480 3.85282
# Velocity P-wave (km/s) = 5.76945 6.60804 6.20293
#
# Compressibility (1/GPa) = 0.02633339
#
# Stress axis : x y z
#
# Youngs Moduli (GPa) = 55.42209 67.65018 81.90872
#
# Poissons Ratio (x) = 0.50527 0.08453
# Poissons Ratio (y) = 0.41394 0.06958
# Poissons Ratio (z) = 0.05720 0.05746
#
# Static dielectric constant tensor:
#      x y z
#    x 2.024540 -0.033340 -0.037300 
#    y -0.033340 1.935860 0.005220 
#    z -0.037300 0.005220 1.954880 
# 
# From -- ./inp_files/307171.got.cif
#   From: 2010.05.17/outbox.cif.g08.bks.cpg/sg2_154_cif.got.tgz:307171.got - 2010.06.03 11:33:40.
