data_PCOD9050202
_publ_section_title
;
Structure prediction by ZEFSAII (Michael W. Deem and Ramdas Pophale) SiO2 
 PCOD9050202
Probable space group: P -1
;
_chemical_formula_sum "Si O2"
_cell_formula_units_Z 14
_cell_length_a 23.252015
_cell_length_b 17.999645
_cell_length_c 5.103932
_cell_angle_alpha 57.939308
_cell_angle_beta 118.233584
_cell_angle_gamma 162.931668
_cell_volume 526.262105
_symmetry_space_group_name_H-M "P -1"
_symmetry_group_IT_number 2
_symmetry_cell_setting 'triclinic'
loop_
_space_group_symop_operation_xyz
x,y,z
-x,-y,-z
loop_
_atom_site_type_symbol
_atom_site_label
_atom_site_fract_x
_atom_site_fract_y
_atom_site_fract_z
Si Si1 0.115811 0.295611 0.293508
Si Si2 0.400559 0.510053 0.414514
Si Si3 0.682288 0.777598 0.092852
Si Si4 0.291298 0.695648 0.711316
Si Si5 0.983559 0.248983 0.481386
Si Si6 0.200161 0.750784 0.634069
Si Si7 0.722550 0.049208 0.057733
O O1 0.194604 0.301470 0.362664
O O2 0.105596 0.317194 0.531680
O O3 0.253642 0.548307 0.996612
O O4 0.881785 0.006315 0.263976
O O5 0.514977 0.616162 0.205296
O O6 0.392287 0.415878 0.763085
O O7 0.537013 0.764145 0.310688
O O8 0.791588 0.972753 0.743046
O O9 0.122416 0.485706 0.516187
O O10 0.257116 0.721919 0.818619
O O11 0.500000 0.000000 0.500000
O O12 0.892545 0.189968 0.156062
O O13 0.207977 0.796929 0.855024
O O14 0.000000 0.500000 0.500000
O O15 0.327080 0.970949 0.290872
#
# Coordination Sequence:
#
# PCOD9050202 Si02
#       7
#     2   2   2   2   2   2   2
#     4  11  24  47  70 107 145 190 243 312 367 443
#     4  11  24  46  77 104 146 191 249 301 373 447
#     4  10  24  49  71 107 143 195 241 306 374 446
#     4  11  26  43  67 101 146 195 243 303 366 444
#     4  11  24  44  71 101 152 186 246 309 371 435
#     4  12  25  43  70 100 141 195 246 292 368 434
#     4  12  25  45  70 110 140 196 248 302 363 446
#
# _framework density 26.602712
#
# number of rings (size 3 to 8) (size 9 to 14) (size 15 to 20)
#    0.000    0.857    2.857    3.429    4.000    1.714 
#    5.143    0.000    0.000    0.000    0.000    0.000 
#    0.000    0.000    0.000    0.000    0.000    0.000 
#
# Total GULP energy -78153.545592 kJ/mol
# GULP energy per Si atom -5582.396114 kJ/mol
# Density = 2.654216 g / cm^3
# Si number density = 26.602712 Si / 1000 Ang^3
#
#
#
# Elastic Constant Matrix: (Units=GPa)
#
#
# Indices 1 2 3 4 5 6 
#
# 1 186.6147 21.6519 43.2265 5.7735 7.3954 21.9103
# 2 21.6519 61.1724 17.2681 -29.7869 -2.3404 -7.7467
# 3 43.2265 17.2681 134.4129 -8.3579 1.6324 0.7146
# 4 5.7735 -29.7869 -8.3579 45.1597 0.8953 2.8448
# 5 7.3954 -2.3404 1.6324 0.8953 41.7118 -4.3496
# 6 21.9103 -7.7467 0.7146 2.8448 -4.3496 40.1297
#
#
#
# Elastic Compliance Matrix: (Units=1/GPa)
#
#
# Indices 1 2 3 4 5 6 
#
# 1 0.007054 -0.004521 -0.001884 -0.003906 -0.001828 -0.004612
# 2 -0.004521 0.028259 -0.001095 0.018524 0.002755 0.006928
# 3 -0.001884 -0.001095 0.008246 0.001007 -0.000009 0.000598
# 4 -0.003906 0.018524 0.001007 0.034810 0.001296 0.003363
# 5 -0.001828 0.002755 -0.000009 0.001296 0.024856 0.004132
# 6 -0.004612 0.006928 0.000598 0.003363 0.004132 0.028973
#
#
# Mechanical properties :
#
#
# Convention : Reuss Voigt Hill
#
# Bulk Modulus (GPa) = 35.01452 60.72142 47.86797
# Shear Modulus (GPa) = 31.90438 45.40382 38.65410
#
# Velocity S-wave (km/s) = 3.46683 4.13575 3.81598
# Velocity P-wave (km/s) = 5.40517 6.75875 6.11950
#
# Compressibility (1/GPa) = 0.02855958
#
# Stress axis : x y z
#
# Youngs Moduli (GPa) = 141.75745 35.38683 121.27260
#
# Poissons Ratio (x) = 0.15998 0.22847
# Poissons Ratio (y) = 0.64086 0.13280
# Poissons Ratio (z) = 0.26707 0.03875
#
# Static dielectric constant tensor:
#      x y z
#    x 2.149790 0.051930 0.002310 
#    y 0.051930 2.270450 -0.011660 
#    z 0.002310 -0.011660 2.195590 
# 
# From -- ./inp_files/124533.got.cif
#   From: 2010.05.17/outbox.cif.g08.bks.cpg/sg2_63_cif.got.tgz:124533.got - 2010.06.03 11:33:40.
