data_PCOD9050391
_publ_section_title
;
Structure prediction by ZEFSAII (Michael W. Deem and Ramdas Pophale) SiO2 
 PCOD9050391
Probable space group: P -1
;
_chemical_formula_sum "Si O2"
_cell_formula_units_Z 16
_cell_length_a 14.193729
_cell_length_b 18.929352
_cell_length_c 10.996195
_cell_angle_alpha 130.782705
_cell_angle_beta 150.543769
_cell_angle_gamma 27.948022
_cell_volume 588.402129
_symmetry_space_group_name_H-M "P -1"
_symmetry_group_IT_number 2
_symmetry_cell_setting 'triclinic'
loop_
_space_group_symop_operation_xyz
x,y,z
-x,-y,-z
loop_
_atom_site_type_symbol
_atom_site_label
_atom_site_fract_x
_atom_site_fract_y
_atom_site_fract_z
Si Si1 0.194358 0.148314 0.419383
Si Si2 0.809833 0.733269 0.981130
Si Si3 0.506710 0.053485 0.910042
Si Si4 0.615328 0.392230 0.847728
Si Si5 0.191590 0.865410 0.900058
Si Si6 0.718007 0.648503 0.448498
Si Si7 0.665795 0.536533 0.917805
Si Si8 0.203401 0.837171 0.383661
O O1 0.377259 0.128687 0.712765
O O2 0.028946 0.127081 0.277285
O O3 0.500000 0.000000 0.500000
O O4 0.876492 0.316979 0.165849
O O5 0.568070 0.738212 0.720699
O O6 0.208021 0.543870 0.165577
O O7 0.602010 0.904511 0.869678
O O8 0.794385 0.785677 0.155997
O O9 0.876399 0.957719 0.245367
O O10 0.388481 0.401896 0.658954
O O11 0.780930 0.271418 0.781212
O O12 0.463103 0.545275 0.784210
O O13 0.410331 0.815874 0.205218
O O14 0.452314 0.717395 0.919071
O O15 0.931080 0.044530 0.746431
O O16 0.000000 0.500000 0.500000
O O17 0.930528 0.625341 0.753695
#
# Coordination Sequence:
#
# PCOD9050391 Si02
#       8
#     2   2   2   2   2   2   2   2
#     4  11  21  40  63  98 132 167 210 269 323 383
#     4  11  23  43  72  88 131 172 224 263 318 385
#     4  11  24  42  65 101 124 170 221 271 317 379
#     4  11  23  36  67  97 129 169 219 255 324 391
#     4  10  25  39  61 100 139 163 212 271 325 380
#     4   9  21  39  59  92 135 172 206 261 319 384
#     4  11  22  45  63  95 133 177 210 263 326 388
#     4  12  22  42  65 100 128 163 218 272 315 379
#
# _framework density 27.19229
#
# number of rings (size 3 to 8) (size 9 to 14) (size 15 to 20)
#    0.000    1.250    5.000    0.375    1.750    7.500 
#    2.250    1.250    0.000    0.000    0.000    0.000 
#    0.000    0.000    0.000    0.000    0.000    0.000 
#
# Total GULP energy -89538.056115 kJ/mol
# GULP energy per Si atom -5596.128507 kJ/mol
# Density = 2.713040 g / cm^3
# Si number density = 27.192290 Si / 1000 Ang^3
#
#
#
# Elastic Constant Matrix: (Units=GPa)
#
#
# Indices 1 2 3 4 5 6 
#
# 1 101.1325 28.2832 19.8510 4.6269 11.8407 -27.0382
# 2 28.2832 115.6856 17.7416 17.9551 -4.8197 -22.1669
# 3 19.8510 17.7416 99.7262 2.0666 -0.3225 5.3826
# 4 4.6269 17.9551 2.0666 25.8027 -5.3101 6.5723
# 5 11.8407 -4.8197 -0.3225 -5.3101 32.3085 3.1718
# 6 -27.0382 -22.1669 5.3826 6.5723 3.1718 54.3245
#
#
#
# Elastic Compliance Matrix: (Units=1/GPa)
#
#
# Indices 1 2 3 4 5 6 
#
# 1 0.013837 -0.000956 -0.002924 -0.004970 -0.006824 0.007787
# 2 -0.000956 0.011693 -0.002002 -0.009233 0.000006 0.005611
# 3 -0.002924 -0.002002 0.011125 0.002317 0.001633 -0.003750
# 4 -0.004970 -0.009233 0.002317 0.051371 0.010214 -0.013282
# 5 -0.006824 0.000006 0.001633 0.010214 0.035824 -0.006883
# 6 0.007787 0.005611 -0.003750 -0.013282 -0.006883 0.026953
#
#
# Mechanical properties :
#
#
# Convention : Reuss Voigt Hill
#
# Bulk Modulus (GPa) = 40.17048 49.81066 44.99057
# Shear Modulus (GPa) = 29.26308 39.19835 34.23072
#
# Velocity S-wave (km/s) = 3.28404 3.80086 3.55186
# Velocity P-wave (km/s) = 5.40229 6.13349 5.77947
#
# Compressibility (1/GPa) = 0.02489390
#
# Stress axis : x y z
#
# Youngs Moduli (GPa) = 72.26868 85.52099 89.88626
#
# Poissons Ratio (x) = 0.08172 0.26280
# Poissons Ratio (y) = 0.06906 0.17991
# Poissons Ratio (z) = 0.21129 0.17117
#
# Static dielectric constant tensor:
#      x y z
#    x 2.170840 -0.064580 -0.012160 
#    y -0.064580 2.109400 -0.002170 
#    z -0.012160 -0.002170 2.188670 
# 
# From -- ./inp_files/457507.got.cif
#   From: 2010.05.17/outbox.cif.g08.bks.cpg/sg2_229_cif.got.tgz:457507.got - 2010.06.03 11:33:40.
