data_PCOD9050318
_publ_section_title
;
Structure prediction by ZEFSAII (Michael W. Deem and Ramdas Pophale) SiO2 
 PCOD9050318
Probable space group: P -1
;
_chemical_formula_sum "Si O2"
_cell_formula_units_Z 14
_cell_length_a 8.648048
_cell_length_b 11.099853
_cell_length_c 8.812291
_cell_angle_alpha 60.124145
_cell_angle_beta 108.566789
_cell_angle_gamma 71.127146
_cell_volume 563.180385
_symmetry_space_group_name_H-M "P -1"
_symmetry_group_IT_number 2
_symmetry_cell_setting 'triclinic'
loop_
_space_group_symop_operation_xyz
x,y,z
-x,-y,-z
loop_
_atom_site_type_symbol
_atom_site_label
_atom_site_fract_x
_atom_site_fract_y
_atom_site_fract_z
Si Si1 0.523985 0.403522 0.913388
Si Si2 0.386985 0.377505 0.370070
Si Si3 0.820665 0.483138 0.481616
Si Si4 0.782537 0.998370 0.316663
Si Si5 0.000000 0.500000 0.000000
Si Si6 0.500000 0.000000 0.000000
Si Si7 0.105945 0.215409 0.952174
Si Si8 0.177207 0.946964 0.375855
O O1 0.627572 0.454142 0.792903
O O2 0.303950 0.479955 0.731527
O O3 0.500000 0.500000 0.000000
O O4 0.654749 0.201835 0.109988
O O5 0.340750 0.381954 0.529978
O O6 0.228665 0.375255 0.218835
O O7 0.613044 0.223060 0.500124
O O8 0.000000 0.500000 0.500000
O O9 0.931069 0.303323 0.715438
O O10 0.782991 0.978288 0.509507
O O11 0.678307 0.934307 0.224707
O O12 0.011925 0.917879 0.394433
O O13 0.060557 0.367513 0.954659
O O14 0.323243 0.114809 0.003672
O O15 0.096049 0.081933 0.131729
#
# Coordination Sequence:
#
# PCOD9050318 Si02
#       8
#     2   2   2   2   1   1   2   2
#     4  12  26  49  79 111 155 207 263 318 391 480
#     4  11  25  46  79 112 155 203 266 321 394 468
#     4  11  27  49  76 110 152 206 263 325 386 471
#     4  11  26  50  75 115 155 205 264 323 400 469
#     4  10  24  50  76 108 154 206 264 312 392 478
#     4  12  28  46  78 118 162 198 258 342 392 458
#     4  11  27  50  78 113 159 208 263 328 398 468
#     4  11  26  50  80 110 154 211 262 325 395 480
#
# _framework density 24.858820000000001
#
# number of rings (size 3 to 8) (size 9 to 14) (size 15 to 20)
#    0.000    0.857    1.429    3.857   10.000    2.857 
#    5.143    0.000    0.000    0.000    0.000    0.000 
#    0.000    0.000    0.000    0.000    0.000    0.000 
#
# Total GULP energy -78003.082764 kJ/mol
# GULP energy per Si atom -5571.648769 kJ/mol
# Density = 2.480224 g / cm^3
# Si number density = 24.858820 Si / 1000 Ang^3
#
#
#
# Elastic Constant Matrix: (Units=GPa)
#
#
# Indices 1 2 3 4 5 6 
#
# 1 100.9852 38.4440 41.9636 5.5813 17.5800 -32.9753
# 2 38.4440 69.6310 22.6449 5.5996 5.1268 -26.0142
# 3 41.9636 22.6449 142.0864 4.0492 26.0500 4.5882
# 4 5.5813 5.5996 4.0492 48.0904 11.5728 19.6829
# 5 17.5800 5.1268 26.0500 11.5728 56.6978 -2.7168
# 6 -32.9753 -26.0142 4.5882 19.6829 -2.7168 43.7472
#
#
#
# Elastic Compliance Matrix: (Units=1/GPa)
#
#
# Indices 1 2 3 4 5 6 
#
# 1 0.019439 -0.001061 -0.005827 -0.009197 -0.000479 0.018742
# 2 -0.001061 0.024223 -0.004471 -0.011001 0.003360 0.019232
# 3 -0.005827 -0.004471 0.010454 0.005885 -0.004323 -0.011064
# 4 -0.009197 -0.011001 0.005885 0.037439 -0.008006 -0.031434
# 5 -0.000479 0.003360 -0.004323 -0.008006 0.021439 0.007024
# 6 0.018742 0.019232 -0.011064 -0.031434 0.007024 0.064161
#
#
# Mechanical properties :
#
#
# Convention : Reuss Voigt Hill
#
# Bulk Modulus (GPa) = 31.84855 57.64528 44.74692
# Shear Modulus (GPa) = 23.77107 43.68375 33.72741
#
# Velocity S-wave (km/s) = 3.09567 4.19653 3.68742
# Velocity P-wave (km/s) = 5.06134 6.83525 6.01406
#
# Compressibility (1/GPa) = 0.03139860
#
# Stress axis : x y z
#
# Youngs Moduli (GPa) = 51.44220 41.28229 95.65945
#
# Poissons Ratio (x) = 0.04379 0.55745
# Poissons Ratio (y) = 0.05457 0.42767
# Poissons Ratio (z) = 0.29978 0.18457
#
# Static dielectric constant tensor:
#      x y z
#    x 1.999220 0.026000 -0.030790 
#    y 0.026000 2.008420 -0.043330 
#    z -0.030790 -0.043330 1.955610 
# 
# From -- ./inp_files/185232.got.cif
#   From: 2010.05.17/outbox.cif.g08.bks.cpg/sg2_93_cif.got.tgz:185232.got - 2010.06.03 11:33:40.
