data_PCOD9050349
_publ_section_title
;
Structure prediction by ZEFSAII (Michael W. Deem and Ramdas Pophale) SiO2 
 PCOD9050349
Probable space group: P -1
;
_chemical_formula_sum "Si O2"
_cell_formula_units_Z 14
_cell_length_a 12.587090
_cell_length_b 5.369156
_cell_length_c 8.955732
_cell_angle_alpha 96.297710
_cell_angle_beta 77.230773
_cell_angle_gamma 100.036980
_cell_volume 579.645468
_symmetry_space_group_name_H-M "P -1"
_symmetry_group_IT_number 2
_symmetry_cell_setting 'triclinic'
loop_
_space_group_symop_operation_xyz
x,y,z
-x,-y,-z
loop_
_atom_site_type_symbol
_atom_site_label
_atom_site_fract_x
_atom_site_fract_y
_atom_site_fract_z
Si Si1 0.221290 0.669593 0.672445
Si Si2 0.415613 0.606523 0.419971
Si Si3 0.079434 0.323839 0.891751
Si Si4 0.120875 0.807164 0.248439
Si Si5 0.527154 0.775186 0.087247
Si Si6 0.183002 0.357918 0.389979
Si Si7 0.779564 0.974336 0.050758
O O1 0.340649 0.745781 0.565267
O O2 0.196024 0.465821 0.800055
O O3 0.151074 0.514887 0.554716
O O4 0.194155 0.908945 0.784934
O O5 0.500000 0.500000 0.500000
O O6 0.469804 0.757253 0.268749
O O7 0.317407 0.397648 0.367390
O O8 0.117457 0.171020 0.006950
O O9 0.001996 0.199306 0.775898
O O10 0.000000 0.500000 0.000000
O O11 0.142209 0.540599 0.291752
O O12 0.145646 0.058823 0.361474
O O13 0.206091 0.847004 0.085447
O O14 0.657545 0.830845 0.076439
O O15 0.500000 0.500000 0.000000
O O16 0.500000 0.000000 0.000000
#
# Coordination Sequence:
#
# PCOD9050349 Si02
#       7
#     2   2   2   2   2   2   2
#     4  10  27  47  76 112 153 198 260 314 389 461
#     4  10  24  51  78 111 161 203 259 322 400 464
#     4  12  26  47  80 109 153 209 263 315 390 466
#     4  12  25  48  76 106 157 200 250 324 387 452
#     4  12  29  50  84 116 159 209 262 326 404 464
#     4  10  27  47  73 111 156 191 256 320 389 455
#     4  12  27  47  79 112 154 199 273 308 386 483
#
# _framework density 24.152692999999999
#
# number of rings (size 3 to 8) (size 9 to 14) (size 15 to 20)
#    0.857    0.000    1.429    3.857    8.000    1.714 
#    2.571    0.000    0.000    0.000    0.000    0.000 
#    0.000    0.000    0.000    0.000    0.000    0.000 
#
# Total GULP energy -77987.243646 kJ/mol
# GULP energy per Si atom -5570.517403 kJ/mol
# Density = 2.409772 g / cm^3
# Si number density = 24.152693 Si / 1000 Ang^3
#
#
#
# Elastic Constant Matrix: (Units=GPa)
#
#
# Indices 1 2 3 4 5 6 
#
# 1 114.3185 45.8274 27.3490 -14.2594 17.6255 2.3477
# 2 45.8274 106.1680 44.3882 14.2444 11.7223 -3.9778
# 3 27.3490 44.3882 139.0574 -5.0297 -7.8117 -6.5150
# 4 -14.2594 14.2444 -5.0297 51.0844 10.4017 2.4808
# 5 17.6255 11.7223 -7.8117 10.4017 35.8351 -5.2470
# 6 2.3477 -3.9778 -6.5150 2.4808 -5.2470 34.9009
#
#
#
# Elastic Compliance Matrix: (Units=1/GPa)
#
#
# Indices 1 2 3 4 5 6 
#
# 1 0.013287 -0.005441 -0.001208 0.006793 -0.007480 -0.003347
# 2 -0.005441 0.014221 -0.003652 -0.005743 -0.000873 0.001582
# 3 -0.001208 -0.003652 0.008920 0.000695 0.003802 0.001852
# 4 0.006793 -0.005743 0.000695 0.025226 -0.009243 -0.004164
# 5 -0.007480 -0.000873 0.003802 -0.009243 0.036444 0.007249
# 6 -0.003347 0.001582 0.001852 -0.004164 0.007249 0.030790
#
#
# Mechanical properties :
#
#
# Convention : Reuss Voigt Hill
#
# Bulk Modulus (GPa) = 63.18620 66.07480 64.63050
# Shear Modulus (GPa) = 32.30736 40.49604 36.40170
#
# Velocity S-wave (km/s) = 3.66133 4.09916 3.88641
# Velocity P-wave (km/s) = 6.64016 7.05837 6.85246
#
# Compressibility (1/GPa) = 0.01582624
#
# Stress axis : x y z
#
# Youngs Moduli (GPa) = 75.26151 70.31979 112.10737
#
# Poissons Ratio (x) = 0.38263 0.13538
# Poissons Ratio (y) = 0.40952 0.40940
# Poissons Ratio (z) = 0.09089 0.25680
#
# Static dielectric constant tensor:
#      x y z
#    x 1.947050 -0.039660 0.020750 
#    y -0.039660 2.146030 -0.003530 
#    z 0.020750 -0.003530 2.046450 
# 
# From -- ./inp_files/229732.got.cif
#   From: 2010.05.17/outbox.cif.g08.bks.cpg/sg2_115_cif.got.tgz:229732.got - 2010.06.03 11:33:40.
