data_PCOD9050311
_publ_section_title
;
Structure prediction by ZEFSAII (Michael W. Deem and Ramdas Pophale) SiO2 
 PCOD9050311
Probable space group: P -1
;
_chemical_formula_sum "Si O2"
_cell_formula_units_Z 14
_cell_length_a 5.874869
_cell_length_b 19.595268
_cell_length_c 16.010600
_cell_angle_alpha 25.000499
_cell_angle_beta 125.732286
_cell_angle_gamma 133.447697
_cell_volume 560.876067
_symmetry_space_group_name_H-M "P -1"
_symmetry_group_IT_number 2
_symmetry_cell_setting 'triclinic'
loop_
_space_group_symop_operation_xyz
x,y,z
-x,-y,-z
loop_
_atom_site_type_symbol
_atom_site_label
_atom_site_fract_x
_atom_site_fract_y
_atom_site_fract_z
Si Si1 0.268921 0.146011 0.496008
Si Si2 0.765922 0.783068 0.403536
Si Si3 0.186783 0.668741 0.293743
Si Si4 0.858342 0.922259 0.961364
Si Si5 0.498607 0.483935 0.917371
Si Si6 0.591484 0.848771 0.661862
Si Si7 0.197270 0.582274 0.208563
O O1 0.325696 0.156895 0.595216
O O2 0.235078 0.333388 0.268878
O O3 0.489352 0.185649 0.416481
O O4 0.973873 0.949613 0.635986
O O5 0.518160 0.779033 0.286606
O O6 0.751843 0.585242 0.629209
O O7 0.079979 0.925408 0.264865
O O8 0.213458 0.576205 0.318032
O O9 0.000000 0.500000 0.500000
O O10 0.022483 0.797793 0.106315
O O11 0.486144 0.780813 0.033613
O O12 0.000000 0.000000 0.000000
O O13 0.150401 0.441980 0.858843
O O14 0.500000 0.500000 0.000000
O O15 0.538278 0.303193 0.125103
O O16 0.500000 0.000000 0.500000
#
# Coordination Sequence:
#
# PCOD9050311 Si02
#       7
#     2   2   2   2   2   2   2
#     4  10  25  47  70 111 144 189 245 305 365 442
#     4  12  26  46  74 108 152 194 244 305 370 439
#     4  12  24  47  73 107 151 187 246 307 362 443
#     4  12  27  48  74 107 148 203 245 300 370 437
#     4  10  25  49  73 103 144 192 246 303 368 440
#     4  10  24  50  75 106 145 190 246 309 371 438
#     4  12  27  48  72 107 149 198 248 303 370 434
#
# _framework density 24.96095
#
# number of rings (size 3 to 8) (size 9 to 14) (size 15 to 20)
#    0.000    0.857    2.857    2.571    6.000    1.714 
#   10.286    0.000    0.000    0.000    0.000    0.000 
#    0.000    0.000    0.000    0.000    0.000    0.000 
#
# Total GULP energy -78149.831890 kJ/mol
# GULP energy per Si atom -5582.130849 kJ/mol
# Density = 2.490414 g / cm^3
# Si number density = 24.960950 Si / 1000 Ang^3
#
#
#
# Elastic Constant Matrix: (Units=GPa)
#
#
# Indices 1 2 3 4 5 6 
#
# 1 48.1972 29.3895 -1.6093 2.2320 -2.1936 -18.4708
# 2 29.3895 133.6971 15.1284 13.9348 -6.1001 -16.1870
# 3 -1.6093 15.1284 111.5148 -12.7172 -16.3468 2.4346
# 4 2.2320 13.9348 -12.7172 42.6637 2.6776 -6.8372
# 5 -2.1936 -6.1001 -16.3468 2.6776 48.9508 -2.4751
# 6 -18.4708 -16.1870 2.4346 -6.8372 -2.4751 57.1137
#
#
#
# Elastic Compliance Matrix: (Units=1/GPa)
#
#
# Indices 1 2 3 4 5 6 
#
# 1 0.026821 -0.005285 0.001336 0.001827 0.001263 0.007393
# 2 -0.005285 0.009258 -0.001622 -0.003166 0.000580 0.000630
# 3 0.001336 -0.001622 0.010022 0.003268 0.003029 0.000068
# 4 0.001827 -0.003166 0.003268 0.025803 -0.000500 0.002621
# 5 0.001263 0.000580 0.003029 -0.000500 0.021663 0.001323
# 6 0.007393 0.000630 0.000068 0.002621 0.001323 0.020447
#
#
# Mechanical properties :
#
#
# Convention : Reuss Voigt Hill
#
# Bulk Modulus (GPa) = 28.60433 42.13626 35.37030
# Shear Modulus (GPa) = 36.54742 46.44566 41.49654
#
# Velocity S-wave (km/s) = 3.83062 4.31830 4.08175
# Velocity P-wave (km/s) = 5.57219 6.46383 6.03450
#
# Compressibility (1/GPa) = 0.03495974
#
# Stress axis : x y z
#
# Youngs Moduli (GPa) = 37.28376 108.01980 99.78067
#
# Poissons Ratio (x) = 0.57086 -0.13332
# Poissons Ratio (y) = 0.19704 0.16184
# Poissons Ratio (z) = -0.04982 0.17520
#
# Static dielectric constant tensor:
#      x y z
#    x 2.348270 0.290880 -0.180540 
#    y 0.290880 2.372730 -0.431960 
#    z -0.180540 -0.431960 2.452450 
# 
# From -- ./inp_files/56793.got.cif
#   From: 2010.05.17/outbox.cif.g08.bks.cpg/sg2_29_cif.got.tgz:56793.got - 2010.06.03 11:33:40.
