data_PCOD9050462
_publ_section_title
;
Structure prediction by ZEFSAII (Michael W. Deem and Ramdas Pophale) SiO2 
 PCOD9050462
Probable space group: P -1
;
_chemical_formula_sum "Si O2"
_cell_formula_units_Z 14
_cell_length_a 9.934836
_cell_length_b 8.917407
_cell_length_c 10.680607
_cell_angle_alpha 94.493104
_cell_angle_beta 70.432982
_cell_angle_gamma 50.765730
_cell_volume 633.663271
_symmetry_space_group_name_H-M "P -1"
_symmetry_group_IT_number 2
_symmetry_cell_setting 'triclinic'
loop_
_space_group_symop_operation_xyz
x,y,z
-x,-y,-z
loop_
_atom_site_type_symbol
_atom_site_label
_atom_site_fract_x
_atom_site_fract_y
_atom_site_fract_z
Si Si1 0.511595 0.644127 0.618483
Si Si2 0.234382 0.809297 0.931219
Si Si3 0.230073 0.780037 0.391924
Si Si4 0.263690 0.097509 0.631382
Si Si5 0.814018 0.384317 0.853822
Si Si6 0.586607 0.035823 0.676759
Si Si7 0.438964 0.197345 0.154701
O O1 0.338795 0.694931 0.759791
O O2 0.674593 0.391718 0.535541
O O3 0.613604 0.686848 0.686605
O O4 0.396447 0.845653 0.578345
O O5 0.344738 0.884180 0.941246
O O6 0.267606 0.652962 0.009347
O O7 0.000000 0.000000 0.000000
O O8 0.233156 0.674640 0.260769
O O9 0.363382 0.826562 0.321071
O O10 0.000000 0.000000 0.500000
O O11 0.250026 0.142112 0.490792
O O12 0.052989 0.223937 0.769726
O O13 0.382832 0.134486 0.675888
O O14 0.711706 0.622126 0.886364
O O15 0.578908 0.961860 0.810309
#
# Coordination Sequence:
#
# PCOD9050462 Si02
#       7
#     2   2   2   2   2   2   2
#     4   8  19  35  55  84 107 146 188 227 272 329
#     4  10  17  34  63  82 108 143 199 229 261 334
#     4  11  22  37  54  84 120 144 181 235 283 326
#     4  10  19  36  58  80 108 154 188 223 276 333
#     4  11  19  36  61  85 105 149 193 228 274 326
#     4  10  20  37  52  80 119 147 178 232 279 335
#     4   8  19  33  54  82 109 145 186 228 270 324
#
# _framework density 22.093753
#
# number of rings (size 3 to 8) (size 9 to 14) (size 15 to 20)
#    0.857    1.429    2.857    0.429    0.000    1.143 
#    5.143    0.714    0.000    1.714    0.000    0.000 
#    0.000    0.000    0.000    0.000    0.000    0.000 
#
# Total GULP energy -77939.714742 kJ/mol
# GULP energy per Si atom -5567.122482 kJ/mol
# Density = 2.204347 g / cm^3
# Si number density = 22.093753 Si / 1000 Ang^3
#
#
#
# Elastic Constant Matrix: (Units=GPa)
#
#
# Indices 1 2 3 4 5 6 
#
# 1 77.7383 35.7751 19.9373 -0.1815 -27.8558 12.9360
# 2 35.7751 135.5561 48.5998 -16.4334 -23.4858 -12.9740
# 3 19.9373 48.5998 95.3417 -28.1447 -20.1073 -4.5010
# 4 -0.1815 -16.4334 -28.1447 39.1902 6.3453 -1.8273
# 5 -27.8558 -23.4858 -20.1073 6.3453 29.8832 -3.9522
# 6 12.9360 -12.9740 -4.5010 -1.8273 -3.9522 26.8737
#
#
#
# Elastic Compliance Matrix: (Units=1/GPa)
#
#
# Indices 1 2 3 4 5 6 
#
# 1 0.023303 -0.004581 -0.001271 -0.006020 0.017018 -0.011548
# 2 -0.004581 0.011234 -0.003074 0.002354 0.003011 0.007716
# 3 -0.001271 -0.003074 0.016655 0.009861 0.005970 0.003466
# 4 -0.006020 0.002354 0.009861 0.034467 -0.003450 0.007522
# 5 0.017018 0.003011 0.005970 -0.003450 0.056757 0.002374
# 6 -0.011548 0.007716 0.003466 0.007522 0.002374 0.047936
#
#
# Mechanical properties :
#
#
# Convention : Reuss Voigt Hill
#
# Bulk Modulus (GPa) = 29.99450 57.47338 43.73394
# Shear Modulus (GPa) = 22.79792 32.81101 27.80446
#
# Velocity S-wave (km/s) = 3.21576 3.85786 3.55135
# Velocity P-wave (km/s) = 5.23389 6.77598 6.05424
#
# Compressibility (1/GPa) = 0.03333944
#
# Stress axis : x y z
#
# Youngs Moduli (GPa) = 42.91214 89.01768 60.04161
#
# Poissons Ratio (x) = 0.40779 0.07632
# Poissons Ratio (y) = 0.19658 0.18458
# Poissons Ratio (z) = 0.05455 0.27366
#
# Static dielectric constant tensor:
#      x y z
#    x 1.874610 -0.015560 0.056380 
#    y -0.015560 1.947930 -0.030500 
#    z 0.056380 -0.030500 1.839440 
# 
# From -- ./inp_files/513003.got.cif
#   From: 2010.05.17/outbox.cif.g08.bks.cpg/sg2_257_cif.got.tgz:513003.got - 2010.06.03 11:33:40.
