data_PCOD9050495
_publ_section_title
;
Structure prediction by ZEFSAII (Michael W. Deem and Ramdas Pophale) SiO2 
 PCOD9050495
Probable space group: P -1
;
_chemical_formula_sum "Si O2"
_cell_formula_units_Z 14
_cell_length_a 18.022627
_cell_length_b 6.298568
_cell_length_c 8.410455
_cell_angle_alpha 123.089708
_cell_angle_beta 66.882686
_cell_angle_gamma 124.684134
_cell_volume 653.079308
_symmetry_space_group_name_H-M "P -1"
_symmetry_group_IT_number 2
_symmetry_cell_setting 'triclinic'
loop_
_space_group_symop_operation_xyz
x,y,z
-x,-y,-z
loop_
_atom_site_type_symbol
_atom_site_label
_atom_site_fract_x
_atom_site_fract_y
_atom_site_fract_z
Si Si1 0.896949 0.341765 0.075360
Si Si2 0.758874 0.363926 0.970523
Si Si3 0.895710 0.860379 0.472046
Si Si4 0.559822 0.857549 0.952704
Si Si5 0.252659 0.578750 0.366254
Si Si6 0.539609 0.281644 0.689341
Si Si7 0.186037 0.020504 0.708301
O O1 0.882477 0.578525 0.278314
O O2 0.871758 0.095512 0.127225
O O3 0.833695 0.287990 0.953819
O O4 0.000000 0.500000 0.000000
O O5 0.773268 0.432699 0.800707
O O6 0.759214 0.638944 0.171013
O O7 0.663591 0.087976 0.957045
O O8 0.818246 0.719444 0.614321
O O9 0.874420 0.034924 0.423932
O O10 0.000000 0.000000 0.500000
O O11 0.526978 0.784812 0.131645
O O12 0.545292 0.581439 0.748975
O O13 0.500000 0.000000 0.000000
O O14 0.356833 0.638861 0.317629
O O15 0.243214 0.845993 0.562349
O O16 0.500000 0.000000 0.500000
#
# Coordination Sequence:
#
# PCOD9050495 Si02
#       7
#     2   2   2   2   2   2   2
#     4  10  25  42  68  99 134 186 231 289 353 412
#     4  11  26  43  71  98 141 183 231 294 345 424
#     4  10  25  42  66 100 139 177 233 288 342 429
#     4  11  26  47  68 108 136 184 238 289 354 419
#     4  11  26  43  69 104 131 191 228 282 363 413
#     4  11  28  44  73 102 144 181 236 292 351 429
#     4  10  26  44  66 100 140 180 233 289 349 410
#
# _framework density 21.436903999999998
#
# number of rings (size 3 to 8) (size 9 to 14) (size 15 to 20)
#    0.000    1.429    1.429    0.000   18.000    2.857 
#    0.000    0.000    0.000    0.000    0.000    0.000 
#    0.000    0.000    0.000    0.000    0.000    0.000 
#
# Total GULP energy -78135.527409 kJ/mol
# GULP energy per Si atom -5581.109101 kJ/mol
# Density = 2.138811 g / cm^3
# Si number density = 21.436904 Si / 1000 Ang^3
#
#
#
# Elastic Constant Matrix: (Units=GPa)
#
#
# Indices 1 2 3 4 5 6 
#
# 1 122.8989 68.8611 32.4349 -6.4044 17.2398 2.9487
# 2 68.8611 127.0162 47.6827 -2.6145 7.3686 4.6333
# 3 32.4349 47.6827 110.5164 12.6421 3.6607 -3.5933
# 4 -6.4044 -2.6145 12.6421 54.0032 -8.4282 -8.3202
# 5 17.2398 7.3686 3.6607 -8.4282 34.0315 3.6402
# 6 2.9487 4.6333 -3.5933 -8.3202 3.6402 32.8405
#
#
#
# Elastic Compliance Matrix: (Units=1/GPa)
#
#
# Indices 1 2 3 4 5 6 
#
# 1 0.012538 -0.006169 -0.000930 0.000715 -0.004776 0.000353
# 2 -0.006169 0.012659 -0.003822 0.000708 0.001142 -0.001597
# 3 -0.000930 -0.003822 0.011366 -0.002888 -0.000770 0.001220
# 4 0.000715 0.000708 -0.002888 0.020665 0.004457 0.004261
# 5 -0.004776 0.001142 -0.000770 0.004457 0.032994 -0.002344
# 6 0.000353 -0.001597 0.001220 0.004261 -0.002344 0.032117
#
#
# Mechanical properties :
#
#
# Convention : Reuss Voigt Hill
#
# Bulk Modulus (GPa) = 67.93326 73.15432 70.54379
# Shear Modulus (GPa) = 33.53739 38.27190 35.90464
#
# Velocity S-wave (km/s) = 3.95963 4.22990 4.09699
# Velocity P-wave (km/s) = 7.25696 7.61942 7.44040
#
# Compressibility (1/GPa) = 0.01472033
#
# Stress axis : x y z
#
# Youngs Moduli (GPa) = 79.76016 78.99536 87.98240
#
# Poissons Ratio (x) = 0.48733 0.08182
# Poissons Ratio (y) = 0.49205 0.33626
# Poissons Ratio (z) = 0.07418 0.30192
#
# Static dielectric constant tensor:
#      x y z
#    x 1.865250 -0.061460 0.006820 
#    y -0.061460 1.751420 0.032270 
#    z 0.006820 0.032270 1.787290 
# 
# From -- ./inp_files/49108.got.cif
#   From: 2010.05.17/outbox.cif.g08.bks.cpg/sg2_25_cif.got.tgz:49108.got - 2010.06.03 11:33:40.
