data_PCOD9050083
_publ_section_title
;
Structure prediction by ZEFSAII (Michael W. Deem and Ramdas Pophale) SiO2 
 PCOD9050083
Probable space group: P -1
;
_chemical_formula_sum "Si O2"
_cell_formula_units_Z 16
_cell_length_a 9.340152
_cell_length_b 21.808857
_cell_length_c 5.297216
_cell_angle_alpha 46.901348
_cell_angle_beta 104.800249
_cell_angle_gamma 122.831049
_cell_volume 650.308918
_symmetry_space_group_name_H-M "P -1"
_symmetry_group_IT_number 2
_symmetry_cell_setting 'triclinic'
loop_
_space_group_symop_operation_xyz
x,y,z
-x,-y,-z
loop_
_atom_site_type_symbol
_atom_site_label
_atom_site_fract_x
_atom_site_fract_y
_atom_site_fract_z
Si Si1 0.589460 0.436826 0.675858
Si Si2 0.367478 0.250304 0.368707
Si Si3 0.069738 0.288089 0.249446
Si Si4 0.808035 0.975264 0.033455
Si Si5 0.708697 0.353512 0.564952
Si Si6 0.919274 0.595752 0.574788
Si Si7 0.688795 0.164258 0.275075
Si Si8 0.677141 0.019954 0.323154
O O1 0.500000 0.500000 0.500000
O O2 0.684036 0.433470 0.476238
O O3 0.750035 0.486966 0.801657
O O4 0.434607 0.324488 0.955421
O O5 0.215836 0.259576 0.406204
O O6 0.298974 0.138001 0.609871
O O7 0.543148 0.295280 0.478134
O O8 0.075518 0.347747 0.330250
O O9 0.874950 0.196657 0.382917
O O10 0.102853 0.351271 0.831019
O O11 0.797714 0.031262 0.115355
O O12 0.732759 0.990458 0.694263
O O13 0.000000 0.000000 0.000000
O O14 0.898967 0.396973 0.411493
O O15 0.687840 0.264772 0.987791
O O16 0.516592 0.070627 0.574163
O O17 0.685589 0.120941 0.114953
#
# Coordination Sequence:
#
# PCOD9050083 Si02
#       8
#     2   2   2   2   2   2   2   2
#     4  12  26  49  75 109 154 200 253 310 381 450
#     4  12  27  45  78 107 155 200 251 313 378 449
#     4  11  26  46  74 107 151 198 248 306 374 444
#     4  12  27  47  74 115 152 197 249 310 375 450
#     4  11  26  46  75 110 150 194 255 312 373 447
#     4  11  27  47  75 107 147 198 251 309 369 443
#     4  10  24  48  75 109 149 197 251 312 374 452
#     4  11  25  46  76 107 150 198 249 311 381 442
#
# _framework density 24.603693
#
# number of rings (size 3 to 8) (size 9 to 14) (size 15 to 20)
#    0.000    0.750    2.500    3.000    7.000    7.500 
#    0.000    0.000    0.000    0.000    0.000    0.000 
#    0.000    0.000    0.000    0.000    0.000    0.000 
#
# Total GULP energy -89569.095040 kJ/mol
# GULP energy per Si atom -5598.068440 kJ/mol
# Density = 2.454769 g / cm^3
# Si number density = 24.603693 Si / 1000 Ang^3
#
#
#
# Elastic Constant Matrix: (Units=GPa)
#
#
# Indices 1 2 3 4 5 6 
#
# 1 168.6366 25.1584 15.5538 6.8983 0.4822 -18.1927
# 2 25.1584 88.8664 20.2327 -6.5701 -21.2447 -18.8276
# 3 15.5538 20.2327 100.4625 -2.9740 4.4335 -14.0758
# 4 6.8983 -6.5701 -2.9740 36.5461 -3.8338 -9.7058
# 5 0.4822 -21.2447 4.4335 -3.8338 32.0763 5.6846
# 6 -18.1927 -18.8276 -14.0758 -9.7058 5.6846 55.6733
#
#
#
# Elastic Compliance Matrix: (Units=1/GPa)
#
#
# Indices 1 2 3 4 5 6 
#
# 1 0.006466 -0.002007 -0.000385 -0.001463 -0.001772 0.001263
# 2 -0.002007 0.016355 -0.002764 0.005319 0.011178 0.003962
# 3 -0.000385 -0.002764 0.011065 0.000684 -0.003668 0.002231
# 4 -0.001463 0.005319 0.000684 0.030950 0.006038 0.006273
# 5 -0.001772 0.011178 -0.003668 0.006038 0.039968 -0.000754
# 6 0.001263 0.003962 0.002231 0.006273 -0.000754 0.021449
#
#
# Mechanical properties :
#
#
# Convention : Reuss Voigt Hill
#
# Bulk Modulus (GPa) = 42.41933 53.31723 47.86828
# Shear Modulus (GPa) = 34.62033 44.66052 39.64042
#
# Velocity S-wave (km/s) = 3.75523 4.26513 4.01828
# Velocity P-wave (km/s) = 6.00673 6.78031 6.40521
#
# Compressibility (1/GPa) = 0.02357416
#
# Stress axis : x y z
#
# Youngs Moduli (GPa) = 154.65489 61.14189 90.37628
#
# Poissons Ratio (x) = 0.12272 0.03480
# Poissons Ratio (y) = 0.31042 0.24978
# Poissons Ratio (z) = 0.05955 0.16898
#
# Static dielectric constant tensor:
#      x y z
#    x 1.923360 -0.004070 0.012060 
#    y -0.004070 1.924410 -0.013100 
#    z 0.012060 -0.013100 2.147650 
# 
# From -- ./inp_files/52244.got.cif
#   From: 2010.05.17/outbox.cif.g08.bks.cpg/sg2_27_cif.got.tgz:52244.got - 2010.06.03 11:33:40.
