data_PCOD9050896
_publ_section_title
;
Structure prediction by ZEFSAII (Michael W. Deem and Ramdas Pophale) SiO2 
 PCOD9050896
Probable space group: P -1
;
_chemical_formula_sum "Si O2"
_cell_formula_units_Z 12
_cell_length_a 9.297317
_cell_length_b 8.523337
_cell_length_c 14.469041
_cell_angle_alpha 40.764513
_cell_angle_beta 110.024006
_cell_angle_gamma 133.501961
_cell_volume 502.784212
_symmetry_space_group_name_H-M "P -1"
_symmetry_group_IT_number 2
_symmetry_cell_setting 'triclinic'
loop_
_space_group_symop_operation_xyz
x,y,z
-x,-y,-z
loop_
_atom_site_type_symbol
_atom_site_label
_atom_site_fract_x
_atom_site_fract_y
_atom_site_fract_z
Si Si1 0.529149 0.818249 0.162247
Si Si2 0.333670 0.844755 0.450562
Si Si3 0.391098 0.120578 0.643034
Si Si4 0.953354 0.662111 0.729659
Si Si5 0.923680 0.070282 0.039974
Si Si6 0.950745 0.048318 0.710636
O O1 0.647215 0.998371 0.205239
O O2 0.280883 0.512924 0.276295
O O3 0.680442 0.789201 0.155594
O O4 0.500000 0.000000 0.000000
O O5 0.446321 0.887328 0.362093
O O6 0.246800 0.015740 0.340482
O O7 0.133821 0.443585 0.598247
O O8 0.500000 0.000000 0.500000
O O9 0.500000 0.500000 0.500000
O O10 0.185266 0.903576 0.625131
O O11 0.011524 0.927284 0.699519
O O12 0.937024 0.368279 0.890124
O O13 0.081671 0.150163 0.118554
O O14 0.000000 0.000000 0.000000
#
# Coordination Sequence:
#
# PCOD9050896 Si02
#       6
#     2   2   2   2   2   2
#     4  10  25  44  71 105 146 189 240 296 365 435
#     4  11  28  47  72 107 148 188 244 303 360 431
#     4  12  25  47  73 107 144 190 248 297 368 441
#     4  11  25  45  75 100 149 192 236 298 368 425
#     4  11  25  46  74 108 146 190 247 301 362 436
#     4  11  25  47  71 105 148 188 243 298 365 433
#
# _framework density 23.867097000000001
#
# number of rings (size 3 to 8) (size 9 to 14) (size 15 to 20)
#    0.000    1.000    3.333    0.500   14.000    2.000 
#    0.000    1.667    0.000    0.000    0.000    0.000 
#    0.000    0.000    0.000    0.000    0.000    0.000 
#
# Total GULP energy -66917.473092 kJ/mol
# GULP energy per Si atom -5576.456091 kJ/mol
# Density = 2.381277 g / cm^3
# Si number density = 23.867097 Si / 1000 Ang^3
#
#
#
# Elastic Constant Matrix: (Units=GPa)
#
#
# Indices 1 2 3 4 5 6 
#
# 1 142.7909 36.0256 57.2514 16.8990 27.4782 18.2589
# 2 36.0256 90.5662 20.9567 -0.1681 9.4970 31.1103
# 3 57.2514 20.9567 74.1684 10.5030 22.6374 7.5898
# 4 16.8990 -0.1681 10.5030 40.4352 3.1480 -3.4350
# 5 27.4782 9.4970 22.6374 3.1480 44.2398 0.8745
# 6 18.2589 31.1103 7.5898 -3.4350 0.8745 46.8921
#
#
#
# Elastic Compliance Matrix: (Units=1/GPa)
#
#
# Indices 1 2 3 4 5 6 
#
# 1 0.011376 -0.001898 -0.006682 -0.002986 -0.002983 -0.002252
# 2 -0.001898 0.015464 -0.001706 0.000609 -0.001129 -0.009178
# 3 -0.006682 -0.001706 0.021321 -0.002247 -0.006238 0.000235
# 4 -0.002986 0.000609 -0.002247 0.026755 0.000909 0.003065
# 5 -0.002983 -0.001129 -0.006238 0.000909 0.027778 0.002469
# 6 -0.002252 -0.009178 0.000235 0.003065 0.002469 0.028432
#
#
# Mechanical properties :
#
#
# Convention : Reuss Voigt Hill
#
# Bulk Modulus (GPa) = 36.24690 59.55476 47.90083
# Shear Modulus (GPa) = 31.07618 39.19953 35.13786
#
# Velocity S-wave (km/s) = 3.61231 4.05706 3.84113
# Velocity P-wave (km/s) = 5.71124 6.85224 6.30759
#
# Compressibility (1/GPa) = 0.02758857
#
# Stress axis : x y z
#
# Youngs Moduli (GPa) = 87.90057 64.66592 46.90268
#
# Poissons Ratio (x) = 0.12277 0.31338
# Poissons Ratio (y) = 0.16688 0.08003
# Poissons Ratio (z) = 0.58731 0.11034
#
# Static dielectric constant tensor:
#      x y z
#    x 2.892390 -0.227260 0.372800 
#    y -0.227260 2.029000 -0.180930 
#    z 0.372800 -0.180930 2.152560 
# 
# From -- ./inp_files/491669.got.cif
#   From: 2010.05.17/outbox.cif.g08.bks.cpg/sg2_246_cif.got.tgz:491669.got - 2010.06.03 11:33:40.
