data_PCOD9050124
_publ_section_title
;
Structure prediction by ZEFSAII (Michael W. Deem and Ramdas Pophale) SiO2 
 PCOD9050124
Probable space group: P -1
;
_chemical_formula_sum "Si O2"
_cell_formula_units_Z 16
_cell_length_a 5.003014
_cell_length_b 35.928721
_cell_length_c 9.167203
_cell_angle_alpha 149.943930
_cell_angle_beta 69.608420
_cell_angle_gamma 98.055878
_cell_volume 726.406258
_symmetry_space_group_name_H-M "P -1"
_symmetry_group_IT_number 2
_symmetry_cell_setting 'triclinic'
loop_
_space_group_symop_operation_xyz
x,y,z
-x,-y,-z
loop_
_atom_site_type_symbol
_atom_site_label
_atom_site_fract_x
_atom_site_fract_y
_atom_site_fract_z
Si Si1 0.036917 0.581727 0.218544
Si Si2 0.286498 0.947758 0.361081
Si Si3 0.805136 0.324534 0.008769
Si Si4 0.373334 0.496066 0.348634
Si Si5 0.230125 0.281357 0.030884
Si Si6 0.238340 0.354345 0.813606
Si Si7 0.516510 0.829154 0.136816
Si Si8 0.218223 0.788980 0.807699
O O1 0.962916 0.648482 0.583936
O O2 0.816247 0.624443 0.273072
O O3 0.000000 0.500000 0.000000
O O4 0.363698 0.551885 0.978133
O O5 0.500000 0.000000 0.500000
O O6 0.310618 0.917640 0.424628
O O7 0.335005 0.861130 0.985266
O O8 0.000000 0.000000 0.500000
O O9 0.742714 0.414327 0.380539
O O10 0.489468 0.310409 0.009731
O O11 0.018674 0.269583 0.903991
O O12 0.996186 0.318746 0.805813
O O13 0.500000 0.500000 0.500000
O O14 0.181165 0.437861 0.185737
O O15 0.402286 0.202824 0.825264
O O16 0.568534 0.292335 0.574719
O O17 0.327603 0.780830 0.929094
O O18 0.856582 0.811933 0.944630
#
# Coordination Sequence:
#
# PCOD9050124 Si02
#       8
#     2   2   2   2   2   2   2   2
#     4  12  24  38  64  84 117 159 216 273 323 365
#     4  10  17  34  61  99 134 157 190 246 313 373
#     4  12  27  42  62  85 126 168 221 263 321 375
#     4  12  25  43  62  86 124 169 222 273 327 370
#     4  12  25  43  60  94 122 164 214 267 315 379
#     4  12  26  42  62  87 123 172 211 272 317 379
#     4  10  20  36  61  93 131 155 196 258 303 361
#     4  10  21  36  62  94 127 160 205 250 316 365
#
# _framework density 22.026242
#
# number of rings (size 3 to 8) (size 9 to 14) (size 15 to 20)
#    0.750    0.000    5.000    3.375    1.750    1.000 
#    0.000    0.000    0.000    0.000    0.000    5.250 
#    0.000    0.000    0.000    0.000    0.000    0.000 
#
# Total GULP energy -89177.888777 kJ/mol
# GULP energy per Si atom -5573.618049 kJ/mol
# Density = 2.197611 g / cm^3
# Si number density = 22.026242 Si / 1000 Ang^3
#
#
#
# Elastic Constant Matrix: (Units=GPa)
#
#
# Indices 1 2 3 4 5 6 
#
# 1 99.8604 19.1189 10.5638 -5.4424 -13.9365 -10.2388
# 2 19.1189 117.5923 31.8557 17.7233 -4.7141 -12.2252
# 3 10.5638 31.8557 36.1770 19.4512 -6.9875 -3.6873
# 4 -5.4424 17.7233 19.4512 38.6908 -4.6747 -5.7674
# 5 -13.9365 -4.7141 -6.9875 -4.6747 28.7268 6.0025
# 6 -10.2388 -12.2252 -3.6873 -5.7674 6.0025 46.7895
#
#
#
# Elastic Compliance Matrix: (Units=1/GPa)
#
#
# Indices 1 2 3 4 5 6 
#
# 1 0.011844 -0.001218 -0.003972 0.005116 0.005006 0.001949
# 2 -0.001218 0.011544 -0.009631 -0.000488 -0.001564 0.002131
# 3 -0.003972 -0.009631 0.049169 -0.020594 0.005682 -0.002778
# 4 0.005116 -0.000488 -0.020594 0.038033 0.002809 0.003697
# 5 0.005006 -0.001564 0.005682 0.002809 0.039573 -0.003596
# 6 0.001949 0.002131 -0.002778 0.003697 -0.003596 0.023054
#
#
# Mechanical properties :
#
#
# Convention : Reuss Voigt Hill
#
# Bulk Modulus (GPa) = 23.30131 41.85629 32.57880
# Shear Modulus (GPa) = 23.02411 35.64750 29.33581
#
# Velocity S-wave (km/s) = 3.23662 4.02731 3.65342
# Velocity P-wave (km/s) = 4.95676 6.37729 5.71136
#
# Compressibility (1/GPa) = 0.04291604
#
# Stress axis : x y z
#
# Youngs Moduli (GPa) = 84.42745 86.62865 20.33786
#
# Poissons Ratio (x) = 0.10548 0.08077
# Poissons Ratio (y) = 0.10280 0.19588
# Poissons Ratio (z) = 0.33532 0.83436
#
# Static dielectric constant tensor:
#      x y z
#    x 1.886640 0.011860 -0.046110 
#    y 0.011860 1.907450 -0.014940 
#    z -0.046110 -0.014940 1.887390 
# 
# From -- ./inp_files/143398.got.cif
#   From: 2010.05.17/outbox.cif.g08.bks.cpg/sg2_72_cif.got.tgz:143398.got - 2010.06.03 11:33:40.
