data_PCOD9050897
_publ_section_title
;
Structure prediction by ZEFSAII (Michael W. Deem and Ramdas Pophale) SiO2 
 PCOD9050897
Probable space group: P -1
;
_chemical_formula_sum "Si O2"
_cell_formula_units_Z 14
_cell_length_a 12.018630
_cell_length_b 12.214705
_cell_length_c 7.257950
_cell_angle_alpha 86.927734
_cell_angle_beta 130.386400
_cell_angle_gamma 120.267876
_cell_volume 637.742034
_symmetry_space_group_name_H-M "P -1"
_symmetry_group_IT_number 2
_symmetry_cell_setting 'triclinic'
loop_
_space_group_symop_operation_xyz
x,y,z
-x,-y,-z
loop_
_atom_site_type_symbol
_atom_site_label
_atom_site_fract_x
_atom_site_fract_y
_atom_site_fract_z
Si Si1 0.508545 0.200913 0.655173
Si Si2 0.599786 0.295835 0.146071
Si Si3 0.096868 0.572818 0.844040
Si Si4 0.770819 0.582957 0.414950
Si Si5 0.669185 0.664877 0.637319
Si Si6 0.392327 0.927774 0.697332
Si Si7 0.039546 0.294437 0.777921
O O1 0.398635 0.242183 0.424457
O O2 0.460376 0.051021 0.616985
O O3 0.479005 0.221846 0.839539
O O4 0.728418 0.316979 0.850316
O O5 0.804613 0.375784 0.259347
O O6 0.602288 0.419007 0.216562
O O7 0.572754 0.186665 0.273765
O O8 0.041473 0.422436 0.832484
O O9 0.932929 0.583073 0.678707
O O10 0.727433 0.662377 0.492626
O O11 0.845479 0.654662 0.292254
O O12 0.500000 0.500000 0.500000
O O13 0.842652 0.719174 0.948153
O O14 0.170401 0.838836 0.473248
O O15 0.500000 0.000000 0.000000
#
# Coordination Sequence:
#
# PCOD9050897 Si02
#       7
#     2   2   2   2   2   2   2
#     4   9  20  35  56  88 129 158 192 244 303 360
#     4   8  15  31  61  87 113 148 204 241 294 339
#     4   9  16  35  62  90 112 149 207 251 284 347
#     4  11  19  36  67  89 115 155 206 257 294 344
#     4  12  25  39  56  92 129 158 198 248 303 358
#     4  10  17  34  65  91 119 160 194 251 307 345
#     4  11  20  38  64  91 120 156 203 244 303 356
#
# _framework density 21.952448
#
# number of rings (size 3 to 8) (size 9 to 14) (size 15 to 20)
#    0.857    1.143    4.286    0.857    0.000    3.429 
#    0.000    0.714    0.000   11.143    0.000    0.000 
#    0.000    0.000    0.000    0.000    0.000    0.000 
#
# Total GULP energy -78127.677847 kJ/mol
# GULP energy per Si atom -5580.548418 kJ/mol
# Density = 2.190248 g / cm^3
# Si number density = 21.952448 Si / 1000 Ang^3
#
#
#
# Elastic Constant Matrix: (Units=GPa)
#
#
# Indices 1 2 3 4 5 6 
#
# 1 63.3624 25.9082 13.5997 2.2905 -11.7295 -11.6019
# 2 25.9082 108.1902 63.1679 2.1481 3.3164 -2.2071
# 3 13.5997 63.1679 99.5700 1.3264 4.6595 -6.4767
# 4 2.2905 2.1481 1.3264 34.1203 -0.0213 8.6374
# 5 -11.7295 3.3164 4.6595 -0.0213 21.5162 -1.4758
# 6 -11.6019 -2.2071 -6.4767 8.6374 -1.4758 14.1486
#
#
#
# Elastic Compliance Matrix: (Units=1/GPa)
#
#
# Indices 1 2 3 4 5 6 
#
# 1 0.027469 -0.007720 0.002371 -0.008963 0.017681 0.029722
# 2 -0.007720 0.016910 -0.010134 0.002477 -0.005332 -0.010400
# 3 0.002371 -0.010134 0.016816 -0.002617 -0.000128 0.009646
# 4 -0.008963 0.002477 -0.002617 0.037966 -0.006862 -0.032054
# 5 0.017681 -0.005332 -0.000128 -0.006862 0.058598 0.023910
# 6 0.029722 -0.010400 0.009646 -0.032054 0.023910 0.119906
#
#
# Mechanical properties :
#
#
# Convention : Reuss Voigt Hill
#
# Bulk Modulus (GPa) = 33.07872 52.94157 43.01014
# Shear Modulus (GPa) = 15.68836 25.18682 20.43759
#
# Velocity S-wave (km/s) = 2.67620 3.39091 3.05453
# Velocity P-wave (km/s) = 4.96492 6.28489 5.66349
#
# Compressibility (1/GPa) = 0.03023092
#
# Stress axis : x y z
#
# Youngs Moduli (GPa) = 36.40428 59.13512 59.46575
#
# Poissons Ratio (x) = 0.45653 -0.14100
# Poissons Ratio (y) = 0.28105 0.60260
# Poissons Ratio (z) = -0.08632 0.59925
#
# Static dielectric constant tensor:
#      x y z
#    x 1.817270 0.015560 -0.053630 
#    y 0.015560 1.807690 0.006620 
#    z -0.053630 0.006620 1.861770 
# 
# From -- ./inp_files/305203.got.cif
#   From: 2010.05.17/outbox.cif.g08.bks.cpg/sg2_153_cif.got.tgz:305203.got - 2010.06.03 11:33:40.
