data_PCOD9050574
_publ_section_title
;
Structure prediction by ZEFSAII (Michael W. Deem and Ramdas Pophale) SiO2 
 PCOD9050574
Probable space group: P -1
;
_chemical_formula_sum "Si O2"
_cell_formula_units_Z 16
_cell_length_a 20.703578
_cell_length_b 13.103005
_cell_length_c 17.271438
_cell_angle_alpha 28.187374
_cell_angle_beta 19.782593
_cell_angle_gamma 26.884899
_cell_volume 689.385620
_symmetry_space_group_name_H-M "P -1"
_symmetry_group_IT_number 2
_symmetry_cell_setting 'triclinic'
loop_
_space_group_symop_operation_xyz
x,y,z
-x,-y,-z
loop_
_atom_site_type_symbol
_atom_site_label
_atom_site_fract_x
_atom_site_fract_y
_atom_site_fract_z
Si Si1 0.009394 0.402906 0.440530
Si Si2 0.112651 0.179541 0.138195
Si Si3 0.466941 0.266471 0.379485
Si Si4 0.284827 0.184842 0.413768
Si Si5 0.000789 0.464567 0.230703
Si Si6 0.344524 0.711805 0.113176
Si Si7 0.327875 0.681685 0.740782
Si Si8 0.677048 0.469669 0.384235
O O1 0.881311 0.673464 0.428330
O O2 0.847673 0.285116 0.723033
O O3 0.203324 0.300264 0.345527
O O4 0.048333 0.364465 0.331532
O O5 0.061084 0.278517 0.217420
O O6 0.894231 0.246124 0.294569
O O7 0.251167 0.906612 0.155208
O O8 0.239406 0.322599 0.860881
O O9 0.441129 0.455863 0.214541
O O10 0.648939 0.273953 0.224711
O O11 0.242547 0.373397 0.603834
O O12 0.500000 0.000000 0.500000
O O13 0.313203 0.919373 0.558127
O O14 0.498927 0.215370 0.161336
O O15 0.142213 0.615029 0.966455
O O16 0.546589 0.485711 0.598272
O O17 0.500000 0.500000 0.500000
#
# Coordination Sequence:
#
# PCOD9050574 Si02
#       8
#     2   2   2   2   2   2   2   2
#     4  10  25  43  64  96 136 176 229 281 339 399
#     4  11  24  42  71 101 138 177 232 278 342 412
#     4  11  26  46  68 100 137 181 228 282 344 404
#     4  11  24  43  68 100 133 178 231 281 336 404
#     4  11  24  45  67 102 135 179 226 280 343 407
#     4  11  24  44  70  98 137 177 227 285 339 402
#     4  12  23  41  71  97 135 178 226 281 338 404
#     4  11  23  42  66 102 136 182 222 278 340 404
#
# _framework density 23.209071000000002
#
# number of rings (size 3 to 8) (size 9 to 14) (size 15 to 20)
#    0.000    1.000    3.750    2.625    1.750    7.000 
#    0.000    1.250    0.000    0.000    0.000    0.000 
#    0.000    0.000    0.000    0.000    0.000    0.000 
#
# Total GULP energy -89442.191613 kJ/mol
# GULP energy per Si atom -5590.136976 kJ/mol
# Density = 2.315625 g / cm^3
# Si number density = 23.209071 Si / 1000 Ang^3
#
#
#
# Elastic Constant Matrix: (Units=GPa)
#
#
# Indices 1 2 3 4 5 6 
#
# 1 92.0082 37.4967 9.3651 3.1565 -14.7358 18.3686
# 2 37.4967 115.6416 22.7839 -7.7299 1.5942 10.0793
# 3 9.3651 22.7839 109.6702 1.2341 -14.0778 -4.5968
# 4 3.1565 -7.7299 1.2341 24.8191 1.1518 3.9422
# 5 -14.7358 1.5942 -14.0778 1.1518 34.3171 0.7495
# 6 18.3686 10.0793 -4.5968 3.9422 0.7495 26.3346
#
#
#
# Elastic Compliance Matrix: (Units=1/GPa)
#
#
# Indices 1 2 3 4 5 6 
#
# 1 0.015809 -0.004635 0.000205 -0.002365 0.007365 -0.009072
# 2 -0.004635 0.011199 -0.002542 0.004707 -0.003666 -0.002097
# 3 0.000205 -0.002542 0.010340 -0.001984 0.004453 0.002805
# 4 -0.002365 0.004707 -0.001984 0.043409 -0.003355 -0.006901
# 5 0.007365 -0.003666 0.004453 -0.003355 0.034487 -0.003436
# 6 -0.009072 -0.002097 0.002805 -0.006901 -0.003436 0.046724
#
#
# Mechanical properties :
#
#
# Convention : Reuss Voigt Hill
#
# Bulk Modulus (GPa) = 42.72936 50.73459 46.73198
# Shear Modulus (GPa) = 27.21602 33.60579 30.41091
#
# Velocity S-wave (km/s) = 3.42811 3.80933 3.62374
# Velocity P-wave (km/s) = 5.84122 6.42303 6.13902
#
# Compressibility (1/GPa) = 0.02340311
#
# Stress axis : x y z
#
# Youngs Moduli (GPa) = 63.25620 89.29190 96.70735
#
# Poissons Ratio (x) = 0.41388 -0.01980
# Poissons Ratio (y) = 0.29320 0.24585
# Poissons Ratio (z) = -0.01295 0.22700
#
# Static dielectric constant tensor:
#      x y z
#    x 1.914520 0.033730 0.032590 
#    y 0.033730 1.870440 0.022290 
#    z 0.032590 0.022290 1.871450 
# 
# From -- ./inp_files/461833.got.cif
#   From: 2010.05.17/outbox.cif.g08.bks.cpg/sg2_231_cif.got.tgz:461833.got - 2010.06.03 11:33:40.
