data_PCOD9050977
_publ_section_title
;
Structure prediction by ZEFSAII (Michael W. Deem and Ramdas Pophale) SiO2 
 PCOD9050977
Probable space group: P -1
;
_chemical_formula_sum "Si O2"
_cell_formula_units_Z 16
_cell_length_a 5.582752
_cell_length_b 8.900912
_cell_length_c 16.928557
_cell_angle_alpha 111.588762
_cell_angle_beta 89.595764
_cell_angle_gamma 60.779062
_cell_volume 664.348844
_symmetry_space_group_name_H-M "P -1"
_symmetry_group_IT_number 2
_symmetry_cell_setting 'triclinic'
loop_
_space_group_symop_operation_xyz
x,y,z
-x,-y,-z
loop_
_atom_site_type_symbol
_atom_site_label
_atom_site_fract_x
_atom_site_fract_y
_atom_site_fract_z
Si Si1 0.217853 0.100740 0.571508
Si Si2 0.155753 0.616556 0.008523
Si Si3 0.795983 0.004754 0.180024
Si Si4 0.181207 0.664878 0.836466
Si Si5 0.429658 0.310652 0.686137
Si Si6 0.777956 0.738419 0.704305
Si Si7 0.003793 0.070313 0.354208
Si Si8 0.644330 0.436443 0.572739
O O1 0.204714 0.248133 0.665669
O O2 0.779292 0.066757 0.411872
O O3 0.952253 0.241278 0.543659
O O4 0.500000 0.000000 0.500000
O O5 0.095680 0.686714 0.931295
O O6 0.500000 0.500000 0.000000
O O7 0.000000 0.500000 0.000000
O O8 0.986489 0.803920 0.099311
O O9 0.743843 0.179123 0.157287
O O10 0.494374 0.061368 0.227749
O O11 0.954040 0.018752 0.257505
O O12 0.421602 0.444102 0.781077
O O13 0.965933 0.674118 0.771284
O O14 0.439925 0.405035 0.622903
O O15 0.715773 0.110798 0.650149
O O16 0.934180 0.767048 0.635696
O O17 0.675426 0.600816 0.646660
O O18 0.500000 0.500000 0.500000
#
# Coordination Sequence:
#
# PCOD9050977 Si02
#       8
#     2   2   2   2   2   2   2   2
#     4  11  26  49  71 106 148 207 257 322 398 472
#     4  12  31  49  79 123 164 208 261 329 394 478
#     4  11  25  47  77 114 152 204 255 319 398 472
#     4  11  25  47  78 107 157 197 261 317 393 479
#     4  11  23  46  72 103 142 204 247 312 389 463
#     4  11  24  47  79 114 145 208 254 325 400 468
#     4  10  25  44  78 104 153 193 268 312 395 473
#     4  11  26  48  75 110 153 194 263 329 394 468
#
# _framework density 24.083732999999999
#
# number of rings (size 3 to 8) (size 9 to 14) (size 15 to 20)
#    0.000    1.000    2.500    1.875    8.750    6.000 
#    2.250    2.500    0.000    0.000    0.000    0.000 
#    0.000    0.000    0.000    0.000    0.000    0.000 
#
# Total GULP energy -89446.223129 kJ/mol
# GULP energy per Si atom -5590.388946 kJ/mol
# Density = 2.402892 g / cm^3
# Si number density = 24.083733 Si / 1000 Ang^3
#
#
#
# Elastic Constant Matrix: (Units=GPa)
#
#
# Indices 1 2 3 4 5 6 
#
# 1 105.4122 52.3596 38.4099 -0.0355 -6.9976 17.3877
# 2 52.3596 119.5433 35.0500 -5.0629 -9.2541 10.2512
# 3 38.4099 35.0500 93.5428 6.7121 -15.6895 9.5172
# 4 -0.0355 -5.0629 6.7121 60.6358 1.6690 -6.0625
# 5 -6.9976 -9.2541 -15.6895 1.6690 32.2272 4.2393
# 6 17.3877 10.2512 9.5172 -6.0625 4.2393 48.9778
#
#
#
# Elastic Compliance Matrix: (Units=1/GPa)
#
#
# Indices 1 2 3 4 5 6 
#
# 1 0.013615 -0.004664 -0.003418 -0.000341 0.000400 -0.003270
# 2 -0.004664 0.011191 -0.002146 0.001115 0.001129 -0.000229
# 3 -0.003418 -0.002146 0.014234 -0.002108 0.005928 -0.001877
# 4 -0.000341 0.001115 -0.002108 0.017133 -0.002008 0.002592
# 5 0.000400 0.001129 0.005928 -0.002008 0.035064 -0.004814
# 6 -0.003270 -0.000229 -0.001877 0.002592 -0.004814 0.022728
#
#
# Mechanical properties :
#
#
# Convention : Reuss Voigt Hill
#
# Bulk Modulus (GPa) = 53.80905 63.34857 58.57881
# Shear Modulus (GPa) = 35.55787 41.21343 38.38565
#
# Velocity S-wave (km/s) = 3.84660 4.14122 3.99663
# Velocity P-wave (km/s) = 6.48995 7.01619 6.75819
#
# Compressibility (1/GPa) = 0.01858424
#
# Stress axis : x y z
#
# Youngs Moduli (GPa) = 73.45040 89.35493 70.25257
#
# Poissons Ratio (x) = 0.41674 0.24016
# Poissons Ratio (y) = 0.34257 0.15074
# Poissons Ratio (z) = 0.25109 0.19172
#
# Static dielectric constant tensor:
#      x y z
#    x 2.029670 -0.048000 -0.012070 
#    y -0.048000 2.018780 0.042520 
#    z -0.012070 0.042520 1.974000 
# 
# From -- ./inp_files/111003.got.cif
#   From: 2010.05.17/outbox.cif.g08.bks.cpg/sg2_56_cif.got.tgz:111003.got - 2010.06.03 11:33:40.
