data_PCOD9050418
_publ_section_title
;
Structure prediction by ZEFSAII (Michael W. Deem and Ramdas Pophale) SiO2 
 PCOD9050418
Probable space group: P -1
;
_chemical_formula_sum "Si O2"
_cell_formula_units_Z 16
_cell_length_a 13.973597
_cell_length_b 8.239178
_cell_length_c 9.333105
_cell_angle_alpha 82.433230
_cell_angle_beta 97.315560
_cell_angle_gamma 45.582875
_cell_volume 723.333027
_symmetry_space_group_name_H-M "P -1"
_symmetry_group_IT_number 2
_symmetry_cell_setting 'triclinic'
loop_
_space_group_symop_operation_xyz
x,y,z
-x,-y,-z
loop_
_atom_site_type_symbol
_atom_site_label
_atom_site_fract_x
_atom_site_fract_y
_atom_site_fract_z
Si Si1 0.564606 0.565917 0.104183
Si Si2 0.939300 0.230248 0.881810
Si Si3 0.300507 0.309030 0.366762
Si Si4 0.477355 0.169416 0.685907
Si Si5 0.362118 0.038035 0.862419
Si Si6 0.087226 0.287222 0.427454
Si Si7 0.814965 0.036737 0.271654
Si Si8 0.900201 0.520801 0.082748
O O1 0.502052 0.689105 0.236609
O O2 0.725042 0.312586 0.194301
O O3 0.500000 0.500000 0.000000
O O4 0.511100 0.791461 0.980320
O O5 0.805871 0.416569 0.731568
O O6 0.879322 0.395078 0.991497
O O7 0.066865 0.130023 0.810901
O O8 0.000000 0.000000 0.000000
O O9 0.405954 0.261699 0.505980
O O10 0.212545 0.258822 0.412736
O O11 0.389559 0.113197 0.280605
O O12 0.371058 0.191822 0.757092
O O13 0.244975 0.210954 0.940699
O O14 0.296984 0.972571 0.764354
O O15 0.000000 0.500000 0.500000
O O16 0.989120 0.377766 0.260356
O O17 0.126520 0.071755 0.545144
O O18 0.000000 0.500000 0.000000
#
# Coordination Sequence:
#
# PCOD9050418 Si02
#       8
#     2   2   2   2   2   2   2   2
#     4  10  25  41  63  95 138 171 216 272 338 405
#     4  12  27  42  64 102 141 170 218 284 340 392
#     4  11  23  43  70  96 135 171 231 283 325 396
#     4  11  24  41  69  99 128 181 228 274 334 399
#     4  11  21  41  69  93 129 175 231 272 325 400
#     4  12  20  42  71  96 128 174 227 275 323 400
#     4  11  23  44  66  97 134 180 218 276 339 395
#     4  12  22  40  73  99 126 175 230 275 328 394
#
# _framework density 22.119823
#
# number of rings (size 3 to 8) (size 9 to 14) (size 15 to 20)
#    0.000    0.750    6.250    1.125    3.500    1.000 
#    0.000    1.875    0.000    0.000    0.000    0.000 
#    0.000    0.000    0.000    0.000    0.000    0.000 
#
# Total GULP energy -89114.349724 kJ/mol
# GULP energy per Si atom -5569.646858 kJ/mol
# Density = 2.206948 g / cm^3
# Si number density = 22.119823 Si / 1000 Ang^3
#
#
#
# Elastic Constant Matrix: (Units=GPa)
#
#
# Indices 1 2 3 4 5 6 
#
# 1 30.7074 3.9076 17.2942 -1.0412 -5.6175 -7.7233
# 2 3.9076 126.8330 46.6111 -14.2197 4.6361 -4.4076
# 3 17.2942 46.6111 149.4878 -17.4065 7.8405 -3.0320
# 4 -1.0412 -14.2197 -17.4065 51.7733 4.2745 -0.4721
# 5 -5.6175 4.6361 7.8405 4.2745 29.7853 3.9234
# 6 -7.7233 -4.4076 -3.0320 -0.4721 3.9234 26.1285
#
#
#
# Elastic Compliance Matrix: (Units=1/GPa)
#
#
# Indices 1 2 3 4 5 6 
#
# 1 0.039166 0.000578 -0.005052 -0.001281 0.007501 0.009939
# 2 0.000578 0.009119 -0.002618 0.001740 -0.001081 0.001599
# 3 -0.005052 -0.002618 0.008508 0.002288 -0.003054 -0.000448
# 4 -0.001281 0.001740 0.002288 0.020900 -0.004272 0.001199
# 5 0.007501 -0.001081 -0.003054 -0.004272 0.037096 -0.003967
# 6 0.009939 0.001599 -0.000448 0.001199 -0.003967 0.042045
#
#
# Mechanical properties :
#
#
# Convention : Reuss Voigt Hill
#
# Bulk Modulus (GPa) = 23.47049 49.18379 36.32714
# Shear Modulus (GPa) = 26.99455 37.48510 32.23983
#
# Velocity S-wave (km/s) = 3.49718 4.12106 3.82187
# Velocity P-wave (km/s) = 5.19044 6.70281 5.99451
#
# Compressibility (1/GPa) = 0.04260670
#
# Stress axis : x y z
#
# Youngs Moduli (GPa) = 25.53244 109.66102 117.53738
#
# Poissons Ratio (x) = -0.06334 0.59382
# Poissons Ratio (y) = -0.01475 0.30777
# Poissons Ratio (z) = 0.12899 0.28714
#
# Static dielectric constant tensor:
#      x y z
#    x 1.875020 -0.026630 -0.000420 
#    y -0.026630 1.769250 0.015520 
#    z -0.000420 0.015520 1.835540 
# 
# From -- ./inp_files/298249.got.cif
#   From: 2010.05.17/outbox.cif.g08.bks.cpg/sg2_150_cif.got.tgz:298249.got - 2010.06.03 11:33:40.
