data_PCOD9050334
_publ_section_title
;
Structure prediction by ZEFSAII (Michael W. Deem and Ramdas Pophale) SiO2 
 PCOD9050334
Probable space group: P -1
;
_chemical_formula_sum "Si O2"
_cell_formula_units_Z 12
_cell_length_a 15.070307
_cell_length_b 11.740603
_cell_length_c 9.439396
_cell_angle_alpha 128.486243
_cell_angle_beta 145.835707
_cell_angle_gamma 30.564299
_cell_volume 452.545125
_symmetry_space_group_name_H-M "P -1"
_symmetry_group_IT_number 2
_symmetry_cell_setting 'triclinic'
loop_
_space_group_symop_operation_xyz
x,y,z
-x,-y,-z
loop_
_atom_site_type_symbol
_atom_site_label
_atom_site_fract_x
_atom_site_fract_y
_atom_site_fract_z
Si Si1 0.210193 0.286910 0.435750
Si Si2 0.057870 0.165867 0.943670
Si Si3 0.295452 0.835609 0.493734
Si Si4 0.280191 0.453359 0.401954
Si Si5 0.389581 0.210998 0.920272
Si Si6 0.767173 0.262532 0.235066
O O1 0.284570 0.350343 0.464492
O O2 0.383896 0.172314 0.716795
O O3 0.910482 0.538768 0.260950
O O4 0.794808 0.869884 0.759523
O O5 0.206837 0.929763 0.877677
O O6 0.803889 0.258733 0.726776
O O7 0.968596 0.367498 0.888913
O O8 0.473339 0.741693 0.522827
O O9 0.453085 0.766928 0.789320
O O10 0.021685 0.119398 0.368680
O O11 0.236764 0.648540 0.555956
O O12 0.500000 0.000000 0.000000
O O13 0.500000 0.500000 0.000000
#
# Coordination Sequence:
#
# PCOD9050334 Si02
#       6
#     2   2   2   2   2   2
#     4  11  26  49  87 126 169 222 283 346 427 510
#     4  10  24  50  82 124 171 218 279 353 418 500
#     4  10  25  48  88 116 171 220 280 350 420 494
#     4  12  23  49  84 128 163 222 282 351 420 505
#     4  11  25  51  81 124 174 226 276 347 429 512
#     4  10  26  49  78 123 167 223 285 340 421 503
#
# _framework density 26.516691999999999
#
# number of rings (size 3 to 8) (size 9 to 14) (size 15 to 20)
#    1.000    0.333    1.667    2.500    0.000    3.333 
#    9.000    1.667    3.667    1.000    0.000    0.000 
#    0.000    0.000    0.000    0.000    0.000    0.000 
#
# Total GULP energy -67146.928621 kJ/mol
# GULP energy per Si atom -5595.577385 kJ/mol
# Density = 2.645634 g / cm^3
# Si number density = 26.516692 Si / 1000 Ang^3
#
#
#
# Elastic Constant Matrix: (Units=GPa)
#
#
# Indices 1 2 3 4 5 6 
#
# 1 121.5087 70.5713 90.5479 22.4512 -16.2768 -1.0753
# 2 70.5713 165.3225 92.8435 7.6674 -0.0836 -23.6490
# 3 90.5479 92.8435 187.8885 6.9427 -16.0581 10.5991
# 4 22.4512 7.6674 6.9427 74.7590 5.2177 1.6074
# 5 -16.2768 -0.0836 -16.0581 5.2177 43.3040 3.0439
# 6 -1.0753 -23.6490 10.5991 1.6074 3.0439 47.9234
#
#
#
# Elastic Compliance Matrix: (Units=1/GPa)
#
#
# Indices 1 2 3 4 5 6 
#
# 1 0.015497 -0.003603 -0.005131 -0.004108 0.004441 -0.000440
# 2 -0.003603 0.010928 -0.004341 0.000466 -0.003455 0.006476
# 3 -0.005131 -0.004341 0.010351 0.000979 0.002115 -0.004714
# 4 -0.004108 0.000466 0.000979 0.014684 -0.002922 -0.000385
# 5 0.004441 -0.003455 0.002115 -0.002922 0.026147 -0.003635
# 6 -0.000440 0.006476 -0.004714 -0.000385 -0.003635 0.025339
#
#
# Mechanical properties :
#
#
# Convention : Reuss Voigt Hill
#
# Bulk Modulus (GPa) = 94.13154 109.18279 101.65716
# Shear Modulus (GPa) = 37.69661 47.91443 42.80552
#
# Velocity S-wave (km/s) = 3.77453 4.25544 4.02218
# Velocity P-wave (km/s) = 7.38729 8.08762 7.74537
#
# Compressibility (1/GPa) = 0.01062343
#
# Stress axis : x y z
#
# Youngs Moduli (GPa) = 64.52956 91.50919 96.61035
#
# Poissons Ratio (x) = 0.32975 0.49575
# Poissons Ratio (y) = 0.23253 0.41939
# Poissons Ratio (z) = 0.33113 0.39725
#
# Static dielectric constant tensor:
#      x y z
#    x 2.162500 -0.002420 -0.042630 
#    y -0.002420 2.117650 0.026090 
#    z -0.042630 0.026090 2.253840 
# 
# From -- ./inp_files/315686.got.cif
#   From: 2010.05.17/outbox.cif.g08.bks.cpg/sg2_158_cif.got.tgz:315686.got - 2010.06.03 11:33:40.
