data_PCOD9050778
_publ_section_title
;
Structure prediction by ZEFSAII (Michael W. Deem and Ramdas Pophale) SiO2 
 PCOD9050778
Probable space group: P -1
;
_chemical_formula_sum "Si O2"
_cell_formula_units_Z 16
_cell_length_a 17.507867
_cell_length_b 11.786349
_cell_length_c 9.094277
_cell_angle_alpha 132.851515
_cell_angle_beta 57.030971
_cell_angle_gamma 147.666384
_cell_volume 733.619355
_symmetry_space_group_name_H-M "P -1"
_symmetry_group_IT_number 2
_symmetry_cell_setting 'triclinic'
loop_
_space_group_symop_operation_xyz
x,y,z
-x,-y,-z
loop_
_atom_site_type_symbol
_atom_site_label
_atom_site_fract_x
_atom_site_fract_y
_atom_site_fract_z
Si Si1 0.929778 0.023022 0.477480
Si Si2 0.622076 0.602768 0.567824
Si Si3 0.132237 0.575223 0.357993
Si Si4 0.287486 0.839419 0.719926
Si Si5 0.996177 0.457534 0.795554
Si Si6 0.629398 0.262652 0.179612
Si Si7 0.799917 0.634990 0.056709
Si Si8 0.495967 0.617314 0.979798
O O1 0.008619 0.289089 0.612587
O O2 0.773051 0.845332 0.552447
O O3 0.908462 0.904392 0.243573
O O4 0.000000 0.000000 0.500000
O O5 0.500000 0.500000 0.500000
O O6 0.599897 0.388493 0.402131
O O7 0.593283 0.662126 0.795104
O O8 0.253860 0.737482 0.499716
O O9 0.139737 0.669876 0.273387
O O10 0.000000 0.500000 0.500000
O O11 0.125585 0.387439 0.151282
O O12 0.313620 0.765639 0.770214
O O13 0.137918 0.726571 0.820730
O O14 0.424813 0.126109 0.823453
O O15 0.000000 0.500000 0.000000
O O16 0.739467 0.459834 0.108561
O O17 0.500000 0.000000 0.000000
O O18 0.660805 0.539519 0.052240
O O19 0.500000 0.500000 0.000000
#
# Coordination Sequence:
#
# PCOD9050778 Si02
#       8
#     2   2   2   2   2   2   2   2
#     4  11  23  42  74 105 141 181 238 292 356 414
#     4  11  22  43  68 103 144 180 239 291 348 418
#     4  10  25  44  66  99 138 179 234 287 352 422
#     4  11  24  44  66 101 139 181 237 286 357 410
#     4  11  22  43  74 100 134 185 235 290 343 423
#     4  11  21  40  68 100 134 179 232 290 342 410
#     4  11  24  46  67 103 140 181 241 290 355 423
#     4  12  27  44  67 104 146 191 229 290 364 430
#
# _framework density 21.809677000000001
#
# number of rings (size 3 to 8) (size 9 to 14) (size 15 to 20)
#    0.000    1.000    3.750    3.750    3.500    3.500 
#    0.000    2.500    0.000    0.000    0.000    0.000 
#    0.000    0.000    0.000    0.000    0.000    0.000 
#
# Total GULP energy -89219.366314 kJ/mol
# GULP energy per Si atom -5576.210395 kJ/mol
# Density = 2.176004 g / cm^3
# Si number density = 21.809677 Si / 1000 Ang^3
#
#
#
# Elastic Constant Matrix: (Units=GPa)
#
#
# Indices 1 2 3 4 5 6 
#
# 1 138.8657 19.7942 45.6536 4.3133 24.2715 -6.6492
# 2 19.7942 34.0166 9.2754 13.2637 6.0869 4.2311
# 3 45.6536 9.2754 169.1070 9.7061 11.8576 8.5110
# 4 4.3133 13.2637 9.7061 36.3522 3.3413 0.0170
# 5 24.2715 6.0869 11.8576 3.3413 50.5404 -6.2736
# 6 -6.6492 4.2311 8.5110 0.0170 -6.2736 30.6363
#
#
#
# Elastic Compliance Matrix: (Units=1/GPa)
#
#
# Indices 1 2 3 4 5 6 
#
# 1 0.009304 -0.005251 -0.002243 0.001693 -0.003082 0.002735
# 2 -0.005251 0.038852 0.000580 -0.013494 -0.002286 -0.007127
# 3 -0.002243 0.000580 0.006770 -0.001679 -0.000794 -0.002609
# 4 0.001693 -0.013494 -0.001679 0.032738 -0.000642 0.002548
# 5 -0.003082 -0.002286 -0.000794 -0.000642 0.022321 0.004439
# 6 0.002735 -0.007127 -0.002609 0.002548 0.004439 0.035852
#
#
# Mechanical properties :
#
#
# Convention : Reuss Voigt Hill
#
# Bulk Modulus (GPa) = 24.33134 54.60397 39.46765
# Shear Modulus (GPa) = 28.84103 41.32351 35.08227
#
# Velocity S-wave (km/s) = 3.64042 4.35758 4.01504
# Velocity P-wave (km/s) = 5.37128 7.09992 6.29522
#
# Compressibility (1/GPa) = 0.04109926
#
# Stress axis : x y z
#
# Youngs Moduli (GPa) = 107.47989 25.73859 147.70191
#
# Poissons Ratio (x) = 0.13516 0.33122
# Poissons Ratio (y) = 0.56442 -0.08570
# Poissons Ratio (z) = 0.24102 -0.01493
#
# Static dielectric constant tensor:
#      x y z
#    x 1.559070 0.125340 0.069310 
#    y 0.125340 1.733860 -0.018930 
#    z 0.069310 -0.018930 1.823090 
# 
# From -- ./inp_files/333734.got.cif
#   From: 2010.05.17/outbox.cif.g08.bks.cpg/sg2_167_cif.got.tgz:333734.got - 2010.06.03 11:33:40.
