data_PCOD9050397
_publ_section_title
;
Structure prediction by ZEFSAII (Michael W. Deem and Ramdas Pophale) SiO2 
 PCOD9050397
Probable space group: P -1
;
_chemical_formula_sum "Si O2"
_cell_formula_units_Z 16
_cell_length_a 5.398529
_cell_length_b 13.017953
_cell_length_c 15.169061
_cell_angle_alpha 45.834949
_cell_angle_beta 62.892482
_cell_angle_gamma 81.877057
_cell_volume 654.291413
_symmetry_space_group_name_H-M "P -1"
_symmetry_group_IT_number 2
_symmetry_cell_setting 'triclinic'
loop_
_space_group_symop_operation_xyz
x,y,z
-x,-y,-z
loop_
_atom_site_type_symbol
_atom_site_label
_atom_site_fract_x
_atom_site_fract_y
_atom_site_fract_z
Si Si1 0.894330 0.897972 0.299328
Si Si2 0.243301 0.581041 0.485050
Si Si3 0.329640 0.317689 0.862589
Si Si4 0.826000 0.683549 0.911389
Si Si5 0.844485 0.167429 0.890665
Si Si6 0.514365 0.062280 0.779660
Si Si7 0.558082 0.324486 0.180185
Si Si8 0.733638 0.636683 0.620154
O O1 0.190796 0.984413 0.244242
O O2 0.660707 0.976927 0.258620
O O3 0.759861 0.758263 0.466640
O O4 0.008631 0.856500 0.210318
O O5 0.500000 0.500000 0.500000
O O6 0.527838 0.506763 0.274002
O O7 0.000000 0.500000 0.500000
O O8 0.032969 0.588090 0.597333
O O9 0.610630 0.243402 0.662993
O O10 0.200460 0.283430 0.001263
O O11 0.600700 0.248525 0.859543
O O12 0.086813 0.257349 0.865083
O O13 0.617934 0.732709 0.846151
O O14 0.166372 0.733016 0.804547
O O15 0.703620 0.502204 0.036431
O O16 0.676564 0.017732 0.059485
O O17 0.335464 0.306707 0.307984
#
# Coordination Sequence:
#
# PCOD9050397 Si02
#       8
#     2   2   2   2   2   2   2   2
#     4  11  24  41  62  84 126 167 223 255 301 367
#     4  11  25  40  62  89 125 164 202 259 307 360
#     4  11  25  38  63  98 130 163 214 264 322 370
#     4   9  18  36  58  89 122 159 202 264 320 374
#     4  12  25  41  62  89 129 177 212 255 304 380
#     4  11  24  44  61  85 122 178 219 250 303 369
#     4   9  18  35  61  84 124 162 202 257 325 380
#     4  10  25  40  61  98 129 169 212 261 326 375
#
# _framework density 24.453935999999999
#
# number of rings (size 3 to 8) (size 9 to 14) (size 15 to 20)
#    0.000    1.500    0.000    4.500    7.000    8.500 
#    0.000    0.000    0.000    0.000    0.000   40.250 
#    0.000    0.000    0.000    0.000    0.000    0.000 
#
# Total GULP energy -89590.544280 kJ/mol
# GULP energy per Si atom -5599.409018 kJ/mol
# Density = 2.439828 g / cm^3
# Si number density = 24.453936 Si / 1000 Ang^3
#
#
#
# Elastic Constant Matrix: (Units=GPa)
#
#
# Indices 1 2 3 4 5 6 
#
# 1 207.6937 32.2775 50.7877 16.2033 13.8083 11.6272
# 2 32.2775 60.9105 34.9999 -3.7574 0.3284 21.2713
# 3 50.7877 34.9999 151.5038 -6.6763 -11.6284 8.1613
# 4 16.2033 -3.7574 -6.6763 45.5410 -1.0124 -7.7629
# 5 13.8083 0.3284 -11.6284 -1.0124 42.6227 2.7488
# 6 11.6272 21.2713 8.1613 -7.7629 2.7488 30.5552
#
#
#
# Elastic Compliance Matrix: (Units=1/GPa)
#
#
# Indices 1 2 3 4 5 6 
#
# 1 0.005993 -0.001976 -0.001812 -0.002770 -0.002428 -0.000906
# 2 -0.001976 0.025541 -0.004379 -0.000557 0.000269 -0.016025
# 3 -0.001812 -0.004379 0.008429 0.001873 0.002855 0.001706
# 4 -0.002770 -0.000557 0.001873 0.024400 0.001541 0.007002
# 5 -0.002428 0.000269 0.002855 0.001541 0.025184 -0.001900
# 6 -0.000906 -0.016025 0.001706 0.007002 -0.001900 0.045723
#
#
# Mechanical properties :
#
#
# Convention : Reuss Voigt Hill
#
# Bulk Modulus (GPa) = 42.31886 72.91535 57.61710
# Shear Modulus (GPa) = 31.35164 43.87997 37.61580
#
# Velocity S-wave (km/s) = 3.58448 4.24062 3.92628
# Velocity P-wave (km/s) = 5.87150 7.33889 6.64582
#
# Compressibility (1/GPa) = 0.02363013
#
# Stress axis : x y z
#
# Youngs Moduli (GPa) = 166.85517 39.15250 118.63288
#
# Poissons Ratio (x) = 0.07736 0.21499
# Poissons Ratio (y) = 0.32968 0.51946
# Poissons Ratio (z) = 0.30238 0.17144
#
# Static dielectric constant tensor:
#      x y z
#    x 2.023770 -0.014670 0.004600 
#    y -0.014670 1.996540 -0.020000 
#    z 0.004600 -0.020000 1.927550 
# 
# From -- ./inp_files/366799.got.cif
#   From: 2010.05.17/outbox.cif.g08.bks.cpg/sg2_184_cif.got.tgz:366799.got - 2010.06.03 11:33:40.
