data_PCOD9050989
_publ_section_title
;
Structure prediction by ZEFSAII (Michael W. Deem and Ramdas Pophale) SiO2 
 PCOD9050989
Probable space group: P -1
;
_chemical_formula_sum "Si O2"
_cell_formula_units_Z 16
_cell_length_a 13.876597
_cell_length_b 10.737184
_cell_length_c 8.107545
_cell_angle_alpha 122.775700
_cell_angle_beta 44.624855
_cell_angle_gamma 134.927099
_cell_volume 598.965176
_symmetry_space_group_name_H-M "P -1"
_symmetry_group_IT_number 2
_symmetry_cell_setting 'triclinic'
loop_
_space_group_symop_operation_xyz
x,y,z
-x,-y,-z
loop_
_atom_site_type_symbol
_atom_site_label
_atom_site_fract_x
_atom_site_fract_y
_atom_site_fract_z
Si Si1 0.192090 0.148965 0.552287
Si Si2 0.308855 0.492177 0.066349
Si Si3 0.601477 0.124899 0.813929
Si Si4 0.110403 0.804682 0.280916
Si Si5 0.004560 0.822807 0.920219
Si Si6 0.675535 0.032108 0.196373
Si Si7 0.749767 0.553882 0.515458
Si Si8 0.435509 0.262559 0.620751
O O1 0.087574 0.210194 0.818501
O O2 0.267721 0.289420 0.416689
O O3 0.327808 0.160690 0.518870
O O4 0.076370 0.950109 0.492526
O O5 0.393189 0.694849 0.063168
O O6 0.316247 0.485828 0.248335
O O7 0.116255 0.349364 0.161227
O O8 0.393883 0.410123 0.805515
O O9 0.786546 0.200151 0.696554
O O10 0.504855 0.017762 0.686375
O O11 0.500000 0.000000 0.000000
O O12 0.940136 0.623588 0.328939
O O13 0.223811 0.896517 0.047336
O O14 0.000000 0.000000 0.000000
O O15 0.177571 0.845680 0.763557
O O16 0.624767 0.849258 0.217422
O O17 0.629969 0.370745 0.434602
#
# Coordination Sequence:
#
# PCOD9050989 Si02
#       8
#     2   2   2   2   2   2   2   2
#     4  11  23  38  64  99 134 156 202 273 331 371
#     4  11  23  40  69  93 130 166 219 256 316 385
#     4  10  25  45  64  89 124 183 221 252 300 394
#     4  11  25  41  65  91 131 170 216 254 316 382
#     4  11  21  39  68 102 126 160 211 271 324 375
#     4  11  21  45  66  92 129 171 216 256 317 387
#     4  12  23  38  65 101 126 161 205 277 326 366
#     4  11  24  39  67 100 128 161 209 267 328 375
#
# _framework density 26.712741000000001
#
# number of rings (size 3 to 8) (size 9 to 14) (size 15 to 20)
#    0.000    1.000    5.000    2.625    3.500    0.500 
#    0.000    4.375    0.000    0.000    0.000    0.000 
#    0.000    0.000    0.000    0.000    0.000    0.000 
#
# Total GULP energy -89378.717124 kJ/mol
# GULP energy per Si atom -5586.169820 kJ/mol
# Density = 2.665194 g / cm^3
# Si number density = 26.712741 Si / 1000 Ang^3
#
#
#
# Elastic Constant Matrix: (Units=GPa)
#
#
# Indices 1 2 3 4 5 6 
#
# 1 197.6696 33.2667 22.3309 -24.4885 -11.8498 29.1464
# 2 33.2667 127.5953 25.4170 -28.1865 9.6168 14.0673
# 3 22.3309 25.4170 56.7630 -16.5025 -9.6097 0.3891
# 4 -24.4885 -28.1865 -16.5025 35.1200 9.7386 -6.8391
# 5 -11.8498 9.6168 -9.6097 9.7386 35.4779 -27.9639
# 6 29.1464 14.0673 0.3891 -6.8391 -27.9639 57.7632
#
#
#
# Elastic Compliance Matrix: (Units=1/GPa)
#
#
# Indices 1 2 3 4 5 6 
#
# 1 0.006097 0.000180 -0.001885 0.003458 -0.002585 -0.003950
# 2 0.000180 0.013558 -0.005583 0.010863 -0.015750 -0.009693
# 3 -0.001885 -0.005583 0.024146 0.003542 0.013705 0.009202
# 4 0.003458 0.010863 0.003542 0.045145 -0.020194 -0.008846
# 5 -0.002585 -0.015750 0.013705 -0.020194 0.069438 0.036273
# 6 -0.003950 -0.009693 0.009202 -0.008846 0.036273 0.038117
#
#
# Mechanical properties :
#
#
# Convention : Reuss Voigt Hill
#
# Bulk Modulus (GPa) = 34.21744 60.45079 47.33411
# Shear Modulus (GPa) = 22.64301 45.73976 34.19139
#
# Velocity S-wave (km/s) = 2.91460 4.14246 3.58154
# Velocity P-wave (km/s) = 4.91566 6.74975 5.90435
#
# Compressibility (1/GPa) = 0.02922486
#
# Stress axis : x y z
#
# Youngs Moduli (GPa) = 164.00367 73.75724 41.41547
#
# Poissons Ratio (x) = -0.01327 0.07805
# Poissons Ratio (y) = -0.02951 0.23124
# Poissons Ratio (z) = 0.30907 0.41182
#
# Static dielectric constant tensor:
#      x y z
#    x 2.222250 0.026910 -0.066600 
#    y 0.026910 2.097610 -0.031360 
#    z -0.066600 -0.031360 2.117760 
# 
# From -- ./inp_files/305510.got.cif
#   From: 2010.05.17/outbox.cif.g08.bks.cpg/sg2_153_cif.got.tgz:305510.got - 2010.06.03 11:33:40.
