data_PCOD9050975
_publ_section_title
;
Structure prediction by ZEFSAII (Michael W. Deem and Ramdas Pophale) SiO2 
 PCOD9050975
Probable space group: P -1
;
_chemical_formula_sum "Si O2"
_cell_formula_units_Z 12
_cell_length_a 14.151599
_cell_length_b 8.686623
_cell_length_c 6.983044
_cell_angle_alpha 72.811727
_cell_angle_beta 120.792404
_cell_angle_gamma 142.685132
_cell_volume 436.621183
_symmetry_space_group_name_H-M "P -1"
_symmetry_group_IT_number 2
_symmetry_cell_setting 'triclinic'
loop_
_space_group_symop_operation_xyz
x,y,z
-x,-y,-z
loop_
_atom_site_type_symbol
_atom_site_label
_atom_site_fract_x
_atom_site_fract_y
_atom_site_fract_z
Si Si1 0.395062 0.314272 0.148786
Si Si2 0.641249 0.301255 0.486615
Si Si3 0.732332 0.499003 0.905155
Si Si4 0.972143 0.273202 0.579395
Si Si5 0.902119 0.246960 0.115284
Si Si6 0.339789 0.918815 0.741219
O O1 0.536802 0.346902 0.352636
O O2 0.500000 0.500000 0.000000
O O3 0.330624 0.389612 0.180528
O O4 0.214935 0.009993 0.030543
O O5 0.696223 0.284985 0.346295
O O6 0.500000 0.000000 0.500000
O O7 0.769696 0.480424 0.735245
O O8 0.751391 0.171196 0.111742
O O9 0.904531 0.668114 0.157432
O O10 0.545759 0.195577 0.873424
O O11 0.984000 0.235738 0.383437
O O12 0.760319 0.046450 0.486395
O O13 0.000000 0.500000 0.500000
O O14 0.000000 0.500000 0.000000
#
# Coordination Sequence:
#
# PCOD9050975 Si02
#       6
#     2   2   2   2   2   2
#     4  12  25  48  87 124 173 222 282 359 439 500
#     4  10  25  46  88 126 160 227 290 348 419 520
#     4  11  24  50  83 123 170 222 280 356 438 503
#     4  10  25  44  77 123 165 216 285 350 422 504
#     4  10  25  50  78 122 173 221 286 351 420 517
#     4   9  23  48  82 122 168 215 292 347 420 501
#
# _framework density 27.483775000000001
#
# number of rings (size 3 to 8) (size 9 to 14) (size 15 to 20)
#    1.000    0.667    1.667    0.500    7.000    5.333 
#    0.000    0.833    0.000   17.000    0.000    0.000 
#    0.000    0.000    0.000    0.000    0.000    0.000 
#
# Total GULP energy -66954.127476 kJ/mol
# GULP energy per Si atom -5579.510623 kJ/mol
# Density = 2.742122 g / cm^3
# Si number density = 27.483775 Si / 1000 Ang^3
#
#
#
# Elastic Constant Matrix: (Units=GPa)
#
#
# Indices 1 2 3 4 5 6 
#
# 1 192.9903 38.4359 78.8088 -1.6967 -15.3296 -26.0438
# 2 38.4359 102.9937 42.9908 9.0549 -8.1898 -14.9231
# 3 78.8088 42.9908 241.6880 13.4578 15.0956 -24.3602
# 4 -1.6967 9.0549 13.4578 38.5439 -10.3380 1.1994
# 5 -15.3296 -8.1898 15.0956 -10.3380 58.3879 -5.3455
# 6 -26.0438 -14.9231 -24.3602 1.1994 -5.3455 53.4800
#
#
#
# Elastic Compliance Matrix: (Units=1/GPa)
#
#
# Indices 1 2 3 4 5 6 
#
# 1 0.006810 -0.001327 -0.002036 0.001972 0.002683 0.002243
# 2 -0.001327 0.011360 -0.001360 -0.001929 0.001447 0.002092
# 3 -0.002036 -0.001360 0.005419 -0.002350 -0.002460 0.000904
# 4 0.001972 -0.001929 -0.002350 0.028912 0.005909 -0.000706
# 5 0.002683 0.001447 -0.002460 0.005909 0.019941 0.002450
# 6 0.002243 0.002092 0.000904 -0.000706 0.002450 0.021047
#
#
# Mechanical properties :
#
#
# Convention : Reuss Voigt Hill
#
# Bulk Modulus (GPa) = 70.70352 95.34920 83.02636
# Shear Modulus (GPa) = 46.44708 55.24481 50.84594
#
# Velocity S-wave (km/s) = 4.11540 4.48826 4.30587
# Velocity P-wave (km/s) = 6.95438 7.85032 7.41589
#
# Compressibility (1/GPa) = 0.01414357
#
# Stress axis : x y z
#
# Youngs Moduli (GPa) = 146.83474 88.02839 184.53523
#
# Poissons Ratio (x) = 0.11679 0.37572
# Poissons Ratio (y) = 0.19481 0.25099
# Poissons Ratio (z) = 0.29896 0.11973
#
# Static dielectric constant tensor:
#      x y z
#    x 2.084930 0.015820 0.048230 
#    y 0.015820 2.315630 0.067500 
#    z 0.048230 0.067500 2.551700 
# 
# From -- ./inp_files/327388.got.cif
#   From: 2010.05.17/outbox.cif.g08.bks.cpg/sg2_164_cif.got.tgz:327388.got - 2010.06.03 11:33:40.
