data_PCOD9050235
_publ_section_title
;
Structure prediction by ZEFSAII (Michael W. Deem and Ramdas Pophale) SiO2 
 PCOD9050235
Probable space group: P -1
;
_chemical_formula_sum "Si O2"
_cell_formula_units_Z 16
_cell_length_a 11.272285
_cell_length_b 11.928020
_cell_length_c 13.386428
_cell_angle_alpha 63.203404
_cell_angle_beta 146.585947
_cell_angle_gamma 94.202290
_cell_volume 696.610520
_symmetry_space_group_name_H-M "P -1"
_symmetry_group_IT_number 2
_symmetry_cell_setting 'triclinic'
loop_
_space_group_symop_operation_xyz
x,y,z
-x,-y,-z
loop_
_atom_site_type_symbol
_atom_site_label
_atom_site_fract_x
_atom_site_fract_y
_atom_site_fract_z
Si Si1 0.907165 0.330537 0.005005
Si Si2 0.424793 0.692001 0.095559
Si Si3 0.244888 0.508584 0.781388
Si Si4 0.851645 0.972936 0.491844
Si Si5 0.644850 0.667004 0.676023
Si Si6 0.319464 0.153601 0.736995
Si Si7 0.686369 0.725028 0.914842
Si Si8 0.931782 0.170948 0.891969
O O1 0.637738 0.414111 0.850536
O O2 0.834439 0.487728 0.836956
O O3 0.909802 0.217570 0.974252
O O4 0.206850 0.256799 0.288946
O O5 0.634290 0.602534 0.187543
O O6 0.529217 0.769745 0.201465
O O7 0.108695 0.836378 0.790911
O O8 0.986208 0.692776 0.505606
O O9 0.500000 0.500000 0.000000
O O10 0.189017 0.425327 0.862198
O O11 0.713524 0.908191 0.363349
O O12 0.618086 0.134999 0.315985
O O13 0.000000 0.000000 0.500000
O O14 0.643884 0.691625 0.785168
O O15 0.353158 0.729842 0.406066
O O16 0.500000 0.000000 0.000000
O O17 0.862424 0.791874 0.015732
O O18 0.000000 0.000000 0.000000
#
# Coordination Sequence:
#
# PCOD9050235 Si02
#       8
#     2   2   2   2   2   2   2   2
#     4  10  25  46  73 103 135 189 245 301 370 428
#     4  12  26  43  72 107 143 195 239 301 365 444
#     4  12  24  49  73 108 153 193 248 297 366 450
#     4  12  24  46  65 104 154 189 241 297 365 436
#     4  10  24  49  74  98 142 187 246 306 364 433
#     4  12  26  44  71 104 151 198 241 297 359 438
#     4  11  26  45  73 106 146 199 243 303 367 440
#     4  11  27  47  71 107 142 190 248 308 362 435
#
# _framework density 22.968357999999998
#
# number of rings (size 3 to 8) (size 9 to 14) (size 15 to 20)
#    0.000    0.750    3.750    1.500    7.000    1.000 
#    4.500    0.000    0.000    0.000    0.000    0.000 
#    0.000    0.000    0.000    0.000    0.000    0.000 
#
# Total GULP energy -89244.817712 kJ/mol
# GULP energy per Si atom -5577.801107 kJ/mol
# Density = 2.291608 g / cm^3
# Si number density = 22.968358 Si / 1000 Ang^3
#
#
#
# Elastic Constant Matrix: (Units=GPa)
#
#
# Indices 1 2 3 4 5 6 
#
# 1 -2661.8667-2048.8855-1219.6100 39.8382 -306.6591 378.0502
# 2 -2048.8855-1413.2840 -893.1088 44.2940 -240.3902 277.3826
# 3 -1219.6100 -893.1088 -417.0255 10.0461 -132.2122 163.8954
# 4 39.8382 44.2940 10.0461 46.0660 1.3901 2.1407
# 5 -306.6591 -240.3902 -132.2122 1.3901 -14.5946 43.6080
# 6 378.0502 277.3826 163.8954 2.1407 43.6080 -13.4787
#
#
#
# Elastic Compliance Matrix: (Units=1/GPa)
#
#
# Indices 1 2 3 4 5 6 
#
# 1 0.004538 -0.004412 -0.001323 0.000708 -0.005848 0.001603
# 2 -0.004412 0.007288 -0.002471 -0.002829 0.002074 0.002439
# 3 -0.001323 -0.002471 0.008207 0.001803 -0.003524 0.000721
# 4 0.000708 -0.002829 0.001803 0.023590 0.002339 -0.005117
# 5 -0.005848 0.002074 -0.003524 0.002339 0.050438 -0.000637
# 6 0.001603 0.002439 0.000721 -0.005117 -0.000637 0.026853
#
#
# Mechanical properties :
#
#
# Convention : Reuss Voigt Hill
#
# Bulk Modulus (GPa) = 276.16456 -1423.93163 -573.88353
# Shear Modulus (GPa) = 36.09261 -18.43960 8.82650
#
# Velocity S-wave (km/s) = 3.96840 -2.83649 1.96246
# Velocity P-wave (km/s) = 11.89519 25.14015 15.66096
#
# Compressibility (1/GPa) = 0.00362103
#
# Stress axis : x y z
#
# Youngs Moduli (GPa) = 220.34234 137.21741 121.84691
#
# Poissons Ratio (x) = 0.60541 0.16118
# Poissons Ratio (y) = 0.97217 0.30110
# Poissons Ratio (z) = 0.29148 0.33908
#
# Static dielectric constant tensor:
#      x y z
#    x 1.554420 -0.451860 0.299590 
#    y -0.451860 1.247150 0.296750 
#    z 0.299590 0.296750 1.820040 
# 
# From -- ./inp_files/519643.got.cif
#   From: 2010.05.17/outbox.cif.g08.bks.cpg/sg2_260_cif.got.tgz:519643.got - 2010.06.03 11:33:40.
