data_PCOD9050870
_publ_section_title
;
Structure prediction by ZEFSAII (Michael W. Deem and Ramdas Pophale) SiO2 
 PCOD9050870
Probable space group: P -1
;
_chemical_formula_sum "Si O2"
_cell_formula_units_Z 14
_cell_length_a 15.581684
_cell_length_b 8.955324
_cell_length_c 9.447095
_cell_angle_alpha 48.312474
_cell_angle_beta 139.928932
_cell_angle_gamma 118.021547
_cell_volume 631.615895
_symmetry_space_group_name_H-M "P -1"
_symmetry_group_IT_number 2
_symmetry_cell_setting 'triclinic'
loop_
_space_group_symop_operation_xyz
x,y,z
-x,-y,-z
loop_
_atom_site_type_symbol
_atom_site_label
_atom_site_fract_x
_atom_site_fract_y
_atom_site_fract_z
Si Si1 0.914620 0.469825 0.765973
Si Si2 0.079502 0.674101 0.422041
Si Si3 0.605979 0.350962 0.143183
Si Si4 0.545218 0.926909 0.447832
Si Si5 0.622852 0.498798 0.765816
Si Si6 0.053615 0.123431 0.618932
Si Si7 0.265116 0.768219 0.138472
O O1 0.966927 0.308856 0.811709
O O2 0.904175 0.675181 0.532649
O O3 0.775580 0.389281 0.695510
O O4 0.000000 0.500000 0.000000
O O5 0.238434 0.616507 0.654836
O O6 0.000000 0.500000 0.500000
O O7 0.044806 0.841424 0.392998
O O8 0.589752 0.120600 0.304276
O O9 0.500000 0.500000 0.000000
O O10 0.579542 0.395998 0.917850
O O11 0.648077 0.728342 0.691340
O O12 0.410070 0.847285 0.268632
O O13 0.500000 0.000000 0.500000
O O14 0.500000 0.500000 0.500000
O O15 0.744948 0.360704 0.937552
O O16 0.000000 0.000000 0.500000
O O17 0.173971 0.971167 0.919590
#
# Coordination Sequence:
#
# PCOD9050870 Si02
#       7
#     2   2   2   2   2   2   2
#     4  11  24  45  69 100 145 192 238 298 362 423
#     4  10  26  45  72 105 143 189 240 296 363 428
#     4  12  25  45  76 104 144 190 238 299 370 427
#     4  11  24  44  70 105 137 186 238 294 357 436
#     4  10  25  44  70 104 147 183 239 296 359 428
#     4  11  23  45  70 103 144 188 238 298 360 432
#     4  11  25  43  70 103 144 182 239 296 358 424
#
# _framework density 22.165369999999999
#
# number of rings (size 3 to 8) (size 9 to 14) (size 15 to 20)
#    0.000    1.143    2.857    1.714    8.000    5.143 
#    0.000    0.000    0.000    0.000    0.000    0.000 
#    0.000    0.000    0.000    0.000    0.000    0.000 
#
# Total GULP energy -78040.575023 kJ/mol
# GULP energy per Si atom -5574.326787 kJ/mol
# Density = 2.211492 g / cm^3
# Si number density = 22.165370 Si / 1000 Ang^3
#
#
#
# Elastic Constant Matrix: (Units=GPa)
#
#
# Indices 1 2 3 4 5 6 
#
# 1 167.0019 63.5371 53.2919 -11.2408 -16.1178 -17.2031
# 2 63.5371 114.3637 39.0466 -15.9278 -9.9714 -5.1235
# 3 53.2919 39.0466 79.6372 -12.9546 -14.9447 -4.1004
# 4 -11.2408 -15.9278 -12.9546 44.3810 2.0263 -7.1390
# 5 -16.1178 -9.9714 -14.9447 2.0263 53.4640 -0.6184
# 6 -17.2031 -5.1235 -4.1004 -7.1390 -0.6184 66.4835
#
#
#
# Elastic Compliance Matrix: (Units=1/GPa)
#
#
# Indices 1 2 3 4 5 6 
#
# 1 0.008817 -0.003367 -0.003962 0.000115 0.000939 0.001799
# 2 -0.003367 0.012094 -0.003206 0.002563 0.000249 0.000141
# 3 -0.003962 -0.003206 0.017847 0.002942 0.003087 0.000173
# 4 0.000115 0.002563 0.002942 0.024815 0.000430 0.003077
# 5 0.000939 0.000249 0.003087 0.000430 0.019888 0.000684
# 6 0.001799 0.000141 0.000173 0.003077 0.000684 0.015865
#
#
# Mechanical properties :
#
#
# Convention : Reuss Voigt Hill
#
# Bulk Modulus (GPa) = 56.53359 74.75045 65.64202
# Shear Modulus (GPa) = 39.59083 46.54084 43.06583
#
# Velocity S-wave (km/s) = 4.23088 4.58723 4.41265
# Velocity P-wave (km/s) = 7.03050 7.86474 7.45929
#
# Compressibility (1/GPa) = 0.01768860
#
# Stress axis : x y z
#
# Youngs Moduli (GPa) = 113.41818 82.68350 56.03315
#
# Poissons Ratio (x) = 0.27843 0.22198
# Poissons Ratio (y) = 0.38192 0.17962
# Poissons Ratio (z) = 0.44932 0.26505
#
# Static dielectric constant tensor:
#      x y z
#    x 1.866040 -0.156750 0.174890 
#    y -0.156750 2.103350 -0.279440 
#    z 0.174890 -0.279440 2.305640 
# 
# From -- ./inp_files/294310.got.cif
#   From: 2010.05.17/outbox.cif.g08.bks.cpg/sg2_148_cif.got.tgz:294310.got - 2010.06.03 11:33:40.
