data_PCOD9050385
_publ_section_title
;
Structure prediction by ZEFSAII (Michael W. Deem and Ramdas Pophale) SiO2 
 PCOD9050385
Probable space group: P -1
;
_chemical_formula_sum "Si O2"
_cell_formula_units_Z 14
_cell_length_a 12.008202
_cell_length_b 15.014855
_cell_length_c 13.112922
_cell_angle_alpha 44.098776
_cell_angle_beta 124.916762
_cell_angle_gamma 151.660120
_cell_volume 768.170080
_symmetry_space_group_name_H-M "P -1"
_symmetry_group_IT_number 2
_symmetry_cell_setting 'triclinic'
loop_
_space_group_symop_operation_xyz
x,y,z
-x,-y,-z
loop_
_atom_site_type_symbol
_atom_site_label
_atom_site_fract_x
_atom_site_fract_y
_atom_site_fract_z
Si Si1 0.357722 0.810592 0.168140
Si Si2 0.200332 0.165560 0.319771
Si Si3 0.776230 0.981341 0.348644
Si Si4 0.929508 0.375899 0.170552
Si Si5 0.892276 0.020251 0.788060
Si Si6 0.602873 0.949485 0.843525
Si Si7 0.360814 0.309015 0.898117
O O1 0.125754 0.567178 0.198261
O O2 0.539811 0.848446 0.278926
O O3 0.300745 0.868364 0.179742
O O4 0.500000 0.000000 0.000000
O O5 0.401703 0.425929 0.187429
O O6 0.951574 0.043665 0.312810
O O7 0.272276 0.146729 0.475335
O O8 0.167057 0.045500 0.305957
O O9 0.912189 0.212187 0.272725
O O10 0.663634 0.216733 0.190508
O O11 0.000000 0.500000 0.000000
O O12 0.170749 0.225371 0.791397
O O13 0.772215 0.050638 0.752979
O O14 0.770785 0.810235 0.963171
O O15 0.588838 0.800008 0.015124
#
# Coordination Sequence:
#
# PCOD9050385 Si02
#       7
#     2   2   2   2   2   2   2
#     4  11  22  35  60  82 116 150 191 251 279 333
#     4  11  22  39  60  82 128 156 182 244 290 353
#     4  10  25  38  55  94 115 155 199 224 305 352
#     4  11  20  37  59  84 113 152 192 242 287 334
#     4   9  21  36  59  90 116 151 200 237 283 345
#     4   9  20  35  56  93 110 142 203 235 288 340
#     4   9  20  35  59  90 115 148 198 237 287 342
#
# _framework density 18.22513
#
# number of rings (size 3 to 8) (size 9 to 14) (size 15 to 20)
#    0.857    1.143    2.857    1.286    2.000    2.286 
#    0.000    5.714    0.000    5.143    0.000    0.000 
#    0.000    0.000    0.000    0.000    0.000    0.000 
#
# Total GULP energy -78058.713626 kJ/mol
# GULP energy per Si atom -5575.622402 kJ/mol
# Density = 1.818365 g / cm^3
# Si number density = 18.225130 Si / 1000 Ang^3
#
#
#
# Elastic Constant Matrix: (Units=GPa)
#
#
# Indices 1 2 3 4 5 6 
#
# 1 117.9655 47.0393 26.4448 21.4000 -1.9296 -8.4465
# 2 47.0393 110.7053 13.5099 24.2480 -7.4326 -17.3321
# 3 26.4448 13.5099 15.3359 7.1268 -3.6893 0.6713
# 4 21.4000 24.2480 7.1268 19.8736 -1.8199 4.0199
# 5 -1.9296 -7.4326 -3.6893 -1.8199 22.5923 2.9857
# 6 -8.4465 -17.3321 0.6713 4.0199 2.9857 14.6024
#
#
#
# Elastic Compliance Matrix: (Units=1/GPa)
#
#
# Indices 1 2 3 4 5 6 
#
# 1 0.018366 0.002109 -0.028057 -0.017000 -0.006385 0.020402
# 2 0.002109 0.022861 -0.009806 -0.034643 -0.001807 0.038711
# 3 -0.028057 -0.009806 0.125674 0.007064 0.020733 -0.039830
# 4 -0.017000 -0.034643 0.007064 0.127172 0.010228 -0.088377
# 5 -0.006385 -0.001807 0.020733 0.010228 0.049952 -0.019820
# 6 0.020402 0.038711 -0.039830 -0.088377 -0.019820 0.156444
#
#
# Mechanical properties :
#
#
# Convention : Reuss Voigt Hill
#
# Bulk Modulus (GPa) = 10.48295 46.44385 28.46340
# Shear Modulus (GPa) = 8.28126 21.88118 15.08122
#
# Velocity S-wave (km/s) = 2.13395 3.46873 2.87974
# Velocity P-wave (km/s) = 3.44036 6.44838 5.16806
#
# Compressibility (1/GPa) = 0.09539297
#
# Stress axis : x y z
#
# Youngs Moduli (GPa) = 54.44848 43.74318 7.95712
#
# Poissons Ratio (x) = -0.09226 0.22325
# Poissons Ratio (y) = -0.11485 0.07803
# Poissons Ratio (z) = 1.52765 0.42895
#
# Static dielectric constant tensor:
#      x y z
#    x 1.629860 0.006680 -0.000910 
#    y 0.006680 1.605690 -0.001510 
#    z -0.000910 -0.001510 1.627600 
# 
# From -- ./inp_files/432611.got.cif
#   From: 2010.05.17/outbox.cif.g08.bks.cpg/sg2_217_cif.got.tgz:432611.got - 2010.06.03 11:33:40.
