data_PCOD9050868
_publ_section_title
;
Structure prediction by ZEFSAII (Michael W. Deem and Ramdas Pophale) SiO2 
 PCOD9050868
Probable space group: P -1
;
_chemical_formula_sum "Si O2"
_cell_formula_units_Z 16
_cell_length_a 9.000174
_cell_length_b 5.246067
_cell_length_c 28.362928
_cell_angle_alpha 106.704145
_cell_angle_beta 30.386484
_cell_angle_gamma 101.641362
_cell_volume 645.856352
_symmetry_space_group_name_H-M "P -1"
_symmetry_group_IT_number 2
_symmetry_cell_setting 'triclinic'
loop_
_space_group_symop_operation_xyz
x,y,z
-x,-y,-z
loop_
_atom_site_type_symbol
_atom_site_label
_atom_site_fract_x
_atom_site_fract_y
_atom_site_fract_z
Si Si1 0.963568 0.267741 0.552563
Si Si2 0.579373 0.791786 0.507129
Si Si3 0.537940 0.642523 0.648921
Si Si4 0.078904 0.847107 0.715623
Si Si5 0.376346 0.630371 0.115330
Si Si6 0.764394 0.811111 0.941075
Si Si7 0.410929 0.447578 0.200272
Si Si8 0.403264 0.977330 0.790546
O O1 0.084633 0.231972 0.569527
O O2 0.223966 0.416980 0.462252
O O3 0.631343 0.390488 0.642988
O O4 0.000000 0.000000 0.500000
O O5 0.500000 0.500000 0.500000
O O6 0.369648 0.916365 0.613007
O O7 0.500000 0.000000 0.500000
O O8 0.221037 0.708323 0.716153
O O9 0.574806 0.869454 0.690275
O O10 0.926163 0.625944 0.715901
O O11 0.848061 0.106774 0.798176
O O12 0.224936 0.453992 0.108312
O O13 0.471992 0.460563 0.127164
O O14 0.660286 0.730059 0.017091
O O15 0.060300 0.957311 0.870815
O O16 0.500000 0.000000 0.000000
O O17 0.504293 0.731959 0.206692
O O18 0.539759 0.220855 0.190158
#
# Coordination Sequence:
#
# PCOD9050868 Si02
#       8
#     2   2   2   2   2   2   2   2
#     4  10  25  44  70 104 142 193 251 313 369 448
#     4  11  29  46  77 112 155 199 251 313 386 453
#     4  10  25  46  70 104 143 196 253 308 372 454
#     4  11  26  51  77 109 155 208 253 310 387 459
#     4  11  25  49  79 111 154 200 257 308 382 468
#     4  11  27  50  80 112 150 204 257 313 379 464
#     4  12  28  48  73 115 150 199 246 316 382 452
#     4  12  29  46  78 110 153 195 255 319 381 448
#
# _framework density 24.773313000000002
#
# number of rings (size 3 to 8) (size 9 to 14) (size 15 to 20)
#    0.000    1.000    1.250    2.250   15.750    3.000 
#    0.000    0.000    0.000    0.000    0.000    0.000 
#    0.000    0.000    0.000    0.000    0.000    0.000 
#
# Total GULP energy -89390.841309 kJ/mol
# GULP energy per Si atom -5586.927582 kJ/mol
# Density = 2.471693 g / cm^3
# Si number density = 24.773313 Si / 1000 Ang^3
#
#
#
# Elastic Constant Matrix: (Units=GPa)
#
#
# Indices 1 2 3 4 5 6 
#
# 1 176.8796 64.4349 38.7207 16.3933 -35.8359 -7.2858
# 2 64.4349 140.2782 30.6325 21.2767 -26.9985 2.0362
# 3 38.7207 30.6325 77.2735 -5.0923 9.8570 -3.3191
# 4 16.3933 21.2767 -5.0923 33.9863 -0.1946 8.9619
# 5 -35.8359 -26.9985 9.8570 -0.1946 31.3729 -3.8319
# 6 -7.2858 2.0362 -3.3191 8.9619 -3.8319 55.1090
#
#
#
# Elastic Compliance Matrix: (Units=1/GPa)
#
#
# Indices 1 2 3 4 5 6 
#
# 1 0.011698 0.001252 -0.009025 -0.008623 0.017660 0.003587
# 2 0.001252 0.012814 -0.008244 -0.010282 0.015220 0.001926
# 3 -0.009025 -0.008244 0.024760 0.013986 -0.025516 -0.003446
# 4 -0.008623 -0.010282 0.013986 0.044295 -0.023891 -0.008782
# 5 0.017660 0.015220 -0.025516 -0.023891 0.074146 0.009276
# 6 0.003587 0.001926 -0.003446 -0.008782 0.009276 0.020415
#
#
# Mechanical properties :
#
#
# Convention : Reuss Voigt Hill
#
# Bulk Modulus (GPa) = 58.00638 73.55639 65.78139
# Shear Modulus (GPa) = 22.13308 41.46986 31.80147
#
# Velocity S-wave (km/s) = 2.99226 4.09586 3.58676
# Velocity P-wave (km/s) = 5.95012 7.21972 6.61544
#
# Compressibility (1/GPa) = 0.01723948
#
# Stress axis : x y z
#
# Youngs Moduli (GPa) = 85.48566 78.03681 40.38809
#
# Poissons Ratio (x) = -0.09772 0.36450
# Poissons Ratio (y) = -0.10705 0.33294
# Poissons Ratio (z) = 0.77150 0.64331
#
# Static dielectric constant tensor:
#      x y z
#    x 2.050900 -0.079930 0.077530 
#    y -0.079930 2.012760 -0.030990 
#    z 0.077530 -0.030990 1.842120 
# 
# From -- ./inp_files/622232.got.cif
#   From: 2010.05.17/outbox.cif.g08.bks.cpg/sg2_312_cif.got.tgz:622232.got - 2010.06.03 11:33:40.
