data_PCOD9050206
_publ_section_title
;
Structure prediction by ZEFSAII (Michael W. Deem and Ramdas Pophale) SiO2 
 PCOD9050206
Probable space group: P -1
;
_chemical_formula_sum "Si O2"
_cell_formula_units_Z 11
_cell_length_a 9.160175
_cell_length_b 9.383839
_cell_length_c 11.482706
_cell_angle_alpha 38.975986
_cell_angle_beta 72.823368
_cell_angle_gamma 51.639564
_cell_volume 450.402698
_symmetry_space_group_name_H-M "P -1"
_symmetry_group_IT_number 2
_symmetry_cell_setting 'triclinic'
loop_
_space_group_symop_operation_xyz
x,y,z
-x,-y,-z
loop_
_atom_site_type_symbol
_atom_site_label
_atom_site_fract_x
_atom_site_fract_y
_atom_site_fract_z
Si Si1 0.500000 0.000000 0.500000
Si Si2 0.204845 0.433968 0.019415
Si Si3 0.728553 0.201224 0.396821
Si Si4 0.124167 0.864814 0.939286
Si Si5 0.360991 0.073947 0.735763
Si Si6 0.110656 0.707938 0.497380
O O1 0.547804 0.214651 0.398067
O O2 0.347561 0.111772 0.576728
O O3 0.244475 0.604503 0.814562
O O4 0.198911 0.546053 0.080699
O O5 0.000000 0.500000 0.000000
O O6 0.408260 0.094933 0.179591
O O7 0.733742 0.282407 0.476281
O O8 0.930553 0.862038 0.535998
O O9 0.306585 0.865264 0.904995
O O10 0.979694 0.089517 0.725421
O O11 0.000000 0.000000 0.000000
O O12 0.209799 0.378108 0.647457
#
# Coordination Sequence:
#
# PCOD9050206 Si02
#       6
#     1   2   2   2   2   2
#     4  12  26  44  78 104 148 196 246 302 356 452
#     4  11  27  49  70 107 149 199 242 310 370 433
#     4  10  25  49  74 102 154 190 250 297 374 433
#     4  11  26  47  74 107 151 194 245 301 375 439
#     4  12  27  44  74 112 145 197 252 297 375 431
#     4  10  24  49  71 109 142 196 244 301 364 442
#
# _framework density 24.422591000000001
#
# number of rings (size 3 to 8) (size 9 to 14) (size 15 to 20)
#    0.000    1.091    3.636    1.091   12.727    1.455 
#    0.000    0.000    0.000    0.000    0.000    0.000 
#    0.000    0.000    0.000    0.000    0.000    0.000 
#
# Total GULP energy -61359.117309 kJ/mol
# GULP energy per Si atom -5578.101574 kJ/mol
# Density = 2.436700 g / cm^3
# Si number density = 24.422591 Si / 1000 Ang^3
#
#
#
# Elastic Constant Matrix: (Units=GPa)
#
#
# Indices 1 2 3 4 5 6 
#
# 1 155.0620 6.7919 26.8761 17.9940 -15.5093 13.1758
# 2 6.7919 110.7765 16.2390 -0.5445 0.9318 9.3700
# 3 26.8761 16.2390 48.9654 2.6992 -5.8513 -0.5816
# 4 17.9940 -0.5445 2.6992 43.8993 -2.8841 -3.0711
# 5 -15.5093 0.9318 -5.8513 -2.8841 41.0232 8.7052
# 6 13.1758 9.3700 -0.5816 -3.0711 8.7052 31.8364
#
#
#
# Elastic Compliance Matrix: (Units=1/GPa)
#
#
# Indices 1 2 3 4 5 6 
#
# 1 0.008276 0.000473 -0.004181 -0.003251 0.003325 -0.004864
# 2 0.000473 0.009782 -0.003523 -0.000070 0.000124 -0.003180
# 3 -0.004181 -0.003523 0.024055 0.000481 0.001353 0.002883
# 4 -0.003251 -0.000070 0.000481 0.024330 -0.000253 0.003791
# 5 0.003325 0.000124 0.001353 -0.000253 0.027714 -0.008990
# 6 -0.004864 -0.003180 0.002883 0.003791 -0.008990 0.037236
#
#
# Mechanical properties :
#
#
# Convention : Reuss Voigt Hill
#
# Bulk Modulus (GPa) = 36.16367 46.06865 41.11616
# Shear Modulus (GPa) = 32.24324 41.01156 36.62740
#
# Velocity S-wave (km/s) = 3.63743 4.10231 3.87684
# Velocity P-wave (km/s) = 5.69919 6.42982 6.07550
#
# Compressibility (1/GPa) = 0.02765206
#
# Stress axis : x y z
#
# Youngs Moduli (GPa) = 120.83064 102.22660 41.57166
#
# Poissons Ratio (x) = -0.04834 0.17379
# Poissons Ratio (y) = -0.05713 0.14645
# Poissons Ratio (z) = 0.50514 0.36013
#
# Static dielectric constant tensor:
#      x y z
#    x 1.965360 0.001170 0.047670 
#    y 0.001170 1.884430 0.010830 
#    z 0.047670 0.010830 2.019210 
# 
# From -- ./inp_files/156333.got.cif
#   From: 2010.05.17/outbox.cif.g08.bks.cpg/sg2_79_cif.got.tgz:156333.got - 2010.06.03 11:33:40.
