data_PCOD9050549
_publ_section_title
;
Structure prediction by ZEFSAII (Michael W. Deem and Ramdas Pophale) SiO2 
 PCOD9050549
Probable space group: P -1
;
_chemical_formula_sum "Si O2"
_cell_formula_units_Z 14
_cell_length_a 11.519212
_cell_length_b 6.235983
_cell_length_c 8.745232
_cell_angle_alpha 81.402785
_cell_angle_beta 102.767567
_cell_angle_gamma 67.938470
_cell_volume 548.704613
_symmetry_space_group_name_H-M "P -1"
_symmetry_group_IT_number 2
_symmetry_cell_setting 'triclinic'
loop_
_space_group_symop_operation_xyz
x,y,z
-x,-y,-z
loop_
_atom_site_type_symbol
_atom_site_label
_atom_site_fract_x
_atom_site_fract_y
_atom_site_fract_z
Si Si1 0.967178 0.758027 0.554276
Si Si2 0.674166 0.281331 0.677191
Si Si3 0.073393 0.182885 0.128464
Si Si4 0.330527 0.935280 0.607609
Si Si5 0.346944 0.587694 0.897905
Si Si6 0.181720 0.553982 0.132741
Si Si7 0.527398 0.850985 0.183421
O O1 0.007567 0.710696 0.749461
O O2 0.000000 0.500000 0.500000
O O3 0.809563 0.865557 0.500851
O O4 0.000000 0.000000 0.500000
O O5 0.629297 0.254595 0.498146
O O6 0.581636 0.229310 0.775092
O O7 0.824073 0.086314 0.778092
O O8 0.712215 0.501341 0.692564
O O9 0.971849 0.255933 0.950952
O O10 0.168817 0.311775 0.118185
O O11 0.302902 0.828605 0.767098
O O12 0.441098 0.015137 0.682642
O O13 0.259056 0.609666 0.013363
O O14 0.346836 0.389403 0.800048
O O15 0.500000 0.500000 0.000000
O O16 0.500000 0.000000 0.000000
#
# Coordination Sequence:
#
# PCOD9050549 Si02
#       7
#     2   2   2   2   2   2   2
#     4  11  27  49  76 112 156 198 252 317 384 458
#     4  11  24  44  67 101 145 188 248 312 376 453
#     4  10  25  42  73 102 143 189 249 305 378 448
#     4  11  27  43  71 105 143 194 251 310 387 441
#     4  12  24  45  70 104 141 194 248 307 378 452
#     4  11  23  45  69 102 140 194 244 311 374 456
#     4  12  24  43  70 102 144 195 249 313 373 457
#
# _framework density 25.514637
#
# number of rings (size 3 to 8) (size 9 to 14) (size 15 to 20)
#    0.000    0.857    2.857    2.571    8.000    1.714 
#    2.571    0.000    0.000    0.000    0.000    0.000 
#    0.000    0.000    0.000    0.000    0.000    0.000 
#
# Total GULP energy -78052.815072 kJ/mol
# GULP energy per Si atom -5575.201077 kJ/mol
# Density = 2.545656 g / cm^3
# Si number density = 25.514637 Si / 1000 Ang^3
#
#
#
# Elastic Constant Matrix: (Units=GPa)
#
#
# Indices 1 2 3 4 5 6 
#
# 1 112.6821 30.9462 44.8067 23.5416 4.6345 39.1938
# 2 30.9462 58.1483 17.8402 18.9631 6.1308 21.9231
# 3 44.8067 17.8402 99.3221 24.1776 10.9760 31.9266
# 4 23.5416 18.9631 24.1776 47.7665 11.0665 6.4666
# 5 4.6345 6.1308 10.9760 11.0665 48.0637 8.4018
# 6 39.1938 21.9231 31.9266 6.4666 8.4018 53.9053
#
#
#
# Elastic Compliance Matrix: (Units=1/GPa)
#
#
# Indices 1 2 3 4 5 6 
#
# 1 0.013971 -0.002821 -0.002750 -0.003810 0.001777 -0.007202
# 2 -0.002821 0.023572 0.001259 -0.007611 0.000019 -0.007371
# 3 -0.002750 0.001259 0.014541 -0.005449 -0.000853 -0.006338
# 4 -0.003810 -0.007611 -0.005449 0.028927 -0.005202 0.006434
# 5 0.001777 0.000019 -0.000853 -0.005202 0.022672 -0.003704
# 6 -0.007202 -0.007371 -0.006338 0.006434 -0.003704 0.030344
#
#
# Mechanical properties :
#
#
# Convention : Reuss Voigt Hill
#
# Bulk Modulus (GPa) = 23.01017 50.81541 36.91279
# Shear Modulus (GPa) = 31.81950 41.71774 36.76862
#
# Velocity S-wave (km/s) = 3.53527 4.04796 3.80027
# Velocity P-wave (km/s) = 5.06973 6.46587 5.80989
#
# Compressibility (1/GPa) = 0.04345905
#
# Stress axis : x y z
#
# Youngs Moduli (GPa) = 71.57893 42.42397 68.77304
#
# Poissons Ratio (x) = 0.11967 0.18910
# Poissons Ratio (y) = 0.20192 -0.08656
# Poissons Ratio (z) = 0.19681 -0.05340
#
# Static dielectric constant tensor:
#      x y z
#    x 2.006270 0.110300 0.079670 
#    y 0.110300 2.402610 0.118170 
#    z 0.079670 0.118170 2.151640 
# 
# From -- ./inp_files/60365.got.cif
#   From: 2010.05.17/outbox.cif.g08.bks.cpg/sg2_31_cif.got.tgz:60365.got - 2010.06.03 11:33:40.
