data_PCOD9050824
_publ_section_title
;
Structure prediction by ZEFSAII (Michael W. Deem and Ramdas Pophale) SiO2 
 PCOD9050824
Probable space group: P -1
;
_chemical_formula_sum "Si O2"
_cell_formula_units_Z 16
_cell_length_a 17.854384
_cell_length_b 6.297819
_cell_length_c 14.325217
_cell_angle_alpha 67.972297
_cell_angle_beta 28.212303
_cell_angle_gamma 71.722816
_cell_volume 705.369973
_symmetry_space_group_name_H-M "P -1"
_symmetry_group_IT_number 2
_symmetry_cell_setting 'triclinic'
loop_
_space_group_symop_operation_xyz
x,y,z
-x,-y,-z
loop_
_atom_site_type_symbol
_atom_site_label
_atom_site_fract_x
_atom_site_fract_y
_atom_site_fract_z
Si Si1 0.618969 0.057670 0.022316
Si Si2 0.652074 0.655925 0.766369
Si Si3 0.855543 0.815061 0.683692
Si Si4 0.934003 0.204094 0.976607
Si Si5 0.262710 0.366835 0.535200
Si Si6 0.386834 0.892365 0.561916
Si Si7 0.538848 0.617464 0.290113
Si Si8 0.786971 0.363506 0.939279
O O1 0.709003 0.257858 0.948871
O O2 0.709043 0.969804 0.848407
O O3 0.440031 0.112768 0.187958
O O4 0.621202 0.846780 0.123091
O O5 0.799131 0.700619 0.666923
O O6 0.714512 0.584714 0.607953
O O7 0.500000 0.500000 0.000000
O O8 0.874062 0.601002 0.770015
O O9 0.000000 0.000000 0.500000
O O10 0.884253 0.185677 0.924117
O O11 0.085373 0.376423 0.769454
O O12 0.771834 0.241397 0.204271
O O13 0.000000 0.000000 0.000000
O O14 0.370830 0.550583 0.440309
O O15 0.327964 0.110569 0.529632
O O16 0.493783 0.707156 0.426078
O O17 0.500000 0.000000 0.500000
O O18 0.649010 0.431760 0.151555
#
# Coordination Sequence:
#
# PCOD9050824 Si02
#       8
#     2   2   2   2   2   2   2   2
#     4  11  22  43  69  98 139 184 235 290 346 423
#     4  12  22  44  69  99 141 186 237 282 352 424
#     4  11  27  42  68 111 140 188 236 291 361 420
#     4  10  25  44  68  98 138 186 226 290 369 414
#     4  11  24  43  64 101 138 180 230 294 354 414
#     4  11  23  44  70  98 133 180 236 291 352 423
#     4  11  21  41  71  99 130 180 237 287 349 420
#     4  11  23  46  68 101 143 182 237 292 348 424
#
# _framework density 22.683130999999999
#
# number of rings (size 3 to 8) (size 9 to 14) (size 15 to 20)
#    0.000    1.000    3.750    2.625    1.750    5.000 
#    0.000    3.750    0.000    0.000    0.000    0.000 
#    0.000    0.000    0.000    0.000    0.000    0.000 
#
# Total GULP energy -89090.772153 kJ/mol
# GULP energy per Si atom -5568.173260 kJ/mol
# Density = 2.263150 g / cm^3
# Si number density = 22.683131 Si / 1000 Ang^3
#
#
#
# Elastic Constant Matrix: (Units=GPa)
#
#
# Indices 1 2 3 4 5 6 
#
# 1 123.5824 24.7209 15.4962 -14.5596 6.1686 18.0994
# 2 24.7209 59.5921 12.0227 -13.4858 11.9757 25.6803
# 3 15.4962 12.0227 112.3225 -29.5022 9.0423 21.8419
# 4 -14.5596 -13.4858 -29.5022 29.4821 5.9193 0.4941
# 5 6.1686 11.9757 9.0423 5.9193 25.2574 3.6652
# 6 18.0994 25.6803 21.8419 0.4941 3.6652 31.8349
#
#
#
# Elastic Compliance Matrix: (Units=1/GPa)
#
#
# Indices 1 2 3 4 5 6 
#
# 1 0.010367 0.004739 0.004703 0.013788 -0.007917 -0.012246
# 2 0.004739 0.066961 0.029813 0.074144 -0.050434 -0.072508
# 3 0.004703 0.029813 0.030456 0.053666 -0.032273 -0.044736
# 4 0.013788 0.074144 0.053666 0.145577 -0.077662 -0.097787
# 5 -0.007917 -0.050434 -0.032273 -0.077662 0.086697 0.058551
# 6 -0.012246 -0.072508 -0.044736 -0.097787 0.058551 0.122334
#
#
# Mechanical properties :
#
#
# Convention : Reuss Voigt Hill
#
# Bulk Modulus (GPa) = 5.36787 44.44183 24.90485
# Shear Modulus (GPa) = 11.21127 33.53205 22.37166
#
# Velocity S-wave (km/s) = 2.22560 3.84901 3.14390
# Velocity P-wave (km/s) = 2.99599 6.27600 4.91753
#
# Compressibility (1/GPa) = 0.18629348
#
# Stress axis : x y z
#
# Youngs Moduli (GPa) = 96.45808 14.93414 32.83438
#
# Poissons Ratio (x) = -0.07077 -0.15441
# Poissons Ratio (y) = -0.45712 -0.97890
# Poissons Ratio (z) = -0.45361 -0.44523
#
# Static dielectric constant tensor:
#      x y z
#    x 1.963680 -0.070120 0.035330 
#    y -0.070120 2.031830 0.116240 
#    z 0.035330 0.116240 1.976680 
# 
# From -- ./inp_files/536312.got.cif
#   From: 2010.05.17/outbox.cif.g08.bks.cpg/sg2_269_cif.got.tgz:536312.got - 2010.06.03 11:33:40.
