data_PCOD9050263
_publ_section_title
;
Structure prediction by ZEFSAII (Michael W. Deem and Ramdas Pophale) SiO2 
 PCOD9050263
Probable space group: P -1
;
_chemical_formula_sum "Si O2"
_cell_formula_units_Z 13
_cell_length_a 15.097658
_cell_length_b 5.120817
_cell_length_c 7.981235
_cell_angle_alpha 60.456775
_cell_angle_beta 67.405669
_cell_angle_gamma 81.530544
_cell_volume 494.936565
_symmetry_space_group_name_H-M "P -1"
_symmetry_group_IT_number 2
_symmetry_cell_setting 'triclinic'
loop_
_space_group_symop_operation_xyz
x,y,z
-x,-y,-z
loop_
_atom_site_type_symbol
_atom_site_label
_atom_site_fract_x
_atom_site_fract_y
_atom_site_fract_z
Si Si1 0.200128 0.180057 0.449789
Si Si2 0.365443 0.589389 0.318450
Si Si3 0.897766 0.753879 0.859889
Si Si4 0.454489 0.774320 0.742599
Si Si5 0.500000 0.000000 0.000000
Si Si6 0.721508 0.431467 0.275803
Si Si7 0.017351 0.320482 0.714603
O O1 0.282801 0.447281 0.306452
O O2 0.144805 0.152306 0.321173
O O3 0.127799 0.254153 0.631466
O O4 0.240095 0.865614 0.572248
O O5 0.340991 0.448224 0.562236
O O6 0.388747 0.943677 0.186761
O O7 0.475363 0.509936 0.210940
O O8 0.978440 0.521750 0.826073
O O9 0.949858 0.022772 0.838733
O O10 0.809854 0.621015 0.074485
O O11 0.352070 0.656386 0.789845
O O12 0.500000 0.000000 0.500000
O O13 0.453158 0.937041 0.867414
O O14 0.000000 0.500000 0.500000
#
# Coordination Sequence:
#
# PCOD9050263 Si02
#       7
#     2   2   2   2   1   2   2
#     4  11  25  47  75 109 151 200 264 319 396 469
#     4  12  26  47  72 109 150 199 257 325 384 473
#     4  11  27  49  77 114 156 207 261 328 400 468
#     4  12  25  51  68 111 151 198 258 321 389 464
#     4  12  26  46  82  98 148 210 252 316 404 454
#     4  12  28  46  77 111 154 203 261 328 390 478
#     4  10  24  49  79 110 157 205 259 331 393 470
#
# _framework density 26.265991
#
# number of rings (size 3 to 8) (size 9 to 14) (size 15 to 20)
#    0.000    0.615    3.077    3.692    8.615    2.462 
#    2.769    0.000    0.000    0.000    0.000    0.000 
#    0.000    0.000    0.000    0.000    0.000    0.000 
#
# Total GULP energy -72747.521922 kJ/mol
# GULP energy per Si atom -5595.963225 kJ/mol
# Density = 2.620621 g / cm^3
# Si number density = 26.265991 Si / 1000 Ang^3
#
#
#
# Elastic Constant Matrix: (Units=GPa)
#
#
# Indices 1 2 3 4 5 6 
#
# 1 106.2198 21.8443 39.2263 -0.0352 -2.2515 0.1700
# 2 21.8443 65.2321 19.6226 15.6950 -2.8829 4.5927
# 3 39.2263 19.6226 173.1383 15.5767 -21.7090 -2.3198
# 4 -0.0352 15.6950 15.5767 51.5585 19.0822 -1.0117
# 5 -2.2515 -2.8829 -21.7090 19.0822 56.5309 3.0130
# 6 0.1700 4.5927 -2.3198 -1.0117 3.0130 37.5972
#
#
#
# Elastic Compliance Matrix: (Units=1/GPa)
#
#
# Indices 1 2 3 4 5 6 
#
# 1 0.011054 -0.003639 -0.002503 0.002457 -0.001559 0.000431
# 2 -0.003639 0.018603 -0.000321 -0.006773 0.003111 -0.002707
# 3 -0.002503 -0.000321 0.007170 -0.003477 0.003806 0.000094
# 4 0.002457 -0.006773 -0.003477 0.026490 -0.010640 0.002167
# 5 -0.001559 0.003111 0.003806 -0.010640 0.022960 -0.002264
# 6 0.000431 -0.002707 0.000094 0.002167 -0.002264 0.027172
#
#
# Mechanical properties :
#
#
# Convention : Reuss Voigt Hill
#
# Bulk Modulus (GPa) = 41.83714 56.21963 49.02838
# Shear Modulus (GPa) = 37.21842 46.73046 41.97444
#
# Velocity S-wave (km/s) = 3.76837 4.22254 4.00190
# Velocity P-wave (km/s) = 5.90736 6.72485 6.32932
#
# Compressibility (1/GPa) = 0.02390221
#
# Stress axis : x y z
#
# Youngs Moduli (GPa) = 90.46370 53.75548 139.46150
#
# Poissons Ratio (x) = 0.19563 0.34903
# Poissons Ratio (y) = 0.32922 0.04472
# Poissons Ratio (z) = 0.22640 0.01724
#
# Static dielectric constant tensor:
#      x y z
#    x 2.057540 -0.088420 -0.164700 
#    y -0.088420 2.439670 1.148950 
#    z -0.164700 1.148950 3.195740 
# 
# From -- ./inp_files/321555.got.cif
#   From: 2010.05.17/outbox.cif.g08.bks.cpg/sg2_161_cif.got.tgz:321555.got - 2010.06.03 11:33:40.
