data_PCOD9050581
_publ_section_title
;
Structure prediction by ZEFSAII (Michael W. Deem and Ramdas Pophale) SiO2 
 PCOD9050581
Probable space group: P -1
;
_chemical_formula_sum "Si O2"
_cell_formula_units_Z 12
_cell_length_a 13.899776
_cell_length_b 8.351566
_cell_length_c 12.475592
_cell_angle_alpha 146.356339
_cell_angle_beta 134.011311
_cell_angle_gamma 66.402905
_cell_volume 516.190938
_symmetry_space_group_name_H-M "P -1"
_symmetry_group_IT_number 2
_symmetry_cell_setting 'triclinic'
loop_
_space_group_symop_operation_xyz
x,y,z
-x,-y,-z
loop_
_atom_site_type_symbol
_atom_site_label
_atom_site_fract_x
_atom_site_fract_y
_atom_site_fract_z
Si Si1 0.812280 0.867665 0.958311
Si Si2 0.380663 0.462750 0.183120
Si Si3 0.608868 0.129216 0.033915
Si Si4 0.292802 0.202444 0.395060
Si Si5 0.898946 0.136997 0.758354
Si Si6 0.363410 0.238411 0.816769
O O1 0.984299 0.004355 0.199582
O O2 0.734793 0.107119 0.042957
O O3 0.726233 0.588159 0.826294
O O4 0.785319 0.769099 0.758521
O O5 0.542599 0.765372 0.485486
O O6 0.329393 0.401390 0.986095
O O7 0.409663 0.148271 0.051725
O O8 0.673567 0.486374 0.330954
O O9 0.447650 0.025918 0.798913
O O10 0.195056 0.899961 0.225935
O O11 0.782263 0.944889 0.468585
O O12 0.000000 0.500000 0.000000
O O13 0.500000 0.500000 0.000000
#
# Coordination Sequence:
#
# PCOD9050581 Si02
#       6
#     2   2   2   2   2   2
#     4  10  25  43  65 108 131 168 234 282 331 402
#     4   9  21  41  74  99 120 183 234 268 323 410
#     4   9  22  42  76  95 123 185 233 267 327 406
#     4  11  20  46  69  95 138 182 223 270 338 411
#     4  12  28  41  64 104 147 176 210 291 352 380
#     4  11  20  44  69  97 137 181 224 272 339 407
#
# _framework density 23.247215000000001
#
# number of rings (size 3 to 8) (size 9 to 14) (size 15 to 20)
#    1.000    0.667    3.333    3.000    4.667    1.333 
#    3.000    1.667    0.000    0.000    0.000    0.000 
#    0.000    0.000    0.000    0.000    0.000    0.000 
#
# Total GULP energy -66922.478996 kJ/mol
# GULP energy per Si atom -5576.873250 kJ/mol
# Density = 2.319430 g / cm^3
# Si number density = 23.247215 Si / 1000 Ang^3
#
#
#
# Elastic Constant Matrix: (Units=GPa)
#
#
# Indices 1 2 3 4 5 6 
#
# 1 89.9592 38.2301 57.4337 -18.6817 9.5316 19.6872
# 2 38.2301 83.9649 67.8093 -26.7977 -0.3585 30.3234
# 3 57.4337 67.8093 160.9367 -47.2008 15.4559 14.3752
# 4 -18.6817 -26.7977 -47.2008 58.8326 1.8310 9.5236
# 5 9.5316 -0.3585 15.4559 1.8310 35.9365 4.5969
# 6 19.6872 30.3234 14.3752 9.5236 4.5969 56.0763
#
#
#
# Elastic Compliance Matrix: (Units=1/GPa)
#
#
# Indices 1 2 3 4 5 6 
#
# 1 0.015798 -0.002665 -0.003536 0.001568 -0.002357 -0.003272
# 2 -0.002665 0.025895 -0.007268 0.007029 0.005375 -0.012839
# 3 -0.003536 -0.007268 0.012508 0.005525 -0.004979 0.001435
# 4 0.001568 0.007029 0.005525 0.026851 -0.002798 -0.010099
# 5 -0.002357 0.005375 -0.004979 -0.002798 0.031158 -0.002882
# 6 -0.003272 -0.012839 0.001435 -0.010099 -0.002882 0.027508
#
#
# Mechanical properties :
#
#
# Convention : Reuss Voigt Hill
#
# Bulk Modulus (GPa) = 36.67899 73.53411 55.10655
# Shear Modulus (GPa) = 28.45050 41.59492 35.02271
#
# Velocity S-wave (km/s) = 3.50211 4.23453 3.88562
# Velocity P-wave (km/s) = 5.67143 7.45710 6.62471
#
# Compressibility (1/GPa) = 0.02726357
#
# Stress axis : x y z
#
# Youngs Moduli (GPa) = 63.29946 38.61711 79.94852
#
# Poissons Ratio (x) = 0.10291 0.28273
# Poissons Ratio (y) = 0.16869 0.58103
# Poissons Ratio (z) = 0.22385 0.28065
#
# Static dielectric constant tensor:
#      x y z
#    x 1.996850 0.013790 0.009190 
#    y 0.013790 2.006240 0.018290 
#    z 0.009190 0.018290 1.826100 
# 
# From -- ./inp_files/443783.got.cif
#   From: 2010.05.17/outbox.cif.g08.bks.cpg/sg2_222_cif.got.tgz:443783.got - 2010.06.03 11:33:40.
