data_PCOD9050118
_publ_section_title
;
Structure prediction by ZEFSAII (Michael W. Deem and Ramdas Pophale) SiO2 
 PCOD9050118
Probable space group: P -1
;
_chemical_formula_sum "Si O2"
_cell_formula_units_Z 13
_cell_length_a 8.129077
_cell_length_b 12.214410
_cell_length_c 15.799499
_cell_angle_alpha 25.751526
_cell_angle_beta 126.545875
_cell_angle_gamma 133.474870
_cell_volume 493.141691
_symmetry_space_group_name_H-M "P -1"
_symmetry_group_IT_number 2
_symmetry_cell_setting 'triclinic'
loop_
_space_group_symop_operation_xyz
x,y,z
-x,-y,-z
loop_
_atom_site_type_symbol
_atom_site_label
_atom_site_fract_x
_atom_site_fract_y
_atom_site_fract_z
Si Si1 0.735798 0.908540 0.465635
Si Si2 0.500000 0.500000 0.000000
Si Si3 0.415444 0.672174 0.678053
Si Si4 0.937808 0.764940 0.244272
Si Si5 0.090232 0.483909 0.944954
Si Si6 0.739844 0.190149 0.899977
Si Si7 0.675525 0.365114 0.580676
O O1 0.606556 0.706589 0.643620
O O2 0.584896 0.761130 0.440675
O O3 0.724891 0.208702 0.244521
O O4 0.000000 0.000000 0.500000
O O5 0.389590 0.490547 0.879240
O O6 0.242093 0.318802 0.093168
O O7 0.186682 0.501278 0.672365
O O8 0.500000 0.000000 0.500000
O O9 0.817088 0.656111 0.374125
O O10 0.199040 0.820332 0.288388
O O11 0.862780 0.004899 0.031590
O O12 0.890729 0.381410 0.887882
O O13 0.000000 0.500000 0.000000
O O14 0.702276 0.351504 0.697345
O O15 0.500000 0.000000 0.000000
#
# Coordination Sequence:
#
# PCOD9050118 Si02
#       7
#     2   1   2   2   2   2   2
#     4  11  25  47  73 105 155 196 252 327 377 453
#     4  12  26  44  82 106 150 200 246 312 394 438
#     4  11  24  44  74 113 147 190 256 311 379 458
#     4  10  25  46  76 108 148 192 254 310 374 459
#     4  12  28  48  74 114 154 199 261 314 384 461
#     4  12  28  46  73 109 153 198 248 308 386 456
#     4  10  24  48  77 103 146 194 250 311 382 447
#
# _framework density 26.361591000000001
#
# number of rings (size 3 to 8) (size 9 to 14) (size 15 to 20)
#    0.000    0.923    1.538    3.231   10.769    1.846 
#    2.769    0.000    0.000    0.000    0.000    0.000 
#    0.000    0.000    0.000    0.000    0.000    0.000 
#
# Total GULP energy -72505.596973 kJ/mol
# GULP energy per Si atom -5577.353613 kJ/mol
# Density = 2.630159 g / cm^3
# Si number density = 26.361591 Si / 1000 Ang^3
#
#
#
# Elastic Constant Matrix: (Units=GPa)
#
#
# Indices 1 2 3 4 5 6 
#
# 1 126.4646 87.1364 19.0154 10.0924 -18.3622 14.6933
# 2 87.1364 194.9943 60.3148 38.8800 -10.1376 5.0954
# 3 19.0154 60.3148 92.2781 15.7244 -15.2770 -15.5388
# 4 10.0924 38.8800 15.7244 58.5385 -18.0958 -6.9412
# 5 -18.3622 -10.1376 -15.2770 -18.0958 52.6589 3.2488
# 6 14.6933 5.0954 -15.5388 -6.9412 3.2488 46.7806
#
#
#
# Elastic Compliance Matrix: (Units=1/GPa)
#
#
# Indices 1 2 3 4 5 6 
#
# 1 0.012950 -0.006461 0.001395 0.002842 0.004827 -0.002814
# 2 -0.006461 0.010765 -0.005592 -0.005876 -0.003722 -0.001614
# 3 0.001395 -0.005592 0.015550 0.001151 0.003994 0.005229
# 4 0.002842 -0.005876 0.001151 0.022986 0.007908 0.002991
# 5 0.004827 -0.003722 0.003994 0.007908 0.023849 -0.000267
# 6 -0.002814 -0.001614 0.005229 0.002991 -0.000267 0.024635
#
#
# Mechanical properties :
#
#
# Convention : Reuss Voigt Hill
#
# Bulk Modulus (GPa) = 55.70793 82.96334 69.33564
# Shear Modulus (GPa) = 36.22286 48.08031 42.15159
#
# Velocity S-wave (km/s) = 3.71088 4.27532 4.00306
# Velocity P-wave (km/s) = 6.28800 7.47735 6.90832
#
# Compressibility (1/GPa) = 0.01795077
#
# Stress axis : x y z
#
# Youngs Moduli (GPa) = 77.21938 92.88969 64.30905
#
# Poissons Ratio (x) = 0.60014 -0.08973
# Poissons Ratio (y) = 0.49890 0.35961
# Poissons Ratio (z) = -0.10775 0.51943
#
# Static dielectric constant tensor:
#      x y z
#    x 2.333140 -0.006510 0.263700 
#    y -0.006510 2.094520 -0.000810 
#    z 0.263700 -0.000810 2.303880 
# 
# From -- ./inp_files/262438.got.cif
#   From: 2010.05.17/outbox.cif.g08.bks.cpg/sg2_132_cif.got.tgz:262438.got - 2010.06.03 11:33:40.
