data_PCOD9050886
_publ_section_title
;
Structure prediction by ZEFSAII (Michael W. Deem and Ramdas Pophale) SiO2 
 PCOD9050886
Probable space group: P -1
;
_chemical_formula_sum "Si O2"
_cell_formula_units_Z 16
_cell_length_a 23.647508
_cell_length_b 6.043667
_cell_length_c 8.121836
_cell_angle_alpha 119.631673
_cell_angle_beta 127.298986
_cell_angle_gamma 95.150884
_cell_volume 663.241098
_symmetry_space_group_name_H-M "P -1"
_symmetry_group_IT_number 2
_symmetry_cell_setting 'triclinic'
loop_
_space_group_symop_operation_xyz
x,y,z
-x,-y,-z
loop_
_atom_site_type_symbol
_atom_site_label
_atom_site_fract_x
_atom_site_fract_y
_atom_site_fract_z
Si Si1 0.864779 0.611877 0.206781
Si Si2 0.987184 0.301817 0.645940
Si Si3 0.224139 0.494776 0.655426
Si Si4 0.350045 0.292316 0.864900
Si Si5 0.689268 0.282989 0.589987
Si Si6 0.067739 0.316041 0.145279
Si Si7 0.339674 0.223632 0.203320
Si Si8 0.469155 0.174291 0.620501
O O1 0.841672 0.663774 0.365982
O O2 0.934375 0.525569 0.281937
O O3 0.918052 0.951038 0.344813
O O4 0.775537 0.378837 0.874220
O O5 0.933823 0.438302 0.652836
O O6 0.035390 0.321904 0.909600
O O7 0.283735 0.367281 0.707602
O O8 0.163832 0.401695 0.355890
O O9 0.277333 0.854545 0.932637
O O10 0.322920 0.946187 0.660150
O O11 0.355464 0.344812 0.089310
O O12 0.443367 0.537429 0.043665
O O13 0.693986 0.597400 0.690910
O O14 0.604259 0.062097 0.470049
O O15 0.000000 0.000000 0.000000
O O16 0.424306 0.291149 0.466787
O O17 0.500000 0.000000 0.500000
#
# Coordination Sequence:
#
# PCOD9050886 Si02
#       8
#     2   2   2   2   2   2   2   2
#     4  11  22  48  66  99 142 183 228 291 352 408
#     4  10  25  44  70  99 140 179 235 292 342 428
#     4  12  25  46  72 101 146 185 235 295 352 418
#     4  12  28  46  72 108 144 185 240 293 350 421
#     4  12  27  45  74 106 145 185 238 293 348 427
#     4  11  24  43  70 101 135 182 234 289 355 413
#     4  12  24  47  74 101 138 196 224 295 350 421
#     4  12  23  50  74 103 145 187 233 292 355 417
#
# _framework density 24.12396
#
# number of rings (size 3 to 8) (size 9 to 14) (size 15 to 20)
#    0.000    0.500    6.250    1.500    3.500    2.000 
#    2.250    0.000    0.000    0.000    0.000    0.000 
#    0.000    0.000    0.000    0.000    0.000    0.000 
#
# Total GULP energy -89542.927537 kJ/mol
# GULP energy per Si atom -5596.432971 kJ/mol
# Density = 2.406905 g / cm^3
# Si number density = 24.123960 Si / 1000 Ang^3
#
#
#
# Elastic Constant Matrix: (Units=GPa)
#
#
# Indices 1 2 3 4 5 6 
#
# 1 103.3629 29.0690 44.4894 6.9131 13.1363 -16.4840
# 2 29.0690 66.4326 19.0336 -1.6055 5.3461 -31.6029
# 3 44.4894 19.0336 93.0530 -0.7953 11.2341 -20.3910
# 4 6.9131 -1.6055 -0.7953 43.9660 -11.5347 4.1206
# 5 13.1363 5.3461 11.2341 -11.5347 49.9288 7.4110
# 6 -16.4840 -31.6029 -20.3910 4.1206 7.4110 43.5747
#
#
#
# Elastic Compliance Matrix: (Units=1/GPa)
#
#
# Indices 1 2 3 4 5 6 
#
# 1 0.013772 -0.004106 -0.005319 -0.003196 -0.002803 0.000522
# 2 -0.004106 0.025772 0.001423 -0.001500 -0.005140 0.018820
# 3 -0.005319 0.001423 0.014795 -0.000268 -0.003108 0.006498
# 4 -0.003196 -0.001500 -0.000268 0.025859 0.007959 -0.006221
# 5 -0.002803 -0.005140 -0.003108 0.007959 0.025537 -0.011338
# 6 0.000522 0.018820 0.006498 -0.006221 -0.011338 0.042353
#
#
# Mechanical properties :
#
#
# Convention : Reuss Voigt Hill
#
# Bulk Modulus (GPa) = 26.08521 49.78140 37.93331
# Shear Modulus (GPa) = 28.26917 38.84432 33.55675
#
# Velocity S-wave (km/s) = 3.42691 4.01708 3.73368
# Velocity P-wave (km/s) = 5.14731 6.49587 5.86051
#
# Compressibility (1/GPa) = 0.03833589
#
# Stress axis : x y z
#
# Youngs Moduli (GPa) = 72.61113 38.80189 67.58822
#
# Poissons Ratio (x) = 0.15931 0.35952
# Poissons Ratio (y) = 0.29811 -0.09619
# Poissons Ratio (z) = 0.38624 -0.05522
#
# Static dielectric constant tensor:
#      x y z
#    x 2.102230 -0.054350 -0.061610 
#    y -0.054350 2.003290 0.038300 
#    z -0.061610 0.038300 1.904750 
# 
# From -- ./inp_files/141570.got.cif
#   From: 2010.05.17/outbox.cif.g08.bks.cpg/sg2_71_cif.got.tgz:141570.got - 2010.06.03 11:33:40.
