data_PCOD9050434
_publ_section_title
;
Structure prediction by ZEFSAII (Michael W. Deem and Ramdas Pophale) SiO2 
 PCOD9050434
Probable space group: P -1
;
_chemical_formula_sum "Si O2"
_cell_formula_units_Z 14
_cell_length_a 10.865177
_cell_length_b 8.988931
_cell_length_c 11.287641
_cell_angle_alpha 60.738339
_cell_angle_beta 130.223217
_cell_angle_gamma 137.236326
_cell_volume 571.289651
_symmetry_space_group_name_H-M "P -1"
_symmetry_group_IT_number 2
_symmetry_cell_setting 'triclinic'
loop_
_space_group_symop_operation_xyz
x,y,z
-x,-y,-z
loop_
_atom_site_type_symbol
_atom_site_label
_atom_site_fract_x
_atom_site_fract_y
_atom_site_fract_z
Si Si1 0.743213 0.129902 0.957554
Si Si2 0.135911 0.207026 0.089964
Si Si3 0.860657 0.993419 0.610659
Si Si4 0.470703 0.949982 0.640697
Si Si5 0.177803 0.477064 0.604541
Si Si6 0.684456 0.644731 0.464351
Si Si7 0.547501 0.307882 0.905790
O O1 0.694845 0.262586 0.955029
O O2 0.665325 0.108201 0.783397
O O3 0.976132 0.219784 0.058637
O O4 0.599587 0.885991 0.018523
O O5 0.230295 0.144647 0.271885
O O6 0.308869 0.445057 0.050907
O O7 0.000000 0.000000 0.000000
O O8 0.868952 0.850931 0.574502
O O9 0.704630 0.027704 0.444455
O O10 0.072234 0.232795 0.679119
O O11 0.375587 0.698250 0.698878
O O12 0.500000 0.000000 0.500000
O O13 0.237271 0.471811 0.508236
O O14 0.000000 0.500000 0.500000
O O15 0.500000 0.500000 0.500000
O O16 0.590745 0.701357 0.280888
#
# Coordination Sequence:
#
# PCOD9050434 Si02
#       7
#     2   2   2   2   2   2   2
#     4  11  26  48  70 104 145 194 241 294 367 439
#     4  12  27  45  71 107 147 187 239 301 371 435
#     4  11  23  45  67 105 136 184 245 293 360 429
#     4  11  23  44  70 102 142 186 240 296 364 427
#     4  10  25  41  66 106 144 180 230 308 364 419
#     4  12  22  44  74 103 139 190 245 297 355 436
#     4  11  26  48  73 101 146 195 241 297 365 437
#
# _framework density 24.505956999999999
#
# number of rings (size 3 to 8) (size 9 to 14) (size 15 to 20)
#    0.000    0.857    2.857    3.429    4.000    0.571 
#    5.143    0.000    0.000    0.000    0.000    0.000 
#    0.000    0.000    0.000    0.000    0.000    0.000 
#
# Total GULP energy -78354.630894 kJ/mol
# GULP energy per Si atom -5596.759350 kJ/mol
# Density = 2.445018 g / cm^3
# Si number density = 24.505957 Si / 1000 Ang^3
#
#
#
# Elastic Constant Matrix: (Units=GPa)
#
#
# Indices 1 2 3 4 5 6 
#
# 1 109.1095 4.4595 11.3467 -16.5292 9.6038 -4.7839
# 2 4.4595 148.1920 22.4055 -7.3260 -6.3351 -4.7347
# 3 11.3467 22.4055 81.2561 -6.7983 -4.7167 -7.8950
# 4 -16.5292 -7.3260 -6.7983 27.5091 -1.2891 -10.4927
# 5 9.6038 -6.3351 -4.7167 -1.2891 35.0436 -3.4333
# 6 -4.7839 -4.7347 -7.8950 -10.4927 -3.4333 38.0356
#
#
#
# Elastic Compliance Matrix: (Units=1/GPa)
#
#
# Indices 1 2 3 4 5 6 
#
# 1 0.010692 0.000147 -0.000774 0.007301 -0.002446 0.002996
# 2 0.000147 0.007190 -0.001627 0.002148 0.001245 0.001281
# 3 -0.000774 -0.001627 0.013715 0.004078 0.002294 0.003879
# 4 0.007301 0.002148 0.004078 0.048364 0.002242 0.015577
# 5 -0.002446 0.001245 0.002294 0.002242 0.030182 0.003666
# 6 0.002996 0.001281 0.003879 0.015577 0.003666 0.032261
#
#
# Mechanical properties :
#
#
# Convention : Reuss Voigt Hill
#
# Bulk Modulus (GPa) = 36.91349 46.10900 41.51125
# Shear Modulus (GPa) = 32.06371 40.14072 36.10221
#
# Velocity S-wave (km/s) = 3.62111 4.05161 3.84239
# Velocity P-wave (km/s) = 5.70780 6.38308 6.05486
#
# Compressibility (1/GPa) = 0.02709036
#
# Stress axis : x y z
#
# Youngs Moduli (GPa) = 93.52660 139.08501 72.91498
#
# Poissons Ratio (x) = -0.02049 0.05642
# Poissons Ratio (y) = -0.01378 0.11861
# Poissons Ratio (z) = 0.07237 0.22624
#
# Static dielectric constant tensor:
#      x y z
#    x 1.989810 -0.015650 0.010390 
#    y -0.015650 2.014770 -0.019410 
#    z 0.010390 -0.019410 1.897850 
# 
# From -- ./inp_files/381447.got.cif
#   From: 2010.05.17/outbox.cif.g08.bks.cpg/sg2_191_cif.got.tgz:381447.got - 2010.06.03 11:33:40.
