data_PCOD9050123
_publ_section_title
;
Structure prediction by ZEFSAII (Michael W. Deem and Ramdas Pophale) SiO2 
 PCOD9050123
Probable space group: P -1
;
_chemical_formula_sum "Si O2"
_cell_formula_units_Z 12
_cell_length_a 10.928062
_cell_length_b 5.189231
_cell_length_c 10.375210
_cell_angle_alpha 120.340738
_cell_angle_beta 110.624368
_cell_angle_gamma 91.542208
_cell_volume 459.696082
_symmetry_space_group_name_H-M "P -1"
_symmetry_group_IT_number 2
_symmetry_cell_setting 'triclinic'
loop_
_space_group_symop_operation_xyz
x,y,z
-x,-y,-z
loop_
_atom_site_type_symbol
_atom_site_label
_atom_site_fract_x
_atom_site_fract_y
_atom_site_fract_z
Si Si1 0.045069 0.683514 0.932669
Si Si2 0.482788 0.657797 0.754752
Si Si3 0.215842 0.603599 0.366653
Si Si4 0.625752 0.881661 0.614301
Si Si5 0.089839 0.842678 0.585254
Si Si6 0.723064 0.057091 0.092381
O O1 0.196122 0.761800 0.954300
O O2 0.941874 0.487451 0.743169
O O3 0.000000 0.500000 0.000000
O O4 0.000000 0.000000 0.000000
O O5 0.526364 0.866825 0.694112
O O6 0.444436 0.322772 0.586485
O O7 0.361676 0.735963 0.811388
O O8 0.613213 0.758498 0.922355
O O9 0.269058 0.309504 0.346384
O O10 0.220422 0.820456 0.545361
O O11 0.293220 0.791519 0.324224
O O12 0.159068 0.999156 0.782968
O O13 0.000000 0.500000 0.500000
O O14 0.000000 0.000000 0.500000
#
# Coordination Sequence:
#
# PCOD9050123 Si02
#       6
#     2   2   2   2   2   2
#     4  12  27  46  74 110 148 192 246 319 377 438
#     4  10  24  48  77 109 155 202 250 305 369 455
#     4  12  24  46  76 105 148 194 250 308 381 435
#     4  11  25  49  76 111 148 200 249 307 373 443
#     4  12  26  46  74 111 150 195 247 314 376 446
#     4  11  24  49  77 113 153 200 255 305 379 452
#
# _framework density 26.104201
#
# number of rings (size 3 to 8) (size 9 to 14) (size 15 to 20)
#    0.000    0.667    3.333    4.000    2.333    2.667 
#    0.000    4.167    0.000    0.000    0.000    0.000 
#    0.000    0.000    0.000    0.000    0.000    0.000 
#
# Total GULP energy -67187.817578 kJ/mol
# GULP energy per Si atom -5598.984798 kJ/mol
# Density = 2.604479 g / cm^3
# Si number density = 26.104201 Si / 1000 Ang^3
#
#
#
# Elastic Constant Matrix: (Units=GPa)
#
#
# Indices 1 2 3 4 5 6 
#
# 1 184.1966 54.0813 41.4450 -13.7667 -12.3419 19.9001
# 2 54.0813 153.3869 28.2863 -25.1349 1.6645 -3.7186
# 3 41.4450 28.2863 146.0813 -15.6665 14.9220 -5.1562
# 4 -13.7667 -25.1349 -15.6665 36.1132 1.3307 0.6150
# 5 -12.3419 1.6645 14.9220 1.3307 62.4077 -9.2816
# 6 19.9001 -3.7186 -5.1562 0.6150 -9.2816 37.9685
#
#
#
# Elastic Compliance Matrix: (Units=1/GPa)
#
#
# Indices 1 2 3 4 5 6 
#
# 1 0.007000 -0.002180 -0.001789 0.000392 0.001294 -0.003815
# 2 -0.002180 0.008168 -0.000358 0.004684 -0.000408 0.001719
# 3 -0.001789 -0.000358 0.007963 0.002576 -0.002090 0.001431
# 4 0.000392 0.004684 0.002576 0.032273 -0.001390 -0.000260
# 5 0.001294 -0.000408 -0.002090 -0.001390 0.017303 0.003250
# 6 -0.003815 0.001719 0.001431 -0.000260 0.003250 0.029499
#
#
# Mechanical properties :
#
#
# Convention : Reuss Voigt Hill
#
# Bulk Modulus (GPa) = 69.08125 81.25444 75.16784
# Shear Modulus (GPa) = 43.22062 51.28802 47.25432
#
# Velocity S-wave (km/s) = 4.07344 4.43735 4.25928
# Velocity P-wave (km/s) = 6.97459 7.57944 7.28330
#
# Compressibility (1/GPa) = 0.01447571
#
# Stress axis : x y z
#
# Youngs Moduli (GPa) = 142.86086 122.42944 125.58764
#
# Poissons Ratio (x) = 0.26695 0.22462
# Poissons Ratio (y) = 0.31150 0.04500
# Poissons Ratio (z) = 0.25551 0.04387
#
# Static dielectric constant tensor:
#      x y z
#    x 2.059070 -0.013580 -0.018300 
#    y -0.013580 2.007500 -0.018110 
#    z -0.018300 -0.018110 2.222680 
# 
# From -- ./inp_files/411334.got.cif
#   From: 2010.05.17/outbox.cif.g08.bks.cpg/sg2_206_cif.got.tgz:411334.got - 2010.06.03 11:33:40.
