data_PCOD9050474
_publ_section_title
;
Structure prediction by ZEFSAII (Michael W. Deem and Ramdas Pophale) SiO2 
 PCOD9050474
Probable space group: P -1
;
_chemical_formula_sum "Si O2"
_cell_formula_units_Z 16
_cell_length_a 12.148789
_cell_length_b 15.298791
_cell_length_c 9.063010
_cell_angle_alpha 105.110146
_cell_angle_beta 115.001580
_cell_angle_gamma 29.775898
_cell_volume 736.741333
_symmetry_space_group_name_H-M "P -1"
_symmetry_group_IT_number 2
_symmetry_cell_setting 'triclinic'
loop_
_space_group_symop_operation_xyz
x,y,z
-x,-y,-z
loop_
_atom_site_type_symbol
_atom_site_label
_atom_site_fract_x
_atom_site_fract_y
_atom_site_fract_z
Si Si1 0.651843 0.615648 0.522118
Si Si2 0.750242 0.887989 0.130235
Si Si3 0.521008 0.350802 0.044259
Si Si4 0.451866 0.585579 0.229202
Si Si5 0.875708 0.973030 0.062063
Si Si6 0.361602 0.954014 0.333538
Si Si7 0.834079 0.768545 0.451446
Si Si8 0.152846 0.493328 0.089820
O O1 0.557947 0.575034 0.418003
O O2 0.462531 0.809796 0.433727
O O3 0.700242 0.601384 0.715073
O O4 0.913346 0.448751 0.513094
O O5 0.805144 0.838642 0.310633
O O6 0.961305 0.699095 0.078956
O O7 0.756908 0.986519 0.125998
O O8 0.500000 0.000000 0.000000
O O9 0.517974 0.437857 0.190364
O O10 0.328871 0.400376 0.012608
O O11 0.459543 0.425748 0.879051
O O12 0.781685 0.135409 0.094843
O O13 0.162319 0.780164 0.150293
O O14 0.775034 0.000320 0.862406
O O15 0.604258 0.850818 0.375154
O O16 0.190750 0.138704 0.396878
O O17 0.000000 0.500000 0.000000
#
# Coordination Sequence:
#
# PCOD9050474 Si02
#       8
#     2   2   2   2   2   2   2   2
#     4  11  26  44  68 100 141 177 231 280 343 407
#     4  11  22  43  67 100 139 178 227 286 347 406
#     4  11  25  44  71 101 135 188 227 284 339 403
#     4  11  26  47  69  99 143 186 233 280 334 417
#     4  12  24  43  72 101 136 179 237 281 339 412
#     4  11  24  41  68 100 137 179 232 281 348 399
#     4  10  25  42  63 100 140 182 220 291 341 412
#     4  11  26  45  73 104 139 181 231 286 351 412
#
# _framework density 21.717257
#
# number of rings (size 3 to 8) (size 9 to 14) (size 15 to 20)
#    0.000    1.000    3.750    1.500    8.750    1.500 
#    0.000    0.625    0.000    0.000    0.000    0.000 
#    0.000    0.000    0.000    0.000    0.000    0.000 
#
# Total GULP energy -89565.490972 kJ/mol
# GULP energy per Si atom -5597.843186 kJ/mol
# Density = 2.166783 g / cm^3
# Si number density = 21.717257 Si / 1000 Ang^3
#
#
#
# Elastic Constant Matrix: (Units=GPa)
#
#
# Indices 1 2 3 4 5 6 
#
# 1 91.5662 4.9831 25.8012 8.3494 9.3571 1.8217
# 2 4.9831 74.2497 8.9670 8.2192 8.8868 2.6963
# 3 25.8012 8.9670 83.1442 -2.1108 23.6293 3.8684
# 4 8.3494 8.2192 -2.1108 18.6591 2.4917 -0.5933
# 5 9.3571 8.8868 23.6293 2.4917 28.5434 0.1312
# 6 1.8217 2.6963 3.8684 -0.5933 0.1312 32.3596
#
#
#
# Elastic Compliance Matrix: (Units=1/GPa)
#
#
# Indices 1 2 3 4 5 6 
#
# 1 0.012642 0.000387 -0.003986 -0.006235 -0.000419 -0.000380
# 2 0.000387 0.014701 -0.000823 -0.006319 -0.003465 -0.001250
# 3 -0.003986 -0.000823 0.017359 0.005836 -0.013310 -0.001621
# 4 -0.006235 -0.006319 0.005836 0.060686 -0.006124 0.001317
# 5 -0.000419 -0.003465 -0.013310 -0.006124 0.047796 0.001597
# 6 -0.000380 -0.001250 -0.001621 0.001317 0.001597 0.031240
#
#
# Mechanical properties :
#
#
# Convention : Reuss Voigt Hill
#
# Bulk Modulus (GPa) = 27.88809 36.49587 32.19198
# Shear Modulus (GPa) = 24.36385 29.85967 27.11176
#
# Velocity S-wave (km/s) = 3.35306 3.71202 3.53710
# Velocity P-wave (km/s) = 5.27826 5.93411 5.61577
#
# Compressibility (1/GPa) = 0.03585760
#
# Stress axis : x y z
#
# Youngs Moduli (GPa) = 79.10058 68.02200 57.60617
#
# Poissons Ratio (x) = -0.02633 0.22964
# Poissons Ratio (y) = -0.03062 0.04741
# Poissons Ratio (z) = 0.31533 0.05599
#
# Static dielectric constant tensor:
#      x y z
#    x 1.801450 0.000490 -0.010780 
#    y 0.000490 1.806700 0.013420 
#    z -0.010780 0.013420 1.745630 
# 
# From -- ./inp_files/273443.got.cif
#   From: 2010.05.17/outbox.cif.g08.bks.cpg/sg2_137_cif.got.tgz:273443.got - 2010.06.03 11:33:40.
