data_PCOD9050945
_publ_section_title
;
Structure prediction by ZEFSAII (Michael W. Deem and Ramdas Pophale) SiO2 
 PCOD9050945
Probable space group: P -1
;
_chemical_formula_sum "Si O2"
_cell_formula_units_Z 16
_cell_length_a 8.347691
_cell_length_b 19.835367
_cell_length_c 5.349029
_cell_angle_alpha 121.137780
_cell_angle_beta 73.406596
_cell_angle_gamma 129.208538
_cell_volume 586.262241
_symmetry_space_group_name_H-M "P -1"
_symmetry_group_IT_number 2
_symmetry_cell_setting 'triclinic'
loop_
_space_group_symop_operation_xyz
x,y,z
-x,-y,-z
loop_
_atom_site_type_symbol
_atom_site_label
_atom_site_fract_x
_atom_site_fract_y
_atom_site_fract_z
Si Si1 0.721959 0.503167 0.595186
Si Si2 0.174483 0.735942 0.264111
Si Si3 0.286051 0.230020 0.518887
Si Si4 0.562637 0.859138 0.044078
Si Si5 0.753553 0.635762 0.472093
Si Si6 0.698928 0.399676 0.888647
Si Si7 0.066860 0.102565 0.765153
Si Si8 0.702059 0.058243 0.195355
O O1 0.819739 0.610662 0.647990
O O2 0.479100 0.456731 0.660382
O O3 0.792966 0.474383 0.752896
O O4 0.728529 0.449535 0.239471
O O5 0.319747 0.776708 0.032616
O O6 0.223270 0.667894 0.253637
O O7 0.252871 0.839349 0.553051
O O8 0.926654 0.667865 0.248775
O O9 0.261780 0.274698 0.364137
O O10 0.458644 0.324329 0.778360
O O11 0.079219 0.165448 0.648261
O O12 0.362276 0.164103 0.284089
O O13 0.697124 0.849082 0.166331
O O14 0.637686 0.970137 0.245051
O O15 0.000000 0.000000 0.500000
O O16 0.904727 0.083607 0.008561
O O17 0.500000 0.000000 0.000000
#
# Coordination Sequence:
#
# PCOD9050945 Si02
#       8
#     2   2   2   2   2   2   2   2
#     4  10  25  52  74 105 148 191 237 306 376 443
#     4  12  25  43  72 107 140 192 239 303 357 434
#     4  11  24  45  72 102 134 194 244 290 352 448
#     4  12  25  48  67  97 151 190 239 293 362 431
#     4  10  25  44  73 109 137 183 244 306 364 434
#     4  11  24  48  76 100 147 194 237 294 375 444
#     4  12  25  44  72  97 137 196 242 288 365 431
#     4  12  27  43  66 105 146 187 239 302 357 414
#
# _framework density 27.291542
#
# number of rings (size 3 to 8) (size 9 to 14) (size 15 to 20)
#    0.000    0.750    2.500    4.500    5.250    5.500 
#    0.000    0.000    0.000    0.000    0.000    0.000 
#    0.000    0.000    0.000    0.000    0.000    0.000 
#
# Total GULP energy -89562.124622 kJ/mol
# GULP energy per Si atom -5597.632789 kJ/mol
# Density = 2.722943 g / cm^3
# Si number density = 27.291542 Si / 1000 Ang^3
#
#
#
# Elastic Constant Matrix: (Units=GPa)
#
#
# Indices 1 2 3 4 5 6 
#
# 1 99.8810 63.4652 40.8969 -4.2192 -23.4942 -13.3748
# 2 63.4652 183.4343 47.6912 -19.8323 -10.4196 -30.9109
# 3 40.8969 47.6912 130.3818 -3.5331 -2.4650 -20.9909
# 4 -4.2192 -19.8323 -3.5331 48.0230 -0.3131 -10.6233
# 5 -23.4942 -10.4196 -2.4650 -0.3131 30.0383 3.4892
# 6 -13.3748 -30.9109 -20.9909 -10.6233 3.4892 68.0929
#
#
#
# Elastic Compliance Matrix: (Units=1/GPa)
#
#
# Indices 1 2 3 4 5 6 
#
# 1 0.016865 -0.004410 -0.003554 -0.000630 0.011418 -0.000468
# 2 -0.004410 0.008085 -0.000998 0.003558 -0.001050 0.003105
# 3 -0.003554 -0.000998 0.009424 0.000383 -0.002574 0.001946
# 4 -0.000630 0.003558 0.000383 0.023428 0.000408 0.005244
# 5 0.011418 -0.001050 -0.002574 0.000408 0.041778 -0.001105
# 6 -0.000468 0.003105 0.001946 0.005244 -0.001105 0.017478
#
#
# Mechanical properties :
#
#
# Convention : Reuss Voigt Hill
#
# Bulk Modulus (GPa) = 60.78009 79.75597 70.26803
# Shear Modulus (GPa) = 35.59599 46.67377 41.13488
#
# Velocity S-wave (km/s) = 3.61541 4.13993 3.88653
# Velocity P-wave (km/s) = 6.30454 7.22075 6.77814
#
# Compressibility (1/GPa) = 0.01645276
#
# Stress axis : x y z
#
# Youngs Moduli (GPa) = 59.29335 123.68731 106.10747
#
# Poissons Ratio (x) = 0.54540 0.37708
# Poissons Ratio (y) = 0.26146 0.10586
# Poissons Ratio (z) = 0.21071 0.12339
#
# Static dielectric constant tensor:
#      x y z
#    x 2.177590 -0.050480 0.057700 
#    y -0.050480 2.105910 -0.014280 
#    z 0.057700 -0.014280 2.162690 
# 
# From -- ./inp_files/53681.got.cif
#   From: 2010.05.17/outbox.cif.g08.bks.cpg/sg2_27_cif.got.tgz:53681.got - 2010.06.03 11:33:40.
