data_PCOD9050773
_publ_section_title
;
Structure prediction by ZEFSAII (Michael W. Deem and Ramdas Pophale) SiO2 
 PCOD9050773
Probable space group: P -1
;
_chemical_formula_sum "Si O2"
_cell_formula_units_Z 16
_cell_length_a 14.634458
_cell_length_b 9.008576
_cell_length_c 11.385964
_cell_angle_alpha 41.572296
_cell_angle_beta 63.689147
_cell_angle_gamma 45.137614
_cell_volume 694.526938
_symmetry_space_group_name_H-M "P -1"
_symmetry_group_IT_number 2
_symmetry_cell_setting 'triclinic'
loop_
_space_group_symop_operation_xyz
x,y,z
-x,-y,-z
loop_
_atom_site_type_symbol
_atom_site_label
_atom_site_fract_x
_atom_site_fract_y
_atom_site_fract_z
Si Si1 0.123116 0.698097 0.055984
Si Si2 0.735557 0.925205 0.609718
Si Si3 0.532757 0.129050 0.801502
Si Si4 0.340222 0.236855 0.643494
Si Si5 0.143958 0.833474 0.473685
Si Si6 0.511526 0.619785 0.664009
Si Si7 0.065727 0.198506 0.077919
Si Si8 0.696502 0.190894 0.011109
O O1 0.152758 0.417266 0.266734
O O2 0.248405 0.682145 0.016895
O O3 0.064970 0.739125 0.935830
O O4 0.000000 0.000000 0.000000
O O5 0.664696 0.931297 0.766077
O O6 0.783865 0.105567 0.510621
O O7 0.633186 0.092094 0.461836
O O8 0.427447 0.214898 0.712238
O O9 0.527820 0.386698 0.702736
O O10 0.500000 0.000000 0.000000
O O11 0.199902 0.515522 0.598569
O O12 0.393525 0.301699 0.465003
O O13 0.343910 0.967872 0.796437
O O14 0.140465 0.965238 0.274740
O O15 0.000000 0.000000 0.500000
O O16 0.572765 0.436620 0.857212
O O17 0.180171 0.057254 0.996555
O O18 0.000000 0.500000 0.000000
#
# Coordination Sequence:
#
# PCOD9050773 Si02
#       8
#     2   2   2   2   2   2   2   2
#     4  10  25  44  66  96 140 191 227 274 345 415
#     4  11  22  42  65 101 142 174 230 288 339 407
#     4  11  20  36  69 104 136 172 220 292 349 390
#     4  11  21  37  63 100 135 172 221 283 342 404
#     4  12  23  36  64 107 137 170 234 289 339 401
#     4  11  21  41  67 100 137 170 225 291 341 404
#     4  11  21  41  67  94 132 181 233 287 329 395
#     4  11  23  42  67  97 140 182 221 275 354 410
#
# _framework density 23.037262999999999
#
# number of rings (size 3 to 8) (size 9 to 14) (size 15 to 20)
#    0.000    1.000    6.250    1.500    1.750    1.500 
#    0.000    4.375    0.000    0.000    0.000    0.000 
#    0.000    0.000    0.000    0.000    0.000    0.000 
#
# Total GULP energy -89305.074989 kJ/mol
# GULP energy per Si atom -5581.567187 kJ/mol
# Density = 2.298483 g / cm^3
# Si number density = 23.037263 Si / 1000 Ang^3
#
#
#
# Elastic Constant Matrix: (Units=GPa)
#
#
# Indices 1 2 3 4 5 6 
#
# 1 117.6971 18.7648 27.3501 -10.8641 6.9055 22.9961
# 2 18.7648 75.0839 24.5789 -20.5323 3.4748 2.7813
# 3 27.3501 24.5789 103.7885 -20.6117 -12.6436 2.5115
# 4 -10.8641 -20.5323 -20.6117 32.2043 -10.9468 -1.6170
# 5 6.9055 3.4748 -12.6436 -10.9468 36.0119 -6.6782
# 6 22.9961 2.7813 2.5115 -1.6170 -6.6782 39.2949
#
#
#
# Elastic Compliance Matrix: (Units=1/GPa)
#
#
# Indices 1 2 3 4 5 6 
#
# 1 0.011020 -0.001586 -0.003205 -0.001323 -0.004786 -0.007000
# 2 -0.001586 0.016766 -0.001517 0.009596 0.001150 0.000429
# 3 -0.003205 -0.001517 0.013922 0.010185 0.009319 0.003096
# 4 -0.001323 0.009596 0.010185 0.049922 0.018954 0.004719
# 5 -0.004786 0.001150 0.009319 0.018954 0.039389 0.009598
# 6 -0.007000 0.000429 0.003096 0.004719 0.009598 0.031142
#
#
# Mechanical properties :
#
#
# Convention : Reuss Voigt Hill
#
# Bulk Modulus (GPa) = 34.37295 48.66191 41.51743
# Shear Modulus (GPa) = 27.10393 36.56059 31.83226
#
# Velocity S-wave (km/s) = 3.43377 3.98806 3.72125
# Velocity P-wave (km/s) = 5.53841 6.50962 6.04356
#
# Compressibility (1/GPa) = 0.02909265
#
# Stress axis : x y z
#
# Youngs Moduli (GPa) = 90.74150 59.64286 71.82976
#
# Poissons Ratio (x) = 0.09460 0.23020
# Poissons Ratio (y) = 0.14392 0.10898
# Poissons Ratio (z) = 0.29080 0.09049
#
# Static dielectric constant tensor:
#      x y z
#    x 1.864210 0.094920 -0.098480 
#    y 0.094920 1.528940 0.034280 
#    z -0.098480 0.034280 1.856050 
# 
# From -- ./inp_files/446625.got.cif
#   From: 2010.05.17/outbox.cif.g08.bks.cpg/sg2_224_cif.got.tgz:446625.got - 2010.06.03 11:33:40.
