data_PCOD9050566
_publ_section_title
;
Structure prediction by ZEFSAII (Michael W. Deem and Ramdas Pophale) SiO2 
 PCOD9050566
Probable space group: P -1
;
_chemical_formula_sum "Si O2"
_cell_formula_units_Z 10
_cell_length_a 6.448249
_cell_length_b 14.261849
_cell_length_c 9.224308
_cell_angle_alpha 142.852478
_cell_angle_beta 95.478216
_cell_angle_gamma 68.319583
_cell_volume 445.088732
_symmetry_space_group_name_H-M "P -1"
_symmetry_group_IT_number 2
_symmetry_cell_setting 'triclinic'
loop_
_space_group_symop_operation_xyz
x,y,z
-x,-y,-z
loop_
_atom_site_type_symbol
_atom_site_label
_atom_site_fract_x
_atom_site_fract_y
_atom_site_fract_z
Si Si1 0.129978 0.852159 0.703049
Si Si2 0.387587 0.863187 0.462941
Si Si3 0.111178 0.393885 0.656023
Si Si4 0.666606 0.749091 0.080629
Si Si5 0.603353 0.626662 0.614632
O O1 0.173168 0.880542 0.571770
O O2 0.394768 0.771184 0.681944
O O3 0.018307 0.721354 0.532771
O O4 0.000000 0.000000 0.000000
O O5 0.647965 0.735080 0.397790
O O6 0.443159 0.775378 0.198082
O O7 0.335526 0.064395 0.687233
O O8 0.181256 0.451699 0.580397
O O9 0.912123 0.579489 0.940262
O O10 0.638264 0.709957 0.864684
O O11 0.500000 0.500000 0.500000
#
# Coordination Sequence:
#
# PCOD9050566 Si02
#       5
#     2   2   2   2   2
#     4  11  23  41  66  92 128 164 208 261 311 367
#     4  10  25  43  61  98 126 163 210 258 309 373
#     4  11  23  43  65  91 126 168 209 254 314 369
#     4  11  22  44  66  89 133 163 206 261 310 369
#     4  11  23  40  64  96 119 163 216 253 303 377
#
# _framework density 22.46743
#
# number of rings (size 3 to 8) (size 9 to 14) (size 15 to 20)
#    0.000    1.200    2.000    3.600    2.800    4.000 
#    3.600    3.000    0.000    0.000    0.000    0.000 
#    0.000    0.000    0.000    0.000    0.000    0.000 
#
# Total GULP energy -55754.416267 kJ/mol
# GULP energy per Si atom -5575.441627 kJ/mol
# Density = 2.241629 g / cm^3
# Si number density = 22.467430 Si / 1000 Ang^3
#
#
#
# Elastic Constant Matrix: (Units=GPa)
#
#
# Indices 1 2 3 4 5 6 
#
# 1 76.5133 16.7648 44.9737 -8.3852 -26.0559 35.1143
# 2 16.7648 53.1941 32.4187 -0.0514 -7.0232 20.3808
# 3 44.9737 32.4187 138.0657 -1.6795 -37.2424 37.5399
# 4 -8.3852 -0.0514 -1.6795 39.3331 9.3700 -8.7322
# 5 -26.0559 -7.0232 -37.2424 9.3700 28.7042 -18.6773
# 6 35.1143 20.3808 37.5399 -8.7322 -18.6773 43.9594
#
#
#
# Elastic Compliance Matrix: (Units=1/GPa)
#
#
# Indices 1 2 3 4 5 6 
#
# 1 0.023644 -0.000360 -0.000826 -0.000765 0.012068 -0.013038
# 2 -0.000360 0.024844 -0.004788 -0.000893 -0.006816 -0.010215
# 3 -0.000826 -0.004788 0.013385 -0.003790 0.014690 -0.003062
# 4 -0.000765 -0.000893 -0.003790 0.029074 -0.012149 0.004875
# 5 0.012068 -0.006816 0.014690 -0.012149 0.073530 0.009803
# 6 -0.013038 -0.010215 -0.003062 0.004875 0.009803 0.045648
#
#
# Mechanical properties :
#
#
# Convention : Reuss Voigt Hill
#
# Bulk Modulus (GPa) = 20.03028 50.67638 35.35333
# Shear Modulus (GPa) = 20.94556 33.97373 27.45964
#
# Velocity S-wave (km/s) = 3.05661 3.89283 3.49979
# Velocity P-wave (km/s) = 4.62512 6.54293 5.66576
#
# Compressibility (1/GPa) = 0.04992440
#
# Stress axis : x y z
#
# Youngs Moduli (GPa) = 42.29461 40.25179 74.70792
#
# Poissons Ratio (x) = 0.01449 0.06171
# Poissons Ratio (y) = 0.01523 0.35771
# Poissons Ratio (z) = 0.03493 0.19273
#
# Static dielectric constant tensor:
#      x y z
#    x 1.809590 0.069630 -0.082100 
#    y 0.069630 1.931020 -0.006700 
#    z -0.082100 -0.006700 1.922330 
# 
# From -- ./inp_files/15382.got.cif
#   From: 2010.05.17/outbox.cif.g08.bks.cpg/sg2_8_cif.got.tgz:15382.got - 2010.06.03 11:33:40.
