data_PCOD9050867
_publ_section_title
;
Structure prediction by ZEFSAII (Michael W. Deem and Ramdas Pophale) SiO2 
 PCOD9050867
Probable space group: P -1
;
_chemical_formula_sum "Si O2"
_cell_formula_units_Z 16
_cell_length_a 12.661733
_cell_length_b 14.249218
_cell_length_c 10.898360
_cell_angle_alpha 71.651418
_cell_angle_beta 62.160418
_cell_angle_gamma 22.525242
_cell_volume 625.397157
_symmetry_space_group_name_H-M "P -1"
_symmetry_group_IT_number 2
_symmetry_cell_setting 'triclinic'
loop_
_space_group_symop_operation_xyz
x,y,z
-x,-y,-z
loop_
_atom_site_type_symbol
_atom_site_label
_atom_site_fract_x
_atom_site_fract_y
_atom_site_fract_z
Si Si1 0.509278 0.427589 0.903288
Si Si2 0.879401 0.292640 0.223242
Si Si3 0.311291 0.447581 0.572689
Si Si4 0.715117 0.878433 0.077655
Si Si5 0.365910 0.958465 0.271068
Si Si6 0.436223 0.287757 0.142061
Si Si7 0.188533 0.196943 0.649751
Si Si8 0.190736 0.963923 0.726354
O O1 0.280702 0.638409 0.831659
O O2 0.500000 0.500000 0.000000
O O3 0.402208 0.403053 0.018867
O O4 0.872800 0.153735 0.781224
O O5 0.630335 0.513151 0.371814
O O6 0.183562 0.025640 0.246652
O O7 0.009821 0.295655 0.090122
O O8 0.520919 0.297630 0.401460
O O9 0.935779 0.748907 0.630384
O O10 0.427377 0.257939 0.653390
O O11 0.572185 0.882318 0.121198
O O12 0.489763 0.146802 0.097635
O O13 0.781236 0.817828 0.212847
O O14 0.727437 0.098968 0.147708
O O15 0.149555 0.491992 0.309549
O O16 0.500000 0.000000 0.500000
O O17 0.150197 0.112627 0.666067
#
# Coordination Sequence:
#
# PCOD9050867 Si02
#       8
#     2   2   2   2   2   2   2   2
#     4  12  23  48  73 100 141 186 249 302 358 427
#     4  10  25  44  70 104 141 187 249 293 358 429
#     4  10  26  45  69 104 147 189 244 289 362 428
#     4  11  23  41  68 105 142 191 236 298 362 427
#     4  10  25  44  70 105 149 192 237 291 362 435
#     4  11  25  43  70 107 138 188 242 300 362 428
#     4  11  24  39  68 102 145 179 237 295 361 434
#     4  11  25  43  69 102 143 193 237 297 366 422
#
# _framework density 25.583742999999998
#
# number of rings (size 3 to 8) (size 9 to 14) (size 15 to 20)
#    0.750    0.500    2.500    2.250    8.750    2.000 
#    0.000    0.625    0.000    0.000    0.000    0.000 
#    0.000    0.000    0.000    0.000    0.000    0.000 
#
# Total GULP energy -89406.097786 kJ/mol
# GULP energy per Si atom -5587.881112 kJ/mol
# Density = 2.552551 g / cm^3
# Si number density = 25.583743 Si / 1000 Ang^3
#
#
#
# Elastic Constant Matrix: (Units=GPa)
#
#
# Indices 1 2 3 4 5 6 
#
# 1 94.9876 26.0756 29.1944 2.3493 7.6177 -8.4727
# 2 26.0756 86.6852 21.8892 1.7159 -8.0447 -4.4899
# 3 29.1944 21.8892 92.4304 20.4286 7.5969 -1.4347
# 4 2.3493 1.7159 20.4286 41.5454 3.6798 -3.1416
# 5 7.6177 -8.0447 7.5969 3.6798 47.8336 0.6105
# 6 -8.4727 -4.4899 -1.4347 -3.1416 0.6105 31.1145
#
#
#
# Elastic Compliance Matrix: (Units=1/GPa)
#
#
# Indices 1 2 3 4 5 6 
#
# 1 0.012838 -0.003065 -0.003438 0.001517 -0.002170 0.003091
# 2 -0.003065 0.013442 -0.002609 0.000702 0.003096 0.000995
# 3 -0.003438 -0.002609 0.014089 -0.006582 -0.001606 -0.001296
# 4 0.001517 0.000702 -0.006582 0.027529 -0.001234 0.003015
# 5 -0.002170 0.003096 -0.001606 -0.001234 0.022132 -0.000777
# 6 0.003091 0.000995 -0.001296 0.003015 -0.000777 0.033384
#
#
# Mechanical properties :
#
#
# Convention : Reuss Voigt Hill
#
# Bulk Modulus (GPa) = 45.15840 47.60242 46.38041
# Shear Modulus (GPa) = 33.55232 37.22829 35.39031
#
# Velocity S-wave (km/s) = 3.62535 3.81879 3.72333
# Velocity P-wave (km/s) = 5.93412 6.17180 6.05412
#
# Compressibility (1/GPa) = 0.02214427
#
# Stress axis : x y z
#
# Youngs Moduli (GPa) = 77.89397 74.39434 70.97555
#
# Poissons Ratio (x) = 0.22801 0.24402
# Poissons Ratio (y) = 0.23874 0.18521
# Poissons Ratio (z) = 0.26780 0.19413
#
# Static dielectric constant tensor:
#      x y z
#    x 2.045030 -0.061050 0.017880 
#    y -0.061050 2.177150 0.009680 
#    z 0.017880 0.009680 2.002280 
# 
# From -- ./inp_files/456964.got.cif
#   From: 2010.05.17/outbox.cif.g08.bks.cpg/sg2_229_cif.got.tgz:456964.got - 2010.06.03 11:33:40.
