data_PCOD9050029
_publ_section_title
;
Structure prediction by ZEFSAII (Michael W. Deem and Ramdas Pophale) SiO2 
 PCOD9050029
Probable space group: P -1
;
_chemical_formula_sum "Si O2"
_cell_formula_units_Z 13
_cell_length_a 10.797485
_cell_length_b 8.934259
_cell_length_c 12.312355
_cell_angle_alpha 45.506096
_cell_angle_beta 66.246538
_cell_angle_gamma 42.798140
_cell_volume 560.210789
_symmetry_space_group_name_H-M "P -1"
_symmetry_group_IT_number 2
_symmetry_cell_setting 'triclinic'
loop_
_space_group_symop_operation_xyz
x,y,z
-x,-y,-z
loop_
_atom_site_type_symbol
_atom_site_label
_atom_site_fract_x
_atom_site_fract_y
_atom_site_fract_z
Si Si1 0.538117 0.724428 0.092570
Si Si2 0.094251 0.803361 0.401919
Si Si3 0.425035 0.155006 0.564441
Si Si4 0.655899 0.157741 0.101421
Si Si5 0.000000 0.000000 0.000000
Si Si6 0.288038 0.796533 0.546944
Si Si7 0.057257 0.659540 0.956595
O O1 0.582047 0.507665 0.279215
O O2 0.726628 0.536077 0.051463
O O3 0.362761 0.850567 0.017000
O O4 0.500000 0.000000 0.000000
O O5 0.227516 0.489523 0.458785
O O6 0.203157 0.769431 0.487443
O O7 0.888901 0.951976 0.441649
O O8 0.064346 0.034023 0.218247
O O9 0.583694 0.143811 0.557969
O O10 0.500000 0.000000 0.500000
O O11 0.394363 0.992385 0.737155
O O12 0.500000 0.500000 0.000000
O O13 0.858958 0.030637 0.117190
O O14 0.962033 0.267576 0.946092
O O15 0.000000 0.500000 0.000000
#
# Coordination Sequence:
#
# PCOD9050029 Si02
#       7
#     2   2   2   2   1   2   2
#     4  11  23  44  76 110 149 194 260 312 378 460
#     4  10  25  47  72 105 153 192 256 307 375 458
#     4  12  28  44  74 108 149 201 247 310 394 447
#     4  12  27  48  72 108 147 198 253 316 386 454
#     4  12  28  50  78 106 162 192 262 318 382 452
#     4  10  24  48  73 104 147 198 249 314 374 451
#     4  11  26  45  76 115 147 208 251 312 389 444
#
# _framework density 23.205549999999999
#
# number of rings (size 3 to 8) (size 9 to 14) (size 15 to 20)
#    0.000    0.923    1.538    3.231   10.769    4.308 
#    0.000    0.000    0.000    0.000    0.000    0.000 
#    0.000    0.000    0.000    0.000    0.000    0.000 
#
# Total GULP energy -72472.971510 kJ/mol
# GULP energy per Si atom -5574.843962 kJ/mol
# Density = 2.315273 g / cm^3
# Si number density = 23.205550 Si / 1000 Ang^3
#
#
#
# Elastic Constant Matrix: (Units=GPa)
#
#
# Indices 1 2 3 4 5 6 
#
# 1 82.0998 14.8630 47.0191 0.8653 -23.5083 -6.1891
# 2 14.8630 164.2073 61.6108 -18.8007 -16.6372 5.5026
# 3 47.0191 61.6108 139.0663 -17.8166 -20.8263 -18.4594
# 4 0.8653 -18.8007 -17.8166 36.6004 0.4301 -6.7463
# 5 -23.5083 -16.6372 -20.8263 0.4301 42.6282 11.5348
# 6 -6.1891 5.5026 -18.4594 -6.7463 11.5348 44.6778
#
#
#
# Elastic Compliance Matrix: (Units=1/GPa)
#
#
# Indices 1 2 3 4 5 6 
#
# 1 0.017548 0.001208 -0.006076 -0.003361 0.007970 -0.002793
# 2 0.001208 0.007915 -0.003657 0.001718 0.002697 -0.002755
# 3 -0.006076 -0.003657 0.012218 0.005238 -0.000361 0.005541
# 4 -0.003361 0.001718 0.005238 0.032042 -0.000708 0.006508
# 5 0.007970 0.002697 -0.000361 -0.000708 0.030746 -0.007422
# 6 -0.002793 -0.002755 0.005541 0.006508 -0.007422 0.027523
#
#
# Mechanical properties :
#
#
# Convention : Reuss Voigt Hill
#
# Bulk Modulus (GPa) = 48.47097 70.26214 59.36656
# Shear Modulus (GPa) = 32.91248 42.23999 37.57624
#
# Velocity S-wave (km/s) = 3.77012 4.27107 4.02839
# Velocity P-wave (km/s) = 6.31544 7.39369 6.87573
#
# Compressibility (1/GPa) = 0.02063091
#
# Stress axis : x y z
#
# Youngs Moduli (GPa) = 56.98508 126.34685 81.84858
#
# Poissons Ratio (x) = -0.15259 0.49732
# Poissons Ratio (y) = -0.06882 0.29929
# Poissons Ratio (z) = 0.34624 0.46200
#
# Static dielectric constant tensor:
#      x y z
#    x 1.918470 -0.058550 0.042950 
#    y -0.058550 2.247640 -0.055790 
#    z 0.042950 -0.055790 1.848970 
# 
# From -- ./inp_files/261241.got.cif
#   From: 2010.05.17/outbox.cif.g08.bks.cpg/sg2_131_cif.got.tgz:261241.got - 2010.06.03 11:33:40.
