data_PCOD9050146
_publ_section_title
;
Structure prediction by ZEFSAII (Michael W. Deem and Ramdas Pophale) SiO2 
 PCOD9050146
Probable space group: P -1
;
_chemical_formula_sum "Si O2"
_cell_formula_units_Z 11
_cell_length_a 9.448540
_cell_length_b 7.773541
_cell_length_c 9.575602
_cell_angle_alpha 110.193210
_cell_angle_beta 63.584382
_cell_angle_gamma 68.927019
_cell_volume 468.227726
_symmetry_space_group_name_H-M "P -1"
_symmetry_group_IT_number 2
_symmetry_cell_setting 'triclinic'
loop_
_space_group_symop_operation_xyz
x,y,z
-x,-y,-z
loop_
_atom_site_type_symbol
_atom_site_label
_atom_site_fract_x
_atom_site_fract_y
_atom_site_fract_z
Si Si1 0.700599 0.506515 0.311737
Si Si2 0.286732 0.903250 0.700763
Si Si3 0.132002 0.297024 0.100095
Si Si4 0.448161 0.370533 0.886764
Si Si5 0.135219 0.074699 0.510101
Si Si6 0.000000 0.500000 0.500000
O O1 0.525902 0.750383 0.527047
O O2 0.742201 0.295155 0.324025
O O3 0.905373 0.466696 0.190610
O O4 0.616779 0.504863 0.199625
O O5 0.166751 0.050538 0.657339
O O6 0.222140 0.059054 0.909339
O O7 0.274756 0.364142 0.018092
O O8 0.113619 0.288331 0.272394
O O9 0.500000 0.500000 0.000000
O O10 0.644138 0.113075 0.699779
O O11 0.040141 0.322270 0.555714
O O12 0.000000 0.000000 0.500000
#
# Coordination Sequence:
#
# PCOD9050146 Si02
#       6
#     2   2   2   2   2   1
#     4  10  24  48  78 115 148 196 259 317 383 471
#     4  10  25  47  81 109 152 202 256 312 390 461
#     4  12  27  47  77 110 151 205 255 317 381 462
#     4  11  27  46  76 112 156 199 258 320 390 451
#     4  11  26  50  73 113 158 201 254 325 379 465
#     4  12  30  44  74 112 152 198 264 314 384 448
#
# _framework density 23.492844000000002
#
# number of rings (size 3 to 8) (size 9 to 14) (size 15 to 20)
#    0.000    1.091    0.000    3.273   12.727    5.091 
#    0.000    0.000    0.000    0.000    0.000    0.000 
#    0.000    0.000    0.000    0.000    0.000    0.000 
#
# Total GULP energy -61361.772656 kJ/mol
# GULP energy per Si atom -5578.342969 kJ/mol
# Density = 2.343937 g / cm^3
# Si number density = 23.492844 Si / 1000 Ang^3
#
#
#
# Elastic Constant Matrix: (Units=GPa)
#
#
# Indices 1 2 3 4 5 6 
#
# 1 111.1492 43.0264 65.6484 9.4885 -12.5668 2.0990
# 2 43.0264 160.8393 26.8338 -6.0911 6.0716 -2.4663
# 3 65.6484 26.8338 173.7329 -10.7383 16.9417 -16.2834
# 4 9.4885 -6.0911 -10.7383 20.2915 -6.9745 9.1334
# 5 -12.5668 6.0716 16.9417 -6.9745 55.6143 -0.3064
# 6 2.0990 -2.4663 -16.2834 9.1334 -0.3064 14.4866
#
#
#
# Elastic Compliance Matrix: (Units=1/GPa)
#
#
# Indices 1 2 3 4 5 6 
#
# 1 0.015874 -0.003666 -0.006945 -0.007919 0.005079 -0.005630
# 2 -0.003666 0.007286 0.000631 0.003725 -0.001348 0.000104
# 3 -0.006945 0.000631 0.009838 0.002424 -0.004273 0.010553
# 4 -0.007919 0.003725 0.002424 0.077553 0.006547 -0.044250
# 5 0.005079 -0.001348 -0.004273 0.006547 0.021347 -0.009445
# 6 -0.005630 0.000104 0.010553 -0.044250 -0.009445 0.109424
#
#
# Mechanical properties :
#
#
# Convention : Reuss Voigt Hill
#
# Bulk Modulus (GPa) = 76.68402 79.63763 78.16083
# Shear Modulus (GPa) = 18.82337 38.75934 28.79136
#
# Velocity S-wave (km/s) = 2.83369 4.06622 3.50457
# Velocity P-wave (km/s) = 6.58928 7.48451 7.05112
#
# Compressibility (1/GPa) = 0.01304053
#
# Stress axis : x y z
#
# Youngs Moduli (GPa) = 62.99541 137.24404 101.64418
#
# Poissons Ratio (x) = 0.50312 0.70587
# Poissons Ratio (y) = 0.23093 -0.06417
# Poissons Ratio (z) = 0.43747 -0.08664
#
# Static dielectric constant tensor:
#      x y z
#    x 1.892110 0.007080 0.003910 
#    y 0.007080 1.840600 0.008910 
#    z 0.003910 0.008910 1.894700 
# 
# From -- ./inp_files/155826.got.cif
#   From: 2010.05.17/outbox.cif.g08.bks.cpg/sg2_78_cif.got.tgz:155826.got - 2010.06.03 11:33:40.
