data_PCOD9050673
_publ_section_title
;
Structure prediction by ZEFSAII (Michael W. Deem and Ramdas Pophale) SiO2 
 PCOD9050673
Probable space group: P -1
;
_chemical_formula_sum "Si O2"
_cell_formula_units_Z 12
_cell_length_a 5.196962
_cell_length_b 8.966106
_cell_length_c 13.347857
_cell_angle_alpha 104.871954
_cell_angle_beta 90.018440
_cell_angle_gamma 124.426366
_cell_volume 487.524026
_symmetry_space_group_name_H-M "P -1"
_symmetry_group_IT_number 2
_symmetry_cell_setting 'triclinic'
loop_
_space_group_symop_operation_xyz
x,y,z
-x,-y,-z
loop_
_atom_site_type_symbol
_atom_site_label
_atom_site_fract_x
_atom_site_fract_y
_atom_site_fract_z
Si Si1 0.427463 0.595186 0.822640
Si Si2 0.736510 0.173863 0.458647
Si Si3 0.060374 0.176765 0.276120
Si Si4 0.153464 0.199983 0.837460
Si Si5 0.306415 0.529909 0.600589
Si Si6 0.648214 0.191120 0.970288
O O1 0.803607 0.752673 0.825373
O O2 0.238189 0.579504 0.719384
O O3 0.348759 0.389865 0.805495
O O4 0.310798 0.655103 0.925377
O O5 0.675714 0.331442 0.458862
O O6 0.768448 0.108586 0.337452
O O7 0.068721 0.308776 0.541914
O O8 0.500000 0.000000 0.500000
O O9 0.326890 0.379289 0.363246
O O10 0.083179 0.998472 0.254594
O O11 0.954613 0.231042 0.921930
O O12 0.395140 0.167062 0.885781
O O13 0.500000 0.000000 0.000000
#
# Coordination Sequence:
#
# PCOD9050673 Si02
#       6
#     2   2   2   2   2   2
#     4  10  25  45  70 102 147 189 245 297 360 438
#     4  11  24  42  73 101 138 186 242 301 368 438
#     4  10  25  43  70  97 145 184 239 299 365 420
#     4  12  27  45  76 109 145 200 241 295 365 436
#     4   9  24  44  65 102 138 186 235 300 362 424
#     4  12  25  47  74 107 151 193 241 302 357 431
#
# _framework density 24.614172
#
# number of rings (size 3 to 8) (size 9 to 14) (size 15 to 20)
#    1.000    0.333    1.667    2.000    7.000    4.667 
#    0.000    0.000    0.000    0.000    0.000    0.000 
#    0.000    0.000    0.000    0.000    0.000    0.000 
#
# Total GULP energy -66863.684294 kJ/mol
# GULP energy per Si atom -5571.973691 kJ/mol
# Density = 2.455815 g / cm^3
# Si number density = 24.614172 Si / 1000 Ang^3
#
#
#
# Elastic Constant Matrix: (Units=GPa)
#
#
# Indices 1 2 3 4 5 6 
#
# 1 60.6693 27.3757 33.0916 -13.6232 -6.8748 -10.7580
# 2 27.3757 225.4964 39.6458 -10.2857 -9.3602 -7.8829
# 3 33.0916 39.6458 98.0835 8.8053 -27.3619 5.1192
# 4 -13.6232 -10.2857 8.8053 40.4775 1.0968 -1.7790
# 5 -6.8748 -9.3602 -27.3619 1.0968 43.9605 -7.8838
# 6 -10.7580 -7.8829 5.1192 -1.7790 -7.8838 23.4478
#
#
#
# Elastic Compliance Matrix: (Units=1/GPa)
#
#
# Indices 1 2 3 4 5 6 
#
# 1 0.028791 -0.000283 -0.011669 0.012890 -0.000168 0.016583
# 2 -0.000283 0.005012 -0.002201 0.001752 -0.000002 0.002168
# 3 -0.011669 -0.002201 0.018489 -0.009082 0.007982 -0.008136
# 4 0.012890 0.001752 -0.009082 0.031972 -0.002240 0.010159
# 5 -0.000168 -0.000002 0.007982 -0.002240 0.029145 0.007809
# 6 0.016583 0.002168 -0.008136 0.010159 0.007809 0.056158
#
#
# Mechanical properties :
#
#
# Convention : Reuss Voigt Hill
#
# Bulk Modulus (GPa) = 41.69267 64.94171 53.31719
# Shear Modulus (GPa) = 24.28747 40.51958 32.40352
#
# Velocity S-wave (km/s) = 3.14463 4.06173 3.63224
# Velocity P-wave (km/s) = 5.49183 6.95974 6.26890
#
# Compressibility (1/GPa) = 0.02398503
#
# Stress axis : x y z
#
# Youngs Moduli (GPa) = 34.73289 199.53396 54.08724
#
# Poissons Ratio (x) = 0.05648 0.63113
# Poissons Ratio (y) = 0.00983 0.11907
# Poissons Ratio (z) = 0.40529 0.43925
#
# Static dielectric constant tensor:
#      x y z
#    x 2.101460 0.080590 0.037140 
#    y 0.080590 1.920940 0.024710 
#    z 0.037140 0.024710 2.155730 
# 
# From -- ./inp_files/479987.got.cif
#   From: 2010.05.17/outbox.cif.g08.bks.cpg/sg2_240_cif.got.tgz:479987.got - 2010.06.03 11:33:40.
