data_PCOD9050444
_publ_section_title
;
Structure prediction by ZEFSAII (Michael W. Deem and Ramdas Pophale) SiO2 
 PCOD9050444
Probable space group: P -1
;
_chemical_formula_sum "Si O2"
_cell_formula_units_Z 16
_cell_length_a 16.727045
_cell_length_b 9.355222
_cell_length_c 14.408126
_cell_angle_alpha 96.272804
_cell_angle_beta 145.749026
_cell_angle_gamma 60.464656
_cell_volume 875.724243
_symmetry_space_group_name_H-M "P -1"
_symmetry_group_IT_number 2
_symmetry_cell_setting 'triclinic'
loop_
_space_group_symop_operation_xyz
x,y,z
-x,-y,-z
loop_
_atom_site_type_symbol
_atom_site_label
_atom_site_fract_x
_atom_site_fract_y
_atom_site_fract_z
Si Si1 0.746061 0.512016 0.975826
Si Si2 0.356146 0.180511 0.654303
Si Si3 0.271279 0.120227 0.762754
Si Si4 0.174025 0.228565 0.878505
Si Si5 0.556432 0.380174 0.451743
Si Si6 0.160480 0.055271 0.370541
Si Si7 0.322519 0.797759 0.694318
Si Si8 0.240749 0.583191 0.511473
O O1 0.839897 0.602278 0.080890
O O2 0.926455 0.267082 0.146026
O O3 0.632871 0.565281 0.773984
O O4 0.562324 0.639040 0.884933
O O5 0.236783 0.221240 0.637553
O O6 0.289679 0.108426 0.510719
O O7 0.306128 0.375725 0.586747
O O8 0.597809 0.990734 0.894592
O O9 0.145028 0.257486 0.740938
O O10 0.270609 0.947773 0.735686
O O11 0.500000 0.000000 0.000000
O O12 0.992076 0.257460 0.736423
O O13 0.500000 0.500000 0.500000
O O14 0.624796 0.445915 0.443680
O O15 0.736214 0.130197 0.615376
O O16 0.196260 0.949341 0.495447
O O17 0.267697 0.670204 0.632016
#
# Coordination Sequence:
#
# PCOD9050444 Si02
#       8
#     2   2   2   2   2   2   2   2
#     4  10  17  34  63  78 107 153 186 217 277 343
#     4  10  18  35  56  85 114 151 188 227 267 323
#     4   9  17  33  56  78 115 161 196 215 259 327
#     4  11  19  34  58  83 114 152 191 232 263 318
#     4  10  23  43  60  82 112 139 178 238 290 347
#     4   9  17  34  61  81 104 149 188 211 281 348
#     4   9  19  36  49  82 120 152 184 232 268 317
#     4  10  22  34  57  84 113 140 187 237 291 313
#
# _framework density 18.270592000000001
#
# number of rings (size 3 to 8) (size 9 to 14) (size 15 to 20)
#    0.000    2.500    6.250    0.000    0.000    5.500 
#    0.000    3.750    0.000    0.000    0.000    0.000 
#    0.000    0.000    0.000    0.000    0.000    0.000 
#
# Total GULP energy -89092.180560 kJ/mol
# GULP energy per Si atom -5568.261285 kJ/mol
# Density = 1.822901 g / cm^3
# Si number density = 18.270592 Si / 1000 Ang^3
#
#
#
# Elastic Constant Matrix: (Units=GPa)
#
#
# Indices 1 2 3 4 5 6 
#
# 1 38.4003 36.2145 9.5098 10.8883 -3.5244 -4.0376
# 2 36.2145 133.0628 29.4434 11.5428 -11.2441 -0.4043
# 3 9.5098 29.4434 63.3857 -12.1813 7.9361 -10.6763
# 4 10.8883 11.5428 -12.1813 40.7707 5.3691 -2.4639
# 5 -3.5244 -11.2441 7.9361 5.3691 10.4849 5.4398
# 6 -4.0376 -0.4043 -10.6763 -2.4639 5.4398 31.4128
#
#
#
# Elastic Compliance Matrix: (Units=1/GPa)
#
#
# Indices 1 2 3 4 5 6 
#
# 1 0.040104 -0.004241 -0.012046 -0.017367 0.029806 -0.005518
# 2 -0.004241 0.021213 -0.024733 -0.021724 0.062138 -0.021143
# 3 -0.012046 -0.024733 0.061177 0.047510 -0.124111 0.044145
# 4 -0.017367 -0.021724 0.047510 0.067780 -0.120458 0.039811
# 5 0.029806 0.062138 -0.124111 -0.120458 0.386791 -0.113980
# 6 -0.005518 -0.021143 0.044145 0.039811 -0.113980 0.068717
#
#
# Mechanical properties :
#
#
# Convention : Reuss Voigt Hill
#
# Bulk Modulus (GPa) = 24.71894 42.79823 33.75859
# Shear Modulus (GPa) = 6.74484 27.17909 16.96196
#
# Velocity S-wave (km/s) = 1.92345 3.86111 3.05023
# Velocity P-wave (km/s) = 4.30019 6.58430 5.56078
#
# Compressibility (1/GPa) = 0.04045481
#
# Stress axis : x y z
#
# Youngs Moduli (GPa) = 24.93525 47.14013 16.34592
#
# Poissons Ratio (x) = 0.19992 0.19690
# Poissons Ratio (y) = 0.10575 0.40429
# Poissons Ratio (z) = 0.30036 1.16594
#
# Static dielectric constant tensor:
#      x y z
#    x 1.649770 -0.012580 0.015930 
#    y -0.012580 1.668480 -0.000650 
#    z 0.015930 -0.000650 1.641230 
# 
# From -- ./inp_files/214690.got.cif
#   From: 2010.05.17/outbox.cif.g08.bks.cpg/sg2_108_cif.got.tgz:214690.got - 2010.06.03 11:33:40.
