data_PCOD9050423
_publ_section_title
;
Structure prediction by ZEFSAII (Michael W. Deem and Ramdas Pophale) SiO2 
 PCOD9050423
Probable space group: P -1
;
_chemical_formula_sum "Si O2"
_cell_formula_units_Z 16
_cell_length_a 22.087624
_cell_length_b 9.435018
_cell_length_c 5.173392
_cell_angle_alpha 80.539672
_cell_angle_beta 110.495529
_cell_angle_gamma 140.461256
_cell_volume 632.713758
_symmetry_space_group_name_H-M "P -1"
_symmetry_group_IT_number 2
_symmetry_cell_setting 'triclinic'
loop_
_space_group_symop_operation_xyz
x,y,z
-x,-y,-z
loop_
_atom_site_type_symbol
_atom_site_label
_atom_site_fract_x
_atom_site_fract_y
_atom_site_fract_z
Si Si1 0.508084 0.701277 0.265201
Si Si2 0.668657 0.201070 0.341128
Si Si3 0.784868 0.127910 0.318469
Si Si4 0.039642 0.674231 0.785712
Si Si5 0.826920 0.926435 0.755716
Si Si6 0.391537 0.259279 0.100773
Si Si7 0.027492 0.188564 0.647485
Si Si8 0.752059 0.492303 0.890519
O O1 0.398673 0.441183 0.119679
O O2 0.541814 0.707590 0.596411
O O3 0.553708 0.939082 0.240032
O O4 0.568828 0.715664 0.131634
O O5 0.701550 0.319929 0.630250
O O6 0.741890 0.191588 0.382430
O O7 0.690184 0.352109 0.101203
O O8 0.771117 0.958497 0.512358
O O9 0.901266 0.315731 0.346445
O O10 0.718847 0.000502 0.996852
O O11 0.961250 0.659813 0.577864
O O12 0.000000 0.500000 0.000000
O O13 0.127365 0.928269 0.959997
O O14 0.759656 0.671169 0.770569
O O15 0.928985 0.055942 0.712261
O O16 0.130347 0.348503 0.917985
O O17 0.000000 0.000000 0.500000
#
# Coordination Sequence:
#
# PCOD9050423 Si02
#       8
#     2   2   2   2   2   2   2   2
#     4   9  18  36  59 100 130 158 206 264 315 374
#     4  11  25  40  68 100 129 162 217 271 319 377
#     4  10  25  41  64  96 129 169 212 266 324 384
#     4  11  27  42  63  93 130 165 216 278 319 372
#     4  11  26  42  61  88 129 168 217 262 324 383
#     4   9  18  35  65  92 131 167 202 256 322 382
#     4  11  24  44  62  87 121 170 224 264 312 382
#     4  12  26  42  67  92 126 175 214 268 318 382
#
# _framework density 25.287897999999998
#
# number of rings (size 3 to 8) (size 9 to 14) (size 15 to 20)
#    0.000    1.500    1.250    2.625   12.250    1.000 
#    0.000    1.875    0.000    1.500    0.000    0.000 
#    0.000    0.000    0.000    0.000    0.000    0.000 
#
# Total GULP energy -89522.931059 kJ/mol
# GULP energy per Si atom -5595.183191 kJ/mol
# Density = 2.523034 g / cm^3
# Si number density = 25.287898 Si / 1000 Ang^3
#
#
#
# Elastic Constant Matrix: (Units=GPa)
#
#
# Indices 1 2 3 4 5 6 
#
# 1 57.1146 -8.5654 5.9197 -1.9133 -7.9997 -11.6363
# 2 -8.5654 149.4315 36.9186 1.2250 2.5009 -28.5851
# 3 5.9197 36.9186 111.0768 1.5474 -14.4550 -14.6124
# 4 -1.9133 1.2250 1.5474 68.3802 -4.2090 -0.7384
# 5 -7.9997 2.5009 -14.4550 -4.2090 22.3408 -1.2814
# 6 -11.6363 -28.5851 -14.6124 -0.7384 -1.2814 33.4537
#
#
#
# Elastic Compliance Matrix: (Units=1/GPa)
#
#
# Indices 1 2 3 4 5 6 
#
# 1 0.021247 0.002987 0.000308 0.001157 0.008289 0.010420
# 2 0.002987 0.008889 -0.002232 0.000000 -0.000932 0.007623
# 3 0.000308 -0.002232 0.011193 0.000316 0.007857 0.003397
# 4 0.001157 0.000000 0.000316 0.014874 0.003478 0.001002
# 5 0.008289 -0.000932 0.007857 0.003478 0.054012 0.007664
# 6 0.010420 0.007623 0.003397 0.001002 0.007664 0.041830
#
#
# Mechanical properties :
#
#
# Convention : Reuss Voigt Hill
#
# Bulk Modulus (GPa) = 23.01202 42.90762 32.95982
# Shear Modulus (GPa) = 30.41290 43.72493 37.06892
#
# Velocity S-wave (km/s) = 3.47171 4.16274 3.83283
# Velocity P-wave (km/s) = 5.01898 6.33317 5.71398
#
# Compressibility (1/GPa) = 0.04345556
#
# Stress axis : x y z
#
# Youngs Moduli (GPa) = 47.06454 112.50436 89.34048
#
# Poissons Ratio (x) = -0.33604 -0.02754
# Poissons Ratio (y) = -0.14058 0.19940
# Poissons Ratio (z) = -0.01451 0.25110
#
# Static dielectric constant tensor:
#      x y z
#    x 2.020500 0.095600 0.005940 
#    y 0.095600 2.150590 0.028650 
#    z 0.005940 0.028650 2.014800 
# 
# From -- ./inp_files/126421.got.cif
#   From: 2010.05.17/outbox.cif.g08.bks.cpg/sg2_64_cif.got.tgz:126421.got - 2010.06.03 11:33:40.
