data_PCOD9050105
_publ_section_title
;
Structure prediction by ZEFSAII (Michael W. Deem and Ramdas Pophale) SiO2 
 PCOD9050105
Probable space group: P -1
;
_chemical_formula_sum "Si O2"
_cell_formula_units_Z 12
_cell_length_a 17.154617
_cell_length_b 5.020280
_cell_length_c 6.096239
_cell_angle_alpha 91.931701
_cell_angle_beta 90.193016
_cell_angle_gamma 69.321182
_cell_volume 490.890279
_symmetry_space_group_name_H-M "P -1"
_symmetry_group_IT_number 2
_symmetry_cell_setting 'triclinic'
loop_
_space_group_symop_operation_xyz
x,y,z
-x,-y,-z
loop_
_atom_site_type_symbol
_atom_site_label
_atom_site_fract_x
_atom_site_fract_y
_atom_site_fract_z
Si Si1 0.497563 0.260358 0.159927
Si Si2 0.098108 0.099855 0.366804
Si Si3 0.792554 0.708333 0.966429
Si Si4 0.316280 0.499656 0.373046
Si Si5 0.322695 0.999254 0.652120
Si Si6 0.908201 0.366428 0.328331
O O1 0.412570 0.372512 0.296937
O O2 0.580173 0.162841 0.304726
O O3 0.500000 0.500000 0.000000
O O4 0.500000 0.000000 0.000000
O O5 0.093512 0.339050 0.555233
O O6 0.003973 0.172345 0.279816
O O7 0.123001 0.803731 0.491407
O O8 0.154016 0.155161 0.177710
O O9 0.730926 0.954560 0.127058
O O10 0.854017 0.460309 0.113025
O O11 0.737553 0.571578 0.819175
O O12 0.308226 0.314116 0.575141
O O13 0.296674 0.820934 0.460920
#
# Coordination Sequence:
#
# PCOD9050105 Si02
#       6
#     2   2   2   2   2   2
#     4  12  24  50  78 103 143 204 249 296 371 443
#     4  10  24  48  76 108 148 198 250 304 374 451
#     4  12  27  47  76 114 156 192 256 309 385 434
#     4  12  28  48  74 108 151 198 247 310 371 439
#     4  12  28  48  74 108 151 198 247 310 371 439
#     4  10  24  48  76 108 148 198 250 304 374 451
#
# _framework density 24.445378999999999
#
# number of rings (size 3 to 8) (size 9 to 14) (size 15 to 20)
#    0.000    0.667    1.667    4.500    0.000    9.333 
#    0.000    5.000    0.000    3.000    0.000    0.000 
#    0.000    0.000    0.000    0.000    0.000    0.000 
#
# Total GULP energy -67375.763652 kJ/mol
# GULP energy per Si atom -5614.646971 kJ/mol
# Density = 2.438974 g / cm^3
# Si number density = 24.445379 Si / 1000 Ang^3
#
#
#
# Elastic Constant Matrix: (Units=GPa)
#
#
# Indices 1 2 3 4 5 6 
#
# 1 174.9676 31.0758 79.3074 -15.8577 -1.0222 -18.7463
# 2 31.0758 113.2903 23.5650 -12.9131 7.7730 13.1599
# 3 79.3074 23.5650 112.2745 -10.1784 5.6998 -12.8540
# 4 -15.8577 -12.9131 -10.1784 55.8990 -10.7146 4.5869
# 5 -1.0222 7.7730 5.6998 -10.7146 49.2624 -5.3958
# 6 -18.7463 13.1599 -12.8540 4.5869 -5.3958 35.8038
#
#
#
# Elastic Compliance Matrix: (Units=1/GPa)
#
#
# Indices 1 2 3 4 5 6 
#
# 1 0.009056 -0.001698 -0.005624 0.001204 0.001747 0.003456
# 2 -0.001698 0.010596 -0.001432 0.001841 -0.001777 -0.005801
# 3 -0.005624 -0.001432 0.013507 0.000123 -0.001182 0.002237
# 4 0.001204 0.001841 0.000123 0.019559 0.003762 -0.001941
# 5 0.001747 -0.001777 -0.001182 0.003762 0.022007 0.003978
# 6 0.003456 -0.005801 0.002237 -0.001941 0.003978 0.033523
#
#
# Mechanical properties :
#
#
# Convention : Reuss Voigt Hill
#
# Bulk Modulus (GPa) = 63.89294 74.26987 69.08140
# Shear Modulus (GPa) = 38.17597 45.96532 42.07065
#
# Velocity S-wave (km/s) = 3.95610 4.34098 4.15300
# Velocity P-wave (km/s) = 6.86013 7.45476 7.16362
#
# Compressibility (1/GPa) = 0.01565118
#
# Stress axis : x y z
#
# Youngs Moduli (GPa) = 110.42636 94.37458 74.03432
#
# Poissons Ratio (x) = 0.16027 0.41639
# Poissons Ratio (y) = 0.18753 0.10598
# Poissons Ratio (z) = 0.62107 0.13510
#
# Static dielectric constant tensor:
#      x y z
#    x 2.438040 -0.087260 -0.809760 
#    y -0.087260 1.896160 0.080010 
#    z -0.809760 0.080010 3.311340 
# 
# From -- ./inp_files/102567.got.cif
#   From: 2010.05.17/outbox.cif.g08.bks.cpg/sg2_52_cif.got.tgz:102567.got - 2010.06.03 11:33:40.
