data_PCOD9050710
_publ_section_title
;
Structure prediction by ZEFSAII (Michael W. Deem and Ramdas Pophale) SiO2 
 PCOD9050710
Probable space group: P -1
;
_chemical_formula_sum "Si O2"
_cell_formula_units_Z 12
_cell_length_a 8.737686
_cell_length_b 8.453635
_cell_length_c 13.094611
_cell_angle_alpha 63.855457
_cell_angle_beta 59.877843
_cell_angle_gamma 34.264799
_cell_volume 470.365264
_symmetry_space_group_name_H-M "P -1"
_symmetry_group_IT_number 2
_symmetry_cell_setting 'triclinic'
loop_
_space_group_symop_operation_xyz
x,y,z
-x,-y,-z
loop_
_atom_site_type_symbol
_atom_site_label
_atom_site_fract_x
_atom_site_fract_y
_atom_site_fract_z
Si Si1 0.270188 0.169012 0.222686
Si Si2 0.286667 0.864675 0.615614
Si Si3 0.722688 0.531019 0.193944
Si Si4 0.749509 0.400683 0.004942
Si Si5 0.092743 0.583423 0.521911
Si Si6 0.240455 0.985087 0.823973
O O1 0.068939 0.313895 0.347469
O O2 0.477811 0.174968 0.165857
O O3 0.049854 0.329387 0.158083
O O4 0.493234 0.835511 0.236151
O O5 0.294450 0.652512 0.700689
O O6 0.293570 0.968096 0.691156
O O7 0.570158 0.683500 0.509276
O O8 0.014373 0.148973 0.567273
O O9 0.655436 0.587140 0.079587
O O10 0.867016 0.133103 0.100133
O O11 0.500000 0.500000 0.000000
O O12 0.992157 0.277178 0.882949
O O13 0.000000 0.500000 0.500000
#
# Coordination Sequence:
#
# PCOD9050710 Si02
#       6
#     2   2   2   2   2   2
#     4  12  27  45  70 107 147 179 235 297 350 405
#     4  11  25  45  73 100 143 189 235 284 340 425
#     4  11  28  46  69 108 144 185 230 294 357 409
#     4  10  25  47  75  99 135 190 239 279 358 429
#     4  12  25  43  73 106 138 188 242 279 344 415
#     4  10  25  43  73 102 136 185 237 291 345 419
#
# _framework density 25.512086
#
# number of rings (size 3 to 8) (size 9 to 14) (size 15 to 20)
#    0.000    1.000    1.667    2.500   16.333    5.333 
#    0.000    0.000    0.000    0.000    0.000    0.000 
#    0.000    0.000    0.000    0.000    0.000    0.000 
#
# Total GULP energy -67171.930561 kJ/mol
# GULP energy per Si atom -5597.660880 kJ/mol
# Density = 2.545402 g / cm^3
# Si number density = 25.512086 Si / 1000 Ang^3
#
#
#
# Elastic Constant Matrix: (Units=GPa)
#
#
# Indices 1 2 3 4 5 6 
#
# 1 101.1323 21.9211 50.8220 5.9884 -0.5749 -6.2340
# 2 21.9211 108.5347 50.6810 18.1156 0.1193 -1.8476
# 3 50.8220 50.6810 112.2471 41.8064 0.7955 6.9363
# 4 5.9884 18.1156 41.8064 37.9222 3.4642 -8.9071
# 5 -0.5749 0.1193 0.7955 3.4642 38.7585 -3.0577
# 6 -6.2340 -1.8476 6.9363 -8.9071 -3.0577 52.9377
#
#
#
# Elastic Compliance Matrix: (Units=1/GPa)
#
#
# Indices 1 2 3 4 5 6 
#
# 1 0.015388 0.000599 -0.011927 0.011704 -0.000152 0.005356
# 2 0.000599 0.011787 -0.006265 0.001541 0.000087 0.001567
# 3 -0.011927 -0.006265 0.028633 -0.029188 0.001057 -0.010225
# 4 0.011704 0.001541 -0.029188 0.059825 -0.003386 0.015127
# 5 -0.000152 0.000087 0.001057 -0.003386 0.026141 0.000787
# 6 0.005356 0.001567 -0.010225 0.015127 0.000787 0.023506
#
#
# Mechanical properties :
#
#
# Convention : Reuss Voigt Hill
#
# Bulk Modulus (GPa) = 48.48939 63.19583 55.84261
# Shear Modulus (GPa) = 24.11491 39.15635 31.63563
#
# Velocity S-wave (km/s) = 3.07780 3.92192 3.52522
# Velocity P-wave (km/s) = 5.62834 6.73300 6.20530
#
# Compressibility (1/GPa) = 0.02062307
#
# Stress axis : x y z
#
# Youngs Moduli (GPa) = 64.98535 84.83615 34.92457
#
# Poissons Ratio (x) = -0.05083 0.41655
# Poissons Ratio (y) = -0.03894 0.21880
# Poissons Ratio (z) = 0.77508 0.53149
#
# Static dielectric constant tensor:
#      x y z
#    x 2.028030 0.059920 0.011240 
#    y 0.059920 2.077050 -0.124800 
#    z 0.011240 -0.124800 2.036820 
# 
# From -- ./inp_files/60225.got.cif
#   From: 2010.05.17/outbox.cif.g08.bks.cpg/sg2_31_cif.got.tgz:60225.got - 2010.06.03 11:33:40.
