data_PCOD9050798
_publ_section_title
;
Structure prediction by ZEFSAII (Michael W. Deem and Ramdas Pophale) SiO2 
 PCOD9050798
Probable space group: P -1
;
_chemical_formula_sum "Si O2"
_cell_formula_units_Z 16
_cell_length_a 8.389768
_cell_length_b 18.087367
_cell_length_c 15.815773
_cell_angle_alpha 155.992514
_cell_angle_beta 139.739929
_cell_angle_gamma 42.341049
_cell_volume 622.927630
_symmetry_space_group_name_H-M "P -1"
_symmetry_group_IT_number 2
_symmetry_cell_setting 'triclinic'
loop_
_space_group_symop_operation_xyz
x,y,z
-x,-y,-z
loop_
_atom_site_type_symbol
_atom_site_label
_atom_site_fract_x
_atom_site_fract_y
_atom_site_fract_z
Si Si1 0.878891 0.264227 0.664274
Si Si2 0.162904 0.877350 0.871197
Si Si3 0.640100 0.028695 0.192157
Si Si4 0.360199 0.325279 0.276188
Si Si5 0.406169 0.773859 0.319777
Si Si6 0.569212 0.433610 0.230393
Si Si7 0.122940 0.404187 0.591275
Si Si8 0.537048 0.809448 0.217784
O O1 0.780458 0.093963 0.397973
O O2 0.808757 0.253954 0.726124
O O3 0.705258 0.449218 0.753267
O O4 0.162838 0.263097 0.747986
O O5 0.334004 0.696037 0.789397
O O6 0.985084 0.785857 0.642577
O O7 0.350545 0.012821 0.066506
O O8 0.000000 0.000000 0.000000
O O9 0.592804 0.197033 0.283663
O O10 0.735508 0.823165 0.982260
O O11 0.500000 0.500000 0.500000
O O12 0.096554 0.425487 0.310954
O O13 0.641718 0.617944 0.273963
O O14 0.404143 0.781995 0.225103
O O15 0.473564 0.974583 0.578036
O O16 0.748017 0.580295 0.431731
O O17 0.585562 0.292701 0.012054
#
# Coordination Sequence:
#
# PCOD9050798 Si02
#       8
#     2   2   2   2   2   2   2   2
#     4  11  24  44  70 103 143 186 247 307 360 436
#     4  12  22  39  67  98 139 185 233 300 365 434
#     4  11  25  41  68 103 142 192 241 293 369 434
#     4  11  24  44  67 104 149 189 242 294 363 445
#     4  10  25  44  68 102 138 187 251 293 368 436
#     4  11  24  42  67 106 139 188 249 295 369 436
#     4  11  23  41  67  97 146 185 233 306 357 439
#     4  11  24  45  72  97 144 195 242 307 368 426
#
# _framework density 25.685165000000001
#
# number of rings (size 3 to 8) (size 9 to 14) (size 15 to 20)
#    0.000    1.000    1.250    5.625    1.750    4.000 
#    0.000    1.250    0.000    0.000    0.000    0.000 
#    0.000    0.000    0.000    0.000    0.000    0.000 
#
# Total GULP energy -89263.663242 kJ/mol
# GULP energy per Si atom -5578.978953 kJ/mol
# Density = 2.562670 g / cm^3
# Si number density = 25.685165 Si / 1000 Ang^3
#
#
#
# Elastic Constant Matrix: (Units=GPa)
#
#
# Indices 1 2 3 4 5 6 
#
# 1 99.7110 15.8189 32.4044 -2.1428 -4.6538 -16.0384
# 2 15.8189 70.7325 -0.1754 22.1395 -6.8469 -15.4497
# 3 32.4044 -0.1754 129.7707 10.0105 -12.7341 -0.7943
# 4 -2.1428 22.1395 10.0105 41.0359 1.9251 -3.7087
# 5 -4.6538 -6.8469 -12.7341 1.9251 47.2036 9.2107
# 6 -16.0384 -15.4497 -0.7943 -3.7087 9.2107 39.1512
#
#
#
# Elastic Compliance Matrix: (Units=1/GPa)
#
#
# Indices 1 2 3 4 5 6 
#
# 1 0.012367 -0.003046 -0.003456 0.003585 -0.001161 0.004407
# 2 -0.003046 0.019525 0.001902 -0.010836 0.002536 0.004872
# 3 -0.003456 0.001902 0.009126 -0.003702 0.002841 -0.001499
# 4 0.003585 -0.010836 -0.003702 0.031567 -0.003695 0.000977
# 5 -0.001161 0.002536 0.002841 -0.003695 0.023383 -0.005268
# 6 0.004407 0.004872 -0.001499 0.000977 -0.005268 0.030572
#
#
# Mechanical properties :
#
#
# Convention : Reuss Voigt Hill
#
# Bulk Modulus (GPa) = 31.42905 44.03444 37.73174
# Shear Modulus (GPa) = 34.16538 42.28924 38.22731
#
# Velocity S-wave (km/s) = 3.65109 4.06204 3.86204
# Velocity P-wave (km/s) = 5.48058 6.25951 5.88295
#
# Compressibility (1/GPa) = 0.03181770
#
# Stress axis : x y z
#
# Youngs Moduli (GPa) = 80.86041 51.21600 109.57116
#
# Poissons Ratio (x) = 0.15602 0.37865
# Poissons Ratio (y) = 0.24633 -0.20836
# Poissons Ratio (z) = 0.27943 -0.09739
#
# Static dielectric constant tensor:
#      x y z
#    x 2.170110 0.133590 0.008730 
#    y 0.133590 2.045860 -0.001760 
#    z 0.008730 -0.001760 2.029490 
# 
# From -- ./inp_files/562993.got.cif
#   From: 2010.05.17/outbox.cif.g08.bks.cpg/sg2_282_cif.got.tgz:562993.got - 2010.06.03 11:33:40.
