data_PCOD9050938
_publ_section_title
;
Structure prediction by ZEFSAII (Michael W. Deem and Ramdas Pophale) SiO2 
 PCOD9050938
Probable space group: P -1
;
_chemical_formula_sum "Si O2"
_cell_formula_units_Z 14
_cell_length_a 19.889389
_cell_length_b 15.526977
_cell_length_c 11.238120
_cell_angle_alpha 37.810050
_cell_angle_beta 160.088188
_cell_angle_gamma 148.467305
_cell_volume 616.907510
_symmetry_space_group_name_H-M "P -1"
_symmetry_group_IT_number 2
_symmetry_cell_setting 'triclinic'
loop_
_space_group_symop_operation_xyz
x,y,z
-x,-y,-z
loop_
_atom_site_type_symbol
_atom_site_label
_atom_site_fract_x
_atom_site_fract_y
_atom_site_fract_z
Si Si1 0.072716 0.035342 0.775944
Si Si2 0.313125 0.325721 0.492651
Si Si3 0.499051 0.883862 0.728652
Si Si4 0.093106 0.788258 0.538942
Si Si5 0.325102 0.034126 0.438752
Si Si6 0.570587 0.329590 0.688442
Si Si7 0.212063 0.548042 0.710975
O O1 0.949749 0.132586 0.503867
O O2 0.283515 0.129579 0.932105
O O3 0.173682 0.015965 0.091582
O O4 0.897513 0.854173 0.632210
O O5 0.374555 0.312501 0.471721
O O6 0.269439 0.474390 0.276404
O O7 0.550786 0.383425 0.896058
O O8 0.270927 0.702606 0.556879
O O9 0.500000 0.000000 0.500000
O O10 0.497777 0.974629 0.747833
O O11 0.864357 0.617257 0.307815
O O12 0.176165 0.915721 0.428422
O O13 0.289375 0.745293 0.936881
O O14 0.456649 0.220109 0.502104
O O15 0.000000 0.500000 0.500000
#
# Coordination Sequence:
#
# PCOD9050938 Si02
#       7
#     2   2   2   2   2   2   2
#     4  11  26  44  69 102 141 181 228 286 350 408
#     4  11  25  41  67 106 138 178 231 286 341 406
#     4  10  25  44  73 100 142 182 227 280 354 408
#     4  12  24  40  72 103 137 177 236 288 337 406
#     4  11  22  44  69 100 138 186 232 278 345 408
#     4  11  24  39  67 106 140 175 235 287 337 402
#     4  12  24  44  73 102 135 182 233 283 337 405
#
# _framework density 22.693838
#
# number of rings (size 3 to 8) (size 9 to 14) (size 15 to 20)
#    0.000    0.857    4.286    1.714   10.000    1.143 
#    0.000    0.714    0.000    0.000    0.000    0.000 
#    0.000    0.000    0.000    0.000    0.000    0.000 
#
# Total GULP energy -78333.781721 kJ/mol
# GULP energy per Si atom -5595.270123 kJ/mol
# Density = 2.264219 g / cm^3
# Si number density = 22.693838 Si / 1000 Ang^3
#
#
#
# Elastic Constant Matrix: (Units=GPa)
#
#
# Indices 1 2 3 4 5 6 
#
# 1 96.3462 62.1286 31.0335 8.9729 22.0935 -1.8089
# 2 62.1286 169.3306 35.8264 16.5348 14.2545 -13.6456
# 3 31.0335 35.8264 81.6376 10.0741 -10.1396 -2.7517
# 4 8.9729 16.5348 10.0741 42.1443 -3.5909 3.7718
# 5 22.0935 14.2545 -10.1396 -3.5909 37.8994 3.0685
# 6 -1.8089 -13.6456 -2.7517 3.7718 3.0685 38.6494
#
#
#
# Elastic Compliance Matrix: (Units=1/GPa)
#
#
# Indices 1 2 3 4 5 6 
#
# 1 0.017476 -0.004143 -0.005922 -0.001553 -0.010353 -0.000093
# 2 -0.004143 0.008468 -0.001963 -0.002392 -0.001767 0.003030
# 3 -0.005922 -0.001963 0.016554 -0.001167 0.008538 -0.000356
# 4 -0.001553 -0.002392 -0.001167 0.025987 0.004269 -0.003875
# 5 -0.010353 -0.001767 0.008538 0.004269 0.036080 -0.003782
# 6 -0.000093 0.003030 -0.000356 -0.003875 -0.003782 0.027592
#
#
# Mechanical properties :
#
#
# Convention : Reuss Voigt Hill
#
# Bulk Modulus (GPa) = 54.22810 67.25460 60.74135
# Shear Modulus (GPa) = 30.79561 38.29370 34.54465
#
# Velocity S-wave (km/s) = 3.68775 4.11226 3.90578
# Velocity P-wave (km/s) = 6.48691 7.22825 6.86759
#
# Compressibility (1/GPa) = 0.01844062
#
# Stress axis : x y z
#
# Youngs Moduli (GPa) = 57.22269 118.09731 60.40674
#
# Poissons Ratio (x) = 0.48930 0.35774
# Poissons Ratio (y) = 0.23708 0.11858
# Poissons Ratio (z) = 0.33889 0.23184
#
# Static dielectric constant tensor:
#      x y z
#    x 1.827110 0.012210 -0.008820 
#    y 0.012210 1.873560 -0.056840 
#    z -0.008820 -0.056840 1.930330 
# 
# From -- ./inp_files/471913.got.cif
#   From: 2010.05.17/outbox.cif.g08.bks.cpg/sg2_236_cif.got.tgz:471913.got - 2010.06.03 11:33:40.
