data_PCOD9050115
_publ_section_title
;
Structure prediction by ZEFSAII (Michael W. Deem and Ramdas Pophale) SiO2 
 PCOD9050115
Probable space group: P -1
;
_chemical_formula_sum "Si O2"
_cell_formula_units_Z 16
_cell_length_a 11.007288
_cell_length_b 9.289105
_cell_length_c 15.346656
_cell_angle_alpha 142.851160
_cell_angle_beta 114.169303
_cell_angle_gamma 87.447365
_cell_volume 742.877903
_symmetry_space_group_name_H-M "P -1"
_symmetry_group_IT_number 2
_symmetry_cell_setting 'triclinic'
loop_
_space_group_symop_operation_xyz
x,y,z
-x,-y,-z
loop_
_atom_site_type_symbol
_atom_site_label
_atom_site_fract_x
_atom_site_fract_y
_atom_site_fract_z
Si Si1 0.737747 0.576848 0.383101
Si Si2 0.315880 0.819674 0.668063
Si Si3 0.409783 0.652168 0.075555
Si Si4 0.053304 0.830650 0.677372
Si Si5 0.448703 0.174740 0.624780
Si Si6 0.853021 0.907643 0.976117
Si Si7 0.188900 0.621483 0.357702
Si Si8 0.174485 0.615029 0.860479
O O1 0.674771 0.327068 0.313110
O O2 0.777994 0.489594 0.261295
O O3 0.902848 0.820573 0.587765
O O4 0.608903 0.656301 0.366204
O O5 0.209227 0.952830 0.724520
O O6 0.226814 0.597743 0.458100
O O7 0.480467 0.040937 0.784606
O O8 0.419128 0.656792 0.184175
O O9 0.500000 0.500000 0.000000
O O10 0.247014 0.553405 0.935465
O O11 0.000000 0.500000 0.500000
O O12 0.095954 0.968248 0.851686
O O13 0.296515 0.942821 0.520293
O O14 0.500000 0.000000 0.500000
O O15 0.774043 0.576574 0.785800
O O16 0.769263 0.061496 0.984836
O O17 0.000000 0.000000 0.000000
O O18 0.010441 0.533311 0.256972
#
# Coordination Sequence:
#
# PCOD9050115 Si02
#       8
#     2   2   2   2   2   2   2   2
#     4  11  20  39  69  94 123 164 216 260 303 377
#     4  10  21  39  65  96 125 162 211 258 321 366
#     4  11  25  42  61  93 131 166 207 265 311 373
#     4  10  17  34  61  98 123 153 210 266 305 362
#     4  11  27  46  61  88 135 172 205 255 322 379
#     4  10  19  34  60  97 130 154 202 267 312 367
#     4  10  23  42  66  94 128 168 202 259 325 374
#     4  11  20  39  68  96 122 161 218 258 310 365
#
# _framework density 21.537859999999998
#
# number of rings (size 3 to 8) (size 9 to 14) (size 15 to 20)
#    0.000    1.500    5.000    2.250    0.000    7.000 
#    0.000    3.750    0.000    0.000    0.000    0.000 
#    0.000    0.000    0.000    0.000    0.000    0.000 
#
# Total GULP energy -89337.081639 kJ/mol
# GULP energy per Si atom -5583.567602 kJ/mol
# Density = 2.148884 g / cm^3
# Si number density = 21.537860 Si / 1000 Ang^3
#
#
#
# Elastic Constant Matrix: (Units=GPa)
#
#
# Indices 1 2 3 4 5 6 
#
# 1 76.6017 28.1430 24.2862 -20.5613 -16.6159 -19.5246
# 2 28.1430 98.9299 35.7617 -31.3133 2.1947 -34.2681
# 3 24.2862 35.7617 91.8702 -28.7266 -27.6366 -14.4847
# 4 -20.5613 -31.3133 -28.7266 36.7245 8.1610 6.5939
# 5 -16.6159 2.1947 -27.6366 8.1610 42.6379 1.7341
# 6 -19.5246 -34.2681 -14.4847 6.5939 1.7341 37.2184
#
#
#
# Elastic Compliance Matrix: (Units=1/GPa)
#
#
# Indices 1 2 3 4 5 6 
#
# 1 0.018334 -0.000434 0.000750 0.007771 0.005846 0.007861
# 2 -0.000434 0.021772 -0.003404 0.014264 -0.006889 0.016287
# 3 0.000750 -0.003404 0.018417 0.009162 0.010557 0.002311
# 4 0.007771 0.014264 0.009162 0.049096 -0.001659 0.012155
# 5 0.005846 -0.006889 0.010557 -0.001659 0.033264 -0.000423
# 6 0.007861 0.016287 0.002311 0.012155 -0.000423 0.044754
#
#
# Mechanical properties :
#
#
# Convention : Reuss Voigt Hill
#
# Bulk Modulus (GPa) = 19.10332 49.30930 34.20631
# Shear Modulus (GPa) = 23.89359 35.26355 29.57857
#
# Velocity S-wave (km/s) = 3.33434 4.05072 3.70987
# Velocity P-wave (km/s) = 4.86957 6.69491 5.85382
#
# Compressibility (1/GPa) = 0.05234693
#
# Stress axis : x y z
#
# Youngs Moduli (GPa) = 54.54424 45.93148 54.29754
#
# Poissons Ratio (x) = 0.01991 -0.04073
# Poissons Ratio (y) = 0.02365 0.18485
# Poissons Ratio (z) = -0.04092 0.15637
#
# Static dielectric constant tensor:
#      x y z
#    x 1.781110 0.041580 0.051140 
#    y 0.041580 1.827800 0.057650 
#    z 0.051140 0.057650 1.841710 
# 
# From -- ./inp_files/516423.got.cif
#   From: 2010.05.17/outbox.cif.g08.bks.cpg/sg2_259_cif.got.tgz:516423.got - 2010.06.03 11:33:40.
