data_PCOD9050376
_publ_section_title
;
Structure prediction by ZEFSAII (Michael W. Deem and Ramdas Pophale) SiO2 
 PCOD9050376
Probable space group: P -1
;
_chemical_formula_sum "Si O2"
_cell_formula_units_Z 14
_cell_length_a 9.515804
_cell_length_b 12.012737
_cell_length_c 5.059593
_cell_angle_alpha 77.583459
_cell_angle_beta 90.731699
_cell_angle_gamma 93.776650
_cell_volume 563.611350
_symmetry_space_group_name_H-M "P -1"
_symmetry_group_IT_number 2
_symmetry_cell_setting 'triclinic'
loop_
_space_group_symop_operation_xyz
x,y,z
-x,-y,-z
loop_
_atom_site_type_symbol
_atom_site_label
_atom_site_fract_x
_atom_site_fract_y
_atom_site_fract_z
Si Si1 0.688357 0.589326 0.512206
Si Si2 0.794255 0.146292 0.799100
Si Si3 0.018093 0.919417 0.789458
Si Si4 0.719684 0.348786 0.370005
Si Si5 0.582644 0.956162 0.771630
Si Si6 0.454774 0.313019 0.043463
Si Si7 0.980150 0.713230 0.591613
O O1 0.303400 0.760446 0.376153
O O2 0.623845 0.608919 0.788348
O O3 0.848801 0.640991 0.509059
O O4 0.597147 0.654941 0.263497
O O5 0.943215 0.203376 0.668079
O O6 0.733874 0.024775 0.751589
O O7 0.824824 0.125509 0.120288
O O8 0.000000 0.000000 0.000000
O O9 0.934340 0.799659 0.774820
O O10 0.000000 0.000000 0.500000
O O11 0.617258 0.333016 0.126052
O O12 0.688943 0.460971 0.474542
O O13 0.885363 0.356524 0.287236
O O14 0.586238 0.820757 0.842804
O O15 0.500000 0.000000 0.500000
O O16 0.500000 0.000000 0.000000
#
# Coordination Sequence:
#
# PCOD9050376 Si02
#       7
#     2   2   2   2   2   2   2
#     4  12  28  48  74 115 146 194 244 320 359 426
#     4  10  26  44  78 103 143 195 247 292 369 433
#     4  12  25  43  68 103 151 185 236 301 372 423
#     4  10  24  54  76 104 150 199 253 294 367 448
#     4  12  26  47  72 108 149 192 245 298 364 451
#     4  12  28  47  76 110 151 190 250 303 379 425
#     4  10  26  47  75 107 147 195 253 289 373 440
#
# _framework density 24.839811000000001
#
# number of rings (size 3 to 8) (size 9 to 14) (size 15 to 20)
#    0.857    0.000    2.857    2.143   10.000    1.143 
#    0.000    2.143    0.000    0.000    0.000    0.000 
#    0.000    0.000    0.000    0.000    0.000    0.000 
#
# Total GULP energy -78276.121277 kJ/mol
# GULP energy per Si atom -5591.151520 kJ/mol
# Density = 2.478327 g / cm^3
# Si number density = 24.839811 Si / 1000 Ang^3
#
#
#
# Elastic Constant Matrix: (Units=GPa)
#
#
# Indices 1 2 3 4 5 6 
#
# 1 157.6451 28.0997 41.8613 0.9680 31.9627 17.9322
# 2 28.0997 154.4309 21.3999 7.5113 17.7100 10.5585
# 3 41.8613 21.3999 128.3082 5.5212 20.9864 8.7663
# 4 0.9680 7.5113 5.5212 39.3166 -8.4814 6.3020
# 5 31.9627 17.7100 20.9864 -8.4814 46.4412 14.9120
# 6 17.9322 10.5585 8.7663 6.3020 14.9120 43.7866
#
#
#
# Elastic Compliance Matrix: (Units=1/GPa)
#
#
# Indices 1 2 3 4 5 6 
#
# 1 0.007883 -0.000616 -0.001687 -0.000525 -0.004118 -0.001264
# 2 -0.000616 0.007018 -0.000511 -0.001678 -0.002218 -0.000341
# 3 -0.001687 -0.000511 0.009003 -0.001866 -0.003169 0.000359
# 4 -0.000525 -0.001678 -0.001866 0.029019 0.009169 -0.006306
# 5 -0.004118 -0.002218 -0.003169 0.009169 0.031243 -0.009104
# 6 -0.001264 -0.000341 0.000359 -0.006306 -0.009104 0.027374
#
#
# Mechanical properties :
#
#
# Convention : Reuss Voigt Hill
#
# Bulk Modulus (GPa) = 54.71669 69.23398 61.97533
# Shear Modulus (GPa) = 40.56489 49.17711 44.87100
#
# Velocity S-wave (km/s) = 4.04550 4.45429 4.25480
# Velocity P-wave (km/s) = 6.62548 7.37475 7.01013
#
# Compressibility (1/GPa) = 0.01827596
#
# Stress axis : x y z
#
# Youngs Moduli (GPa) = 126.85404 142.49878 111.07003
#
# Poissons Ratio (x) = 0.08784 0.18732
# Poissons Ratio (y) = 0.07819 0.05677
# Poissons Ratio (z) = 0.21394 0.07283
#
# Static dielectric constant tensor:
#      x y z
#    x 2.142000 -0.103830 -0.055210 
#    y -0.103830 1.977690 -0.015510 
#    z -0.055210 -0.015510 2.009720 
# 
# From -- ./inp_files/27798.got.cif
#   From: 2010.05.17/outbox.cif.g08.bks.cpg/sg2_14_cif.got.tgz:27798.got - 2010.06.03 11:33:40.
