data_PCOD9050207
_publ_section_title
;
Structure prediction by ZEFSAII (Michael W. Deem and Ramdas Pophale) SiO2 
 PCOD9050207
Probable space group: P -1
;
_chemical_formula_sum "Si O2"
_cell_formula_units_Z 14
_cell_length_a 7.800788
_cell_length_b 5.464756
_cell_length_c 13.789773
_cell_angle_alpha 114.183925
_cell_angle_beta 107.444959
_cell_angle_gamma 70.911230
_cell_volume 497.307395
_symmetry_space_group_name_H-M "P -1"
_symmetry_group_IT_number 2
_symmetry_cell_setting 'triclinic'
loop_
_space_group_symop_operation_xyz
x,y,z
-x,-y,-z
loop_
_atom_site_type_symbol
_atom_site_label
_atom_site_fract_x
_atom_site_fract_y
_atom_site_fract_z
Si Si1 0.722142 0.995618 0.799745
Si Si2 0.486675 0.786114 0.846810
Si Si3 0.541612 0.244541 0.635548
Si Si4 0.019794 0.457559 0.775649
Si Si5 0.139228 0.824924 0.710136
Si Si6 0.227656 0.907363 0.528453
Si Si7 0.703755 0.508330 0.998625
O O1 0.523017 0.011938 0.815471
O O2 0.841709 0.700624 0.804677
O O3 0.682135 0.004343 0.680732
O O4 0.791006 0.242236 0.902853
O O5 0.517132 0.492401 0.748698
O O6 0.267535 0.855168 0.829249
O O7 0.633350 0.759190 0.952710
O O8 0.657124 0.292782 0.567723
O O9 0.351069 0.140311 0.576726
O O10 0.064241 0.567179 0.693850
O O11 0.015832 0.136392 0.725230
O O12 0.163735 0.474131 0.888125
O O13 0.247483 0.774640 0.617985
O O14 0.000000 0.000000 0.500000
O O15 0.500000 0.500000 0.000000
#
# Coordination Sequence:
#
# PCOD9050207 Si02
#       7
#     2   2   2   2   2   2   2
#     4  11  25  45  72 106 149 200 240 316 380 449
#     4  11  24  45  75 101 151 196 246 306 386 443
#     4  10  24  49  71 113 151 200 252 322 382 460
#     4  12  28  45  75 110 155 194 256 311 376 453
#     4  12  26  49  72 109 148 198 250 314 375 456
#     4  11  24  46  78 107 151 197 259 315 390 457
#     4  11  24  44  73 107 145 198 251 303 371 457
#
# _framework density 28.151602
#
# number of rings (size 3 to 8) (size 9 to 14) (size 15 to 20)
#    0.000    0.857    2.857    3.000    8.000    2.286 
#    2.571    3.571    0.000    0.000    0.000    0.000 
#    0.000    0.000    0.000    0.000    0.000    0.000 
#
# Total GULP energy -78130.530848 kJ/mol
# GULP energy per Si atom -5580.752203 kJ/mol
# Density = 2.808753 g / cm^3
# Si number density = 28.151602 Si / 1000 Ang^3
#
#
#
# Elastic Constant Matrix: (Units=GPa)
#
#
# Indices 1 2 3 4 5 6 
#
# 1 150.8530 39.5549 43.1961 -14.3485 -9.0700 5.2298
# 2 39.5549 152.9483 49.8053 0.2610 6.0407 -11.6210
# 3 43.1961 49.8053 115.8300 -10.7996 -3.7421 2.9534
# 4 -14.3485 0.2610 -10.7996 53.0089 3.1576 -6.4656
# 5 -9.0700 6.0407 -3.7421 3.1576 50.9855 -10.9359
# 6 5.2298 -11.6210 2.9534 -6.4656 -10.9359 40.8530
#
#
#
# Elastic Compliance Matrix: (Units=1/GPa)
#
#
# Indices 1 2 3 4 5 6 
#
# 1 0.007854 -0.001448 -0.002106 0.001548 0.001166 -0.000708
# 2 -0.001448 0.008145 -0.003120 -0.000725 -0.000898 0.002373
# 3 -0.002106 -0.003120 0.010944 0.001519 0.000481 -0.001040
# 4 0.001548 -0.000725 0.001519 0.019924 -0.000207 0.002584
# 5 0.001166 -0.000898 0.000481 -0.000207 0.021085 0.005172
# 6 -0.000708 0.002373 -0.001040 0.002584 0.005172 0.027112
#
#
# Mechanical properties :
#
#
# Convention : Reuss Voigt Hill
#
# Bulk Modulus (GPa) = 73.55205 76.08268 74.81736
# Shear Modulus (GPa) = 44.27006 48.10781 46.18894
#
# Velocity S-wave (km/s) = 3.96985 4.13835 4.05498
# Velocity P-wave (km/s) = 6.86999 7.06536 6.96836
#
# Compressibility (1/GPa) = 0.01359581
#
# Stress axis : x y z
#
# Youngs Moduli (GPa) = 127.33031 122.76901 91.37485
#
# Poissons Ratio (x) = 0.17773 0.19246
# Poissons Ratio (y) = 0.18433 0.28505
# Poissons Ratio (z) = 0.26819 0.38299
#
# Static dielectric constant tensor:
#      x y z
#    x 2.326180 -0.047640 -0.178350 
#    y -0.047640 2.331410 -0.034550 
#    z -0.178350 -0.034550 2.588980 
# 
# From -- ./inp_files/487317.got.cif
#   From: 2010.05.17/outbox.cif.g08.bks.cpg/sg2_244_cif.got.tgz:487317.got - 2010.06.03 11:33:40.
