data_PCOD9050243
_publ_section_title
;
Structure prediction by ZEFSAII (Michael W. Deem and Ramdas Pophale) SiO2 
 PCOD9050243
Probable space group: P -1
;
_chemical_formula_sum "Si O2"
_cell_formula_units_Z 16
_cell_length_a 8.829217
_cell_length_b 6.343498
_cell_length_c 17.101515
_cell_angle_alpha 71.828507
_cell_angle_beta 133.929114
_cell_angle_gamma 92.806596
_cell_volume 635.506154
_symmetry_space_group_name_H-M "P -1"
_symmetry_group_IT_number 2
_symmetry_cell_setting 'triclinic'
loop_
_space_group_symop_operation_xyz
x,y,z
-x,-y,-z
loop_
_atom_site_type_symbol
_atom_site_label
_atom_site_fract_x
_atom_site_fract_y
_atom_site_fract_z
Si Si1 0.831357 0.883207 0.049566
Si Si2 0.809230 0.854720 0.863901
Si Si3 0.627383 0.255049 0.274703
Si Si4 0.225575 0.537782 0.547637
Si Si5 0.576214 0.728338 0.485193
Si Si6 0.177575 0.175946 0.292012
Si Si7 0.076294 0.074835 0.681481
Si Si8 0.395643 0.288876 0.868402
O O1 0.740207 0.728387 0.098193
O O2 0.861000 0.794267 0.980519
O O3 0.062169 0.952104 0.134860
O O4 0.633667 0.115402 0.962564
O O5 0.553175 0.885705 0.774124
O O6 0.855055 0.701804 0.818048
O O7 0.639128 0.383060 0.345185
O O8 0.583726 0.456524 0.171105
O O9 0.846912 0.077957 0.348995
O O10 0.330077 0.315470 0.562570
O O11 0.000000 0.500000 0.500000
O O12 0.150966 0.753541 0.438540
O O13 0.500000 0.500000 0.500000
O O14 0.759428 0.712990 0.619151
O O15 0.388987 0.960297 0.387591
O O16 0.964552 0.090740 0.245927
O O17 0.246523 0.210352 0.757655
#
# Coordination Sequence:
#
# PCOD9050243 Si02
#       8
#     2   2   2   2   2   2   2   2
#     4  10  24  49  75  98 145 181 241 307 359 415
#     4  11  24  45  71 107 137 183 235 308 357 405
#     4  12  27  43  75 111 142 189 241 291 356 432
#     4  12  25  43  71 106 146 191 233 287 353 427
#     4  11  24  44  64 101 143 187 235 282 350 429
#     4  11  25  42  71  98 143 192 230 288 356 427
#     4  12  24  47  67 104 146 192 236 287 356 430
#     4  11  24  49  73 101 138 194 234 295 365 426
#
# _framework density 25.176780999999998
#
# number of rings (size 3 to 8) (size 9 to 14) (size 15 to 20)
#    0.000    0.750    5.000    1.875    5.250    1.000 
#    0.000    1.250    0.000    0.000    0.000    0.000 
#    0.000    0.000    0.000    0.000    0.000    0.000 
#
# Total GULP energy -89312.254606 kJ/mol
# GULP energy per Si atom -5582.015913 kJ/mol
# Density = 2.511948 g / cm^3
# Si number density = 25.176781 Si / 1000 Ang^3
#
#
#
# Elastic Constant Matrix: (Units=GPa)
#
#
# Indices 1 2 3 4 5 6 
#
# 1 145.5323 46.4507 43.5153 10.0235 -14.4972 6.1607
# 2 46.4507 66.2862 45.5546 4.7859 -5.3151 -0.9775
# 3 43.5153 45.5546 88.1204 21.0011 -15.7723 6.3013
# 4 10.0235 4.7859 21.0011 46.8281 -1.8967 -6.5714
# 5 -14.4972 -5.3151 -15.7723 -1.8967 41.9790 10.2386
# 6 6.1607 -0.9775 6.3013 -6.5714 10.2386 38.1158
#
#
#
# Elastic Compliance Matrix: (Units=1/GPa)
#
#
# Indices 1 2 3 4 5 6 
#
# 1 0.009421 -0.005929 -0.000553 -0.001411 0.002865 -0.002596
# 2 -0.005929 0.028499 -0.014527 0.005566 -0.005220 0.006452
# 3 -0.000553 -0.014527 0.023526 -0.009745 0.008342 -0.008094
# 4 -0.001411 0.005566 -0.009745 0.026363 -0.004115 0.007632
# 5 0.002865 -0.005220 0.008342 -0.004115 0.029699 -0.010663
# 6 -0.002596 0.006452 -0.008094 0.007632 -0.010663 0.032339
#
#
# Mechanical properties :
#
#
# Convention : Reuss Voigt Hill
#
# Bulk Modulus (GPa) = 51.47071 63.44222 57.45647
# Shear Modulus (GPa) = 25.20901 36.34580 30.77740
#
# Velocity S-wave (km/s) = 3.16773 3.80363 3.50015
# Velocity P-wave (km/s) = 5.81958 6.67409 6.26143
#
# Compressibility (1/GPa) = 0.01942852
#
# Stress axis : x y z
#
# Youngs Moduli (GPa) = 106.14035 35.08836 42.50704
#
# Poissons Ratio (x) = 0.20804 0.02349
# Poissons Ratio (y) = 0.62931 0.61751
# Poissons Ratio (z) = 0.05866 0.50974
#
# Static dielectric constant tensor:
#      x y z
#    x 1.977640 0.072930 -0.009920 
#    y 0.072930 1.916380 -0.121350 
#    z -0.009920 -0.121350 1.916810 
# 
# From -- ./inp_files/553464.got.cif
#   From: 2010.05.17/outbox.cif.g08.bks.cpg/sg2_277_cif.got.tgz:553464.got - 2010.06.03 11:33:40.
