data_PCOD9050848
_publ_section_title
;
Structure prediction by ZEFSAII (Michael W. Deem and Ramdas Pophale) SiO2 
 PCOD9050848
Probable space group: P -1
;
_chemical_formula_sum "Si O2"
_cell_formula_units_Z 12
_cell_length_a 8.652758
_cell_length_b 9.363926
_cell_length_c 9.060393
_cell_angle_alpha 43.445866
_cell_angle_beta 81.810462
_cell_angle_gamma 80.515380
_cell_volume 497.640121
_symmetry_space_group_name_H-M "P -1"
_symmetry_group_IT_number 2
_symmetry_cell_setting 'triclinic'
loop_
_space_group_symop_operation_xyz
x,y,z
-x,-y,-z
loop_
_atom_site_type_symbol
_atom_site_label
_atom_site_fract_x
_atom_site_fract_y
_atom_site_fract_z
Si Si1 0.468555 0.983223 0.347094
Si Si2 0.867028 0.583160 0.283826
Si Si3 0.852359 0.160421 0.436170
Si Si4 0.703276 0.581048 0.597656
Si Si5 0.520078 0.767874 0.104742
Si Si6 0.882256 0.399505 0.976152
O O1 0.287068 0.943852 0.387324
O O2 0.581407 0.780590 0.438044
O O3 0.500000 0.000000 0.500000
O O4 0.499906 0.186154 0.100062
O O5 0.893633 0.346986 0.397133
O O6 0.844694 0.597706 0.451368
O O7 0.694042 0.665222 0.187365
O O8 0.001176 0.700168 0.093846
O O9 0.800616 0.252725 0.211714
O O10 0.000000 0.000000 0.500000
O O11 0.611224 0.380736 0.719691
O O12 0.764126 0.552244 0.779541
O O13 0.500000 0.000000 0.000000
O O14 0.000000 0.500000 0.000000
#
# Coordination Sequence:
#
# PCOD9050848 Si02
#       6
#     2   2   2   2   2   2
#     4  12  27  41  72 106 144 186 239 294 352 426
#     4  11  23  46  73 100 146 186 232 300 353 426
#     4  11  24  45  68 103 144 186 235 288 358 427
#     4  12  25  47  70 110 143 184 246 296 351 426
#     4  12  24  45  73 108 142 182 235 293 365 419
#     4  10  25  44  69  97 140 193 230 291 358 414
#
# _framework density 24.113810000000001
#
# number of rings (size 3 to 8) (size 9 to 14) (size 15 to 20)
#    0.000    0.667    3.333    4.000    9.333    1.333 
#    0.000    1.667    0.000    0.000    0.000    0.000 
#    0.000    0.000    0.000    0.000    0.000    0.000 
#
# Total GULP energy -67116.375007 kJ/mol
# GULP energy per Si atom -5593.031251 kJ/mol
# Density = 2.405893 g / cm^3
# Si number density = 24.113810 Si / 1000 Ang^3
#
#
#
# Elastic Constant Matrix: (Units=GPa)
#
#
# Indices 1 2 3 4 5 6 
#
# 1 80.9808 15.6872 10.2451 -12.7491 9.4120 -20.7948
# 2 15.6872 107.7067 19.5165 -3.4754 4.6403 -24.6917
# 3 10.2451 19.5165 117.9562 23.5039 15.8953 -5.0894
# 4 -12.7491 -3.4754 23.5039 42.1863 -7.1939 5.1822
# 5 9.4120 4.6403 15.8953 -7.1939 50.4441 7.6971
# 6 -20.7948 -24.6917 -5.0894 5.1822 7.6971 42.4476
#
#
#
# Elastic Compliance Matrix: (Units=1/GPa)
#
#
# Indices 1 2 3 4 5 6 
#
# 1 0.015418 -0.000031 -0.001414 0.004024 -0.002986 0.007416
# 2 -0.000031 0.011125 -0.001510 0.000714 -0.001423 0.006446
# 3 -0.001414 -0.001510 0.011023 -0.007622 -0.004383 0.001476
# 4 0.004024 0.000714 -0.007622 0.030760 0.006500 -0.003461
# 5 -0.002986 -0.001423 -0.004383 0.006500 0.024036 -0.007968
# 6 0.007416 0.006446 0.001476 -0.003461 -0.007968 0.032986
#
#
# Mechanical properties :
#
#
# Convention : Reuss Voigt Hill
#
# Bulk Modulus (GPa) = 31.58845 44.17126 37.87986
# Shear Modulus (GPa) = 35.25851 44.42859 39.84355
#
# Velocity S-wave (km/s) = 3.82798 4.29704 4.06927
# Velocity P-wave (km/s) = 5.71543 6.55568 6.14992
#
# Compressibility (1/GPa) = 0.03165714
#
# Stress axis : x y z
#
# Youngs Moduli (GPa) = 64.85751 89.88974 90.71542
#
# Poissons Ratio (x) = 0.00277 0.12823
# Poissons Ratio (y) = 0.00200 0.13701
# Poissons Ratio (z) = 0.09168 0.13576
#
# Static dielectric constant tensor:
#      x y z
#    x 2.237030 -0.051080 -0.161460 
#    y -0.051080 1.964810 0.078260 
#    z -0.161460 0.078260 2.062500 
# 
# From -- ./inp_files/40410.got.cif
#   From: 2010.05.17/outbox.cif.g08.bks.cpg/sg2_21_cif.got.tgz:40410.got - 2010.06.03 11:33:40.
