data_PCOD9050580
_publ_section_title
;
Structure prediction by ZEFSAII (Michael W. Deem and Ramdas Pophale) SiO2 
 PCOD9050580
Probable space group: P -1
;
_chemical_formula_sum "Si O2"
_cell_formula_units_Z 14
_cell_length_a 7.939930
_cell_length_b 9.349945
_cell_length_c 8.315999
_cell_angle_alpha 108.891822
_cell_angle_beta 110.815962
_cell_angle_gamma 104.214236
_cell_volume 498.528683
_symmetry_space_group_name_H-M "P -1"
_symmetry_group_IT_number 2
_symmetry_cell_setting 'triclinic'
loop_
_space_group_symop_operation_xyz
x,y,z
-x,-y,-z
loop_
_atom_site_type_symbol
_atom_site_label
_atom_site_fract_x
_atom_site_fract_y
_atom_site_fract_z
Si Si1 0.377920 0.496188 0.200006
Si Si2 0.883451 0.161332 0.393610
Si Si3 0.448090 0.721855 0.703781
Si Si4 0.355291 0.742531 0.039421
Si Si5 0.819398 0.997667 0.827957
Si Si6 0.855286 0.813559 0.229624
Si Si7 0.033382 0.428756 0.310676
O O1 0.555057 0.458384 0.323597
O O2 0.227217 0.493456 0.289277
O O3 0.446052 0.661279 0.174585
O O4 0.261748 0.337518 0.984659
O O5 0.719853 0.229459 0.412185
O O6 0.075782 0.230633 0.595542
O O7 0.967666 0.239063 0.277216
O O8 0.783779 0.962273 0.282602
O O9 0.452129 0.786106 0.911890
O O10 0.648644 0.815538 0.710538
O O11 0.144548 0.587884 0.874000
O O12 0.300458 0.890691 0.129335
O O13 0.928602 0.078459 0.732733
O O14 0.000000 0.000000 0.000000
O O15 0.000000 0.500000 0.500000
#
# Coordination Sequence:
#
# PCOD9050580 Si02
#       7
#     2   2   2   2   2   2   2
#     4  12  24  42  74 103 134 187 233 285 339 423
#     4  10  25  43  65 105 143 183 224 294 340 411
#     4  11  24  43  68 103 142 178 232 286 353 401
#     4  11  24  40  65 105 135 179 232 286 345 404
#     4  12  22  40  71 100 133 182 237 283 336 414
#     4  11  23  43  72 102 137 181 243 271 346 416
#     4  11  23  41  70  97 139 184 232 282 350 408
#
# _framework density 28.082637999999999
#
# number of rings (size 3 to 8) (size 9 to 14) (size 15 to 20)
#    0.000    0.857    2.857    4.714    4.000    0.571 
#    0.000    2.857    3.143    0.000    0.000    0.000 
#    0.000    0.000    0.000    0.000    0.000    0.000 
#
# Total GULP energy -78308.434943 kJ/mol
# GULP energy per Si atom -5593.459639 kJ/mol
# Density = 2.801872 g / cm^3
# Si number density = 28.082638 Si / 1000 Ang^3
#
#
#
# Elastic Constant Matrix: (Units=GPa)
#
#
# Indices 1 2 3 4 5 6 
#
# 1 108.1889 28.9547 11.1905 -0.5590 -2.0809 -20.8220
# 2 28.9547 179.0539 45.1106 -2.9699 0.5945 -25.7547
# 3 11.1905 45.1106 103.5824 10.5754 2.2810 -31.3450
# 4 -0.5590 -2.9699 10.5754 43.2131 -6.6089 0.1445
# 5 -2.0809 0.5945 2.2810 -6.6089 39.3297 -4.3563
# 6 -20.8220 -25.7547 -31.3450 0.1445 -4.3563 61.4834
#
#
#
# Elastic Compliance Matrix: (Units=1/GPa)
#
#
# Indices 1 2 3 4 5 6 
#
# 1 0.010175 -0.001291 0.000395 0.000073 0.000898 0.003170
# 2 -0.001291 0.006601 -0.002535 0.001097 0.000280 0.001053
# 3 0.000395 -0.002535 0.012753 -0.003406 -0.000640 0.005536
# 4 0.000073 0.001097 -0.003406 0.024700 0.004223 -0.001011
# 5 0.000898 0.000280 -0.000640 0.004223 0.026433 0.001958
# 6 0.003170 0.001053 0.005536 -0.001011 0.001958 0.020743
#
#
# Mechanical properties :
#
#
# Convention : Reuss Voigt Hill
#
# Bulk Modulus (GPa) = 44.11570 62.37075 53.24322
# Shear Modulus (GPa) = 43.16960 49.17653 46.17306
#
# Velocity S-wave (km/s) = 3.92501 4.18920 4.05925
# Velocity P-wave (km/s) = 6.02365 6.75700 6.40084
#
# Compressibility (1/GPa) = 0.02266767
#
# Stress axis : x y z
#
# Youngs Moduli (GPa) = 98.27546 151.49321 78.41593
#
# Poissons Ratio (x) = 0.19554 -0.03097
# Poissons Ratio (y) = 0.12685 0.19877
# Poissons Ratio (z) = -0.03881 0.38400
#
# Static dielectric constant tensor:
#      x y z
#    x 2.278220 0.004230 0.120630 
#    y 0.004230 2.388420 -0.001570 
#    z 0.120630 -0.001570 2.324180 
# 
# From -- ./inp_files/155572.got.cif
#   From: 2010.05.17/outbox.cif.g08.bks.cpg/sg2_78_cif.got.tgz:155572.got - 2010.06.03 11:33:40.
