data_PCOD9050828
_publ_section_title
;
Structure prediction by ZEFSAII (Michael W. Deem and Ramdas Pophale) SiO2 
 PCOD9050828
Probable space group: P -1
;
_chemical_formula_sum "Si O2"
_cell_formula_units_Z 14
_cell_length_a 12.142648
_cell_length_b 13.072293
_cell_length_c 22.713824
_cell_angle_alpha 18.414273
_cell_angle_beta 36.848843
_cell_angle_gamma 44.754550
_cell_volume 659.646974
_symmetry_space_group_name_H-M "P -1"
_symmetry_group_IT_number 2
_symmetry_cell_setting 'triclinic'
loop_
_space_group_symop_operation_xyz
x,y,z
-x,-y,-z
loop_
_atom_site_type_symbol
_atom_site_label
_atom_site_fract_x
_atom_site_fract_y
_atom_site_fract_z
Si Si1 0.005391 0.123383 0.688111
Si Si2 0.326617 0.200155 0.074499
Si Si3 0.469561 0.247120 0.707955
Si Si4 0.537253 0.143667 0.175327
Si Si5 0.252250 0.684265 0.621538
Si Si6 0.358064 0.147049 0.439810
Si Si7 0.856479 0.315406 0.034080
O O1 0.162823 0.126682 0.568595
O O2 0.000000 0.500000 0.500000
O O3 0.801682 0.912228 0.866531
O O4 0.066947 0.927060 0.823356
O O5 0.219954 0.413577 0.044342
O O6 0.355982 0.865091 0.275940
O O7 0.528033 0.466730 0.830617
O O8 0.500000 0.500000 0.500000
O O9 0.356845 0.386005 0.730318
O O10 0.375328 0.912690 0.893930
O O11 0.330488 0.908824 0.408702
O O12 0.500000 0.500000 0.000000
O O13 0.683554 0.103793 0.184715
O O14 0.029816 0.519126 0.809291
O O15 0.314644 0.918674 0.524209
O O16 0.500000 0.000000 0.500000
#
# Coordination Sequence:
#
# PCOD9050828 Si02
#       7
#     2   2   2   2   2   2   2
#     4  12  29  44  67 106 138 172 227 282 337 409
#     4  12  24  45  72  96 138 181 223 275 343 404
#     4  10  25  44  68  99 135 178 227 284 331 395
#     4  11  22  46  70  96 136 180 228 277 336 395
#     4  11  24  42  68 100 137 174 230 276 337 395
#     4  12  23  43  71  96 138 185 220 273 344 407
#     4  12  24  45  69 100 138 178 224 278 337 408
#
# _framework density 21.223472999999998
#
# number of rings (size 3 to 8) (size 9 to 14) (size 15 to 20)
#    0.000    0.571    5.714    1.286    8.000    1.714 
#    0.000    0.000    0.000    0.000    0.000    0.000 
#    0.000    0.000    0.000    0.000    0.000    0.000 
#
# Total GULP energy -78124.222221 kJ/mol
# GULP energy per Si atom -5580.301587 kJ/mol
# Density = 2.117517 g / cm^3
# Si number density = 21.223473 Si / 1000 Ang^3
#
#
#
# Elastic Constant Matrix: (Units=GPa)
#
#
# Indices 1 2 3 4 5 6 
#
# 1 81.5850 -7.3681 2.2256 1.9307 9.2048 -0.7762
# 2 -7.3681 86.4210 19.8775 -11.5105 -4.7469 13.1011
# 3 2.2256 19.8775 85.1972 16.5138 -0.4013 -6.4097
# 4 1.9307 -11.5105 16.5138 32.3601 -4.3130 0.6729
# 5 9.2048 -4.7469 -0.4013 -4.3130 34.7527 -12.1350
# 6 -0.7762 13.1011 -6.4097 0.6729 -12.1350 29.2382
#
#
#
# Elastic Compliance Matrix: (Units=1/GPa)
#
#
# Indices 1 2 3 4 5 6 
#
# 1 0.012836 0.001297 -0.000729 -0.000423 -0.004000 -0.002050
# 2 0.001297 0.015474 -0.005953 0.008616 -0.000191 -0.008482
# 3 -0.000729 -0.005953 0.015596 -0.010090 0.000593 0.006546
# 4 -0.000423 0.008616 -0.010090 0.039822 0.004292 -0.005219
# 5 -0.004000 -0.000191 0.000593 0.004292 0.035495 0.014743
# 6 -0.002050 -0.008482 0.006546 -0.005219 0.014743 0.045622
#
#
# Mechanical properties :
#
#
# Convention : Reuss Voigt Hill
#
# Bulk Modulus (GPa) = 30.17881 31.40812 30.79347
# Shear Modulus (GPa) = 26.78653 35.16808 30.97731
#
# Velocity S-wave (km/s) = 3.55648 4.07509 3.82459
# Velocity P-wave (km/s) = 5.57810 6.08052 5.83472
#
# Compressibility (1/GPa) = 0.03313583
#
# Stress axis : x y z
#
# Youngs Moduli (GPa) = 77.90647 64.62491 64.11712
#
# Poissons Ratio (x) = -0.08381 0.04674
# Poissons Ratio (y) = -0.10103 0.38169
# Poissons Ratio (z) = 0.05679 0.38472
#
# Static dielectric constant tensor:
#      x y z
#    x 1.783320 0.056880 0.003250 
#    y 0.056880 1.750830 -0.035480 
#    z 0.003250 -0.035480 1.826690 
# 
# From -- ./inp_files/224004.got.cif
#   From: 2010.05.17/outbox.cif.g08.bks.cpg/sg2_113_cif.got.tgz:224004.got - 2010.06.03 11:33:40.
