data_PCOD9050515
_publ_section_title
;
Structure prediction by ZEFSAII (Michael W. Deem and Ramdas Pophale) SiO2 
 PCOD9050515
Probable space group: P -1
;
_chemical_formula_sum "Si O2"
_cell_formula_units_Z 16
_cell_length_a 12.200323
_cell_length_b 11.386878
_cell_length_c 15.208810
_cell_angle_alpha 85.397003
_cell_angle_beta 28.225830
_cell_angle_gamma 64.304617
_cell_volume 635.823527
_symmetry_space_group_name_H-M "P -1"
_symmetry_group_IT_number 2
_symmetry_cell_setting 'triclinic'
loop_
_space_group_symop_operation_xyz
x,y,z
-x,-y,-z
loop_
_atom_site_type_symbol
_atom_site_label
_atom_site_fract_x
_atom_site_fract_y
_atom_site_fract_z
Si Si1 0.529542 0.067049 0.091332
Si Si2 0.012705 0.206788 0.678788
Si Si3 0.248925 0.656297 0.950610
Si Si4 0.688468 0.755310 0.943547
Si Si5 0.777089 0.497063 0.285703
Si Si6 0.753133 0.267808 0.678204
Si Si7 0.623375 0.148880 0.204377
Si Si8 0.357993 0.216636 0.739645
O O1 0.677076 0.068109 0.075107
O O2 0.148359 0.152558 0.376759
O O3 0.760323 0.865553 0.906142
O O4 0.436228 0.195052 0.072254
O O5 0.298282 0.202593 0.472983
O O6 0.841268 0.272411 0.891057
O O7 0.734277 0.323391 0.788194
O O8 0.258770 0.993902 0.500600
O O9 0.876261 0.779830 0.155630
O O10 0.473855 0.447731 0.803548
O O11 0.469046 0.678186 0.753618
O O12 0.366334 0.819537 0.222392
O O13 0.033209 0.551553 0.751498
O O14 0.500000 0.500000 0.500000
O O15 0.606178 0.676644 0.347073
O O16 0.105543 0.331296 0.997231
O O17 0.000000 0.000000 0.000000
#
# Coordination Sequence:
#
# PCOD9050515 Si02
#       8
#     2   2   2   2   2   2   2   2
#     4  10  25  42  68 103 133 181 232 281 345 412
#     4  11  25  45  70 101 136 187 228 283 348 409
#     4  12  25  43  69 100 139 180 229 281 339 417
#     4  11  23  45  69  99 136 180 231 284 346 414
#     4  11  26  43  71  99 139 182 229 292 349 405
#     4  11  24  44  69  98 138 178 227 287 343 405
#     4  11  24  43  69  98 139 178 231 282 339 408
#     4  11  25  45  66 104 137 177 237 277 346 418
#
# _framework density 25.164214000000001
#
# number of rings (size 3 to 8) (size 9 to 14) (size 15 to 20)
#    0.000    1.000    2.500    3.375    1.750    8.000 
#    0.000    0.000    0.000    0.000    0.000    0.000 
#    0.000    0.000    0.000    0.000    0.000    0.000 
#
# Total GULP energy -89615.830173 kJ/mol
# GULP energy per Si atom -5600.989386 kJ/mol
# Density = 2.510694 g / cm^3
# Si number density = 25.164214 Si / 1000 Ang^3
#
#
#
# Elastic Constant Matrix: (Units=GPa)
#
#
# Indices 1 2 3 4 5 6 
#
# 1 79.8136 37.1287 28.1419 2.4818 -12.8904 -17.9010
# 2 37.1287 152.7368 42.8033 -37.6062 0.1441 -11.4836
# 3 28.1419 42.8033 62.1251 -25.7866 -4.9654 -7.2593
# 4 2.4818 -37.6062 -25.7866 40.8565 3.7378 -4.8105
# 5 -12.8904 0.1441 -4.9654 3.7378 43.1368 -0.0955
# 6 -17.9010 -11.4836 -7.2593 -4.8105 -0.0955 35.7170
#
#
#
# Elastic Compliance Matrix: (Units=1/GPa)
#
#
# Indices 1 2 3 4 5 6 
#
# 1 0.020827 -0.004817 -0.009958 -0.011924 0.006138 0.005276
# 2 -0.004817 0.010586 -0.000942 0.009915 -0.002438 0.002126
# 3 -0.009958 -0.000942 0.029299 0.018715 -0.001215 0.003179
# 4 -0.011924 0.009915 0.018715 0.047517 -0.005543 0.007400
# 5 0.006138 -0.002438 -0.001215 -0.005543 0.025368 0.001367
# 6 0.005276 0.002126 0.003179 0.007400 0.001367 0.032972
#
#
# Mechanical properties :
#
#
# Convention : Reuss Voigt Hill
#
# Bulk Modulus (GPa) = 34.15623 56.75814 45.45719
# Shear Modulus (GPa) = 24.06613 36.38218 30.22415
#
# Velocity S-wave (km/s) = 3.09587 3.80648 3.46942
# Velocity P-wave (km/s) = 5.13634 6.47481 5.84402
#
# Compressibility (1/GPa) = 0.02927724
#
# Stress axis : x y z
#
# Youngs Moduli (GPa) = 48.01556 94.46770 34.13108
#
# Poissons Ratio (x) = 0.45507 0.33986
# Poissons Ratio (y) = 0.23130 0.03216
# Poissons Ratio (z) = 0.47812 0.08900
#
# Static dielectric constant tensor:
#      x y z
#    x 1.974500 0.011830 0.027880 
#    y 0.011830 1.986740 0.014360 
#    z 0.027880 0.014360 1.944860 
# 
# From -- ./inp_files/519666.got.cif
#   From: 2010.05.17/outbox.cif.g08.bks.cpg/sg2_260_cif.got.tgz:519666.got - 2010.06.03 11:33:40.
