data_PCOD9050605
_publ_section_title
;
Structure prediction by ZEFSAII (Michael W. Deem and Ramdas Pophale) SiO2 
 PCOD9050605
Probable space group: P -1
;
_chemical_formula_sum "Si O2"
_cell_formula_units_Z 16
_cell_length_a 14.582067
_cell_length_b 8.831253
_cell_length_c 9.451274
_cell_angle_alpha 112.771912
_cell_angle_beta 43.714963
_cell_angle_gamma 85.932164
_cell_volume 647.520787
_symmetry_space_group_name_H-M "P -1"
_symmetry_group_IT_number 2
_symmetry_cell_setting 'triclinic'
loop_
_space_group_symop_operation_xyz
x,y,z
-x,-y,-z
loop_
_atom_site_type_symbol
_atom_site_label
_atom_site_fract_x
_atom_site_fract_y
_atom_site_fract_z
Si Si1 0.925502 0.952800 0.825253
Si Si2 0.960490 0.654557 0.916335
Si Si3 0.833054 0.924813 0.399522
Si Si4 0.342366 0.258927 0.081722
Si Si5 0.957552 0.698664 0.459990
Si Si6 0.338997 0.431550 0.430643
Si Si7 0.429476 0.853928 0.706385
Si Si8 0.446760 0.719633 0.326312
O O1 0.011260 0.802134 0.544628
O O2 0.919514 0.829612 0.917382
O O3 0.022305 0.049078 0.785049
O O4 0.741610 0.110230 0.050909
O O5 0.928974 0.499553 0.824717
O O6 0.149258 0.543321 0.691385
O O7 0.863236 0.749285 0.201109
O O8 0.848188 0.860900 0.521231
O O9 0.675237 0.120579 0.593715
O O10 0.157315 0.342076 0.335627
O O11 0.395041 0.269407 0.185136
O O12 0.385311 0.380707 0.976425
O O13 0.417463 0.047045 0.849098
O O14 0.428994 0.330981 0.437466
O O15 0.386906 0.580664 0.381983
O O16 0.448129 0.822936 0.506644
#
# Coordination Sequence:
#
# PCOD9050605 Si02
#       8
#     2   2   2   2   2   2   2   2
#     4  11  22  45  68  98 133 172 219 270 337 390
#     4  11  22  45  68  98 133 172 219 270 337 390
#     4  12  24  42  69  99 134 176 217 271 336 390
#     4  10  25  45  65  95 135 181 214 269 330 389
#     4  10  25  43  66  99 132 176 222 274 319 393
#     4  11  24  44  70 100 133 172 221 274 327 391
#     4  11  24  44  70 100 133 172 221 274 327 391
#     4  12  24  42  68 100 135 174 221 269 331 393
#
# _framework density 24.709631000000002
#
# number of rings (size 3 to 8) (size 9 to 14) (size 15 to 20)
#    0.000    1.000    2.500    3.750    7.000    0.000 
#    0.000    5.000    0.000    0.000    0.000    0.000 
#    0.000    0.000    0.000    0.000    0.000    0.000 
#
# Total GULP energy -89668.429256 kJ/mol
# GULP energy per Si atom -5604.276828 kJ/mol
# Density = 2.465339 g / cm^3
# Si number density = 24.709631 Si / 1000 Ang^3
#
#
#
# Elastic Constant Matrix: (Units=GPa)
#
#
# Indices 1 2 3 4 5 6 
#
# 1 95.3470 27.3220 17.3739 2.8777 7.4937 -15.6288
# 2 27.3220 69.4605 12.2525 -3.6515 -3.6264 -4.2382
# 3 17.3739 12.2525 48.3872 -0.0814 13.8905 -11.9053
# 4 2.8777 -3.6515 -0.0814 23.0992 -0.6694 1.9982
# 5 7.4937 -3.6264 13.8905 -0.6694 42.6400 6.0443
# 6 -15.6288 -4.2382 -11.9053 1.9982 6.0443 32.6263
#
#
#
# Elastic Compliance Matrix: (Units=1/GPa)
#
#
# Indices 1 2 3 4 5 6 
#
# 1 0.013528 -0.005096 -0.001057 -0.003134 -0.003402 0.006255
# 2 -0.005096 0.017447 -0.004523 0.003749 0.004316 -0.002854
# 3 -0.001057 -0.004523 0.028129 -0.001782 -0.010994 0.011316
# 4 -0.003134 0.003749 -0.001782 0.044778 0.002853 -0.004936
# 5 -0.003402 0.004316 -0.010994 0.002853 0.029565 -0.010733
# 6 0.006255 -0.002854 0.011316 -0.004936 -0.010733 0.039696
#
#
# Mechanical properties :
#
#
# Convention : Reuss Voigt Hill
#
# Bulk Modulus (GPa) = 26.48793 36.34350 31.41572
# Shear Modulus (GPa) = 24.14549 30.08952 27.11751
#
# Velocity S-wave (km/s) = 3.12936 3.49338 3.31637
# Velocity P-wave (km/s) = 4.87854 5.56882 5.23507
#
# Compressibility (1/GPa) = 0.03775304
#
# Stress axis : x y z
#
# Youngs Moduli (GPa) = 73.92084 57.31596 35.55061
#
# Poissons Ratio (x) = 0.29206 0.03756
# Poissons Ratio (y) = 0.37667 0.16081
# Poissons Ratio (z) = 0.07810 0.25926
#
# Static dielectric constant tensor:
#      x y z
#    x 1.944710 0.000060 -0.006410 
#    y 0.000060 1.939300 0.019190 
#    z -0.006410 0.019190 1.986190 
# 
# From -- ./inp_files/299101.got.cif
#   From: 2010.05.17/outbox.cif.g08.bks.cpg/sg2_150_cif.got.tgz:299101.got - 2010.06.03 11:33:40.
