data_PCOD9050144
_publ_section_title
;
Structure prediction by ZEFSAII (Michael W. Deem and Ramdas Pophale) SiO2 
 PCOD9050144
Probable space group: P -1
;
_chemical_formula_sum "Si O2"
_cell_formula_units_Z 15
_cell_length_a 5.089356
_cell_length_b 7.703362
_cell_length_c 21.599310
_cell_angle_alpha 49.445568
_cell_angle_beta 83.030142
_cell_angle_gamma 65.444944
_cell_volume 571.471030
_symmetry_space_group_name_H-M "P -1"
_symmetry_group_IT_number 2
_symmetry_cell_setting 'triclinic'
loop_
_space_group_symop_operation_xyz
x,y,z
-x,-y,-z
loop_
_atom_site_type_symbol
_atom_site_label
_atom_site_fract_x
_atom_site_fract_y
_atom_site_fract_z
Si Si1 0.334141 0.325017 0.551900
Si Si2 0.816935 0.970494 0.068186
Si Si3 0.500000 0.000000 0.500000
Si Si4 0.635958 0.515170 0.058616
Si Si5 0.761900 0.177146 0.800534
Si Si6 0.176204 0.543996 0.766192
Si Si7 0.031553 0.461916 0.652080
Si Si8 0.748491 0.751258 0.831638
O O1 0.500000 0.500000 0.500000
O O2 0.475618 0.084732 0.557154
O O3 0.000000 0.500000 0.500000
O O4 0.289731 0.309929 0.630561
O O5 0.840068 0.695000 0.143831
O O6 0.493256 0.178447 0.010229
O O7 0.982036 0.997974 0.119095
O O8 0.000000 0.000000 0.000000
O O9 0.225095 0.278887 0.428716
O O10 0.473659 0.378072 0.136093
O O11 0.972281 0.409217 0.093928
O O12 0.500000 0.500000 0.000000
O O13 0.531689 0.436209 0.781084
O O14 0.902333 0.269827 0.720725
O O15 0.604331 0.019678 0.810472
O O16 0.121125 0.552754 0.692416
O O17 0.917352 0.767734 0.759983
#
# Coordination Sequence:
#
# PCOD9050144 Si02
#       8
#     2   2   1   2   2   2   2   2
#     4  10  24  48  78 115 148 186 241 302 371 455
#     4  11  22  41  66  94 141 188 251 304 357 420
#     4  10  24  52  82 110 150 192 250 304 384 460
#     4  12  24  42  69 100 136 194 259 312 364 431
#     4  11  26  45  66 102 149 192 238 311 366 438
#     4  11  26  44  69 103 147 196 246 305 377 442
#     4  10  26  48  73 111 148 191 243 306 375 454
#     4  12  27  44  69 103 143 196 253 302 375 438
#
# _framework density 26.248049000000002
#
# number of rings (size 3 to 8) (size 9 to 14) (size 15 to 20)
#    0.000    1.067    2.667    2.000    9.333    5.333 
#    0.000    0.000    0.000    0.000    0.000    0.000 
#    0.000    0.000    0.000    0.000    0.000    0.000 
#
# Total GULP energy -83531.464009 kJ/mol
# GULP energy per Si atom -5568.764267 kJ/mol
# Density = 2.618831 g / cm^3
# Si number density = 26.248049 Si / 1000 Ang^3
#
#
#
# Elastic Constant Matrix: (Units=GPa)
#
#
# Indices 1 2 3 4 5 6 
#
# 1 99.9552 12.0146 25.8898 -3.7199 -14.3123 -15.9264
# 2 12.0146 174.7835 43.4834 33.7571 -6.0378 -7.0369
# 3 25.8898 43.4834 116.8193 28.7812 12.9811 -12.0765
# 4 -3.7199 33.7571 28.7812 48.1015 -18.1479 2.3488
# 5 -14.3123 -6.0378 12.9811 -18.1479 47.9514 5.6997
# 6 -15.9264 -7.0369 -12.0765 2.3488 5.6997 35.5935
#
#
#
# Elastic Compliance Matrix: (Units=1/GPa)
#
#
# Indices 1 2 3 4 5 6 
#
# 1 0.013152 -0.000699 -0.005087 0.007354 0.007725 0.002298
# 2 -0.000699 0.006957 -0.001031 -0.004752 -0.000993 0.001185
# 3 -0.005087 -0.001031 0.015187 -0.013339 -0.011448 0.005386
# 4 0.007354 -0.004752 -0.013339 0.041327 0.021847 -0.008400
# 5 0.007725 -0.000993 -0.011448 0.021847 0.035320 -0.007722
# 6 0.002298 0.001185 0.005386 -0.008400 -0.007722 0.032976
#
#
# Mechanical properties :
#
#
# Convention : Reuss Voigt Hill
#
# Bulk Modulus (GPa) = 46.16558 61.59261 53.87910
# Shear Modulus (GPa) = 30.16152 47.00729 38.58441
#
# Velocity S-wave (km/s) = 3.39351 4.23648 3.83821
# Velocity P-wave (km/s) = 5.74290 6.88817 6.34144
#
# Compressibility (1/GPa) = 0.02166116
#
# Stress axis : x y z
#
# Youngs Moduli (GPa) = 76.03323 143.73660 65.84764
#
# Poissons Ratio (x) = 0.10053 0.33497
# Poissons Ratio (y) = 0.05318 0.06788
# Poissons Ratio (z) = 0.38678 0.14818
#
# Static dielectric constant tensor:
#      x y z
#    x 2.072460 0.038210 0.024210 
#    y 0.038210 2.280600 -0.000110 
#    z 0.024210 -0.000110 2.025120 
# 
# From -- ./inp_files/582258.got.cif
#   From: 2010.05.17/outbox.cif.g08.bks.cpg/sg2_292_cif.got.tgz:582258.got - 2010.06.03 11:33:40.
