data_PCOD9050831
_publ_section_title
;
Structure prediction by ZEFSAII (Michael W. Deem and Ramdas Pophale) SiO2 
 PCOD9050831
Probable space group: P -1
;
_chemical_formula_sum "Si O2"
_cell_formula_units_Z 16
_cell_length_a 12.092026
_cell_length_b 11.780297
_cell_length_c 12.648756
_cell_angle_alpha 49.880067
_cell_angle_beta 34.019509
_cell_angle_gamma 51.669982
_cell_volume 755.088683
_symmetry_space_group_name_H-M "P -1"
_symmetry_group_IT_number 2
_symmetry_cell_setting 'triclinic'
loop_
_space_group_symop_operation_xyz
x,y,z
-x,-y,-z
loop_
_atom_site_type_symbol
_atom_site_label
_atom_site_fract_x
_atom_site_fract_y
_atom_site_fract_z
Si Si1 0.100691 0.644683 0.816804
Si Si2 0.377927 0.818522 0.981986
Si Si3 0.433034 0.169663 0.404864
Si Si4 0.761570 0.822129 0.090505
Si Si5 0.865434 0.311956 0.473165
Si Si6 0.003431 0.323469 0.582933
Si Si7 0.499129 0.824773 0.103131
Si Si8 0.447099 0.367264 0.469231
O O1 0.050067 0.702624 0.702775
O O2 0.342905 0.614114 0.655122
O O3 0.000000 0.500000 0.000000
O O4 0.997111 0.763799 0.915751
O O5 0.201427 0.723816 0.186976
O O6 0.524392 0.766077 0.998205
O O7 0.477463 0.811571 0.793028
O O8 0.288972 0.997262 0.966298
O O9 0.495557 0.289821 0.363893
O O10 0.191945 0.219049 0.553376
O O11 0.500000 0.000000 0.500000
O O12 0.656690 0.762414 0.106516
O O13 0.666131 0.745283 0.308381
O O14 0.013597 0.297670 0.463623
O O15 0.721540 0.193472 0.675217
O O16 0.710626 0.474344 0.507500
O O17 0.000000 0.500000 0.500000
O O18 0.500000 0.000000 0.000000
#
# Coordination Sequence:
#
# PCOD9050831 Si02
#       8
#     2   2   2   2   2   2   2   2
#     4  12  25  38  69 107 134 187 226 280 357 412
#     4  10  25  44  69 100 136 184 230 285 347 411
#     4  12  27  46  74 100 139 190 226 287 353 413
#     4  11  22  42  66 103 139 180 230 285 345 412
#     4  11  22  45  68  99 143 177 229 295 339 412
#     4  11  26  49  70 101 141 184 238 288 338 409
#     4   9  20  42  65  91 137 177 220 288 340 399
#     4  12  24  44  68 101 145 179 231 286 346 413
#
# _framework density 21.189561999999999
#
# number of rings (size 3 to 8) (size 9 to 14) (size 15 to 20)
#    0.000    1.000    5.000    1.125    3.500    3.000 
#    0.000    1.875    0.000    0.000    0.000    0.000 
#    0.000    0.000    0.000    0.000    0.000    0.000 
#
# Total GULP energy -89408.957571 kJ/mol
# GULP energy per Si atom -5588.059848 kJ/mol
# Density = 2.114133 g / cm^3
# Si number density = 21.189562 Si / 1000 Ang^3
#
#
#
# Elastic Constant Matrix: (Units=GPa)
#
#
# Indices 1 2 3 4 5 6 
#
# 1 102.0502 10.6146 30.0197 -4.3067 5.0385 5.0415
# 2 10.6146 70.4814 22.2535 -10.9603 -7.1471 11.4866
# 3 30.0197 22.2535 106.0496 -12.7482 21.9671 19.4815
# 4 -4.3067 -10.9603 -12.7482 39.6767 3.9259 -1.5200
# 5 5.0385 -7.1471 21.9671 3.9259 39.9553 6.4231
# 6 5.0415 11.4866 19.4815 -1.5200 6.4231 29.6712
#
#
#
# Elastic Compliance Matrix: (Units=1/GPa)
#
#
# Indices 1 2 3 4 5 6 
#
# 1 0.010726 -0.000730 -0.002971 0.000014 0.000086 0.000393
# 2 -0.000730 0.017211 -0.003193 0.002892 0.005525 -0.005490
# 3 -0.002971 -0.003193 0.013950 0.003787 -0.007332 -0.005637
# 4 0.000014 0.002892 0.003787 0.027573 -0.004064 -0.001316
# 5 0.000086 0.005525 -0.007332 -0.004064 0.031125 -0.004285
# 6 0.000393 -0.005490 -0.005637 -0.001316 -0.004285 0.040323
#
#
# Mechanical properties :
#
#
# Convention : Reuss Voigt Hill
#
# Bulk Modulus (GPa) = 35.58965 44.92854 40.25909
# Shear Modulus (GPa) = 30.47613 36.24020 33.35817
#
# Velocity S-wave (km/s) = 3.79656 4.14005 3.97202
# Velocity P-wave (km/s) = 6.00423 6.64097 6.33061
#
# Compressibility (1/GPa) = 0.02809806
#
# Stress axis : x y z
#
# Youngs Moduli (GPa) = 93.23086 58.10244 71.68337
#
# Poissons Ratio (x) = 0.04244 0.21299
# Poissons Ratio (y) = 0.06810 0.22888
# Poissons Ratio (z) = 0.27701 0.18552
#
# Static dielectric constant tensor:
#      x y z
#    x 1.814480 -0.027190 -0.003580 
#    y -0.027190 1.776840 0.034390 
#    z -0.003580 0.034390 1.756110 
# 
# From -- ./inp_files/427688.got.cif
#   From: 2010.05.17/outbox.cif.g08.bks.cpg/sg2_214_cif.got.tgz:427688.got - 2010.06.03 11:33:40.
