data_PCOD9050954
_publ_section_title
;
Structure prediction by ZEFSAII (Michael W. Deem and Ramdas Pophale) SiO2 
 PCOD9050954
Probable space group: P -1
;
_chemical_formula_sum "Si O2"
_cell_formula_units_Z 14
_cell_length_a 8.317081
_cell_length_b 16.796930
_cell_length_c 9.410926
_cell_angle_alpha 120.892057
_cell_angle_beta 70.739917
_cell_angle_gamma 146.109593
_cell_volume 616.213963
_symmetry_space_group_name_H-M "P -1"
_symmetry_group_IT_number 2
_symmetry_cell_setting 'triclinic'
loop_
_space_group_symop_operation_xyz
x,y,z
-x,-y,-z
loop_
_atom_site_type_symbol
_atom_site_label
_atom_site_fract_x
_atom_site_fract_y
_atom_site_fract_z
Si Si1 0.975096 0.586649 0.167283
Si Si2 0.553617 0.916150 0.195698
Si Si3 0.874073 0.931213 0.316472
Si Si4 0.138354 0.487261 0.556133
Si Si5 0.378406 0.361332 0.000289
Si Si6 0.567413 0.826668 0.822728
Si Si7 0.113245 0.777632 0.789146
O O1 0.042874 0.603136 0.328241
O O2 0.637502 0.463920 0.133157
O O3 0.206255 0.759871 0.187018
O O4 0.000000 0.500000 0.000000
O O5 0.712218 0.951169 0.323658
O O6 0.691413 0.068875 0.226545
O O7 0.613046 0.863695 0.010065
O O8 0.663881 0.748910 0.185594
O O9 0.000000 0.000000 0.500000
O O10 0.146227 0.034851 0.227164
O O11 0.441948 0.669414 0.680211
O O12 0.000000 0.500000 0.500000
O O13 0.120816 0.382723 0.384848
O O14 0.073441 0.250737 0.065266
O O15 0.500000 0.500000 0.000000
O O16 0.328965 0.798862 0.820245
#
# Coordination Sequence:
#
# PCOD9050954 Si02
#       7
#     2   2   2   2   2   2   2
#     4  12  25  46  76 104 141 193 238 289 358 424
#     4  12  25  47  74 104 145 186 241 288 359 429
#     4  12  29  45  73 108 145 187 239 297 362 421
#     4  10  25  44  74 102 142 187 241 288 355 422
#     4  12  28  46  73 107 147 186 242 296 353 426
#     4  11  23  47  76  99 146 195 235 285 361 433
#     4  11  27  45  74 108 144 188 239 293 361 417
#
# _framework density 22.719383000000001
#
# number of rings (size 3 to 8) (size 9 to 14) (size 15 to 20)
#    0.000    0.571    4.286    1.714   12.000    2.286 
#    0.000    0.000    0.000    0.000    0.000    0.000 
#    0.000    0.000    0.000    0.000    0.000    0.000 
#
# Total GULP energy -78339.009491 kJ/mol
# GULP energy per Si atom -5595.643535 kJ/mol
# Density = 2.266767 g / cm^3
# Si number density = 22.719383 Si / 1000 Ang^3
#
#
#
# Elastic Constant Matrix: (Units=GPa)
#
#
# Indices 1 2 3 4 5 6 
#
# 1 76.7598 37.4107 13.9982 5.1657 15.5199 -5.3476
# 2 37.4107 136.8675 21.2927 12.2048 2.5282 -21.7772
# 3 13.9982 21.2927 107.4990 12.9018 17.0531 -22.5331
# 4 5.1657 12.2048 12.9018 32.2299 -9.4498 -3.7725
# 5 15.5199 2.5282 17.0531 -9.4498 36.6095 -0.4694
# 6 -5.3476 -21.7772 -22.5331 -3.7725 -0.4694 46.9987
#
#
#
# Elastic Compliance Matrix: (Units=1/GPa)
#
#
# Indices 1 2 3 4 5 6 
#
# 1 0.016858 -0.004231 0.000264 -0.003554 -0.007898 -0.000280
# 2 -0.004231 0.009239 -0.000470 -0.001964 0.000911 0.003426
# 3 0.000264 -0.000470 0.012392 -0.006401 -0.007438 0.005165
# 4 -0.003554 -0.001964 -0.006401 0.039084 0.014698 -0.001100
# 5 -0.007898 0.000911 -0.007438 0.014698 0.037827 -0.002485
# 6 -0.000280 0.003426 0.005165 -0.001100 -0.002485 0.025196
#
#
# Mechanical properties :
#
#
# Convention : Reuss Voigt Hill
#
# Bulk Modulus (GPa) = 33.76607 51.83660 42.80133
# Shear Modulus (GPa) = 31.37896 39.72925 35.55410
#
# Velocity S-wave (km/s) = 3.72042 4.18628 3.96020
# Velocity P-wave (km/s) = 5.77493 6.79942 6.30801
#
# Compressibility (1/GPa) = 0.02961553
#
# Stress axis : x y z
#
# Youngs Moduli (GPa) = 59.31872 108.23382 80.69714
#
# Poissons Ratio (x) = 0.45790 -0.02127
# Poissons Ratio (y) = 0.25096 0.03791
# Poissons Ratio (z) = -0.01563 0.05085
#
# Static dielectric constant tensor:
#      x y z
#    x 1.873330 -0.003770 0.034260 
#    y -0.003770 1.837330 0.045150 
#    z 0.034260 0.045150 1.854650 
# 
# From -- ./inp_files/218217.got.cif
#   From: 2010.05.17/outbox.cif.g08.bks.cpg/sg2_110_cif.got.tgz:218217.got - 2010.06.03 11:33:40.
