data_PCOD9050690
_publ_section_title
;
Structure prediction by ZEFSAII (Michael W. Deem and Ramdas Pophale) SiO2 
 PCOD9050690
Probable space group: P -1
;
_chemical_formula_sum "Si O2"
_cell_formula_units_Z 14
_cell_length_a 5.405139
_cell_length_b 16.872979
_cell_length_c 7.243615
_cell_angle_alpha 95.965252
_cell_angle_beta 63.563346
_cell_angle_gamma 119.570943
_cell_volume 508.771499
_symmetry_space_group_name_H-M "P -1"
_symmetry_group_IT_number 2
_symmetry_cell_setting 'triclinic'
loop_
_space_group_symop_operation_xyz
x,y,z
-x,-y,-z
loop_
_atom_site_type_symbol
_atom_site_label
_atom_site_fract_x
_atom_site_fract_y
_atom_site_fract_z
Si Si1 0.283246 0.663085 0.011373
Si Si2 0.414271 0.175204 0.470541
Si Si3 0.729863 0.667830 0.304781
Si Si4 0.772293 0.494440 0.795224
Si Si5 0.679570 0.975150 0.280183
Si Si6 0.343615 0.139969 0.042643
Si Si7 0.089978 0.326051 0.359540
O O1 0.112074 0.561884 0.133451
O O2 0.998264 0.684639 0.064227
O O3 0.518320 0.758508 0.064342
O O4 0.562981 0.660954 0.799130
O O5 0.314687 0.248425 0.592540
O O6 0.220478 0.085395 0.639345
O O7 0.385752 0.153979 0.254886
O O8 0.793942 0.224876 0.399934
O O9 0.413130 0.575883 0.326248
O O10 0.882054 0.650563 0.430292
O O11 0.983068 0.600299 0.696973
O O12 0.500000 0.500000 0.000000
O O13 0.500000 0.000000 0.500000
O O14 0.509520 0.910662 0.142109
O O15 0.968476 0.069641 0.130654
#
# Coordination Sequence:
#
# PCOD9050690 Si02
#       7
#     2   2   2   2   2   2   2
#     4  11  25  46  71 106 145 191 249 297 361 438
#     4  12  27  50  78 110 151 195 245 304 380 438
#     4  12  25  45  73 103 151 196 243 308 361 433
#     4  10  25  43  71 106 147 196 249 300 364 429
#     4  11  26  50  78 111 146 186 251 304 366 456
#     4  11  25  48  75 108 146 194 237 306 372 437
#     4  11  25  47  70 108 147 194 248 302 363 434
#
# _framework density 27.517265999999999
#
# number of rings (size 3 to 8) (size 9 to 14) (size 15 to 20)
#    0.000    0.857    1.429    4.286    6.000    6.286 
#    5.143    0.000    0.000    0.000    0.000    0.000 
#    0.000    0.000    0.000    0.000    0.000    0.000 
#
# Total GULP energy -78201.780369 kJ/mol
# GULP energy per Si atom -5585.841455 kJ/mol
# Density = 2.745464 g / cm^3
# Si number density = 27.517266 Si / 1000 Ang^3
#
#
#
# Elastic Constant Matrix: (Units=GPa)
#
#
# Indices 1 2 3 4 5 6 
#
# 1 57.9157 25.9417 40.7451 27.0678 2.3916 12.9756
# 2 25.9417 168.0474 51.1168 28.5529 9.4714 5.0238
# 3 40.7451 51.1168 161.2120 48.5634 -3.3770 1.0912
# 4 27.0678 28.5529 48.5634 65.4366 4.0597 5.0981
# 5 2.3916 9.4714 -3.3770 4.0597 46.0563 17.3748
# 6 12.9756 5.0238 1.0912 5.0981 17.3748 39.5219
#
#
#
# Elastic Compliance Matrix: (Units=1/GPa)
#
#
# Indices 1 2 3 4 5 6 
#
# 1 0.025480 -0.001535 -0.003893 -0.006484 0.002403 -0.008283
# 2 -0.001535 0.006916 -0.001467 -0.001237 -0.001528 0.000497
# 3 -0.003893 -0.001467 0.009066 -0.004649 0.001072 0.001343
# 4 -0.006484 -0.001237 -0.004649 0.022038 -0.001835 0.000378
# 5 0.002403 -0.001528 0.001072 -0.001835 0.026720 -0.012134
# 6 -0.008283 0.000497 0.001343 0.000378 -0.012134 0.033207
#
#
# Mechanical properties :
#
#
# Convention : Reuss Voigt Hill
#
# Bulk Modulus (GPa) = 36.14041 69.19802 52.66921
# Shear Modulus (GPa) = 34.14290 48.16106 41.15198
#
# Velocity S-wave (km/s) = 3.52629 4.18809 3.87136
# Velocity P-wave (km/s) = 5.45361 6.97055 6.25821
#
# Compressibility (1/GPa) = 0.02766986
#
# Stress axis : x y z
#
# Youngs Moduli (GPa) = 39.24599 144.60090 110.30177
#
# Poissons Ratio (x) = 0.22199 0.42945
# Poissons Ratio (y) = 0.06025 0.16186
# Poissons Ratio (z) = 0.15280 0.21219
#
# Static dielectric constant tensor:
#      x y z
#    x 2.176900 -0.053350 0.040040 
#    y -0.053350 2.111910 -0.010390 
#    z 0.040040 -0.010390 2.233350 
# 
# From -- ./inp_files/137780.got.cif
#   From: 2010.05.17/outbox.cif.g08.bks.cpg/sg2_69_cif.got.tgz:137780.got - 2010.06.03 11:33:40.
