data_PCOD9050402
_publ_section_title
;
Structure prediction by ZEFSAII (Michael W. Deem and Ramdas Pophale) SiO2 
 PCOD9050402
Probable space group: P -1
;
_chemical_formula_sum "Si O2"
_cell_formula_units_Z 14
_cell_length_a 12.281046
_cell_length_b 11.278842
_cell_length_c 24.237402
_cell_angle_alpha 27.709921
_cell_angle_beta 25.659360
_cell_angle_gamma 25.634689
_cell_volume 579.722898
_symmetry_space_group_name_H-M "P -1"
_symmetry_group_IT_number 2
_symmetry_cell_setting 'triclinic'
loop_
_space_group_symop_operation_xyz
x,y,z
-x,-y,-z
loop_
_atom_site_type_symbol
_atom_site_label
_atom_site_fract_x
_atom_site_fract_y
_atom_site_fract_z
Si Si1 0.900578 0.165847 0.607510
Si Si2 0.765106 0.593448 0.618303
Si Si3 0.151560 0.199505 0.838201
Si Si4 0.973278 0.633334 0.049323
Si Si5 0.309624 0.712553 0.699524
Si Si6 0.391741 0.830855 0.078704
Si Si7 0.166877 0.152256 0.330549
O O1 0.596093 0.457294 0.642113
O O2 0.121535 0.272845 0.441834
O O3 0.833135 0.966421 0.682003
O O4 0.091317 0.960267 0.655715
O O5 0.446028 0.802905 0.650161
O O6 0.755187 0.313809 0.759428
O O7 0.000000 0.500000 0.500000
O O8 0.136925 0.326996 0.854054
O O9 0.992813 0.488630 0.750947
O O10 0.491321 0.995171 0.748947
O O11 0.000000 0.000000 0.000000
O O12 0.857154 0.456829 0.138195
O O13 0.321401 0.438986 0.969186
O O14 0.829866 0.950913 0.955526
O O15 0.500000 0.000000 0.000000
O O16 0.000000 0.000000 0.500000
#
# Coordination Sequence:
#
# PCOD9050402 Si02
#       7
#     2   2   2   2   2   2   2
#     4  11  22  41  65  97 133 178 226 270 341 416
#     4  10  25  40  65  98 137 179 224 278 338 410
#     4  12  27  49  75 105 141 190 242 302 368 431
#     4  12  24  43  72  93 137 183 231 276 347 411
#     4  11  21  40  67  94 131 179 224 266 337 408
#     4  12  26  42  67 102 138 181 232 281 335 412
#     4  12  25  46  76 107 141 186 238 303 367 429
#
# _framework density 24.149467999999999
#
# number of rings (size 3 to 8) (size 9 to 14) (size 15 to 20)
#    0.000    0.571    4.286    3.429    2.000    4.571 
#    0.000    0.000    0.000    0.000    0.000    0.000 
#    0.000    0.000    0.000    0.000    0.000    0.000 
#
# Total GULP energy -78248.739226 kJ/mol
# GULP energy per Si atom -5589.195659 kJ/mol
# Density = 2.409450 g / cm^3
# Si number density = 24.149468 Si / 1000 Ang^3
#
#
#
# Elastic Constant Matrix: (Units=GPa)
#
#
# Indices 1 2 3 4 5 6 
#
# 1 18.1940 25.8317 4.2385 1.3221 -10.2433 -9.0884
# 2 25.8317 177.5960 63.3273 -0.6363 13.2446 -28.3270
# 3 4.2385 63.3273 177.1131 -6.3549 -7.9325 -14.8736
# 4 1.3221 -0.6363 -6.3549 47.1745 -3.7965 4.0005
# 5 -10.2433 13.2446 -7.9325 -3.7965 50.4676 -5.8936
# 6 -9.0884 -28.3270 -14.8736 4.0005 -5.8936 21.8502
#
#
#
# Elastic Compliance Matrix: (Units=1/GPa)
#
#
# Indices 1 2 3 4 5 6 
#
# 1 0.115158 -0.015087 0.007632 -0.003380 0.033316 0.043140
# 2 -0.015087 0.009859 -0.003209 -0.000590 -0.005866 0.002848
# 3 0.007632 -0.003209 0.007235 0.000632 0.004153 0.004944
# 4 -0.003380 -0.000590 0.000632 0.021890 0.000561 -0.005596
# 5 0.033316 -0.005866 0.004153 0.000561 0.030831 0.017293
# 6 0.043140 0.002848 0.004944 -0.005596 0.017293 0.076456
#
#
# Mechanical properties :
#
#
# Convention : Reuss Voigt Hill
#
# Bulk Modulus (GPa) = 9.01517 62.18869 35.60193
# Shear Modulus (GPa) = 15.63819 42.53218 29.08518
#
# Velocity S-wave (km/s) = 2.54748 4.20122 3.47419
# Velocity P-wave (km/s) = 3.52052 7.02433 5.55586
#
# Compressibility (1/GPa) = 0.11092417
#
# Stress axis : x y z
#
# Youngs Moduli (GPa) = 8.68371 101.43055 138.22364
#
# Poissons Ratio (x) = 1.53032 -1.05497
# Poissons Ratio (y) = 0.13101 0.44353
# Poissons Ratio (z) = -0.06628 0.32547
#
# Static dielectric constant tensor:
#      x y z
#    x 2.020110 0.041390 -0.064860 
#    y 0.041390 1.995980 -0.066860 
#    z -0.064860 -0.066860 2.119940 
# 
# From -- ./inp_files/350747.got.cif
#   From: 2010.05.17/outbox.cif.g08.bks.cpg/sg2_176_cif.got.tgz:350747.got - 2010.06.03 11:33:40.
