data_PCOD9050448
_publ_section_title
;
Structure prediction by ZEFSAII (Michael W. Deem and Ramdas Pophale) SiO2 
 PCOD9050448
Probable space group: P -1
;
_chemical_formula_sum "Si O2"
_cell_formula_units_Z 10
_cell_length_a 15.982564
_cell_length_b 8.970072
_cell_length_c 4.991480
_cell_angle_alpha 80.879027
_cell_angle_beta 89.676885
_cell_angle_gamma 38.919974
_cell_volume 435.818338
_symmetry_space_group_name_H-M "P -1"
_symmetry_group_IT_number 2
_symmetry_cell_setting 'triclinic'
loop_
_space_group_symop_operation_xyz
x,y,z
-x,-y,-z
loop_
_atom_site_type_symbol
_atom_site_label
_atom_site_fract_x
_atom_site_fract_y
_atom_site_fract_z
Si Si1 0.345918 0.423622 0.897663
Si Si2 0.840671 0.258026 0.686660
Si Si3 0.413759 0.027781 0.719097
Si Si4 0.008065 0.241306 0.992989
Si Si5 0.131831 0.331848 0.728599
O O1 0.270365 0.589546 0.587792
O O2 0.366916 0.216934 0.886695
O O3 0.245432 0.611985 0.078037
O O4 0.496402 0.231997 0.073049
O O5 0.938752 0.975602 0.774779
O O6 0.933538 0.275142 0.724254
O O7 0.267318 0.170121 0.602326
O O8 0.500000 0.000000 0.500000
O O9 0.907274 0.486578 0.101044
O O10 0.133414 0.169130 0.928554
O O11 0.000000 0.500000 0.500000
#
# Coordination Sequence:
#
# PCOD9050448 Si02
#       5
#     2   2   2   2   2
#     4  11  23  40  72  98 136 177 240 274 342 410
#     4  11  23  44  72 106 132 184 226 295 338 415
#     4  11  23  42  69 104 137 188 229 279 338 422
#     4  10  25  41  69 102 142 175 233 284 354 397
#     4  11  24  44  69 102 140 181 229 288 342 410
#
# _framework density 22.945342
#
# number of rings (size 3 to 8) (size 9 to 14) (size 15 to 20)
#    0.000    1.200    4.000    1.200    2.800    3.200 
#    0.000    2.000    0.000    0.000    0.000    0.000 
#    0.000    0.000    0.000    0.000    0.000    0.000 
#
# Total GULP energy -55760.417154 kJ/mol
# GULP energy per Si atom -5576.041715 kJ/mol
# Density = 2.289312 g / cm^3
# Si number density = 22.945342 Si / 1000 Ang^3
#
#
#
# Elastic Constant Matrix: (Units=GPa)
#
#
# Indices 1 2 3 4 5 6 
#
# 1 114.5004 59.7759 35.0923 -6.6385 -1.5622 -16.9987
# 2 59.7759 78.2284 36.5063 -4.7618 6.4103 -10.6317
# 3 35.0923 36.5063 141.5581 -4.4700 12.5549 -5.5085
# 4 -6.6385 -4.7618 -4.4700 52.3785 -5.8997 3.2568
# 5 -1.5622 6.4103 12.5549 -5.8997 19.3020 -7.8333
# 6 -16.9987 -10.6317 -5.5085 3.2568 -7.8333 36.2279
#
#
#
# Elastic Compliance Matrix: (Units=1/GPa)
#
#
# Indices 1 2 3 4 5 6 
#
# 1 0.016368 -0.011619 -0.001588 0.001539 0.009061 0.005849
# 2 -0.011619 0.023345 -0.002517 -0.000363 -0.007390 -0.000549
# 3 -0.001588 -0.002517 0.008532 -0.000233 -0.005460 -0.001346
# 4 0.001539 -0.000363 -0.000233 0.019963 0.006584 0.000209
# 5 0.009061 -0.007390 -0.005460 0.006584 0.066679 0.015078
# 6 0.005849 -0.000549 -0.001346 0.000209 0.015078 0.033223
#
#
# Mechanical properties :
#
#
# Convention : Reuss Voigt Hill
#
# Bulk Modulus (GPa) = 59.54487 66.33732 62.94109
# Shear Modulus (GPa) = 24.37144 35.10917 29.74031
#
# Velocity S-wave (km/s) = 3.26260 3.91592 3.60410
# Velocity P-wave (km/s) = 6.34034 7.02991 6.69401
#
# Compressibility (1/GPa) = 0.01679406
#
# Stress axis : x y z
#
# Youngs Moduli (GPa) = 61.09572 42.83495 117.20982
#
# Poissons Ratio (x) = 0.49772 0.18618
# Poissons Ratio (y) = 0.70990 0.29507
# Poissons Ratio (z) = 0.09705 0.10784
#
# Static dielectric constant tensor:
#      x y z
#    x 2.052920 -0.087560 0.019360 
#    y -0.087560 1.847740 -0.060970 
#    z 0.019360 -0.060970 1.994280 
# 
# From -- ./inp_files/16380.got.cif
#   From: 2010.05.17/outbox.cif.g08.bks.cpg/sg2_9_cif.got.tgz:16380.got - 2010.06.03 11:33:40.
