data_PCOD9050504
_publ_section_title
;
Structure prediction by ZEFSAII (Michael W. Deem and Ramdas Pophale) SiO2 
 PCOD9050504
Probable space group: P -1
;
_chemical_formula_sum "Si O2"
_cell_formula_units_Z 16
_cell_length_a 12.081959
_cell_length_b 15.482802
_cell_length_c 12.394860
_cell_angle_alpha 144.260696
_cell_angle_beta 36.284742
_cell_angle_gamma 116.479012
_cell_volume 639.405233
_symmetry_space_group_name_H-M "P -1"
_symmetry_group_IT_number 2
_symmetry_cell_setting 'triclinic'
loop_
_space_group_symop_operation_xyz
x,y,z
-x,-y,-z
loop_
_atom_site_type_symbol
_atom_site_label
_atom_site_fract_x
_atom_site_fract_y
_atom_site_fract_z
Si Si1 0.294615 0.699069 0.271312
Si Si2 0.406605 0.425758 0.411146
Si Si3 0.892197 0.143578 0.632141
Si Si4 0.821097 0.704496 0.396920
Si Si5 0.921228 0.754135 0.768374
Si Si6 0.507001 0.861373 0.603263
Si Si7 0.281103 0.659726 0.558095
Si Si8 0.612067 0.784561 0.211447
O O1 0.142393 0.872947 0.484079
O O2 0.415568 0.754619 0.314874
O O3 0.125881 0.658800 0.420244
O O4 0.509802 0.516191 0.855015
O O5 0.500000 0.500000 0.500000
O O6 0.318486 0.320588 0.430124
O O7 0.228026 0.585108 0.628937
O O8 0.629388 0.284941 0.021904
O O9 0.031785 0.230391 0.608390
O O10 0.000000 0.000000 0.500000
O O11 0.651787 0.840281 0.571979
O O12 0.000000 0.500000 0.000000
O O13 0.053317 0.785306 0.789890
O O14 0.805169 0.680814 0.859546
O O15 0.700019 0.931527 0.061205
O O16 0.385889 0.762528 0.622560
O O17 0.671307 0.756004 0.262558
O O18 0.500000 0.000000 0.500000
#
# Coordination Sequence:
#
# PCOD9050504 Si02
#       8
#     2   2   2   2   2   2   2   2
#     4  11  25  47  66 100 147 176 230 291 355 419
#     4  11  23  46  71 105 139 192 243 284 349 433
#     4  11  28  45  73 106 146 186 232 304 356 409
#     4  12  25  47  75 104 142 190 240 288 352 429
#     4  11  25  43  71  98 136 188 224 291 358 409
#     4  11  24  44  72 106 136 177 247 290 343 426
#     4  11  23  44  70 104 145 179 232 295 352 420
#     4  10  25  42  67 102 134 176 237 285 348 420
#
# _framework density 25.023253
#
# number of rings (size 3 to 8) (size 9 to 14) (size 15 to 20)
#    0.000    1.000    3.750    1.500    8.750    3.000 
#    0.000    0.000    0.000    0.000    0.000    0.000 
#    0.000    0.000    0.000    0.000    0.000    0.000 
#
# Total GULP energy -89484.695286 kJ/mol
# GULP energy per Si atom -5592.793455 kJ/mol
# Density = 2.496630 g / cm^3
# Si number density = 25.023253 Si / 1000 Ang^3
#
#
#
# Elastic Constant Matrix: (Units=GPa)
#
#
# Indices 1 2 3 4 5 6 
#
# 1 60.8501 40.8964 25.6825 -17.0216 -17.3406 -20.3193
# 2 40.8964 171.6544 31.6448 -40.8406 -9.6315 -18.7655
# 3 25.6825 31.6448 80.2102 -18.2038 -20.7208 -8.0727
# 4 -17.0216 -40.8406 -18.2038 40.5376 -1.6378 -6.7807
# 5 -17.3406 -9.6315 -20.7208 -1.6378 26.8033 1.5953
# 6 -20.3193 -18.7655 -8.0727 -6.7807 1.5953 49.1564
#
#
#
# Elastic Compliance Matrix: (Units=1/GPa)
#
#
# Indices 1 2 3 4 5 6 
#
# 1 0.032260 -0.001286 0.000649 0.015808 0.021017 0.014449
# 2 -0.001286 0.008928 0.000142 0.009317 0.002812 0.004094
# 3 0.000649 0.000142 0.018989 0.010299 0.015521 0.004358
# 4 0.015808 0.009317 0.010299 0.049247 0.023486 0.017814
# 5 0.021017 0.002812 0.015521 0.023486 0.064549 0.013455
# 6 0.014449 0.004094 0.004358 0.017814 0.013455 0.030615
#
#
# Mechanical properties :
#
#
# Convention : Reuss Voigt Hill
#
# Bulk Modulus (GPa) = 16.89514 56.57356 36.73435
# Shear Modulus (GPa) = 22.19210 37.59886 29.89548
#
# Velocity S-wave (km/s) = 2.98125 3.88049 3.46020
# Velocity P-wave (km/s) = 4.31473 6.53721 5.53859
#
# Compressibility (1/GPa) = 0.05918862
#
# Stress axis : x y z
#
# Youngs Moduli (GPa) = 30.99804 112.00940 52.66282
#
# Poissons Ratio (x) = 0.14399 -0.03418
# Poissons Ratio (y) = 0.03985 -0.00750
# Poissons Ratio (z) = -0.02012 -0.01596
#
# Static dielectric constant tensor:
#      x y z
#    x 2.073340 -0.188470 0.024830 
#    y -0.188470 2.148800 -0.003590 
#    z 0.024830 -0.003590 2.045410 
# 
# From -- ./inp_files/433297.got.cif
#   From: 2010.05.17/outbox.cif.g08.bks.cpg/sg2_217_cif.got.tgz:433297.got - 2010.06.03 11:33:40.
