data_PCOD9050301
_publ_section_title
;
Structure prediction by ZEFSAII (Michael W. Deem and Ramdas Pophale) SiO2 
 PCOD9050301
Probable space group: P -1
;
_chemical_formula_sum "Si O2"
_cell_formula_units_Z 13
_cell_length_a 6.397828
_cell_length_b 11.760793
_cell_length_c 9.057281
_cell_angle_alpha 81.453259
_cell_angle_beta 63.718759
_cell_angle_gamma 60.719279
_cell_volume 530.968674
_symmetry_space_group_name_H-M "P -1"
_symmetry_group_IT_number 2
_symmetry_cell_setting 'triclinic'
loop_
_space_group_symop_operation_xyz
x,y,z
-x,-y,-z
loop_
_atom_site_type_symbol
_atom_site_label
_atom_site_fract_x
_atom_site_fract_y
_atom_site_fract_z
Si Si1 0.190058 0.741087 0.429577
Si Si2 0.593202 0.895564 0.623394
Si Si3 0.659853 0.071414 0.806852
Si Si4 0.292691 0.541675 0.191285
Si Si5 0.000000 0.000000 0.000000
Si Si6 0.375269 0.708215 0.710172
Si Si7 0.933340 0.751041 0.061309
O O1 0.188040 0.873265 0.352899
O O2 0.333112 0.630131 0.284404
O O3 0.331630 0.704303 0.551166
O O4 0.882392 0.775717 0.524133
O O5 0.380634 0.843186 0.724476
O O6 0.500000 0.000000 0.500000
O O7 0.628964 0.963675 0.742696
O O8 0.369010 0.191751 0.899591
O O9 0.807493 0.011505 0.921745
O O10 0.358466 0.409539 0.282807
O O11 0.017216 0.635748 0.178007
O O12 0.500000 0.500000 0.000000
O O13 0.014981 0.134471 0.908226
O O14 0.132791 0.703212 0.869686
#
# Coordination Sequence:
#
# PCOD9050301 Si02
#       7
#     2   2   2   2   1   2   2
#     4  12  25  48  75 107 148 196 245 305 372 437
#     4  12  26  45  75 111 151 191 244 304 375 438
#     4  12  26  45  77 111 150 197 241 307 372 441
#     4  10  24  50  74 105 148 195 250 303 363 441
#     4  12  24  42  70 104 152 182 248 296 366 426
#     4  11  26  47  75 107 152 194 247 304 366 437
#     4  11  24  46  73 108 146 195 244 303 364 435
#
# _framework density 24.483550999999999
#
# number of rings (size 3 to 8) (size 9 to 14) (size 15 to 20)
#    0.000    0.615    3.077    4.154    2.154    1.846 
#    2.769    1.538    0.000    0.000    0.000    0.000 
#    0.000    0.000    0.000    0.000    0.000    0.000 
#
# Total GULP energy -72648.162503 kJ/mol
# GULP energy per Si atom -5588.320193 kJ/mol
# Density = 2.442783 g / cm^3
# Si number density = 24.483551 Si / 1000 Ang^3
#
#
#
# Elastic Constant Matrix: (Units=GPa)
#
#
# Indices 1 2 3 4 5 6 
#
# 1 117.1817 42.8662 67.4642 -9.1232 29.2835 -25.8630
# 2 42.8662 116.3382 40.0267 -20.0679 22.6753 -28.4746
# 3 67.4642 40.0267 120.6948 -12.3859 39.3335 -11.9721
# 4 -9.1232 -20.0679 -12.3859 46.2701 -3.4244 15.6167
# 5 29.2835 22.6753 39.3335 -3.4244 64.2886 -8.3975
# 6 -25.8630 -28.4746 -11.9721 15.6167 -8.3975 39.4430
#
#
#
# Elastic Compliance Matrix: (Units=1/GPa)
#
#
# Indices 1 2 3 4 5 6 
#
# 1 0.014715 -0.001450 -0.006870 -0.002041 -0.001173 0.007075
# 2 -0.001450 0.011878 -0.001814 0.002296 -0.001534 0.005838
# 3 -0.006870 -0.001814 0.014377 0.002522 -0.005362 -0.003590
# 4 -0.002041 0.002296 0.002522 0.025984 -0.001277 -0.009475
# 5 -0.001173 -0.001534 -0.005362 -0.001277 0.020007 0.001261
# 6 0.007075 0.005838 -0.003590 -0.009475 0.001261 0.037137
#
#
# Mechanical properties :
#
#
# Convention : Reuss Voigt Hill
#
# Bulk Modulus (GPa) = 48.30356 72.76988 60.53672
# Shear Modulus (GPa) = 33.05425 43.59087 38.32256
#
# Velocity S-wave (km/s) = 3.67830 4.22407 3.96060
# Velocity P-wave (km/s) = 6.14912 7.31962 6.75975
#
# Compressibility (1/GPa) = 0.02070241
#
# Stress axis : x y z
#
# Youngs Moduli (GPa) = 67.95794 84.18935 69.55589
#
# Poissons Ratio (x) = 0.12209 0.47783
# Poissons Ratio (y) = 0.09855 0.12616
# Poissons Ratio (z) = 0.46685 0.15270
#
# Static dielectric constant tensor:
#      x y z
#    x 1.868850 0.007010 -0.045010 
#    y 0.007010 1.892250 -0.048160 
#    z -0.045010 -0.048160 1.910340 
# 
# From -- ./inp_files/59062.got.cif
#   From: 2010.05.17/outbox.cif.g08.bks.cpg/sg2_30_cif.got.tgz:59062.got - 2010.06.03 11:33:40.
