data_PCOD9050152
_publ_section_title
;
Structure prediction by ZEFSAII (Michael W. Deem and Ramdas Pophale) SiO2 
 PCOD9050152
Probable space group: P -1
;
_chemical_formula_sum "Si O2"
_cell_formula_units_Z 10
_cell_length_a 5.490605
_cell_length_b 9.307950
_cell_length_c 9.072268
_cell_angle_alpha 96.010530
_cell_angle_beta 74.977272
_cell_angle_gamma 109.714448
_cell_volume 421.479844
_symmetry_space_group_name_H-M "P -1"
_symmetry_group_IT_number 2
_symmetry_cell_setting 'triclinic'
loop_
_space_group_symop_operation_xyz
x,y,z
-x,-y,-z
loop_
_atom_site_type_symbol
_atom_site_label
_atom_site_fract_x
_atom_site_fract_y
_atom_site_fract_z
Si Si1 0.733590 0.870787 0.995166
Si Si2 0.759538 0.563492 0.063455
Si Si3 0.172981 0.774025 0.520461
Si Si4 0.419432 0.020420 0.274019
Si Si5 0.357997 0.495208 0.370790
O O1 0.655524 0.882315 0.836946
O O2 0.830876 0.734287 0.020637
O O3 0.522981 0.904068 0.145297
O O4 0.000000 0.000000 0.000000
O O5 0.617287 0.520767 0.234281
O O6 0.500000 0.500000 0.000000
O O7 0.000000 0.500000 0.000000
O O8 0.364182 0.864222 0.635808
O O9 0.264184 0.645308 0.404119
O O10 0.889780 0.663038 0.617725
O O11 0.198362 0.908007 0.408023
O O12 0.500000 0.500000 0.500000
#
# Coordination Sequence:
#
# PCOD9050152 Si02
#       5
#     2   2   2   2   2
#     4  11  27  45  77 114 163 203 274 327 404 479
#     4  12  32  52  81 117 163 217 272 332 411 483
#     4  10  24  48  79 115 157 210 266 334 406 476
#     4  10  24  48  79 115 157 210 266 334 406 476
#     4  11  27  45  77 114 163 203 274 327 404 479
#
# _framework density 23.725930000000002
#
# number of rings (size 3 to 8) (size 9 to 14) (size 15 to 20)
#    0.000    1.200    2.000    0.000   19.600    0.000 
#    0.000    4.000    0.000    1.200    0.000    0.000 
#    0.000    0.000    0.000    0.000    0.000    0.000 
#
# Total GULP energy -55708.398382 kJ/mol
# GULP energy per Si atom -5570.839838 kJ/mol
# Density = 2.367193 g / cm^3
# Si number density = 23.725930 Si / 1000 Ang^3
#
#
#
# Elastic Constant Matrix: (Units=GPa)
#
#
# Indices 1 2 3 4 5 6 
#
# 1 129.7333 85.2661 90.0798 -9.2884 -18.4368 -17.9613
# 2 85.2661 174.0656 107.1572 -25.8623 -71.0968 51.7318
# 3 90.0798 107.1572 184.9173 -25.7321 64.6220 -65.7940
# 4 -9.2884 -25.8623 -25.7321 40.5565 4.6706 -10.4194
# 5 -18.4368 -71.0968 64.6220 4.6706 -71.2621 118.6892
# 6 -17.9613 51.7318 -65.7940 -10.4194 118.6892 -40.8776
#
#
#
# Elastic Compliance Matrix: (Units=1/GPa)
#
#
# Indices 1 2 3 4 5 6 
#
# 1 0.014583 -0.004622 -0.004374 -0.001768 0.002915 0.003698
# 2 -0.004622 0.006922 0.000295 0.004235 -0.002664 0.001502
# 3 -0.004374 0.000295 0.006040 0.002092 0.001774 -0.002809
# 4 -0.001768 0.004235 0.002092 0.028358 0.001939 0.001172
# 5 0.002915 -0.002664 0.001774 0.001939 0.006184 0.009953
# 6 0.003698 0.001502 -0.002809 0.001172 0.009953 0.008933
#
#
# Mechanical properties :
#
#
# Convention : Reuss Voigt Hill
#
# Bulk Modulus (GPa) = 98.59890 117.08027 107.83958
# Shear Modulus (GPa) = 54.46459 -0.56911 26.94774
#
# Velocity S-wave (km/s) = 4.79641 -0.49030 3.37381
# Velocity P-wave (km/s) = 8.50422 7.00953 7.79280
#
# Compressibility (1/GPa) = 0.01014210
#
# Stress axis : x y z
#
# Youngs Moduli (GPa) = 68.57481 144.46230 165.56751
#
# Poissons Ratio (x) = 0.66766 0.72426
# Poissons Ratio (y) = 0.31693 -0.04881
# Poissons Ratio (z) = 0.29997 -0.04259
#
# Static dielectric constant tensor:
#      x y z
#    x 1.790530 0.034750 0.031090 
#    y 0.034750 1.817550 -0.034810 
#    z 0.031090 -0.034810 1.825980 
# 
# From -- ./inp_files/15636.got.cif
#   From: 2010.05.17/outbox.cif.g08.bks.cpg/sg2_8_cif.got.tgz:15636.got - 2010.06.03 11:33:40.
