data_PCOD9050804
_publ_section_title
;
Structure prediction by ZEFSAII (Michael W. Deem and Ramdas Pophale) SiO2 
 PCOD9050804
Probable space group: P -1
;
_chemical_formula_sum "Si O2"
_cell_formula_units_Z 14
_cell_length_a 21.078173
_cell_length_b 15.035879
_cell_length_c 5.037975
_cell_angle_alpha 88.534322
_cell_angle_beta 86.503419
_cell_angle_gamma 20.212442
_cell_volume 548.304450
_symmetry_space_group_name_H-M "P -1"
_symmetry_group_IT_number 2
_symmetry_cell_setting 'triclinic'
loop_
_space_group_symop_operation_xyz
x,y,z
-x,-y,-z
loop_
_atom_site_type_symbol
_atom_site_label
_atom_site_fract_x
_atom_site_fract_y
_atom_site_fract_z
Si Si1 0.248882 0.248446 0.542554
Si Si2 0.290701 0.936786 0.192349
Si Si3 0.199629 0.735067 0.606865
Si Si4 0.899687 0.735865 0.260344
Si Si5 0.606782 0.790004 0.170620
Si Si6 0.500000 0.500000 0.500000
Si Si7 0.661858 0.539193 0.916763
Si Si8 0.500000 0.500000 0.000000
O O1 0.184365 0.252859 0.745530
O O2 0.253296 0.336174 0.684283
O O3 0.108149 0.444702 0.320902
O O4 0.451475 0.959961 0.402831
O O5 0.374516 0.725205 0.233837
O O6 0.204905 0.084121 0.474587
O O7 0.464581 0.767045 0.066924
O O8 0.137253 0.154784 0.991531
O O9 0.307334 0.687026 0.619652
O O10 0.308807 0.526978 0.389012
O O11 0.197640 0.697353 0.905443
O O12 0.000000 0.000000 0.500000
O O13 0.685052 0.611244 0.976851
O O14 0.500000 0.000000 0.000000
O O15 0.542138 0.380012 0.236289
#
# Coordination Sequence:
#
# PCOD9050804 Si02
#       8
#     2   2   2   2   2   1   2   1
#     4  10  25  44  68 105 139 181 237 300 356 426
#     4  12  23  44  70 102 139 185 233 288 360 428
#     4  12  27  50  76 109 150 189 244 305 358 431
#     4  11  25  44  72 105 139 178 238 300 355 419
#     4  11  25  45  72  97 142 196 234 289 362 436
#     4  12  22  48  72 102 140 192 232 298 360 420
#     4  12  25  48  74 104 143 194 238 289 366 436
#     4  12  24  42  70 102 140 184 246 280 352 442
#
# _framework density 25.533258
#
# number of rings (size 3 to 8) (size 9 to 14) (size 15 to 20)
#    0.000    0.571    4.286    3.000    6.000    1.143 
#    7.714    0.000    0.000    0.000    0.000    0.000 
#    0.000    0.000    0.000    0.000    0.000    0.000 
#
# Total GULP energy -78089.520222 kJ/mol
# GULP energy per Si atom -5577.822873 kJ/mol
# Density = 2.547514 g / cm^3
# Si number density = 25.533258 Si / 1000 Ang^3
#
#
#
# Elastic Constant Matrix: (Units=GPa)
#
#
# Indices 1 2 3 4 5 6 
#
# 1 128.3613 35.4425 -5.5188 2.5970 10.8631 23.9331
# 2 35.4425 107.2371 15.5800 -11.4283 -6.0883 2.1899
# 3 -5.5188 15.5800 115.3193 0.4240 -5.0527 15.6383
# 4 2.5970 -11.4283 0.4240 49.4600 19.0349 1.4458
# 5 10.8631 -6.0883 -5.0527 19.0349 26.4373 4.7856
# 6 23.9331 2.1899 15.6383 1.4458 4.7856 29.6986
#
#
#
# Elastic Compliance Matrix: (Units=1/GPa)
#
#
# Indices 1 2 3 4 5 6 
#
# 1 0.010955 -0.003931 0.002143 0.000072 -0.003398 -0.009123
# 2 -0.003931 0.011176 -0.002038 0.002029 0.001791 0.003030
# 3 0.002143 -0.002038 0.010191 -0.001658 0.003125 -0.007366
# 4 0.000072 0.002029 -0.001658 0.028716 -0.021036 0.002657
# 5 -0.003398 0.001791 0.003125 -0.021036 0.056671 -0.007147
# 6 -0.009123 0.003030 -0.007366 0.002657 -0.007147 0.045702
#
#
# Mechanical properties :
#
#
# Convention : Reuss Voigt Hill
#
# Bulk Modulus (GPa) = 40.53188 49.10280 44.81734
# Shear Modulus (GPa) = 27.88842 41.48012 34.68427
#
# Velocity S-wave (km/s) = 3.30849 4.03495 3.68964
# Velocity P-wave (km/s) = 5.52299 6.40159 5.97845
#
# Compressibility (1/GPa) = 0.02467194
#
# Stress axis : x y z
#
# Youngs Moduli (GPa) = 91.28069 89.47394 98.12154
#
# Poissons Ratio (x) = 0.35173 -0.21032
# Poissons Ratio (y) = 0.35883 0.19997
# Poissons Ratio (z) = -0.19565 0.18234
#
# Static dielectric constant tensor:
#      x y z
#    x 2.477000 -0.179130 0.343670 
#    y -0.179130 2.189220 -0.180350 
#    z 0.343670 -0.180350 2.514280 
# 
# From -- ./inp_files/54790.got.cif
#   From: 2010.05.17/outbox.cif.g08.bks.cpg/sg2_28_cif.got.tgz:54790.got - 2010.06.03 11:33:40.
