data_PCOD9050227
_publ_section_title
;
Structure prediction by ZEFSAII (Michael W. Deem and Ramdas Pophale) SiO2 
 PCOD9050227
Probable space group: P -1
;
_chemical_formula_sum "Si O2"
_cell_formula_units_Z 16
_cell_length_a 5.614950
_cell_length_b 16.173385
_cell_length_c 12.362873
_cell_angle_alpha 50.994142
_cell_angle_beta 101.052248
_cell_angle_gamma 70.050631
_cell_volume 681.400672
_symmetry_space_group_name_H-M "P -1"
_symmetry_group_IT_number 2
_symmetry_cell_setting 'triclinic'
loop_
_space_group_symop_operation_xyz
x,y,z
-x,-y,-z
loop_
_atom_site_type_symbol
_atom_site_label
_atom_site_fract_x
_atom_site_fract_y
_atom_site_fract_z
Si Si1 0.582064 0.785354 0.286316
Si Si2 0.669073 0.125220 0.206857
Si Si3 0.416216 0.447917 0.435030
Si Si4 0.289788 0.331842 0.829772
Si Si5 0.171942 0.591530 0.634938
Si Si6 0.660995 0.019323 0.718108
Si Si7 0.427461 0.145137 0.383249
Si Si8 0.862908 0.429381 0.102091
O O1 0.506843 0.687003 0.397732
O O2 0.595388 0.776703 0.165346
O O3 0.364587 0.927414 0.207581
O O4 0.915307 0.704711 0.438887
O O5 0.655405 0.142493 0.321388
O O6 0.517518 0.047041 0.241775
O O7 0.437809 0.263825 0.011616
O O8 0.995682 0.063699 0.231531
O O9 0.500000 0.500000 0.500000
O O10 0.557634 0.398885 0.366654
O O11 0.071278 0.572136 0.280901
O O12 0.336376 0.444232 0.718020
O O13 0.090596 0.581419 0.755502
O O14 0.483981 0.144412 0.516015
O O15 0.089308 0.272499 0.215581
O O16 0.500000 0.000000 0.500000
O O17 0.500000 0.500000 0.000000
O O18 0.000000 0.500000 0.000000
#
# Coordination Sequence:
#
# PCOD9050227 Si02
#       8
#     2   2   2   2   2   2   2   2
#     4  11  23  41  67 100 139 180 238 281 351 423
#     4  11  27  44  70  98 137 180 240 291 353 407
#     4  11  21  38  69  97 133 182 232 275 345 425
#     4  11  24  41  64 103 139 181 225 296 352 423
#     4  11  23  42  68  98 138 184 228 283 360 428
#     4  11  26  46  70  99 130 188 239 288 342 427
#     4  10  24  49  74 100 140 196 243 289 356 446
#     4  12  29  46  72 113 148 181 237 313 367 411
#
# _framework density 23.481047
#
# number of rings (size 3 to 8) (size 9 to 14) (size 15 to 20)
#    0.000    1.000    3.750    1.875    8.750    6.000 
#    0.000    0.000    0.000    0.000    0.000    0.000 
#    0.000    0.000    0.000    0.000    0.000    0.000 
#
# Total GULP energy -89115.222792 kJ/mol
# GULP energy per Si atom -5569.701425 kJ/mol
# Density = 2.342760 g / cm^3
# Si number density = 23.481047 Si / 1000 Ang^3
#
#
#
# Elastic Constant Matrix: (Units=GPa)
#
#
# Indices 1 2 3 4 5 6 
#
# 1 96.2457 14.1632 18.1526 -15.4694 5.2631 -25.2636
# 2 14.1632 73.9197 -7.2691 -5.1607 -6.5270 -17.5773
# 3 18.1526 -7.2691 90.0693 -7.6400 -0.4456 -14.0702
# 4 -15.4694 -5.1607 -7.6400 41.6887 -17.9105 1.6713
# 5 5.2631 -6.5270 -0.4456 -17.9105 48.4773 -11.9058
# 6 -25.2636 -17.5773 -14.0702 1.6713 -11.9058 50.2027
#
#
#
# Elastic Compliance Matrix: (Units=1/GPa)
#
#
# Indices 1 2 3 4 5 6 
#
# 1 0.013091 -0.000602 -0.001256 0.005130 0.001932 0.006312
# 2 -0.000602 0.016603 0.003073 0.004629 0.005910 0.007619
# 3 -0.001256 0.003073 0.012619 0.003344 0.003028 0.004587
# 4 0.005130 0.004629 0.003344 0.032809 0.014030 0.007374
# 5 0.001932 0.005910 0.003028 0.014030 0.028953 0.010289
# 6 0.006312 0.007619 0.004587 0.007374 0.010289 0.029244
#
#
# Mechanical properties :
#
#
# Convention : Reuss Voigt Hill
#
# Bulk Modulus (GPa) = 22.34995 34.48090 28.41542
# Shear Modulus (GPa) = 34.29300 43.75294 39.02297
#
# Velocity S-wave (km/s) = 3.82574 4.32131 4.08105
# Velocity P-wave (km/s) = 5.39017 6.29403 5.85955
#
# Compressibility (1/GPa) = 0.04474283
#
# Stress axis : x y z
#
# Youngs Moduli (GPa) = 76.38563 60.23189 79.24530
#
# Poissons Ratio (x) = 0.03627 0.09955
# Poissons Ratio (y) = 0.04600 -0.24355
# Poissons Ratio (z) = 0.09596 -0.18511
#
# Static dielectric constant tensor:
#      x y z
#    x 5.035570 0.464820 0.148470 
#    y 0.464820 2.072950 0.042210 
#    z 0.148470 0.042210 1.834310 
# 
# From -- ./inp_files/285787.got.cif
#   From: 2010.05.17/outbox.cif.g08.bks.cpg/sg2_143_cif.got.tgz:285787.got - 2010.06.03 11:33:40.
