data_PCOD9050488
_publ_section_title
;
Structure prediction by ZEFSAII (Michael W. Deem and Ramdas Pophale) SiO2 
 PCOD9050488
Probable space group: P -1
;
_chemical_formula_sum "Si O2"
_cell_formula_units_Z 14
_cell_length_a 4.973431
_cell_length_b 15.564044
_cell_length_c 16.264926
_cell_angle_alpha 141.754367
_cell_angle_beta 79.557980
_cell_angle_gamma 121.389552
_cell_volume 600.303846
_symmetry_space_group_name_H-M "P -1"
_symmetry_group_IT_number 2
_symmetry_cell_setting 'triclinic'
loop_
_space_group_symop_operation_xyz
x,y,z
-x,-y,-z
loop_
_atom_site_type_symbol
_atom_site_label
_atom_site_fract_x
_atom_site_fract_y
_atom_site_fract_z
Si Si1 0.695763 0.159209 0.855998
Si Si2 0.138735 0.769365 0.524014
Si Si3 0.718315 0.741086 0.747220
Si Si4 0.445343 0.319583 0.881745
Si Si5 0.581623 0.868287 0.417059
Si Si6 0.542709 0.903627 0.999257
Si Si7 0.388014 0.602908 0.484236
O O1 0.658395 0.301930 0.926412
O O2 0.696801 0.160215 0.955585
O O3 0.036618 0.185750 0.826616
O O4 0.369416 0.969147 0.695729
O O5 0.339845 0.768645 0.434684
O O6 0.148324 0.649889 0.500452
O O7 0.743755 0.696567 0.481459
O O8 0.521336 0.682966 0.628092
O O9 0.789479 0.603243 0.659330
O O10 0.519574 0.747781 0.839750
O O11 0.069727 0.942082 0.872262
O O12 0.516651 0.263085 0.750553
O O13 0.500000 0.500000 0.000000
O O14 0.500000 0.000000 0.500000
O O15 0.000000 0.000000 0.500000
O O16 0.500000 0.000000 0.000000
#
# Coordination Sequence:
#
# PCOD9050488 Si02
#       7
#     2   2   2   2   2   2   2
#     4  12  25  45  74  98 138 184 233 274 354 420
#     4  12  23  41  71  98 133 176 232 274 344 412
#     4  10  25  42  64  99 140 175 228 284 338 397
#     4  12  27  47  71 104 139 178 229 296 349 407
#     4  12  23  43  69  98 132 171 223 285 334 408
#     4  11  25  43  71  97 141 187 229 277 345 417
#     4  11  25  42  67 101 135 178 226 286 335 398
#
# _framework density 23.321524
#
# number of rings (size 3 to 8) (size 9 to 14) (size 15 to 20)
#    0.000    0.571    4.286    3.000    6.000    3.429 
#    0.000    0.000    0.000    0.000    0.000    0.000 
#    0.000    0.000    0.000    0.000    0.000    0.000 
#
# Total GULP energy -78405.593478 kJ/mol
# GULP energy per Si atom -5600.399534 kJ/mol
# Density = 2.326844 g / cm^3
# Si number density = 23.321524 Si / 1000 Ang^3
#
#
#
# Elastic Constant Matrix: (Units=GPa)
#
#
# Indices 1 2 3 4 5 6 
#
# 1 109.1716 25.1845 19.0230 -5.6675 -17.4938 -3.5049
# 2 25.1845 111.5925 47.0066 -34.3905 -14.5084 3.3318
# 3 19.0230 47.0066 135.5516 -17.8070 -30.9231 -8.7994
# 4 -5.6675 -34.3905 -17.8070 37.7736 4.4435 -10.7470
# 5 -17.4938 -14.5084 -30.9231 4.4435 30.6798 5.1413
# 6 -3.5049 3.3318 -8.7994 -10.7470 5.1413 54.1014
#
#
#
# Elastic Compliance Matrix: (Units=1/GPa)
#
#
# Indices 1 2 3 4 5 6 
#
# 1 0.010401 -0.002025 0.000412 -0.000669 0.005449 0.000215
# 2 -0.002025 0.014250 -0.002915 0.011390 0.000879 0.000696
# 3 0.000412 -0.002915 0.010760 0.001808 0.009198 0.001441
# 4 -0.000669 0.011390 0.001808 0.039739 -0.000178 0.007460
# 5 0.005449 0.000879 0.009198 -0.000178 0.045849 -0.002598
# 6 0.000215 0.000696 0.001441 0.007460 -0.002598 0.020418
#
#
# Mechanical properties :
#
#
# Convention : Reuss Voigt Hill
#
# Bulk Modulus (GPa) = 37.94562 59.86043 48.90302
# Shear Modulus (GPa) = 31.39558 42.18440 36.78999
#
# Velocity S-wave (km/s) = 3.67305 4.25763 3.97610
# Velocity P-wave (km/s) = 5.85614 7.06351 6.48797
#
# Compressibility (1/GPa) = 0.02635350
#
# Stress axis : x y z
#
# Youngs Moduli (GPa) = 96.14899 70.17581 92.93824
#
# Poissons Ratio (x) = 0.14208 -0.03826
# Poissons Ratio (y) = 0.19467 0.27095
# Poissons Ratio (z) = -0.03958 0.20459
#
# Static dielectric constant tensor:
#      x y z
#    x 1.868790 0.000080 0.017960 
#    y 0.000080 1.881530 -0.005330 
#    z 0.017960 -0.005330 1.839930 
# 
# From -- ./inp_files/43584.got.cif
#   From: 2010.05.17/outbox.cif.g08.bks.cpg/sg2_22_cif.got.tgz:43584.got - 2010.06.03 11:33:40.
