data_PCOD9050584
_publ_section_title
;
Structure prediction by ZEFSAII (Michael W. Deem and Ramdas Pophale) SiO2 
 PCOD9050584
Probable space group: P -1
;
_chemical_formula_sum "Si O2"
_cell_formula_units_Z 16
_cell_length_a 8.674033
_cell_length_b 19.249958
_cell_length_c 5.195009
_cell_angle_alpha 119.191497
_cell_angle_beta 93.758470
_cell_angle_gamma 85.943993
_cell_volume 754.889258
_symmetry_space_group_name_H-M "P -1"
_symmetry_group_IT_number 2
_symmetry_cell_setting 'triclinic'
loop_
_space_group_symop_operation_xyz
x,y,z
-x,-y,-z
loop_
_atom_site_type_symbol
_atom_site_label
_atom_site_fract_x
_atom_site_fract_y
_atom_site_fract_z
Si Si1 0.550470 0.167630 0.826074
Si Si2 0.913999 0.184913 0.782293
Si Si3 0.879452 0.536281 0.251810
Si Si4 0.112328 0.630805 0.777476
Si Si5 0.441322 0.414805 0.780433
Si Si6 0.052249 0.091726 0.131458
Si Si7 0.423909 0.087320 0.166528
Si Si8 0.448510 0.656175 0.832388
O O1 0.730041 0.171529 0.768051
O O2 0.462478 0.125959 0.512909
O O3 0.514165 0.128451 0.021016
O O4 0.490178 0.257279 0.028509
O O5 0.987389 0.142399 0.461399
O O6 0.933358 0.281798 0.948010
O O7 0.987725 0.138985 0.956511
O O8 0.831772 0.453715 0.232278
O O9 0.739652 0.582093 0.175301
O O10 0.967616 0.598810 0.548486
O O11 0.000000 0.500000 0.000000
O O12 0.273545 0.652062 0.699208
O O13 0.454781 0.399965 0.451303
O O14 0.500000 0.500000 0.000000
O O15 0.537511 0.359902 0.890972
O O16 0.238568 0.088897 0.123037
O O17 0.000000 0.000000 0.000000
O O18 0.500000 0.000000 0.000000
#
# Coordination Sequence:
#
# PCOD9050584 Si02
#       8
#     2   2   2   2   2   2   2   2
#     4  11  24  45  68 101 136 178 222 276 337 394
#     4  11  25  45  72  99 139 180 225 276 338 403
#     4  11  25  42  64  94 134 178 228 275 337 391
#     4  10  25  43  65  95 134 179 222 276 335 395
#     4  12  24  41  68  92 128 172 227 274 329 385
#     4  12  26  46  72 104 137 176 224 272 336 409
#     4  12  25  45  71 101 138 174 220 274 334 399
#     4  11  25  44  67  96 130 175 225 274 330 392
#
# _framework density 21.195162
#
# number of rings (size 3 to 8) (size 9 to 14) (size 15 to 20)
#    0.000    0.750    1.250    5.625    5.250    5.000 
#    0.000    0.000    0.000    0.000    0.000    0.000 
#    0.000    0.000    0.000    0.000    0.000    0.000 
#
# Total GULP energy -89224.123139 kJ/mol
# GULP energy per Si atom -5576.507696 kJ/mol
# Density = 2.114692 g / cm^3
# Si number density = 21.195162 Si / 1000 Ang^3
#
#
#
# Elastic Constant Matrix: (Units=GPa)
#
#
# Indices 1 2 3 4 5 6 
#
# 1 78.9428 -17.4753 23.8816 10.4644 10.1013 -13.2245
# 2 -17.4753 87.9252 36.1362 16.4598 16.4627 12.3050
# 3 23.8816 36.1362 119.5769 14.6790 -1.5126 5.1890
# 4 10.4644 16.4598 14.6790 42.9951 1.3481 2.9640
# 5 10.1013 16.4627 -1.5126 1.3481 41.6099 -2.6833
# 6 -13.2245 12.3050 5.1890 2.9640 -2.6833 32.6938
#
#
#
# Elastic Compliance Matrix: (Units=1/GPa)
#
#
# Indices 1 2 3 4 5 6 
#
# 1 0.018707 0.007722 -0.005698 -0.005714 -0.007265 0.005487
# 2 0.007722 0.019033 -0.006487 -0.006427 -0.009640 -0.003219
# 3 -0.005698 -0.006487 0.011589 -0.000129 0.004289 -0.001339
# 4 -0.005714 -0.006427 -0.000129 0.027207 0.002908 -0.002100
# 5 -0.007265 -0.009640 0.004289 0.002908 0.029813 0.002192
# 6 0.005487 -0.003219 -0.001339 -0.002100 0.002192 0.034600
#
#
# Mechanical properties :
#
#
# Convention : Reuss Voigt Hill
#
# Bulk Modulus (GPa) = 24.75132 41.28110 33.01621
# Shear Modulus (GPa) = 30.61027 39.71993 35.16510
#
# Velocity S-wave (km/s) = 3.80440 4.33368 4.07764
# Velocity P-wave (km/s) = 5.56786 6.67533 6.14659
#
# Compressibility (1/GPa) = 0.04040189
#
# Stress axis : x y z
#
# Youngs Moduli (GPa) = 53.45688 52.54110 86.28561
#
# Poissons Ratio (x) = -0.40572 0.49167
# Poissons Ratio (y) = -0.41279 0.55975
# Poissons Ratio (z) = 0.30460 0.34085
#
# Static dielectric constant tensor:
#      x y z
#    x 1.723840 -0.029320 -0.053540 
#    y -0.029320 1.777140 -0.100530 
#    z -0.053540 -0.100530 1.640320 
# 
# From -- ./inp_files/45818.got.cif
#   From: 2010.05.17/outbox.cif.g08.bks.cpg/sg2_23_cif.got.tgz:45818.got - 2010.06.03 11:33:40.
