data_PCOD9050814
_publ_section_title
;
Structure prediction by ZEFSAII (Michael W. Deem and Ramdas Pophale) SiO2 
 PCOD9050814
Probable space group: P -1
;
_chemical_formula_sum "Si O2"
_cell_formula_units_Z 14
_cell_length_a 8.548863
_cell_length_b 16.645667
_cell_length_c 5.054205
_cell_angle_alpha 69.229961
_cell_angle_beta 79.437426
_cell_angle_gamma 54.008741
_cell_volume 543.808657
_symmetry_space_group_name_H-M "P -1"
_symmetry_group_IT_number 2
_symmetry_cell_setting 'triclinic'
loop_
_space_group_symop_operation_xyz
x,y,z
-x,-y,-z
loop_
_atom_site_type_symbol
_atom_site_label
_atom_site_fract_x
_atom_site_fract_y
_atom_site_fract_z
Si Si1 0.939024 0.663851 0.886751
Si Si2 0.303892 0.714447 0.155743
Si Si3 0.603054 0.833088 0.168802
Si Si4 0.944578 0.184095 0.408810
Si Si5 0.373302 0.328659 0.297239
Si Si6 0.326812 0.019768 0.716232
Si Si7 0.664001 0.480705 0.769407
O O1 0.848422 0.621900 0.770449
O O2 0.979526 0.742366 0.643168
O O3 0.768657 0.736950 0.060164
O O4 0.133613 0.578416 0.070215
O O5 0.141106 0.784082 0.896918
O O6 0.496875 0.685243 0.978545
O O7 0.226043 0.780012 0.371178
O O8 0.318243 0.606222 0.327666
O O9 0.558904 0.783229 0.480243
O O10 0.688304 0.898462 0.160897
O O11 0.412129 0.911985 0.967092
O O12 0.130661 0.069223 0.553677
O O13 0.380859 0.406270 0.408365
O O14 0.500000 0.000000 0.500000
O O15 0.500000 0.500000 0.000000
#
# Coordination Sequence:
#
# PCOD9050814 Si02
#       7
#     2   2   2   2   2   2   2
#     4  11  22  40  69  97 132 173 229 279 330 397
#     4  10  25  44  68  96 143 182 222 270 344 401
#     4  11  23  38  66 100 133 166 229 283 336 385
#     4  11  22  44  69  99 132 182 225 277 336 406
#     4  11  23  43  64  99 134 177 223 284 327 399
#     4  11  21  39  68  98 127 175 226 279 336 405
#     4   9  21  43  64  98 133 180 222 269 338 403
#
# _framework density 25.744351000000002
#
# number of rings (size 3 to 8) (size 9 to 14) (size 15 to 20)
#    0.000    1.429    2.857    2.143    4.000    0.571 
#    5.143    7.857    0.000    0.000    0.000    0.000 
#    0.000    0.000    0.000    0.000    0.000    0.000 
#
# Total GULP energy -78411.058201 kJ/mol
# GULP energy per Si atom -5600.789871 kJ/mol
# Density = 2.568576 g / cm^3
# Si number density = 25.744351 Si / 1000 Ang^3
#
#
#
# Elastic Constant Matrix: (Units=GPa)
#
#
# Indices 1 2 3 4 5 6 
#
# 1 121.3121 19.1087 6.5779 -9.7772 0.8920 -6.9741
# 2 19.1087 75.4405 29.0426 -12.5684 9.5386 -17.6554
# 3 6.5779 29.0426 99.0225 -12.6438 -9.9489 -1.2369
# 4 -9.7772 -12.5684 -12.6438 40.3634 0.3525 8.1775
# 5 0.8920 9.5386 -9.9489 0.3525 33.5194 -5.4534
# 6 -6.9741 -17.6554 -1.2369 8.1775 -5.4534 35.3006
#
#
#
# Elastic Compliance Matrix: (Units=1/GPa)
#
#
# Indices 1 2 3 4 5 6 
#
# 1 0.008686 -0.002007 0.000251 0.001461 0.000473 0.000456
# 2 -0.002007 0.018721 -0.005568 0.002153 -0.005748 0.007385
# 3 0.000251 -0.005568 0.012519 0.002641 0.004916 -0.002149
# 4 0.001461 0.002153 0.002641 0.027670 -0.000989 -0.005104
# 5 0.000473 -0.005748 0.004916 -0.000989 0.033378 0.002777
# 6 0.000456 0.007385 -0.002149 -0.005104 0.002777 0.033648
#
#
# Mechanical properties :
#
#
# Convention : Reuss Voigt Hill
#
# Bulk Modulus (GPa) = 39.55617 45.02596 42.29106
# Shear Modulus (GPa) = 31.70691 37.90640 34.80665
#
# Velocity S-wave (km/s) = 3.51323 3.84137 3.68096
# Velocity P-wave (km/s) = 5.64406 6.09938 5.87613
#
# Compressibility (1/GPa) = 0.02528051
#
# Stress axis : x y z
#
# Youngs Moduli (GPa) = 115.12566 53.41616 79.87639
#
# Poissons Ratio (x) = 0.10719 -0.02008
# Poissons Ratio (y) = 0.23101 0.44473
# Poissons Ratio (z) = -0.02894 0.29741
#
# Static dielectric constant tensor:
#      x y z
#    x 2.050860 0.012240 0.064820 
#    y 0.012240 2.099430 -0.041050 
#    z 0.064820 -0.041050 2.029700 
# 
# From -- ./inp_files/46575.got.cif
#   From: 2010.05.17/outbox.cif.g08.bks.cpg/sg2_24_cif.got.tgz:46575.got - 2010.06.03 11:33:40.
