data_PCOD9050516
_publ_section_title
;
Structure prediction by ZEFSAII (Michael W. Deem and Ramdas Pophale) SiO2 
 PCOD9050516
Probable space group: P -1
;
_chemical_formula_sum "Si O2"
_cell_formula_units_Z 14
_cell_length_a 26.677784
_cell_length_b 9.005268
_cell_length_c 6.374418
_cell_angle_alpha 71.333856
_cell_angle_beta 122.070162
_cell_angle_gamma 150.901502
_cell_volume 591.369291
_symmetry_space_group_name_H-M "P -1"
_symmetry_group_IT_number 2
_symmetry_cell_setting 'triclinic'
loop_
_space_group_symop_operation_xyz
x,y,z
-x,-y,-z
loop_
_atom_site_type_symbol
_atom_site_label
_atom_site_fract_x
_atom_site_fract_y
_atom_site_fract_z
Si Si1 0.394290 0.880586 0.331405
Si Si2 0.084803 0.828269 0.433395
Si Si3 0.435012 0.190568 0.898467
Si Si4 0.178062 0.194318 0.076625
Si Si5 0.072775 0.256012 0.864849
Si Si6 0.303744 0.943971 0.316508
Si Si7 0.678392 0.672649 0.009392
O O1 0.275323 0.506039 0.307138
O O2 0.408837 0.063774 0.429008
O O3 0.500000 0.000000 0.500000
O O4 0.379862 0.939986 0.054721
O O5 0.000000 0.500000 0.500000
O O6 0.022283 0.837905 0.388362
O O7 0.094724 0.886910 0.176503
O O8 0.220824 0.102295 0.685230
O O9 0.323581 0.986081 0.591149
O O10 0.500000 0.500000 0.000000
O O11 0.545993 0.349552 0.967210
O O12 0.113411 0.201556 0.841336
O O13 0.263673 0.307594 0.046421
O O14 0.182999 0.603762 0.076013
O O15 0.000000 0.000000 0.000000
O O16 0.325471 0.166510 0.179731
#
# Coordination Sequence:
#
# PCOD9050516 Si02
#       7
#     2   2   2   2   2   2   2
#     4  11  24  44  68 101 142 182 231 294 351 415
#     4  11  23  45  74 100 138 185 240 287 353 423
#     4  12  27  44  74 103 143 193 237 288 351 426
#     4  10  25  42  68 103 143 176 231 300 346 416
#     4   9  21  47  69 101 141 180 227 296 348 413
#     4  11  24  44  71 102 142 185 236 290 356 416
#     4  12  25  42  71 107 139 187 239 290 352 416
#
# _framework density 23.673870999999998
#
# number of rings (size 3 to 8) (size 9 to 14) (size 15 to 20)
#    0.000    1.143    2.857    2.143    4.000    6.857 
#    0.000    0.000    0.000    0.000    0.000    0.000 
#    0.000    0.000    0.000    0.000    0.000    0.000 
#
# Total GULP energy -78003.331197 kJ/mol
# GULP energy per Si atom -5571.666514 kJ/mol
# Density = 2.361999 g / cm^3
# Si number density = 23.673871 Si / 1000 Ang^3
#
#
#
# Elastic Constant Matrix: (Units=GPa)
#
#
# Indices 1 2 3 4 5 6 
#
# 1 128.2637 12.1365 -7.4730 -5.8103 12.9580 -4.2959
# 2 12.1365 102.2657 15.8504 -25.0202 -1.9548 6.8615
# 3 -7.4730 15.8504 77.0081 -4.8068 12.5563 -3.7259
# 4 -5.8103 -25.0202 -4.8068 34.9653 -1.8290 12.8845
# 5 12.9580 -1.9548 12.5563 -1.8290 36.8332 -6.4335
# 6 -4.2959 6.8615 -3.7259 12.8845 -6.4335 33.6737
#
#
#
# Elastic Compliance Matrix: (Units=1/GPa)
#
#
# Indices 1 2 3 4 5 6 
#
# 1 0.008407 -0.001331 0.001705 0.000206 -0.003461 0.000792
# 2 -0.001331 0.013930 -0.002838 0.012287 0.001431 -0.007750
# 3 0.001705 -0.002838 0.014672 -0.000608 -0.005503 0.001600
# 4 0.000206 0.012287 -0.000608 0.044573 -0.000438 -0.019683
# 5 -0.003461 0.001431 -0.005503 -0.000438 0.031131 0.004773
# 6 0.000792 -0.007750 0.001600 -0.019683 0.004773 0.039997
#
#
# Mechanical properties :
#
#
# Convention : Reuss Voigt Hill
#
# Bulk Modulus (GPa) = 31.16977 38.72946 34.94962
# Shear Modulus (GPa) = 29.70338 40.22936 34.96637
#
# Velocity S-wave (km/s) = 3.54600 4.12675 3.84735
# Velocity P-wave (km/s) = 5.47361 6.25314 5.87632
#
# Compressibility (1/GPa) = 0.03208237
#
# Stress axis : x y z
#
# Youngs Moduli (GPa) = 118.94478 71.78878 68.15734
#
# Poissons Ratio (x) = 0.09555 -0.11623
# Poissons Ratio (y) = 0.15831 0.19341
# Poissons Ratio (z) = -0.20284 0.20371
#
# Static dielectric constant tensor:
#      x y z
#    x 1.963090 -0.005830 -0.016930 
#    y -0.005830 1.939570 0.042650 
#    z -0.016930 0.042650 1.989170 
# 
# From -- ./inp_files/37004.got.cif
#   From: 2010.05.17/outbox.cif.g08.bks.cpg/sg2_19_cif.got.tgz:37004.got - 2010.06.03 11:33:40.
