data_PCOD9050015
_publ_section_title
;
Structure prediction by ZEFSAII (Michael W. Deem and Ramdas Pophale) SiO2 
 PCOD9050015
Probable space group: P -1
;
_chemical_formula_sum "Si O2"
_cell_formula_units_Z 16
_cell_length_a 11.931303
_cell_length_b 5.808063
_cell_length_c 10.745608
_cell_angle_alpha 97.251659
_cell_angle_beta 121.114028
_cell_angle_gamma 86.874192
_cell_volume 632.372614
_symmetry_space_group_name_H-M "P -1"
_symmetry_group_IT_number 2
_symmetry_cell_setting 'triclinic'
loop_
_space_group_symop_operation_xyz
x,y,z
-x,-y,-z
loop_
_atom_site_type_symbol
_atom_site_label
_atom_site_fract_x
_atom_site_fract_y
_atom_site_fract_z
Si Si1 0.243253 0.755858 0.563939
Si Si2 0.646175 0.595813 0.563049
Si Si3 0.927722 0.369030 0.337828
Si Si4 0.429265 0.243944 0.941724
Si Si5 0.740706 0.279874 0.814704
Si Si6 0.172677 0.356918 0.919242
Si Si7 0.447586 0.104437 0.672145
Si Si8 0.930506 0.030657 0.740841
O O1 0.265248 0.502127 0.505482
O O2 0.183892 0.783017 0.667725
O O3 0.141322 0.872192 0.417995
O O4 0.392395 0.848081 0.645456
O O5 0.500000 0.500000 0.500000
O O6 0.720538 0.491516 0.718023
O O7 0.610891 0.838450 0.494257
O O8 0.859810 0.561340 0.231829
O O9 0.000000 0.500000 0.500000
O O10 0.016801 0.216333 0.288603
O O11 0.315278 0.251394 0.980143
O O12 0.390755 0.224450 0.772097
O O13 0.500000 0.500000 0.000000
O O14 0.500000 0.000000 0.000000
O O15 0.599542 0.174661 0.763524
O O16 0.823402 0.072013 0.788571
O O17 0.815877 0.411458 0.976569
O O18 0.055447 0.180904 0.869764
#
# Coordination Sequence:
#
# PCOD9050015 Si02
#       8
#     2   2   2   2   2   2   2   2
#     4  11  24  42  70 109 143 188 257 319 394 454
#     4   9  22  42  68 103 143 196 248 311 380 463
#     4  12  27  47  75 110 149 200 261 326 393 469
#     4  12  29  49  79 118 159 206 263 332 409 479
#     4  10  24  48  72 110 156 205 262 311 400 474
#     4  12  26  49  76 109 158 200 258 322 395 479
#     4  11  24  44  75 108 152 197 254 328 391 470
#     4  11  26  45  72 107 146 205 260 321 391 469
#
# _framework density 25.301539999999999
#
# number of rings (size 3 to 8) (size 9 to 14) (size 15 to 20)
#    0.000    1.000    2.500    2.250    8.750    5.000 
#    0.000    3.750    0.000    0.000    0.000    0.000 
#    0.000    0.000    0.000    0.000    0.000    0.000 
#
# Total GULP energy -89340.218760 kJ/mol
# GULP energy per Si atom -5583.763672 kJ/mol
# Density = 2.524395 g / cm^3
# Si number density = 25.301540 Si / 1000 Ang^3
#
#
#
# Elastic Constant Matrix: (Units=GPa)
#
#
# Indices 1 2 3 4 5 6 
#
# 1 130.2745 48.4622 14.7451 28.8020 -2.8326 -1.5123
# 2 48.4622 75.6519 19.0567 11.7082 16.5099 -2.0277
# 3 14.7451 19.0567 86.4368 9.3128 0.4342 8.8308
# 4 28.8020 11.7082 9.3128 42.8933 6.8325 4.4569
# 5 -2.8326 16.5099 0.4342 6.8325 30.4824 7.3267
# 6 -1.5123 -2.0277 8.8308 4.4569 7.3267 51.6435
#
#
#
# Elastic Compliance Matrix: (Units=1/GPa)
#
#
# Indices 1 2 3 4 5 6 
#
# 1 0.012703 -0.008847 0.000599 -0.007425 0.007757 -0.000538
# 2 -0.008847 0.022730 -0.004029 0.002579 -0.014410 0.003144
# 3 0.000599 -0.004029 0.012855 -0.002334 0.003201 -0.002591
# 4 -0.007425 0.002579 -0.002334 0.029555 -0.008421 -0.001073
# 5 0.007757 -0.014410 0.003201 -0.008421 0.044737 -0.006506
# 6 -0.000538 0.003144 -0.002591 -0.001073 -0.006506 0.020930
#
#
# Mechanical properties :
#
#
# Convention : Reuss Voigt Hill
#
# Bulk Modulus (GPa) = 42.12958 50.76570 46.44764
# Shear Modulus (GPa) = 28.41304 39.01046 33.71175
#
# Velocity S-wave (km/s) = 3.35472 3.93086 3.65416
# Velocity P-wave (km/s) = 5.62962 6.38044 6.01676
#
# Compressibility (1/GPa) = 0.02373629
#
# Stress axis : x y z
#
# Youngs Moduli (GPa) = 78.71990 43.99417 77.78862
#
# Poissons Ratio (x) = 0.38921 -0.04662
# Poissons Ratio (y) = 0.69642 0.31340
# Poissons Ratio (z) = -0.04718 0.17725
#
# Static dielectric constant tensor:
#      x y z
#    x 2.120800 -0.054110 0.114430 
#    y -0.054110 2.199850 -0.078620 
#    z 0.114430 -0.078620 2.182220 
# 
# From -- ./inp_files/410632.got.cif
#   From: 2010.05.17/outbox.cif.g08.bks.cpg/sg2_206_cif.got.tgz:410632.got - 2010.06.03 11:33:40.
