data_PCOD9050034
_publ_section_title
;
Structure prediction by ZEFSAII (Michael W. Deem and Ramdas Pophale) SiO2 
 PCOD9050034
Probable space group: P -1
;
_chemical_formula_sum "Si O2"
_cell_formula_units_Z 11
_cell_length_a 11.663408
_cell_length_b 15.162263
_cell_length_c 5.338554
_cell_angle_alpha 65.904291
_cell_angle_beta 59.845987
_cell_angle_gamma 30.103401
_cell_volume 408.687796
_symmetry_space_group_name_H-M "P -1"
_symmetry_group_IT_number 2
_symmetry_cell_setting 'triclinic'
loop_
_space_group_symop_operation_xyz
x,y,z
-x,-y,-z
loop_
_atom_site_type_symbol
_atom_site_label
_atom_site_fract_x
_atom_site_fract_y
_atom_site_fract_z
Si Si1 0.000000 0.000000 0.500000
Si Si2 0.887826 0.240028 0.725278
Si Si3 0.481061 0.806573 0.227682
Si Si4 0.917342 0.474862 0.833357
Si Si5 0.290463 0.092417 0.805944
Si Si6 0.454035 0.391111 0.251561
O O1 0.018141 0.887079 0.447857
O O2 0.276820 0.860645 0.267398
O O3 0.714732 0.434247 0.598694
O O4 0.105571 0.146256 0.765735
O O5 0.709726 0.286180 0.048305
O O6 0.496066 0.747586 0.549827
O O7 0.754604 0.626718 0.038468
O O8 0.395756 0.962947 0.060110
O O9 0.720070 0.517942 0.895745
O O10 0.000000 0.500000 0.500000
O O11 0.145504 0.269778 0.876012
O O12 0.500000 0.000000 0.500000
#
# Coordination Sequence:
#
# PCOD9050034 Si02
#       6
#     1   2   2   2   2   2
#     4  12  26  42  76 114 140 194 250 302 370 440
#     4  10  24  48  75 105 153 192 245 310 366 438
#     4  12  26  42  77 108 143 192 248 304 365 441
#     4  11  24  48  72 103 155 192 240 305 372 438
#     4  11  25  48  73 108 151 196 244 305 371 436
#     4  10  24  48  73 108 144 197 246 304 373 432
#
# _framework density 26.915412
#
# number of rings (size 3 to 8) (size 9 to 14) (size 15 to 20)
#    0.000    1.091    3.636    1.091    5.091    2.909 
#    0.000    1.818    0.000    0.000    0.000    0.000 
#    0.000    0.000    0.000    0.000    0.000    0.000 
#
# Total GULP energy -61394.628342 kJ/mol
# GULP energy per Si atom -5581.329849 kJ/mol
# Density = 2.685415 g / cm^3
# Si number density = 26.915412 Si / 1000 Ang^3
#
#
#
# Elastic Constant Matrix: (Units=GPa)
#
#
# Indices 1 2 3 4 5 6 
#
# 1 166.0701 68.9929 36.2399 25.5422 -13.4163 -1.0921
# 2 68.9929 252.1038 82.9882 11.4198 -7.1275 13.6611
# 3 36.2399 82.9882 116.3563 10.7785 -29.4310 -11.6151
# 4 25.5422 11.4198 10.7785 58.6986 -3.1838 -4.5149
# 5 -13.4163 -7.1275 -29.4310 -3.1838 36.9892 26.8696
# 6 -1.0921 13.6611 -11.6151 -4.5149 26.8696 50.5401
#
#
#
# Elastic Compliance Matrix: (Units=1/GPa)
#
#
# Indices 1 2 3 4 5 6 
#
# 1 0.007421 -0.001671 -0.000281 -0.002793 0.002752 -0.001165
# 2 -0.001671 0.005867 -0.004250 0.000146 -0.001575 -0.001748
# 3 -0.000281 -0.004250 0.014700 -0.001249 0.012161 -0.002056
# 4 -0.002793 0.000146 -0.001249 0.018521 -0.002126 0.002398
# 5 0.002752 -0.001575 0.012161 -0.002126 0.056986 -0.027207
# 6 -0.001165 -0.001748 -0.002056 0.002398 -0.027207 0.034440
#
#
# Mechanical properties :
#
#
# Convention : Reuss Voigt Hill
#
# Bulk Modulus (GPa) = 64.17233 101.21915 82.69574
# Shear Modulus (GPa) = 32.14739 52.33285 42.24012
#
# Velocity S-wave (km/s) = 3.45974 4.41426 3.96582
# Velocity P-wave (km/s) = 6.31298 7.97928 7.19453
#
# Compressibility (1/GPa) = 0.01558304
#
# Stress axis : x y z
#
# Youngs Moduli (GPa) = 134.74647 170.45714 68.02942
#
# Poissons Ratio (x) = 0.28483 0.01912
# Poissons Ratio (y) = 0.22516 0.28913
# Poissons Ratio (z) = 0.03788 0.72446
#
# Static dielectric constant tensor:
#      x y z
#    x 2.144870 0.012040 0.035940 
#    y 0.012040 2.159740 -0.023580 
#    z 0.035940 -0.023580 2.103940 
# 
# From -- ./inp_files/75637.got.cif
#   From: 2010.05.17/outbox.cif.g08.bks.cpg/sg2_38_cif.got.tgz:75637.got - 2010.06.03 11:33:40.
