data_PCOD9050750
_publ_section_title
;
Structure prediction by ZEFSAII (Michael W. Deem and Ramdas Pophale) SiO2 
 PCOD9050750
Probable space group: P -1
;
_chemical_formula_sum "Si O2"
_cell_formula_units_Z 12
_cell_length_a 7.099916
_cell_length_b 17.406358
_cell_length_c 6.588639
_cell_angle_alpha 50.803071
_cell_angle_beta 121.638457
_cell_angle_gamma 127.118980
_cell_volume 489.478412
_symmetry_space_group_name_H-M "P -1"
_symmetry_group_IT_number 2
_symmetry_cell_setting 'triclinic'
loop_
_space_group_symop_operation_xyz
x,y,z
-x,-y,-z
loop_
_atom_site_type_symbol
_atom_site_label
_atom_site_fract_x
_atom_site_fract_y
_atom_site_fract_z
Si Si1 0.918879 0.768691 0.540813
Si Si2 0.303144 0.922188 0.782539
Si Si3 0.104652 0.427823 0.899684
Si Si4 0.494612 0.575953 0.174791
Si Si5 0.403450 0.707764 0.225852
Si Si6 0.839793 0.062149 0.884169
O O1 0.975082 0.671674 0.817860
O O2 0.631211 0.727179 0.465989
O O3 0.081168 0.875986 0.579150
O O4 0.014535 0.811026 0.300258
O O5 0.564625 0.015993 0.720233
O O6 0.362491 0.817023 0.033525
O O7 0.205022 0.954362 0.875505
O O8 0.264174 0.526330 0.973340
O O9 0.279527 0.410820 0.860628
O O10 0.843748 0.399906 0.694470
O O11 0.500000 0.500000 0.500000
O O12 0.491448 0.682516 0.099631
O O13 0.000000 0.000000 0.000000
#
# Coordination Sequence:
#
# PCOD9050750 Si02
#       6
#     2   2   2   2   2   2
#     4  11  23  43  66  98 131 173 214 269 324 382
#     4  10  25  44  64  98 133 170 221 267 321 388
#     4  10  25  44  64  98 133 170 221 267 321 388
#     4  11  23  46  68  95 134 171 219 269 323 389
#     4  11  23  43  66  98 131 173 214 269 324 382
#     4  11  23  46  68  95 134 171 219 269 323 389
#
# _framework density 24.515891
#
# number of rings (size 3 to 8) (size 9 to 14) (size 15 to 20)
#    0.000    1.333    3.333    1.000    4.667    1.333 
#   12.000    0.000    0.000    0.000    0.000    0.000 
#    0.000    0.000    0.000    0.000    0.000    0.000 
#
# Total GULP energy -67022.183369 kJ/mol
# GULP energy per Si atom -5585.181947 kJ/mol
# Density = 2.446009 g / cm^3
# Si number density = 24.515891 Si / 1000 Ang^3
#
#
#
# Elastic Constant Matrix: (Units=GPa)
#
#
# Indices 1 2 3 4 5 6 
#
# 1 161.4597 63.2382 39.0498 18.7307 -4.2171 11.8562
# 2 63.2382 99.8529 11.9040 30.2821 -1.2594 25.5947
# 3 39.0498 11.9040 41.7878 14.6592 -0.1229 9.5641
# 4 18.7307 30.2821 14.6592 55.5215 8.2990 15.7855
# 5 -4.2171 -1.2594 -0.1229 8.2990 34.9747 7.0316
# 6 11.8562 25.5947 9.5641 15.7855 7.0316 62.6391
#
#
#
# Elastic Compliance Matrix: (Units=1/GPa)
#
#
# Indices 1 2 3 4 5 6 
#
# 1 0.010675 -0.006669 -0.009124 0.001962 0.000232 0.001577
# 2 -0.006669 0.017194 0.005090 -0.007451 0.002597 -0.004954
# 3 -0.009124 0.005090 0.034716 -0.008056 0.001888 -0.003835
# 4 0.001962 -0.007451 -0.008056 0.024872 -0.005613 -0.001735
# 5 0.000232 0.002597 0.001888 -0.005613 0.030742 -0.003430
# 6 0.001577 -0.004954 -0.003835 -0.001735 -0.003430 0.019098
#
#
# Mechanical properties :
#
#
# Convention : Reuss Voigt Hill
#
# Bulk Modulus (GPa) = 24.28508 59.05383 41.66945
# Shear Modulus (GPa) = 28.99716 43.22096 36.10906
#
# Velocity S-wave (km/s) = 3.44290 4.20334 3.84198
# Velocity P-wave (km/s) = 5.07268 6.90635 6.05928
#
# Compressibility (1/GPa) = 0.04117755
#
# Stress axis : x y z
#
# Youngs Moduli (GPa) = 93.67688 58.15968 28.80499
#
# Poissons Ratio (x) = 0.38788 0.26283
# Poissons Ratio (y) = 0.62475 -0.14661
# Poissons Ratio (z) = 0.85473 -0.29601
#
# Static dielectric constant tensor:
#      x y z
#    x 1.933030 0.053140 0.020650 
#    y 0.053140 1.971250 0.036450 
#    z 0.020650 0.036450 2.069070 
# 
# From -- ./inp_files/7232.got.cif
#   From: 2010.05.17/outbox.cif.g08.bks.cpg/sg2_4_cif.got.tgz:7232.got - 2010.06.03 11:33:40.
