data_PCOD9050471
_publ_section_title
;
Structure prediction by ZEFSAII (Michael W. Deem and Ramdas Pophale) SiO2 
 PCOD9050471
Probable space group: P -1
;
_chemical_formula_sum "Si O2"
_cell_formula_units_Z 16
_cell_length_a 11.801303
_cell_length_b 12.743517
_cell_length_c 8.572167
_cell_angle_alpha 49.695073
_cell_angle_beta 54.150474
_cell_angle_gamma 88.143725
_cell_volume 659.968744
_symmetry_space_group_name_H-M "P -1"
_symmetry_group_IT_number 2
_symmetry_cell_setting 'triclinic'
loop_
_space_group_symop_operation_xyz
x,y,z
-x,-y,-z
loop_
_atom_site_type_symbol
_atom_site_label
_atom_site_fract_x
_atom_site_fract_y
_atom_site_fract_z
Si Si1 0.234102 0.666196 0.399748
Si Si2 0.862629 0.581900 0.775561
Si Si3 0.796136 0.050673 0.381924
Si Si4 0.184539 0.308169 0.812482
Si Si5 0.631593 0.228214 0.472964
Si Si6 0.397158 0.613549 0.080466
Si Si7 0.676407 0.837985 0.385060
Si Si8 0.687140 0.718229 0.947794
O O1 0.201301 0.482308 0.612659
O O2 0.331924 0.766596 0.378268
O O3 0.347704 0.730199 0.091131
O O4 0.055582 0.642856 0.554299
O O5 0.771831 0.526802 0.734570
O O6 0.830901 0.713695 0.744667
O O7 0.753996 0.420228 0.130640
O O8 0.695517 0.134169 0.413552
O O9 0.780478 0.991832 0.271354
O O10 0.721813 0.894624 0.708177
O O11 0.990849 0.179512 0.140357
O O12 0.220213 0.226305 0.717604
O O13 0.301441 0.319063 0.848257
O O14 0.436914 0.149288 0.666217
O O15 0.533483 0.701961 0.748843
O O16 0.504229 0.585147 0.147962
#
# Coordination Sequence:
#
# PCOD9050471 Si02
#       8
#     2   2   2   2   2   2   2   2
#     4  12  24  40  70 104 132 171 224 276 333 384
#     4  11  22  43  66 100 134 172 220 272 332 390
#     4  11  24  46  66  97 138 176 218 269 334 398
#     4  12  24  42  69 101 134 175 222 272 329 397
#     4  11  22  44  70  99 132 173 223 275 329 393
#     4  10  25  42  63 100 135 175 215 279 325 388
#     4  10  25  44  66  97 135 181 220 268 330 397
#     4  11  24  43  68  99 134 174 220 272 334 390
#
# _framework density 24.243573000000001
#
# number of rings (size 3 to 8) (size 9 to 14) (size 15 to 20)
#    0.000    1.000    2.500    3.750    7.000    1.000 
#    0.000   10.625    0.000    0.000    0.000    0.000 
#    0.000    0.000    0.000    0.000    0.000    0.000 
#
# Total GULP energy -89575.697481 kJ/mol
# GULP energy per Si atom -5598.481093 kJ/mol
# Density = 2.418839 g / cm^3
# Si number density = 24.243573 Si / 1000 Ang^3
#
#
#
# Elastic Constant Matrix: (Units=GPa)
#
#
# Indices 1 2 3 4 5 6 
#
# 1 120.1504 26.6533 12.0482 9.5967 -17.1823 16.6934
# 2 26.6533 90.8243 -5.9386 19.7855 -8.0181 12.0970
# 3 12.0482 -5.9386 33.8768 6.1210 -11.5280 -2.1578
# 4 9.5967 19.7855 6.1210 40.5428 -1.4654 -0.1611
# 5 -17.1823 -8.0181 -11.5280 -1.4654 20.1332 8.1926
# 6 16.6934 12.0970 -2.1578 -0.1611 8.1926 48.7232
#
#
#
# Elastic Compliance Matrix: (Units=1/GPa)
#
#
# Indices 1 2 3 4 5 6 
#
# 1 0.011043 -0.001315 -0.000619 -0.001517 0.010579 -0.005268
# 2 -0.001315 0.015265 0.007993 -0.007970 0.010927 -0.004849
# 3 -0.000619 0.007993 0.041992 -0.009103 0.027923 -0.004638
# 4 -0.001517 -0.007970 -0.009103 0.029977 -0.009009 0.003709
# 5 0.010579 0.010927 0.027923 -0.009009 0.086381 -0.019656
# 6 -0.005268 -0.004849 -0.004638 0.003709 -0.019656 0.026645
#
#
# Mechanical properties :
#
#
# Convention : Reuss Voigt Hill
#
# Bulk Modulus (GPa) = 12.43502 34.48639 23.46070
# Shear Modulus (GPa) = 22.12479 36.01907 29.07193
#
# Velocity S-wave (km/s) = 3.02421 3.85868 3.46665
# Velocity P-wave (km/s) = 4.16351 5.84024 5.07165
#
# Compressibility (1/GPa) = 0.08041807
#
# Stress axis : x y z
#
# Youngs Moduli (GPa) = 90.55712 65.50720 23.81429
#
# Poissons Ratio (x) = 0.08614 0.01475
# Poissons Ratio (y) = 0.11908 -0.19035
# Poissons Ratio (z) = 0.05608 -0.52362
#
# Static dielectric constant tensor:
#      x y z
#    x 1.920610 0.032580 0.073680 
#    y 0.032580 1.921830 0.009970 
#    z 0.073680 0.009970 1.994860 
# 
# From -- ./inp_files/262010.got.cif
#   From: 2010.05.17/outbox.cif.g08.bks.cpg/sg2_132_cif.got.tgz:262010.got - 2010.06.03 11:33:40.
