data_PCOD9050128
_publ_section_title
;
Structure prediction by ZEFSAII (Michael W. Deem and Ramdas Pophale) SiO2 
 PCOD9050128
Probable space group: P -1
;
_chemical_formula_sum "Si O2"
_cell_formula_units_Z 14
_cell_length_a 19.242006
_cell_length_b 4.884031
_cell_length_c 6.078742
_cell_angle_alpha 92.089443
_cell_angle_beta 98.685122
_cell_angle_gamma 80.357049
_cell_volume 556.705067
_symmetry_space_group_name_H-M "P -1"
_symmetry_group_IT_number 2
_symmetry_cell_setting 'triclinic'
loop_
_space_group_symop_operation_xyz
x,y,z
-x,-y,-z
loop_
_atom_site_type_symbol
_atom_site_label
_atom_site_fract_x
_atom_site_fract_y
_atom_site_fract_z
Si Si1 0.775991 0.701666 0.004132
Si Si2 0.578195 0.690457 0.215426
Si Si3 0.416847 0.844084 0.091172
Si Si4 0.075134 0.518851 0.146631
Si Si5 0.322217 0.573384 0.377533
Si Si6 0.925049 0.968368 0.569608
Si Si7 0.777665 0.206953 0.291084
O O1 0.769236 0.520473 0.212785
O O2 0.758208 0.020021 0.075737
O O3 0.857888 0.622612 0.965549
O O4 0.728793 0.592877 0.790714
O O5 0.577445 0.386427 0.105605
O O6 0.625027 0.642612 0.453563
O O7 0.606715 0.867095 0.038506
O O8 0.496948 0.834605 0.220595
O O9 0.368744 0.741477 0.251750
O O10 0.077387 0.344983 0.369020
O O11 0.081854 0.834941 0.212341
O O12 0.000000 0.500000 0.000000
O O13 0.272778 0.784469 0.522545
O O14 0.858201 0.084872 0.390640
O O15 0.000000 0.000000 0.500000
#
# Coordination Sequence:
#
# PCOD9050128 Si02
#       7
#     2   2   2   2   2   2   2
#     4  12  28  48  71 108 152 196 251 313 369 454
#     4  10  24  48  77 111 148 195 253 308 372 457
#     4  10  24  48  77 111 148 195 253 308 372 457
#     4  12  24  46  74 105 144 194 249 311 371 438
#     4  12  27  48  76 112 156 200 252 306 402 434
#     4  12  24  46  74 105 144 194 249 311 371 438
#     4  12  28  48  71 108 152 196 251 313 369 454
#
# _framework density 25.147969
#
# number of rings (size 3 to 8) (size 9 to 14) (size 15 to 20)
#    0.000    0.571    1.429    5.571    0.000    8.000 
#    0.000    4.286    0.000    2.571    0.000    0.000 
#    0.000    0.000    0.000    0.000    0.000    0.000 
#
# Total GULP energy -78628.304722 kJ/mol
# GULP energy per Si atom -5616.307480 kJ/mol
# Density = 2.509073 g / cm^3
# Si number density = 25.147969 Si / 1000 Ang^3
#
#
#
# Elastic Constant Matrix: (Units=GPa)
#
#
# Indices 1 2 3 4 5 6 
#
# 1 174.1927 22.9536 77.6637 -12.5258 5.7226 -7.8559
# 2 22.9536 89.6576 13.1987 -7.9917 9.3890 1.3608
# 3 77.6637 13.1987 101.6435 -10.1897 15.3805 -7.6414
# 4 -12.5258 -7.9917 -10.1897 54.5167 -7.9296 3.2383
# 5 5.7226 9.3890 15.3805 -7.9296 61.2241 -6.0035
# 6 -7.8559 1.3608 -7.6414 3.2383 -6.0035 32.7589
#
#
#
# Elastic Compliance Matrix: (Units=1/GPa)
#
#
# Indices 1 2 3 4 5 6 
#
# 1 0.008971 -0.001382 -0.006729 0.000734 0.001237 0.000793
# 2 -0.001382 0.011835 -0.000213 0.001221 -0.001600 -0.001287
# 3 -0.006729 -0.000213 0.015654 0.000825 -0.003026 0.001411
# 4 0.000734 0.001221 0.000825 0.019195 0.001902 -0.001231
# 5 0.001237 -0.001600 -0.003026 0.001902 0.017736 0.002720
# 6 0.000793 -0.001287 0.001411 -0.001231 0.002720 0.031719
#
#
# Mechanical properties :
#
#
# Convention : Reuss Voigt Hill
#
# Bulk Modulus (GPa) = 50.47544 65.90288 58.18916
# Shear Modulus (GPa) = 38.95254 46.47846 42.71550
#
# Velocity S-wave (km/s) = 3.93992 4.30373 4.12584
# Velocity P-wave (km/s) = 6.38845 7.13856 6.77390
#
# Compressibility (1/GPa) = 0.01981161
#
# Stress axis : x y z
#
# Youngs Moduli (GPa) = 111.47143 84.49729 63.88145
#
# Poissons Ratio (x) = 0.11680 0.42986
# Poissons Ratio (y) = 0.15408 0.01359
# Poissons Ratio (z) = 0.75009 0.01798
#
# Static dielectric constant tensor:
#      x y z
#    x 1.987350 -0.017610 -0.001650 
#    y -0.017610 1.919440 0.009710 
#    z -0.001650 0.009710 1.960530 
# 
# From -- ./inp_files/102858.got.cif
#   From: 2010.05.17/outbox.cif.g08.bks.cpg/sg2_52_cif.got.tgz:102858.got - 2010.06.03 11:33:40.
