data_PCOD9050437
_publ_section_title
;
Structure prediction by ZEFSAII (Michael W. Deem and Ramdas Pophale) SiO2 
 PCOD9050437
Probable space group: P -1
;
_chemical_formula_sum "Si O2"
_cell_formula_units_Z 16
_cell_length_a 12.014370
_cell_length_b 20.333072
_cell_length_c 9.316903
_cell_angle_alpha 47.451138
_cell_angle_beta 149.596081
_cell_angle_gamma 140.895028
_cell_volume 726.366011
_symmetry_space_group_name_H-M "P -1"
_symmetry_group_IT_number 2
_symmetry_cell_setting 'triclinic'
loop_
_space_group_symop_operation_xyz
x,y,z
-x,-y,-z
loop_
_atom_site_type_symbol
_atom_site_label
_atom_site_fract_x
_atom_site_fract_y
_atom_site_fract_z
Si Si1 0.186940 0.959660 0.697759
Si Si2 0.400986 0.267769 0.893075
Si Si3 0.026131 0.270571 0.239258
Si Si4 0.219152 0.998534 0.341351
Si Si5 0.565515 0.579144 0.737148
Si Si6 0.234716 0.348268 0.828404
Si Si7 0.330876 0.833873 0.564367
Si Si8 0.770633 0.383524 0.903786
O O1 0.067980 0.837589 0.787328
O O2 0.158629 0.976787 0.472620
O O3 0.000000 0.000000 0.500000
O O4 0.500000 0.000000 0.000000
O O5 0.342772 0.282894 0.967638
O O6 0.643792 0.364522 0.946804
O O7 0.183537 0.259913 0.560546
O O8 0.468900 0.178648 0.096498
O O9 0.191233 0.372431 0.171886
O O10 0.827894 0.293328 0.064190
O O11 0.496510 0.103702 0.472322
O O12 0.248027 0.906220 0.443393
O O13 0.000000 0.000000 0.000000
O O14 0.370819 0.455366 0.728230
O O15 0.405340 0.621051 0.415961
O O16 0.669868 0.623537 0.944991
O O17 0.925528 0.277734 0.583990
O O18 0.000000 0.500000 0.000000
#
# Coordination Sequence:
#
# PCOD9050437 Si02
#       8
#     2   2   2   2   2   2   2   2
#     4  12  31  49  77 110 153 198 252 316 390 449
#     4  11  22  40  69  95 131 178 233 294 353 432
#     4  11  25  45  69  99 142 185 242 300 363 443
#     4  11  26  48  73 104 138 189 249 313 372 451
#     4  10  25  41  66  97 146 180 232 287 368 433
#     4  11  23  43  63 102 138 185 227 294 360 441
#     4  11  24  41  76  98 137 181 246 294 370 436
#     4  11  22  41  70 100 135 186 241 291 362 433
#
# _framework density 22.027462
#
# number of rings (size 3 to 8) (size 9 to 14) (size 15 to 20)
#    0.000    1.000    0.000    6.000   10.500    4.000 
#    0.000    3.125    0.000    0.000    0.000    0.000 
#    0.000    0.000    0.000    0.000    0.000    0.000 
#
# Total GULP energy -89179.720535 kJ/mol
# GULP energy per Si atom -5573.732533 kJ/mol
# Density = 2.197733 g / cm^3
# Si number density = 22.027462 Si / 1000 Ang^3
#
#
#
# Elastic Constant Matrix: (Units=GPa)
#
#
# Indices 1 2 3 4 5 6 
#
# 1 119.4504 40.2506 42.4319 -3.3720 6.0346 16.5003
# 2 40.2506 102.7369 18.4661 8.1856 10.6888 17.9757
# 3 42.4319 18.4661 102.1625 -10.4966 4.4345 -9.4158
# 4 -3.3720 8.1856 -10.4966 33.2960 2.6165 9.4022
# 5 6.0346 10.6888 4.4345 2.6165 31.2070 -9.3356
# 6 16.5003 17.9757 -9.4158 9.4022 -9.3356 41.5040
#
#
#
# Elastic Compliance Matrix: (Units=1/GPa)
#
#
# Indices 1 2 3 4 5 6 
#
# 1 0.011927 -0.002751 -0.004639 0.002233 -0.002595 -0.005692
# 2 -0.002751 0.012758 -0.001654 -0.001984 -0.005082 -0.005501
# 3 -0.004639 -0.001654 0.012691 0.002416 0.000988 0.005114
# 4 0.002233 -0.001984 0.002416 0.034343 -0.005518 -0.008502
# 5 -0.002595 -0.005082 0.000988 -0.005518 0.038615 0.013393
# 6 -0.005692 -0.005501 0.005114 -0.008502 0.013393 0.034838
#
#
# Mechanical properties :
#
#
# Convention : Reuss Voigt Hill
#
# Bulk Modulus (GPa) = 51.84494 58.51634 55.18064
# Shear Modulus (GPa) = 29.46564 36.08147 32.77356
#
# Velocity S-wave (km/s) = 3.66139 4.05164 3.86145
# Velocity P-wave (km/s) = 6.43910 6.96495 6.70718
#
# Compressibility (1/GPa) = 0.01928828
#
# Stress axis : x y z
#
# Youngs Moduli (GPa) = 83.84342 78.38312 78.79793
#
# Poissons Ratio (x) = 0.21563 0.36555
# Poissons Ratio (y) = 0.23065 0.13030
# Poissons Ratio (z) = 0.38895 0.12962
#
# Static dielectric constant tensor:
#      x y z
#    x 1.861910 0.060440 0.073720 
#    y 0.060440 1.873070 0.048750 
#    z 0.073720 0.048750 1.831300 
# 
# From -- ./inp_files/282972.got.cif
#   From: 2010.05.17/outbox.cif.g08.bks.cpg/sg2_142_cif.got.tgz:282972.got - 2010.06.03 11:33:40.
