data_PCOD9050129
_publ_section_title
;
Structure prediction by ZEFSAII (Michael W. Deem and Ramdas Pophale) SiO2 
 PCOD9050129
Probable space group: P -1
;
_chemical_formula_sum "Si O2"
_cell_formula_units_Z 16
_cell_length_a 13.283338
_cell_length_b 5.307471
_cell_length_c 16.984330
_cell_angle_alpha 59.496659
_cell_angle_beta 43.338204
_cell_angle_gamma 80.923479
_cell_volume 661.246325
_symmetry_space_group_name_H-M "P -1"
_symmetry_group_IT_number 2
_symmetry_cell_setting 'triclinic'
loop_
_space_group_symop_operation_xyz
x,y,z
-x,-y,-z
loop_
_atom_site_type_symbol
_atom_site_label
_atom_site_fract_x
_atom_site_fract_y
_atom_site_fract_z
Si Si1 0.827932 0.128612 0.438826
Si Si2 0.746390 0.866246 0.130603
Si Si3 0.579528 0.516479 0.702250
Si Si4 0.138734 0.040809 0.216828
Si Si5 0.834363 0.280755 0.163335
Si Si6 0.024746 0.206201 0.794243
Si Si7 0.152882 0.759047 0.410771
Si Si8 0.530989 0.668130 0.038850
O O1 0.840627 0.456914 0.341965
O O2 0.870364 0.124498 0.508652
O O3 0.977538 0.081610 0.321617
O O4 0.655217 0.866678 0.569482
O O5 0.584692 0.729858 0.195875
O O6 0.769876 0.539911 0.192554
O O7 0.737918 0.073632 0.177716
O O8 0.898726 0.079718 0.957689
O O9 0.715155 0.385193 0.625981
O O10 0.568534 0.525823 0.801481
O O11 0.205768 0.988793 0.270436
O O12 0.288151 0.293995 0.051099
O O13 0.083234 0.780291 0.221739
O O14 0.885587 0.039870 0.224239
O O15 0.000000 0.500000 0.000000
O O16 0.000000 0.500000 0.500000
O O17 0.500000 0.500000 0.000000
O O18 0.500000 0.000000 0.000000
#
# Coordination Sequence:
#
# PCOD9050129 Si02
#       8
#     2   2   2   2   2   2   2   2
#     4  12  27  43  73 102 152 201 253 296 375 452
#     4  11  26  47  79 111 150 189 249 318 385 437
#     4  12  27  46  73 108 154 200 250 313 385 440
#     4  12  25  43  72 104 144 198 253 302 361 447
#     4  10  24  48  77 112 147 190 245 317 382 450
#     4  11  24  44  74 107 142 188 256 303 374 457
#     4  12  24  45  65 103 153 202 250 297 366 447
#     4  12  28  45  71 107 151 197 250 314 370 433
#
# _framework density 24.196729999999999
#
# number of rings (size 3 to 8) (size 9 to 14) (size 15 to 20)
#    0.000    0.500    5.000    2.625   10.500    0.000 
#    0.000    1.250    0.000    0.000    0.000    0.000 
#    0.000    0.000    0.000    0.000    0.000    0.000 
#
# Total GULP energy -89303.208439 kJ/mol
# GULP energy per Si atom -5581.450527 kJ/mol
# Density = 2.414166 g / cm^3
# Si number density = 24.196730 Si / 1000 Ang^3
#
#
#
# Elastic Constant Matrix: (Units=GPa)
#
#
# Indices 1 2 3 4 5 6 
#
# 1 91.1303 23.4051 29.3536 -6.6441 9.0135 23.0576
# 2 23.4051 81.4089 58.4261 -17.4808 11.3845 16.0345
# 3 29.3536 58.4261 130.3793 -17.8586 -1.2641 -0.3168
# 4 -6.6441 -17.4808 -17.8586 42.3134 -1.7850 8.6150
# 5 9.0135 11.3845 -1.2641 -1.7850 34.1242 -1.8852
# 6 23.0576 16.0345 -0.3168 8.6150 -1.8852 39.1543
#
#
#
# Elastic Compliance Matrix: (Units=1/GPa)
#
#
# Indices 1 2 3 4 5 6 
#
# 1 0.015263 0.002141 -0.003980 0.003606 -0.005309 -0.010946
# 2 0.002141 0.025491 -0.010833 0.008771 -0.009796 -0.014189
# 3 -0.003980 -0.010833 0.013396 -0.000702 0.005529 0.007309
# 4 0.003606 0.008771 -0.000702 0.029934 -0.003027 -0.012453
# 5 -0.005309 -0.009796 0.005529 -0.003027 0.034547 0.009512
# 6 -0.010946 -0.014189 0.007309 -0.012453 0.009512 0.041054
#
#
# Mechanical properties :
#
#
# Convention : Reuss Voigt Hill
#
# Bulk Modulus (GPa) = 34.71546 58.36536 46.54041
# Shear Modulus (GPa) = 25.68954 35.90063 30.79508
#
# Velocity S-wave (km/s) = 3.26190 3.85606 3.57136
# Velocity P-wave (km/s) = 5.34462 6.63318 6.02346
#
# Compressibility (1/GPa) = 0.02880561
#
# Stress axis : x y z
#
# Youngs Moduli (GPa) = 65.51782 39.22960 74.64989
#
# Poissons Ratio (x) = -0.08399 0.29710
# Poissons Ratio (y) = -0.14028 0.80870
# Poissons Ratio (z) = 0.26075 0.42498
#
# Static dielectric constant tensor:
#      x y z
#    x 2.026810 0.045760 0.022730 
#    y 0.045760 2.265780 -0.120700 
#    z 0.022730 -0.120700 1.956850 
# 
# From -- ./inp_files/571617.got.cif
#   From: 2010.05.17/outbox.cif.g08.bks.cpg/sg2_286_cif.got.tgz:571617.got - 2010.06.03 11:33:40.
