data_PCOD9050000
_publ_section_title
;
Structure prediction by ZEFSAII (Michael W. Deem and Ramdas Pophale) SiO2 
 PCOD9050000
Probable space group: P -1
;
_chemical_formula_sum "Si O2"
_cell_formula_units_Z 12
_cell_length_a 7.715063
_cell_length_b 14.002171
_cell_length_c 6.903578
_cell_angle_alpha 117.273670
_cell_angle_beta 83.165682
_cell_angle_gamma 130.330726
_cell_volume 487.656075
_symmetry_space_group_name_H-M "P -1"
_symmetry_group_IT_number 2
_symmetry_cell_setting 'triclinic'
loop_
_space_group_symop_operation_xyz
x,y,z
-x,-y,-z
loop_
_atom_site_type_symbol
_atom_site_label
_atom_site_fract_x
_atom_site_fract_y
_atom_site_fract_z
Si Si1 0.647579 0.153353 0.722984
Si Si2 0.523741 0.392585 0.490303
Si Si3 0.983517 0.942821 0.236905
Si Si4 0.242478 0.571968 0.145050
Si Si5 0.810688 0.678078 0.203930
Si Si6 0.379870 0.119461 0.062336
O O1 0.605873 0.257615 0.745679
O O2 0.917230 0.238607 0.717851
O O3 0.500000 0.000000 0.500000
O O4 0.578994 0.133135 0.940567
O O5 0.500000 0.500000 0.500000
O O6 0.750330 0.457632 0.655984
O O7 0.311198 0.307670 0.594967
O O8 0.488871 0.281124 0.244079
O O9 0.840844 0.771814 0.108424
O O10 0.240678 0.028856 0.190435
O O11 0.000000 0.000000 0.500000
O O12 0.832129 0.958787 0.137297
O O13 0.314862 0.488629 0.962737
O O14 0.000000 0.500000 0.000000
#
# Coordination Sequence:
#
# PCOD9050000 Si02
#       6
#     2   2   2   2   2   2
#     4  11  25  45  71 105 152 198 242 308 382 445
#     4  12  24  44  77 112 143 194 262 310 367 452
#     4  11  22  43  71 105 149 193 244 310 371 448
#     4  10  24  48  72 104 152 199 243 312 380 440
#     4  11  23  44  73 102 149 197 241 311 376 438
#     4  11  25  41  71 109 143 192 255 301 372 450
#
# _framework density 24.607507999999999
#
# number of rings (size 3 to 8) (size 9 to 14) (size 15 to 20)
#    0.000    1.000    1.667    4.500    4.667    0.667 
#    0.000   11.667    0.000    0.000    0.000    0.000 
#    0.000    0.000    0.000    0.000    0.000    0.000 
#
# Total GULP energy -67071.992295 kJ/mol
# GULP energy per Si atom -5589.332691 kJ/mol
# Density = 2.455150 g / cm^3
# Si number density = 24.607508 Si / 1000 Ang^3
#
#
#
# Elastic Constant Matrix: (Units=GPa)
#
#
# Indices 1 2 3 4 5 6 
#
# 1 125.0791 22.0012 45.3914 4.1589 -2.2261 -11.0008
# 2 22.0012 134.6660 35.5798 11.4907 -9.2530 -18.3620
# 3 45.3914 35.5798 160.9524 15.5344 -12.4707 -6.6196
# 4 4.1589 11.4907 15.5344 43.5994 -8.4199 -3.3610
# 5 -2.2261 -9.2530 -12.4707 -8.4199 47.4880 0.3743
# 6 -11.0008 -18.3620 -6.6196 -3.3610 0.3743 29.2762
#
#
#
# Elastic Compliance Matrix: (Units=1/GPa)
#
#
# Indices 1 2 3 4 5 6 
#
# 1 0.009180 -0.000553 -0.002408 0.000274 -0.000282 0.002593
# 2 -0.000553 0.008707 -0.001376 -0.001177 0.001063 0.004793
# 3 -0.002408 -0.001376 0.007459 -0.001847 0.001253 -0.000309
# 4 0.000274 -0.001177 -0.001847 0.024721 0.003668 0.001738
# 5 -0.000282 0.001063 0.001253 0.003668 0.022223 0.000981
# 6 0.002593 0.004793 -0.000309 0.001738 0.000981 0.038255
#
#
# Mechanical properties :
#
#
# Convention : Reuss Voigt Hill
#
# Bulk Modulus (GPa) = 59.97979 69.62693 64.80336
# Shear Modulus (GPa) = 40.07180 45.25437 42.66308
#
# Velocity S-wave (km/s) = 4.03977 4.29306 4.16834
# Velocity P-wave (km/s) = 6.79611 7.27532 7.03980
#
# Compressibility (1/GPa) = 0.01667228
#
# Stress axis : x y z
#
# Youngs Moduli (GPa) = 108.93098 114.85560 134.06690
#
# Poissons Ratio (x) = 0.06347 0.32288
# Poissons Ratio (y) = 0.06019 0.18444
# Poissons Ratio (z) = 0.26235 0.15801
#
# Static dielectric constant tensor:
#      x y z
#    x 2.036790 -0.006810 0.072470 
#    y -0.006810 2.031770 -0.011830 
#    z 0.072470 -0.011830 1.961340 
# 
# From -- ./inp_files/36714.got.cif
#   From: 2010.05.17/outbox.cif.g08.bks.cpg/sg2_19_cif.got.tgz:36714.got - 2010.06.03 11:33:40.
