data_PCOD9050582
_publ_section_title
;
Structure prediction by ZEFSAII (Michael W. Deem and Ramdas Pophale) SiO2 
 PCOD9050582
Probable space group: P -1
;
_chemical_formula_sum "Si O2"
_cell_formula_units_Z 14
_cell_length_a 9.394884
_cell_length_b 10.982692
_cell_length_c 12.490171
_cell_angle_alpha 144.007575
_cell_angle_beta 129.581739
_cell_angle_gamma 59.430180
_cell_volume 583.648946
_symmetry_space_group_name_H-M "P -1"
_symmetry_group_IT_number 2
_symmetry_cell_setting 'triclinic'
loop_
_space_group_symop_operation_xyz
x,y,z
-x,-y,-z
loop_
_atom_site_type_symbol
_atom_site_label
_atom_site_fract_x
_atom_site_fract_y
_atom_site_fract_z
Si Si1 0.836931 0.812499 0.716744
Si Si2 0.804908 0.393444 0.854208
Si Si3 0.220147 0.013409 0.969182
Si Si4 0.380550 0.193352 0.962995
Si Si5 0.697273 0.633722 0.319618
Si Si6 0.818408 0.951402 0.445209
Si Si7 0.333856 0.754949 0.115033
O O1 0.754918 0.640854 0.475529
O O2 0.046687 0.866541 0.817431
O O3 0.722282 0.017512 0.779022
O O4 0.804705 0.802569 0.822204
O O5 0.649531 0.560300 0.870096
O O6 0.765433 0.172652 0.624684
O O7 0.817180 0.346576 0.952084
O O8 0.000000 0.500000 0.000000
O O9 0.416195 0.896986 0.988100
O O10 0.237576 0.098597 0.916540
O O11 0.323154 0.132212 0.771453
O O12 0.513032 0.748928 0.272691
O O13 0.843437 0.776541 0.423766
O O14 0.665345 0.405332 0.095739
O O15 0.000000 0.000000 0.500000
#
# Coordination Sequence:
#
# PCOD9050582 Si02
#       7
#     2   2   2   2   2   2   2
#     4  11  22  44  66  93 134 176 224 262 330 388
#     4  12  23  39  67 101 130 163 209 279 337 392
#     4  10  25  43  65  88 133 192 217 263 308 396
#     4  11  23  45  63  94 137 169 225 266 323 391
#     4  11  23  39  66 104 130 165 209 282 344 389
#     4  12  22  39  68 101 130 166 211 274 347 389
#     4  11  23  39  68 104 129 158 216 282 344 384
#
# _framework density 23.987022
#
# number of rings (size 3 to 8) (size 9 to 14) (size 15 to 20)
#    0.000    0.857    4.286    3.000    4.000    0.000 
#    0.000    8.571    0.000    0.000    0.000    0.000 
#    0.000    0.000    0.000    0.000    0.000    0.000 
#
# Total GULP energy -78285.594189 kJ/mol
# GULP energy per Si atom -5591.828156 kJ/mol
# Density = 2.393243 g / cm^3
# Si number density = 23.987022 Si / 1000 Ang^3
#
#
#
# Elastic Constant Matrix: (Units=GPa)
#
#
# Indices 1 2 3 4 5 6 
#
# 1 130.3196 3.5065 27.6179 -2.6453 -15.3884 4.0946
# 2 3.5065 43.7831 6.8064 2.5331 -13.6816 -2.4954
# 3 27.6179 6.8064 140.5212 0.4815 -22.6582 -11.2471
# 4 -2.6453 2.5331 0.4815 34.7753 4.3178 -4.6302
# 5 -15.3884 -13.6816 -22.6582 4.3178 38.2201 -2.5633
# 6 4.0946 -2.4954 -11.2471 -4.6302 -2.5633 43.7503
#
#
#
# Elastic Compliance Matrix: (Units=1/GPa)
#
#
# Indices 1 2 3 4 5 6 
#
# 1 0.008279 0.000282 -0.001299 0.000184 0.002582 -0.000922
# 2 0.000282 0.026219 0.000487 -0.002916 0.010244 0.001886
# 3 -0.001299 0.000487 0.008328 -0.000512 0.004815 0.002518
# 4 0.000184 -0.002916 -0.000512 0.029890 -0.004477 0.002586
# 5 0.002582 0.010244 0.004815 -0.004477 0.034441 0.003125
# 6 -0.000922 0.001886 0.002518 0.002586 0.003125 0.024155
#
#
# Mechanical properties :
#
#
# Convention : Reuss Voigt Hill
#
# Bulk Modulus (GPa) = 23.94245 43.38729 33.66487
# Shear Modulus (GPa) = 34.17843 41.79534 37.98689
#
# Velocity S-wave (km/s) = 3.77884 4.17875 3.98382
# Velocity P-wave (km/s) = 5.38912 6.43504 5.93516
#
# Compressibility (1/GPa) = 0.04176683
#
# Stress axis : x y z
#
# Youngs Moduli (GPa) = 120.79245 38.14060 120.08015
#
# Poissons Ratio (x) = -0.01077 0.15597
# Poissons Ratio (y) = -0.03412 -0.05851
# Poissons Ratio (z) = 0.15690 -0.01858
#
# Static dielectric constant tensor:
#      x y z
#    x 2.088450 -0.007130 0.033200 
#    y -0.007130 1.903320 -0.026690 
#    z 0.033200 -0.026690 1.948700 
# 
# From -- ./inp_files/263406.got.cif
#   From: 2010.05.17/outbox.cif.g08.bks.cpg/sg2_132_cif.got.tgz:263406.got - 2010.06.03 11:33:40.
