data_PCOD9050295
_publ_section_title
;
Structure prediction by ZEFSAII (Michael W. Deem and Ramdas Pophale) SiO2 
 PCOD9050295
Probable space group: P -1
;
_chemical_formula_sum "Si O2"
_cell_formula_units_Z 16
_cell_length_a 17.341662
_cell_length_b 8.963151
_cell_length_c 8.760006
_cell_angle_alpha 142.989855
_cell_angle_beta 122.603587
_cell_angle_gamma 70.961333
_cell_volume 675.782231
_symmetry_space_group_name_H-M "P -1"
_symmetry_group_IT_number 2
_symmetry_cell_setting 'triclinic'
loop_
_space_group_symop_operation_xyz
x,y,z
-x,-y,-z
loop_
_atom_site_type_symbol
_atom_site_label
_atom_site_fract_x
_atom_site_fract_y
_atom_site_fract_z
Si Si1 0.151322 0.660474 0.082869
Si Si2 0.396483 0.535917 0.365851
Si Si3 0.896423 0.874352 0.232631
Si Si4 0.368344 0.576641 0.707741
Si Si5 0.960409 0.802117 0.925540
Si Si6 0.525719 0.896126 0.601852
Si Si7 0.744390 0.900823 0.309187
Si Si8 0.196387 0.466221 0.667325
O O1 0.247009 0.829999 0.383991
O O2 0.131097 0.402952 0.947336
O O3 0.171557 0.657269 0.921549
O O4 0.051977 0.743319 0.056086
O O5 0.500000 0.500000 0.500000
O O6 0.345456 0.577158 0.503146
O O7 0.430541 0.768924 0.480833
O O8 0.342213 0.292407 0.014170
O O9 0.816674 0.991546 0.320965
O O10 0.898401 0.882685 0.059978
O O11 0.000000 0.000000 0.500000
O O12 0.418985 0.331692 0.564999
O O13 0.284940 0.528997 0.702559
O O14 0.424813 0.859675 0.045063
O O15 0.892451 0.588774 0.583861
O O16 0.000000 0.000000 0.000000
O O17 0.500000 0.000000 0.500000
O O18 0.786298 0.752192 0.371574
#
# Coordination Sequence:
#
# PCOD9050295 Si02
#       8
#     2   2   2   2   2   2   2   2
#     4  11  24  45  69 102 140 199 236 299 369 428
#     4  10  24  50  73 106 144 189 243 306 369 443
#     4  11  23  43  68 103 141 187 243 296 361 440
#     4  11  25  47  72 111 145 190 245 303 371 444
#     4  12  22  43  69  99 146 185 240 298 363 435
#     4  11  24  47  78 109 147 186 243 306 377 444
#     4  11  23  46  71  99 145 186 244 301 366 437
#     4  11  25  43  67 107 143 186 248 296 365 437
#
# _framework density 23.676265000000001
#
# number of rings (size 3 to 8) (size 9 to 14) (size 15 to 20)
#    0.000    1.000    2.500    3.750    1.750    1.000 
#   22.500    0.000    0.000    0.000    0.000    0.000 
#    0.000    0.000    0.000    0.000    0.000    0.000 
#
# Total GULP energy -89250.088335 kJ/mol
# GULP energy per Si atom -5578.130521 kJ/mol
# Density = 2.362238 g / cm^3
# Si number density = 23.676265 Si / 1000 Ang^3
#
#
#
# Elastic Constant Matrix: (Units=GPa)
#
#
# Indices 1 2 3 4 5 6 
#
# 1 141.2598 34.1126 49.9224 3.6063 11.8722 36.8727
# 2 34.1126 73.4532 32.0632 -10.7148 9.8771 32.5706
# 3 49.9224 32.0632 213.6946 -9.3315 13.6931 12.8541
# 4 3.6063 -10.7148 -9.3315 34.7282 4.9564 -3.5568
# 5 11.8722 9.8771 13.6931 4.9564 25.2773 -12.3083
# 6 36.8727 32.5706 12.8541 -3.5568 -12.3083 52.7405
#
#
#
# Elastic Compliance Matrix: (Units=1/GPa)
#
#
# Indices 1 2 3 4 5 6 
#
# 1 0.010829 0.001467 -0.001530 -0.000758 -0.009762 -0.010433
# 2 0.001467 0.028479 -0.001239 0.009385 -0.024363 -0.023364
# 3 -0.001530 -0.001239 0.005404 0.001523 -0.001941 0.000168
# 4 -0.000758 0.009385 0.001523 0.033488 -0.013931 -0.006630
# 5 -0.009762 -0.024363 -0.001941 -0.013931 0.076573 0.039275
# 6 -0.010433 -0.023364 0.000168 -0.006630 0.039275 0.049362
#
#
# Mechanical properties :
#
#
# Convention : Reuss Voigt Hill
#
# Bulk Modulus (GPa) = 23.74884 73.40044 48.57464
# Shear Modulus (GPa) = 22.64761 43.36984 33.00873
#
# Velocity S-wave (km/s) = 3.09617 4.28458 3.73791
# Velocity P-wave (km/s) = 4.77851 7.45291 6.26019
#
# Compressibility (1/GPa) = 0.04210732
#
# Stress axis : x y z
#
# Youngs Moduli (GPa) = 92.34681 35.11379 185.05627
#
# Poissons Ratio (x) = -0.05152 0.28312
# Poissons Ratio (y) = -0.13551 0.22937
# Poissons Ratio (z) = 0.14128 0.04352
#
# Static dielectric constant tensor:
#      x y z
#    x 2.185090 -0.128300 -0.039820 
#    y -0.128300 1.944780 0.073470 
#    z -0.039820 0.073470 2.047840 
# 
# From -- ./inp_files/329694.got.cif
#   From: 2010.05.17/outbox.cif.g08.bks.cpg/sg2_165_cif.got.tgz:329694.got - 2010.06.03 11:33:40.
