data_PCOD9050060
_publ_section_title
;
Structure prediction by ZEFSAII (Michael W. Deem and Ramdas Pophale) SiO2 
 PCOD9050060
Probable space group: P -1
;
_chemical_formula_sum "Si O2"
_cell_formula_units_Z 12
_cell_length_a 8.774470
_cell_length_b 14.058100
_cell_length_c 5.218210
_cell_angle_alpha 93.924065
_cell_angle_beta 74.188483
_cell_angle_gamma 128.557122
_cell_volume 479.885314
_symmetry_space_group_name_H-M "P -1"
_symmetry_group_IT_number 2
_symmetry_cell_setting 'triclinic'
loop_
_space_group_symop_operation_xyz
x,y,z
-x,-y,-z
loop_
_atom_site_type_symbol
_atom_site_label
_atom_site_fract_x
_atom_site_fract_y
_atom_site_fract_z
Si Si1 0.396564 0.227241 0.332786
Si Si2 0.877594 0.851763 0.051344
Si Si3 0.777969 0.381261 0.477817
Si Si4 0.385417 0.492536 0.297328
Si Si5 0.390228 0.998603 0.297661
Si Si6 0.051831 0.762302 0.624896
O O1 0.280726 0.210304 0.125202
O O2 0.638365 0.345494 0.277079
O O3 0.395160 0.112808 0.315931
O O4 0.252945 0.201957 0.636852
O O5 0.016256 0.811465 0.908373
O O6 0.000000 0.000000 0.000000
O O7 0.644979 0.405883 0.703724
O O8 0.803525 0.276968 0.445367
O O9 0.000000 0.500000 0.500000
O O10 0.500000 0.500000 0.500000
O O11 0.163010 0.361083 0.385399
O O12 0.500000 0.500000 0.000000
O O13 0.159080 0.875513 0.404323
O O14 0.500000 0.000000 0.500000
O O15 0.500000 0.000000 0.000000
#
# Coordination Sequence:
#
# PCOD9050060 Si02
#       6
#     2   2   2   2   2   2
#     4  12  25  47  71 102 147 191 243 298 362 434
#     4  12  26  45  71 107 146 191 240 295 364 435
#     4  10  24  48  74 109 142 192 245 302 366 434
#     4  11  25  51  76 106 144 192 244 304 367 436
#     4  12  26  44  71 109 148 192 241 303 369 432
#     4  11  25  47  74 111 147 192 246 305 363 440
#
# _framework density 25.005974999999999
#
# number of rings (size 3 to 8) (size 9 to 14) (size 15 to 20)
#    0.000    0.667    3.333    3.500    0.000    1.333 
#    0.000    5.000    0.000    0.000    0.000    0.000 
#    0.000    0.000    0.000    0.000    0.000    0.000 
#
# Total GULP energy -66989.905089 kJ/mol
# GULP energy per Si atom -5582.492091 kJ/mol
# Density = 2.494906 g / cm^3
# Si number density = 25.005975 Si / 1000 Ang^3
#
#
#
# Elastic Constant Matrix: (Units=GPa)
#
#
# Indices 1 2 3 4 5 6 
#
# 1 141.0060 42.1884 81.3035 24.3373 -20.3095 -5.5015
# 2 42.1884 124.8096 36.7924 15.2955 -12.6072 24.8735
# 3 81.3035 36.7924 205.8836 11.3806 -10.4873 0.9223
# 4 24.3373 15.2955 11.3806 36.2623 -7.5167 -17.8098
# 5 -20.3095 -12.6072 -10.4873 -7.5167 58.5436 27.8775
# 6 -5.5015 24.8735 0.9223 -17.8098 27.8775 67.6462
#
#
#
# Elastic Compliance Matrix: (Units=1/GPa)
#
#
# Indices 1 2 3 4 5 6 
#
# 1 0.010897 -0.001468 -0.003596 -0.005545 0.002614 -0.001062
# 2 -0.001468 0.011710 -0.000856 -0.006695 0.004902 -0.008196
# 3 -0.003596 -0.000856 0.006365 0.000855 -0.000322 0.000293
# 4 -0.005545 -0.006695 0.000855 0.039981 -0.005030 0.014598
# 5 0.002614 0.004902 -0.000322 -0.005030 0.024542 -0.013024
# 6 -0.001062 -0.008196 0.000293 0.014598 -0.013024 0.026917
#
#
# Mechanical properties :
#
#
# Convention : Reuss Voigt Hill
#
# Bulk Modulus (GPa) = 58.37476 88.02974 73.20225
# Shear Modulus (GPa) = 36.24122 53.25141 44.74631
#
# Velocity S-wave (km/s) = 3.81110 4.61971 4.23475
# Velocity P-wave (km/s) = 6.53919 7.98345 7.29714
#
# Compressibility (1/GPa) = 0.01713069
#
# Stress axis : x y z
#
# Youngs Moduli (GPa) = 91.76888 85.39730 157.09775
#
# Poissons Ratio (x) = 0.12536 0.56499
# Poissons Ratio (y) = 0.13471 0.13454
# Poissons Ratio (z) = 0.33004 0.07314
#
# Static dielectric constant tensor:
#      x y z
#    x 2.031610 0.026120 -0.003660 
#    y 0.026120 2.036210 0.036420 
#    z -0.003660 0.036420 1.983320 
# 
# From -- ./inp_files/36113.got.cif
#   From: 2010.05.17/outbox.cif.g08.bks.cpg/sg2_19_cif.got.tgz:36113.got - 2010.06.03 11:33:40.
