data_PCOD9050359
_publ_section_title
;
Structure prediction by ZEFSAII (Michael W. Deem and Ramdas Pophale) SiO2 
 PCOD9050359
Probable space group: P -1
;
_chemical_formula_sum "Si O2"
_cell_formula_units_Z 13
_cell_length_a 17.683486
_cell_length_b 8.686632
_cell_length_c 4.933010
_cell_angle_alpha 59.712008
_cell_angle_beta 124.401506
_cell_angle_gamma 133.550327
_cell_volume 444.675916
_symmetry_space_group_name_H-M "P -1"
_symmetry_group_IT_number 2
_symmetry_cell_setting 'triclinic'
loop_
_space_group_symop_operation_xyz
x,y,z
-x,-y,-z
loop_
_atom_site_type_symbol
_atom_site_label
_atom_site_fract_x
_atom_site_fract_y
_atom_site_fract_z
Si Si1 0.235110 0.735611 0.435320
Si Si2 0.579631 0.809871 0.339001
Si Si3 0.000000 0.500000 0.000000
Si Si4 0.594420 0.233301 0.609911
Si Si5 0.655957 0.686262 0.099005
Si Si6 0.092268 0.007546 0.496198
Si Si7 0.906808 0.650449 0.146641
O O1 0.296085 0.755177 0.262146
O O2 0.195700 0.522505 0.723109
O O3 0.322452 0.945288 0.599400
O O4 0.118472 0.704028 0.186637
O O5 0.462912 0.771527 0.219178
O O6 0.596623 0.758737 0.118950
O O7 0.608008 0.678072 0.715598
O O8 0.070890 0.441113 0.990577
O O9 0.626634 0.457492 0.341085
O O10 0.500000 0.000000 0.500000
O O11 0.787422 0.869970 0.234984
O O12 0.109763 0.163753 0.142225
O O13 0.000000 0.000000 0.500000
O O14 0.018796 0.754969 0.473397
#
# Coordination Sequence:
#
# PCOD9050359 Si02
#       7
#     2   2   1   2   2   2   2
#     4  11  26  46  71 109 148 197 245 310 370 445
#     4  11  28  48  78 110 150 199 251 308 371 441
#     4  12  24  42  68 108 146 186 248 298 380 434
#     4  10  24  52  75 108 146 195 249 310 374 441
#     4  12  26  49  77 111 149 194 253 310 372 443
#     4  11  26  45  71 107 148 201 248 305 377 445
#     4  11  25  43  71 103 151 196 247 304 369 457
#
# _framework density 29.234776
#
# number of rings (size 3 to 8) (size 9 to 14) (size 15 to 20)
#    0.000    0.923    0.000    5.077   12.923    0.000 
#    2.769    3.077    0.000    0.000    0.000    0.000 
#    0.000    0.000    0.000    0.000    0.000    0.000 
#
# Total GULP energy -72818.854838 kJ/mol
# GULP energy per Si atom -5601.450372 kJ/mol
# Density = 2.916824 g / cm^3
# Si number density = 29.234776 Si / 1000 Ang^3
#
#
#
# Elastic Constant Matrix: (Units=GPa)
#
#
# Indices 1 2 3 4 5 6 
#
# 1 189.2203 68.0045 12.8599 26.4698 -11.4971 29.8732
# 2 68.0045 195.3126 22.1204 -12.1843 5.5061 29.4195
# 3 12.8599 22.1204 76.3360 -8.1459 -13.9698 11.5267
# 4 26.4698 -12.1843 -8.1459 68.8657 2.8456 4.2859
# 5 -11.4971 5.5061 -13.9698 2.8456 41.7711 15.9092
# 6 29.8732 29.4195 11.5267 4.2859 15.9092 73.4068
#
#
#
# Elastic Compliance Matrix: (Units=1/GPa)
#
#
# Indices 1 2 3 4 5 6 
#
# 1 0.007218 -0.002446 0.000197 -0.003171 0.003573 -0.002577
# 2 -0.002446 0.006476 -0.001384 0.002063 -0.001698 -0.001135
# 3 0.000197 -0.001384 0.015346 0.001437 0.006584 -0.003446
# 4 -0.003171 0.002063 0.001437 0.016365 -0.001641 -0.000362
# 5 0.003573 -0.001698 0.006584 -0.001641 0.030642 -0.008352
# 6 -0.002577 -0.001135 -0.003446 -0.000362 -0.008352 0.017499
#
#
# Mechanical properties :
#
#
# Convention : Reuss Voigt Hill
#
# Bulk Modulus (GPa) = 45.92229 74.09320 60.00774
# Shear Modulus (GPa) = 46.26667 60.66767 53.46717
#
# Velocity S-wave (km/s) = 3.98249 4.56037 4.28119
# Velocity P-wave (km/s) = 6.07365 7.28893 6.70886
#
# Compressibility (1/GPa) = 0.02177592
#
# Stress axis : x y z
#
# Youngs Moduli (GPa) = 138.54210 154.41932 65.16242
#
# Poissons Ratio (x) = 0.37769 -0.01286
# Poissons Ratio (y) = 0.33886 0.09016
# Poissons Ratio (z) = -0.02735 0.21366
#
# Static dielectric constant tensor:
#      x y z
#    x 2.080540 -0.051380 0.111970 
#    y -0.051380 2.288240 -0.021750 
#    z 0.111970 -0.021750 2.249000 
# 
# From -- ./inp_files/24288.got.cif
#   From: 2010.05.17/outbox.cif.g08.bks.cpg/sg2_13_cif.got.tgz:24288.got - 2010.06.03 11:33:40.
