data_PCOD9050664
_publ_section_title
;
Structure prediction by ZEFSAII (Michael W. Deem and Ramdas Pophale) SiO2 
 PCOD9050664
Probable space group: P -1
;
_chemical_formula_sum "Si O2"
_cell_formula_units_Z 14
_cell_length_a 7.320343
_cell_length_b 10.199663
_cell_length_c 8.793317
_cell_angle_alpha 126.476867
_cell_angle_beta 94.358176
_cell_angle_gamma 96.190632
_cell_volume 516.730826
_symmetry_space_group_name_H-M "P -1"
_symmetry_group_IT_number 2
_symmetry_cell_setting 'triclinic'
loop_
_space_group_symop_operation_xyz
x,y,z
-x,-y,-z
loop_
_atom_site_type_symbol
_atom_site_label
_atom_site_fract_x
_atom_site_fract_y
_atom_site_fract_z
Si Si1 0.415580 0.096267 0.195036
Si Si2 0.810777 0.308281 0.368857
Si Si3 0.800128 0.680068 0.066016
Si Si4 0.328531 0.420423 0.320861
Si Si5 0.800468 0.397681 0.078816
Si Si6 0.345552 0.873193 0.311675
Si Si7 0.120276 0.940122 0.598854
O O1 0.609748 0.203461 0.342124
O O2 0.297426 0.225596 0.215688
O O3 0.304760 0.986149 0.244512
O O4 0.500000 0.000000 0.000000
O O5 0.835214 0.485407 0.574891
O O6 0.780386 0.342759 0.213945
O O7 0.939467 0.182124 0.347701
O O8 0.661881 0.578217 0.860053
O O9 0.007215 0.658050 0.003831
O O10 0.791690 0.586426 0.163725
O O11 0.781980 0.874594 0.207786
O O12 0.500000 0.500000 0.500000
O O13 0.637009 0.289808 0.890943
O O14 0.500000 0.000000 0.500000
O O15 0.207167 0.821182 0.405527
O O16 0.000000 0.000000 0.500000
#
# Coordination Sequence:
#
# PCOD9050664 Si02
#       7
#     2   2   2   2   2   2   2
#     4  11  22  43  70 105 143 187 244 300 359 428
#     4  11  24  46  71 101 148 188 246 303 361 438
#     4  11  26  47  70 105 151 190 244 304 365 441
#     4  10  25  43  70 104 145 192 238 299 366 434
#     4  11  26  46  72 105 147 195 241 303 374 431
#     4  12  25  43  75 106 148 193 241 303 367 434
#     4  12  26  47  75 106 146 196 248 302 368 438
#
# _framework density 27.093409000000001
#
# number of rings (size 3 to 8) (size 9 to 14) (size 15 to 20)
#    0.000    0.857    4.286    1.714    6.000    2.286 
#    0.000    3.571    0.000    0.000    0.000    0.000 
#    0.000    0.000    0.000    0.000    0.000    0.000 
#
# Total GULP energy -78054.452195 kJ/mol
# GULP energy per Si atom -5575.318014 kJ/mol
# Density = 2.703174 g / cm^3
# Si number density = 27.093409 Si / 1000 Ang^3
#
#
#
# Elastic Constant Matrix: (Units=GPa)
#
#
# Indices 1 2 3 4 5 6 
#
# 1 49.6060 12.1230 28.1827 -5.3741 -7.0113 -1.4259
# 2 12.1230 267.7972 87.4436 -23.7750 -23.4723 -21.1455
# 3 28.1827 87.4436 199.3584 -8.0740 0.1621 -16.2594
# 4 -5.3741 -23.7750 -8.0740 49.8210 -5.8322 -5.1922
# 5 -7.0113 -23.4723 0.1621 -5.8322 43.8720 1.5173
# 6 -1.4259 -21.1455 -16.2594 -5.1922 1.5173 24.9416
#
#
#
# Elastic Compliance Matrix: (Units=1/GPa)
#
#
# Indices 1 2 3 4 5 6 
#
# 1 0.022862 0.000720 -0.003441 0.002768 0.004420 -0.000018
# 2 0.000720 0.005162 -0.001958 0.002965 0.003155 0.003567
# 3 -0.003441 -0.001958 0.006558 -0.000186 -0.001732 0.002485
# 4 0.002768 0.002965 -0.000186 0.023058 0.004851 0.007055
# 5 0.004420 0.003155 -0.001732 0.004851 0.025796 0.001239
# 6 -0.000018 0.003567 0.002485 0.007055 0.001239 0.046130
#
#
# Mechanical properties :
#
#
# Convention : Reuss Voigt Hill
#
# Bulk Modulus (GPa) = 39.64280 85.80669 62.72474
# Shear Modulus (GPa) = 33.93717 49.66106 41.79911
#
# Velocity S-wave (km/s) = 3.54305 4.28595 3.93208
# Velocity P-wave (km/s) = 5.60368 7.49879 6.61941
#
# Compressibility (1/GPa) = 0.02522526
#
# Stress axis : x y z
#
# Youngs Moduli (GPa) = 43.74127 193.71593 152.49156
#
# Poissons Ratio (x) = -0.13953 0.52470
# Poissons Ratio (y) = -0.03151 0.29853
# Poissons Ratio (z) = 0.15051 0.37923
#
# Static dielectric constant tensor:
#      x y z
#    x 2.475620 -0.090530 0.069700 
#    y -0.090530 2.257330 0.100180 
#    z 0.069700 0.100180 2.147740 
# 
# From -- ./inp_files/160252.got.cif
#   From: 2010.05.17/outbox.cif.g08.bks.cpg/sg2_81_cif.got.tgz:160252.got - 2010.06.03 11:33:40.
