data_PCOD9050679
_publ_section_title
;
Structure prediction by ZEFSAII (Michael W. Deem and Ramdas Pophale) SiO2 
 PCOD9050679
Probable space group: P -1
;
_chemical_formula_sum "Si O2"
_cell_formula_units_Z 16
_cell_length_a 8.386870
_cell_length_b 25.878678
_cell_length_c 4.937655
_cell_angle_alpha 85.178882
_cell_angle_beta 84.502456
_cell_angle_gamma 33.989511
_cell_volume 596.333706
_symmetry_space_group_name_H-M "P -1"
_symmetry_group_IT_number 2
_symmetry_cell_setting 'triclinic'
loop_
_space_group_symop_operation_xyz
x,y,z
-x,-y,-z
loop_
_atom_site_type_symbol
_atom_site_label
_atom_site_fract_x
_atom_site_fract_y
_atom_site_fract_z
Si Si1 0.874377 0.714345 0.936757
Si Si2 0.503248 0.355384 0.916675
Si Si3 0.303208 0.849548 0.638293
Si Si4 0.735512 0.471217 0.315100
Si Si5 0.273691 0.323554 0.648409
Si Si6 0.137054 0.745572 0.603984
Si Si7 0.696564 0.040364 0.686693
Si Si8 0.418066 0.068813 0.183201
O O1 0.566488 0.783553 0.828800
O O2 0.123200 0.605530 0.886536
O O3 0.987930 0.733662 0.753185
O O4 0.818517 0.711796 0.255022
O O5 0.383636 0.444128 0.830918
O O6 0.319446 0.355214 0.853716
O O7 0.788033 0.276371 0.714035
O O8 0.577535 0.329886 0.229561
O O9 0.408774 0.772056 0.481922
O O10 0.277550 0.907424 0.430875
O O11 0.993672 0.936156 0.790044
O O12 0.500000 0.500000 0.500000
O O13 0.008271 0.413791 0.477343
O O14 0.900029 0.850075 0.687919
O O15 0.600291 0.033845 0.437546
O O16 0.470805 0.100042 0.941184
O O17 0.500000 0.000000 0.000000
#
# Coordination Sequence:
#
# PCOD9050679 Si02
#       8
#     2   2   2   2   2   2   2   2
#     4  11  24  45  76 102 144 190 248 296 352 437
#     4  12  29  46  74 107 150 190 237 300 363 430
#     4  10  25  43  71 101 140 186 243 299 358 420
#     4  11  24  47  74 107 142 191 242 292 362 432
#     4  11  27  44  74 106 147 186 242 301 363 423
#     4  12  27  48  73 104 149 191 243 291 363 429
#     4  11  25  45  71 103 140 187 243 298 353 425
#     4  12  27  44  72 104 146 187 239 294 360 426
#
# _framework density 26.830618999999999
#
# number of rings (size 3 to 8) (size 9 to 14) (size 15 to 20)
#    0.000    0.750    2.500    3.000   12.250    2.500 
#    0.000    0.000    0.000    0.000    0.000    0.000 
#    0.000    0.000    0.000    0.000    0.000    0.000 
#
# Total GULP energy -89507.492111 kJ/mol
# GULP energy per Si atom -5594.218257 kJ/mol
# Density = 2.676955 g / cm^3
# Si number density = 26.830619 Si / 1000 Ang^3
#
#
#
# Elastic Constant Matrix: (Units=GPa)
#
#
# Indices 1 2 3 4 5 6 
#
# 1 85.8934 20.5836 4.4935 -1.5023 -14.1826 2.9798
# 2 20.5836 139.0965 12.9255 -3.2792 -0.8923 -7.7699
# 3 4.4935 12.9255 82.6374 -0.7592 -2.6760 -11.4196
# 4 -1.5023 -3.2792 -0.7592 37.5698 -1.8459 -10.1247
# 5 -14.1826 -0.8923 -2.6760 -1.8459 49.0377 0.2368
# 6 2.9798 -7.7699 -11.4196 -10.1247 0.2368 48.1431
#
#
#
# Elastic Compliance Matrix: (Units=1/GPa)
#
#
# Indices 1 2 3 4 5 6 
#
# 1 0.012764 -0.001885 -0.000442 0.000199 0.003646 -0.001175
# 2 -0.001885 0.007646 -0.000916 0.000910 -0.000428 0.001327
# 3 -0.000442 -0.000916 0.012726 0.001026 0.000574 0.003111
# 4 0.000199 0.000910 0.001026 0.028498 0.001172 0.006365
# 5 0.003646 -0.000428 0.000574 0.001172 0.021515 -0.000018
# 6 -0.001175 0.001327 0.003111 0.006365 -0.000018 0.023135
#
#
# Mechanical properties :
#
#
# Convention : Reuss Voigt Hill
#
# Bulk Modulus (GPa) = 37.52201 42.62582 40.07392
# Shear Modulus (GPa) = 41.10064 44.92509 43.01286
#
# Velocity S-wave (km/s) = 3.91814 4.09638 4.00825
# Velocity P-wave (km/s) = 5.87233 6.18832 6.03239
#
# Compressibility (1/GPa) = 0.02665102
#
# Stress axis : x y z
#
# Youngs Moduli (GPa) = 78.34820 130.78475 78.57790
#
# Poissons Ratio (x) = 0.24656 0.03470
# Poissons Ratio (y) = 0.14771 0.07194
# Poissons Ratio (z) = 0.03460 0.11974
#
# Static dielectric constant tensor:
#      x y z
#    x 2.333780 -0.001180 -0.093370 
#    y -0.001180 2.084680 0.033470 
#    z -0.093370 0.033470 2.125070 
# 
# From -- ./inp_files/37590.got.cif
#   From: 2010.05.17/outbox.cif.g08.bks.cpg/sg2_19_cif.got.tgz:37590.got - 2010.06.03 11:33:40.
