data_PCOD9050244
_publ_section_title
;
Structure prediction by ZEFSAII (Michael W. Deem and Ramdas Pophale) SiO2 
 PCOD9050244
Probable space group: P -1
;
_chemical_formula_sum "Si O2"
_cell_formula_units_Z 14
_cell_length_a 10.898335
_cell_length_b 9.498945
_cell_length_c 8.797556
_cell_angle_alpha 66.916523
_cell_angle_beta 139.839482
_cell_angle_gamma 109.341137
_cell_volume 539.576217
_symmetry_space_group_name_H-M "P -1"
_symmetry_group_IT_number 2
_symmetry_cell_setting 'triclinic'
loop_
_space_group_symop_operation_xyz
x,y,z
-x,-y,-z
loop_
_atom_site_type_symbol
_atom_site_label
_atom_site_fract_x
_atom_site_fract_y
_atom_site_fract_z
Si Si1 0.933727 0.248444 0.928690
Si Si2 0.192526 0.476646 0.603988
Si Si3 0.651486 0.179239 0.463299
Si Si4 0.642624 0.342915 0.842350
Si Si5 0.696229 0.658289 0.934711
Si Si6 0.794646 0.765392 0.529840
Si Si7 0.702253 0.064503 0.224439
O O1 0.786714 0.132981 0.748666
O O2 0.785704 0.355191 0.830174
O O3 0.085220 0.311328 0.921436
O O4 0.074910 0.202700 0.214712
O O5 0.288416 0.641781 0.589223
O O6 0.151936 0.379320 0.456542
O O7 0.000000 0.500000 0.500000
O O8 0.314022 0.379313 0.879208
O O9 0.429938 0.197524 0.282035
O O10 0.687550 0.093754 0.377806
O O11 0.629233 0.505393 0.842798
O O12 0.430098 0.274781 0.627997
O O13 0.734030 0.222027 0.096130
O O14 0.820889 0.914178 0.384121
O O15 0.500000 0.000000 0.000000
#
# Coordination Sequence:
#
# PCOD9050244 Si02
#       7
#     2   2   2   2   2   2   2
#     4  12  28  41  67 109 144 182 227 285 344 425
#     4  12  23  44  73 106 137 175 240 291 331 409
#     4  12  25  45  72 103 140 182 230 288 346 403
#     4  11  23  45  71 102 140 184 231 287 345 405
#     4  12  23  42  72 105 140 179 231 292 349 395
#     4  11  26  47  70 102 143 185 227 284 348 406
#     4  10  24  49  75  99 134 187 236 283 340 414
#
# _framework density 25.946287999999999
#
# number of rings (size 3 to 8) (size 9 to 14) (size 15 to 20)
#    0.000    0.571    4.286    4.286    2.000    2.286 
#    0.000    9.286    0.000    0.000    0.000    0.000 
#    0.000    0.000    0.000    0.000    0.000    0.000 
#
# Total GULP energy -78399.090571 kJ/mol
# GULP energy per Si atom -5599.935041 kJ/mol
# Density = 2.588723 g / cm^3
# Si number density = 25.946288 Si / 1000 Ang^3
#
#
#
# Elastic Constant Matrix: (Units=GPa)
#
#
# Indices 1 2 3 4 5 6 
#
# 1 109.2084 20.3281 20.5826 1.6183 13.1263 2.4708
# 2 20.3281 99.5229 21.2434 12.2812 0.6171 -3.4197
# 3 20.5826 21.2434 164.4084 17.8728 -5.3491 6.3803
# 4 1.6183 12.2812 17.8728 32.0555 -6.9881 -2.7362
# 5 13.1263 0.6171 -5.3491 -6.9881 47.5940 11.6193
# 6 2.4708 -3.4197 6.3803 -2.7362 11.6193 28.6623
#
#
#
# Elastic Compliance Matrix: (Units=1/GPa)
#
#
# Indices 1 2 3 4 5 6 
#
# 1 0.010052 -0.001801 -0.001161 0.000222 -0.002942 0.000391
# 2 -0.001801 0.011121 -0.000896 -0.003682 -0.000681 0.001606
# 3 -0.001161 -0.000896 0.006836 -0.003352 0.001176 -0.002325
# 4 0.000222 -0.003682 -0.003352 0.035580 0.004367 0.001914
# 5 -0.002942 -0.000681 0.001176 0.004367 0.024999 -0.009807
# 6 0.000391 0.001606 -0.002325 0.001914 -0.009807 0.039723
#
#
# Mechanical properties :
#
#
# Convention : Reuss Voigt Hill
#
# Bulk Modulus (GPa) = 49.27496 55.27200 52.27348
# Shear Modulus (GPa) = 35.01635 42.39471 38.70553
#
# Velocity S-wave (km/s) = 3.67764 4.04659 3.86652
# Velocity P-wave (km/s) = 6.08816 6.57129 6.33434
#
# Compressibility (1/GPa) = 0.02029428
#
# Stress axis : x y z
#
# Youngs Moduli (GPa) = 99.47893 89.92202 146.27695
#
# Poissons Ratio (x) = 0.16196 0.16979
# Poissons Ratio (y) = 0.17918 0.13102
# Poissons Ratio (z) = 0.11547 0.08054
#
# Static dielectric constant tensor:
#      x y z
#    x 2.102720 0.008440 0.105710 
#    y 0.008440 2.011980 -0.117370 
#    z 0.105710 -0.117370 2.281360 
# 
# From -- ./inp_files/243763.got.cif
#   From: 2010.05.17/outbox.cif.g08.bks.cpg/sg2_122_cif.got.tgz:243763.got - 2010.06.03 11:33:40.
