data_PCOD9050010
_publ_section_title
;
Structure prediction by ZEFSAII (Michael W. Deem and Ramdas Pophale) SiO2 
 PCOD9050010
Probable space group: P -1
;
_chemical_formula_sum "Si O2"
_cell_formula_units_Z 12
_cell_length_a 10.170261
_cell_length_b 5.646249
_cell_length_c 14.956190
_cell_angle_alpha 70.036582
_cell_angle_beta 41.153087
_cell_angle_gamma 94.944733
_cell_volume 441.904087
_symmetry_space_group_name_H-M "P -1"
_symmetry_group_IT_number 2
_symmetry_cell_setting 'triclinic'
loop_
_space_group_symop_operation_xyz
x,y,z
-x,-y,-z
loop_
_atom_site_type_symbol
_atom_site_label
_atom_site_fract_x
_atom_site_fract_y
_atom_site_fract_z
Si Si1 0.634678 0.902058 0.051309
Si Si2 0.728686 0.643406 0.800929
Si Si3 0.301996 0.935481 0.346408
Si Si4 0.840942 0.825323 0.212630
Si Si5 0.598411 0.179537 0.332945
Si Si6 0.015363 0.396310 0.680524
O O1 0.869914 0.949180 0.970069
O O2 0.757839 0.081501 0.871338
O O3 0.534229 0.035632 0.154077
O O4 0.401608 0.580072 0.188209
O O5 0.833726 0.967322 0.662038
O O6 0.934093 0.607841 0.740379
O O7 0.500000 0.500000 0.000000
O O8 0.401957 0.105917 0.367636
O O9 0.143623 0.586408 0.502590
O O10 0.743480 0.534677 0.236530
O O11 0.809571 0.665301 0.347085
O O12 0.734107 0.028873 0.241704
O O13 0.500000 0.000000 0.500000
#
# Coordination Sequence:
#
# PCOD9050010 Si02
#       6
#     2   2   2   2   2   2
#     4  10  26  47  69 110 146 197 250 311 376 445
#     4  12  25  48  74 105 154 195 251 319 376 447
#     4  12  27  44  78 107 147 202 254 304 385 447
#     4  10  26  46  78 105 155 198 244 315 378 437
#     4  12  25  48  76 114 153 197 253 313 373 455
#     4  10  24  48  72 108 142 200 248 314 374 448
#
# _framework density 27.155215999999999
#
# number of rings (size 3 to 8) (size 9 to 14) (size 15 to 20)
#    1.000    0.000    3.333    1.500    7.000    2.000 
#    3.000    0.000    0.000    0.000    0.000    0.000 
#    0.000    0.000    0.000    0.000    0.000    0.000 
#
# Total GULP energy -66973.570606 kJ/mol
# GULP energy per Si atom -5581.130884 kJ/mol
# Density = 2.709341 g / cm^3
# Si number density = 27.155216 Si / 1000 Ang^3
#
#
#
# Elastic Constant Matrix: (Units=GPa)
#
#
# Indices 1 2 3 4 5 6 
#
# 1 74.3943 43.5903 30.9056 -8.6357 22.3854 -12.7452
# 2 43.5903 114.5352 23.5852 -15.7382 6.2914 0.2046
# 3 30.9056 23.5852 135.6885 -7.8948 25.6308 -13.1863
# 4 -8.6357 -15.7382 -7.8948 46.2686 -12.8260 0.3282
# 5 22.3854 6.2914 25.6308 -12.8260 53.9438 -1.6610
# 6 -12.7452 0.2046 -13.1863 0.3282 -1.6610 52.7440
#
#
#
# Elastic Compliance Matrix: (Units=1/GPa)
#
#
# Indices 1 2 3 4 5 6 
#
# 1 0.021459 -0.007526 -0.001825 -0.000904 -0.007236 0.004536
# 2 -0.007526 0.012095 -0.000936 0.003367 0.002895 -0.002029
# 3 -0.001825 -0.000936 0.008715 -0.000083 -0.003244 0.001640
# 4 -0.000904 0.003367 -0.000083 0.024174 0.005763 -0.000221
# 5 -0.007236 0.002895 -0.003244 0.005763 0.024057 -0.001849
# 6 0.004536 -0.002029 0.001640 -0.000221 -0.001849 0.020417
#
#
# Mechanical properties :
#
#
# Convention : Reuss Voigt Hill
#
# Bulk Modulus (GPa) = 46.09219 57.86445 51.97832
# Shear Modulus (GPa) = 36.04267 45.69373 40.86820
#
# Velocity S-wave (km/s) = 3.64714 4.10651 3.88362
# Velocity P-wave (km/s) = 5.89457 6.62115 6.26840
#
# Compressibility (1/GPa) = 0.02169565
#
# Stress axis : x y z
#
# Youngs Moduli (GPa) = 46.60023 82.67662 114.73837
#
# Poissons Ratio (x) = 0.62224 0.20934
# Poissons Ratio (y) = 0.35072 0.10744
# Poissons Ratio (z) = 0.08502 0.07742
#
# Static dielectric constant tensor:
#      x y z
#    x 2.128430 -0.084010 0.006070 
#    y -0.084010 2.343570 0.020950 
#    z 0.006070 0.020950 2.083700 
# 
# From -- ./inp_files/510311.got.cif
#   From: 2010.05.17/outbox.cif.g08.bks.cpg/sg2_256_cif.got.tgz:510311.got - 2010.06.03 11:33:40.
