data_PCOD9050535
_publ_section_title
;
Structure prediction by ZEFSAII (Michael W. Deem and Ramdas Pophale) SiO2 
 PCOD9050535
Probable space group: P -1
;
_chemical_formula_sum "Si O2"
_cell_formula_units_Z 12
_cell_length_a 12.370631
_cell_length_b 15.582822
_cell_length_c 5.345533
_cell_angle_alpha 97.929021
_cell_angle_beta 75.916836
_cell_angle_gamma 152.247492
_cell_volume 458.528952
_symmetry_space_group_name_H-M "P -1"
_symmetry_group_IT_number 2
_symmetry_cell_setting 'triclinic'
loop_
_space_group_symop_operation_xyz
x,y,z
-x,-y,-z
loop_
_atom_site_type_symbol
_atom_site_label
_atom_site_fract_x
_atom_site_fract_y
_atom_site_fract_z
Si Si1 0.008290 0.265699 0.041157
Si Si2 0.450544 0.563303 0.617284
Si Si3 0.903820 0.860357 0.803465
Si Si4 0.512095 0.915800 0.338095
Si Si5 0.817833 0.427548 0.895574
Si Si6 0.638525 0.853932 0.604279
O O1 0.092089 0.233376 0.112644
O O2 0.070241 0.402713 0.181270
O O3 0.171069 0.381198 0.750962
O O4 0.724348 0.065823 0.072412
O O5 0.500000 0.500000 0.500000
O O6 0.637645 0.703331 0.801019
O O7 0.534255 0.698595 0.448238
O O8 0.075696 0.968078 0.501830
O O9 0.000000 0.000000 0.000000
O O10 0.267551 0.701861 0.309195
O O11 0.618512 0.926288 0.489025
O O12 0.500000 0.000000 0.500000
O O13 0.563358 0.274551 0.118211
O O14 0.000000 0.500000 0.000000
#
# Coordination Sequence:
#
# PCOD9050535 Si02
#       6
#     2   2   2   2   2   2
#     4  10  25  42  70  99 137 183 222 278 341 404
#     4  11  24  41  67 104 141 178 229 275 332 409
#     4  11  24  43  69 102 143 182 227 275 336 405
#     4  11  26  48  71 101 138 178 229 294 350 402
#     4  11  26  48  71 102 136 178 235 287 346 416
#     4  10  25  42  70  99 137 183 222 278 341 404
#
# _framework density 26.170646000000001
#
# number of rings (size 3 to 8) (size 9 to 14) (size 15 to 20)
#    0.000    1.333    0.000    3.000   14.000    5.333 
#    6.000    0.000    0.000    0.000    0.000    0.000 
#    0.000    0.000    0.000    0.000    0.000    0.000 
#
# Total GULP energy -66996.460991 kJ/mol
# GULP energy per Si atom -5583.038416 kJ/mol
# Density = 2.611108 g / cm^3
# Si number density = 26.170646 Si / 1000 Ang^3
#
#
#
# Elastic Constant Matrix: (Units=GPa)
#
#
# Indices 1 2 3 4 5 6 
#
# 1 192.6727 70.4117 13.9751 13.5152 -16.1472 -32.0072
# 2 70.4117 165.6088 28.1680 4.5786 -12.9610 -27.1192
# 3 13.9751 28.1680 46.8214 -11.6149 -16.0486 0.5770
# 4 13.5152 4.5786 -11.6149 49.6416 0.9979 -0.2264
# 5 -16.1472 -12.9610 -16.0486 0.9979 27.0958 -3.1628
# 6 -32.0072 -27.1192 0.5770 -0.2264 -3.1628 60.7248
#
#
#
# Elastic Compliance Matrix: (Units=1/GPa)
#
#
# Indices 1 2 3 4 5 6 
#
# 1 0.006850 -0.002122 -0.000060 -0.001739 0.003427 0.002836
# 2 -0.002122 0.008194 -0.004522 -0.001231 0.000325 0.002597
# 3 -0.000060 -0.004522 0.031441 0.007462 0.015975 -0.001490
# 4 -0.001739 -0.001231 0.007462 0.022435 0.001809 -0.001360
# 5 0.003427 0.000325 0.015975 0.001809 0.049008 0.004359
# 6 0.002836 0.002597 -0.001490 -0.001360 0.004359 0.019358
#
#
# Mechanical properties :
#
#
# Convention : Reuss Voigt Hill
#
# Bulk Modulus (GPa) = 30.23187 70.02358 50.12773
# Shear Modulus (GPa) = 30.91760 46.99564 38.95662
#
# Velocity S-wave (km/s) = 3.44086 4.24221 3.86237
# Velocity P-wave (km/s) = 5.23095 7.12810 6.25191
#
# Compressibility (1/GPa) = 0.03307768
#
# Stress axis : x y z
#
# Youngs Moduli (GPa) = 145.98326 122.03703 31.80525
#
# Poissons Ratio (x) = 0.25891 0.00191
# Poissons Ratio (y) = 0.30972 0.14383
# Poissons Ratio (z) = 0.00877 0.55189
#
# Static dielectric constant tensor:
#      x y z
#    x 2.209850 -0.047710 -0.047470 
#    y -0.047710 2.079070 0.024200 
#    z -0.047470 0.024200 2.169040 
# 
# From -- ./inp_files/77872.got.cif
#   From: 2010.05.17/outbox.cif.g08.bks.cpg/sg2_39_cif.got.tgz:77872.got - 2010.06.03 11:33:40.
