data_PCOD9051516
_publ_section_title
;
Structure prediction by ZEFSAII (Michael W. Deem and Ramdas Pophale) SiO2 
 PCOD9051516
Probable space group: P -1
;
_chemical_formula_sum "Si O2"
_cell_formula_units_Z 14
_cell_length_a 5.376800
_cell_length_b 10.870590
_cell_length_c 9.384852
_cell_angle_alpha 85.363746
_cell_angle_beta 84.809825
_cell_angle_gamma 68.035980
_cell_volume 505.979794
_symmetry_space_group_name_H-M "P -1"
_symmetry_group_IT_number 2
_symmetry_cell_setting 'triclinic'
loop_
_space_group_symop_operation_xyz
x,y,z
-x,-y,-z
loop_
_atom_site_type_symbol
_atom_site_label
_atom_site_fract_x
_atom_site_fract_y
_atom_site_fract_z
Si Si1 0.767400 0.275589 0.575367
Si Si2 0.211660 0.073726 0.440075
Si Si3 0.245371 0.455488 0.881863
Si Si4 0.408159 0.698863 0.740688
Si Si5 0.087291 0.100948 0.119943
Si Si6 0.751249 0.196045 0.893498
Si Si7 0.889474 0.492861 0.659157
O O1 0.627177 0.283117 0.430758
O O2 0.755784 0.192360 0.721586
O O3 0.690769 0.417713 0.639447
O O4 0.076423 0.213519 0.514715
O O5 0.222567 0.100260 0.267679
O O6 0.500000 0.000000 0.500000
O O7 0.000000 0.000000 0.500000
O O8 0.300045 0.587375 0.818505
O O9 0.505888 0.331680 0.933036
O O10 0.131198 0.407466 0.753355
O O11 0.000000 0.500000 0.000000
O O12 0.727773 0.626616 0.739883
O O13 0.226876 0.836609 0.810409
O O14 0.240535 0.952461 0.067191
O O15 0.019951 0.188886 0.968836
O O16 0.000000 0.500000 0.500000
#
# Coordination Sequence:
#
# PCOD9051516 Si02
#       7
#     2   2   2   2   2   2   2
#     4  11  23  43  74 105 141 197 246 318 379 444
#     4  11  25  48  75 109 153 200 255 312 387 458
#     4  12  27  44  71 106 143 194 245 310 387 452
#     4  11  24  47  69 104 147 183 255 312 372 454
#     4  10  25  46  73 106 147 200 245 316 379 457
#     4  11  23  48  73 103 152 192 254 306 387 459
#     4  12  24  42  72 105 139 191 249 315 376 447
#
# _framework density 27.669091000000002
#
# number of rings (size 3 to 8) (size 9 to 14) (size 15 to 20)
#    0.000    0.857    4.286    2.143    4.000    3.429 
#    5.143    1.429    0.000    0.000    0.000    0.000 
#    0.000    0.000    0.000    0.000    0.000    0.000 
#
# Total GULP energy -78106.494016 kJ/mol
# GULP energy per Si atom -5579.035287 kJ/mol
# Density = 2.760611 g / cm^3
# Si number density = 27.669091 Si / 1000 Ang^3
#
#
#
# Elastic Constant Matrix: (Units=GPa)
#
#
# Indices 1 2 3 4 5 6 
#
# 1 82.3075 45.6703 54.0722 -15.4314 -7.6332 -12.2479
# 2 45.6703 163.8372 81.0757 -8.2545 9.4626 -19.7923
# 3 54.0722 81.0757 199.1860 -15.6505 24.6317 -13.2317
# 4 -15.4314 -8.2545 -15.6505 63.8556 -4.1187 14.2360
# 5 -7.6332 9.4626 24.6317 -4.1187 42.0237 -13.7470
# 6 -12.2479 -19.7923 -13.2317 14.2360 -13.7470 49.5900
#
#
#
# Elastic Compliance Matrix: (Units=1/GPa)
#
#
# Indices 1 2 3 4 5 6 
#
# 1 0.018399 -0.002848 -0.004369 0.002702 0.008016 0.003688
# 2 -0.002848 0.008376 -0.002514 -0.000707 -0.000317 0.002084
# 3 -0.004369 -0.002514 0.007820 0.000556 -0.005287 -0.001621
# 4 0.002702 -0.000707 0.000556 0.017351 0.000627 -0.004274
# 5 0.008016 -0.000317 -0.005287 0.000627 0.031419 0.008972
# 6 0.003688 0.002084 -0.001621 -0.004274 0.008972 0.025189
#
#
# Mechanical properties :
#
#
# Convention : Reuss Voigt Hill
#
# Bulk Modulus (GPa) = 66.08526 89.66301 77.87413
# Shear Modulus (GPa) = 37.57660 48.72801 43.15230
#
# Velocity S-wave (km/s) = 3.68920 4.20110 3.95344
# Velocity P-wave (km/s) = 6.48714 7.48386 7.00325
#
# Compressibility (1/GPa) = 0.01513197
#
# Stress axis : x y z
#
# Youngs Moduli (GPa) = 54.35051 119.38813 127.88203
#
# Poissons Ratio (x) = 0.34000 0.55878
# Poissons Ratio (y) = 0.15478 0.32151
# Poissons Ratio (z) = 0.23748 0.30016
#
# Static dielectric constant tensor:
#      x y z
#    x 4.120690 1.662130 -0.452400 
#    y 1.662130 3.578930 -0.423430 
#    z -0.452400 -0.423430 2.267550 
# 
# From -- ./inp_files/135311.got.cif
#   From: 2010.05.17/outbox.cif.g08.bks.cpg/sg2_68_cif.got.tgz:135311.got - 2010.06.03 11:33:40.
