data_PCOD9051651
_publ_section_title
;
Structure prediction by ZEFSAII (Michael W. Deem and Ramdas Pophale) SiO2 
 PCOD9051651
Probable space group: P -1
;
_chemical_formula_sum "Si O2"
_cell_formula_units_Z 14
_cell_length_a 10.878131
_cell_length_b 7.176923
_cell_length_c 11.104337
_cell_angle_alpha 70.101868
_cell_angle_beta 60.853599
_cell_angle_gamma 42.592199
_cell_volume 512.184166
_symmetry_space_group_name_H-M "P -1"
_symmetry_group_IT_number 2
_symmetry_cell_setting 'triclinic'
loop_
_space_group_symop_operation_xyz
x,y,z
-x,-y,-z
loop_
_atom_site_type_symbol
_atom_site_label
_atom_site_fract_x
_atom_site_fract_y
_atom_site_fract_z
Si Si1 0.024218 0.784892 0.941098
Si Si2 0.452681 0.492381 0.354451
Si Si3 0.317824 0.295852 0.071642
Si Si4 0.843392 0.430165 0.338971
Si Si5 0.847239 0.865878 0.334284
Si Si6 0.767637 0.917928 0.636587
Si Si7 0.258889 0.704672 0.142121
O O1 0.147381 0.641326 0.788936
O O2 0.127029 0.511897 0.030518
O O3 0.807291 0.014348 0.935622
O O4 0.000000 0.000000 0.000000
O O5 0.319897 0.510757 0.512800
O O6 0.418314 0.756577 0.344375
O O7 0.364497 0.571716 0.246070
O O8 0.661809 0.183783 0.321910
O O9 0.368159 0.474047 0.037407
O O10 0.273875 0.234867 0.232893
O O11 0.500000 0.000000 0.000000
O O12 0.830686 0.679677 0.307695
O O13 0.049174 0.164979 0.361878
O O14 0.045751 0.798885 0.240347
O O15 0.827054 0.823935 0.492447
#
# Coordination Sequence:
#
# PCOD9051651 Si02
#       7
#     2   2   2   2   2   2   2
#     4  10  25  47  70  98 143 197 240 292 354 424
#     4  12  26  43  77 112 145 187 237 305 377 429
#     4  11  27  45  71 100 145 197 247 296 349 428
#     4  12  23  46  75 106 147 189 238 302 374 428
#     4  12  26  43  78 112 146 183 238 310 373 425
#     4  12  24  47  71 107 149 188 240 302 366 431
#     4  11  23  51  71 106 148 187 242 307 362 428
#
# _framework density 27.333915999999999
#
# number of rings (size 3 to 8) (size 9 to 14) (size 15 to 20)
#    0.000    0.571    4.286    3.429    6.000    0.571 
#    0.000    0.714    0.000    0.000    0.000    0.000 
#    0.000    0.000    0.000    0.000    0.000    0.000 
#
# Total GULP energy -78382.318544 kJ/mol
# GULP energy per Si atom -5598.737039 kJ/mol
# Density = 2.727170 g / cm^3
# Si number density = 27.333916 Si / 1000 Ang^3
#
#
#
# Elastic Constant Matrix: (Units=GPa)
#
#
# Indices 1 2 3 4 5 6 
#
# 1 73.2623 59.0108 62.6140 -7.5466 6.8588 5.9290
# 2 59.0108 255.5561 78.7326 -12.3446 11.1570 2.2374
# 3 62.6140 78.7326 208.0038 -7.5474 41.2651 -0.2731
# 4 -7.5466 -12.3446 -7.5474 53.0734 1.3360 8.2881
# 5 6.8588 11.1570 41.2651 1.3360 35.7850 -5.0233
# 6 5.9290 2.2374 -0.2731 8.2881 -5.0233 52.3710
#
#
#
# Elastic Compliance Matrix: (Units=1/GPa)
#
#
# Indices 1 2 3 4 5 6 
#
# 1 0.021165 -0.003151 -0.005747 0.001732 0.003171 -0.002261
# 2 -0.003151 0.004948 -0.000927 0.000558 0.000119 0.000064
# 3 -0.005747 -0.000927 0.008604 0.000430 -0.008569 -0.000155
# 4 0.001732 0.000558 0.000430 0.019895 -0.002248 -0.003582
# 5 0.003171 0.000119 -0.008569 -0.002248 0.037766 0.003569
# 6 -0.002261 0.000064 -0.000155 -0.003582 0.003569 0.020256
#
#
# Mechanical properties :
#
#
# Convention : Reuss Voigt Hill
#
# Bulk Modulus (GPa) = 66.38428 104.17078 85.27753
# Shear Modulus (GPa) = 36.41469 50.67687 43.54578
#
# Velocity S-wave (km/s) = 3.65391 4.31047 3.99570
# Velocity P-wave (km/s) = 6.49158 7.93516 7.24939
#
# Compressibility (1/GPa) = 0.01506381
#
# Stress axis : x y z
#
# Youngs Moduli (GPa) = 47.24864 202.11655 116.22359
#
# Poissons Ratio (x) = 0.63696 0.66799
# Poissons Ratio (y) = 0.14890 0.10778
# Poissons Ratio (z) = 0.27156 0.18744
#
# Static dielectric constant tensor:
#      x y z
#    x 2.303010 0.015050 -0.039320 
#    y 0.015050 2.192720 -0.005520 
#    z -0.039320 -0.005520 2.122730 
# 
# From -- ./inp_files/447139.got.cif
#   From: 2010.05.17/outbox.cif.g08.bks.cpg/sg2_224_cif.got.tgz:447139.got - 2010.06.03 11:33:40.
