data_PCOD9051795
_publ_section_title
;
Structure prediction by ZEFSAII (Michael W. Deem and Ramdas Pophale) SiO2 
 PCOD9051795
Probable space group: P -1
;
_chemical_formula_sum "Si O2"
_cell_formula_units_Z 16
_cell_length_a 14.854544
_cell_length_b 5.239238
_cell_length_c 17.464502
_cell_angle_alpha 101.010721
_cell_angle_beta 39.853954
_cell_angle_gamma 121.798493
_cell_volume 681.024909
_symmetry_space_group_name_H-M "P -1"
_symmetry_group_IT_number 2
_symmetry_cell_setting 'triclinic'
loop_
_space_group_symop_operation_xyz
x,y,z
-x,-y,-z
loop_
_atom_site_type_symbol
_atom_site_label
_atom_site_fract_x
_atom_site_fract_y
_atom_site_fract_z
Si Si1 0.210230 0.829054 0.536349
Si Si2 0.143848 0.673281 0.732283
Si Si3 0.574861 0.341641 0.394207
Si Si4 0.625931 0.621884 0.097499
Si Si5 0.761721 0.229792 0.943083
Si Si6 0.350451 0.213745 0.138858
Si Si7 0.809327 0.864588 0.147629
Si Si8 0.971547 0.929762 0.424083
O O1 0.139515 0.837132 0.667085
O O2 0.123727 0.453439 0.552259
O O3 0.420164 0.055537 0.425341
O O4 0.148246 0.973342 0.525017
O O5 0.322448 0.712453 0.613223
O O6 0.956049 0.328090 0.832684
O O7 0.161978 0.836730 0.809710
O O8 0.500000 0.500000 0.500000
O O9 0.730129 0.595175 0.249500
O O10 0.441424 0.304231 0.167632
O O11 0.667527 0.715578 0.163811
O O12 0.755284 0.526880 0.983735
O O13 0.650497 0.925400 0.056136
O O14 0.698562 0.108085 0.890884
O O15 0.500000 0.500000 0.000000
O O16 0.163591 0.147234 0.269217
O O17 0.000000 0.000000 0.000000
O O18 0.000000 0.000000 0.500000
#
# Coordination Sequence:
#
# PCOD9051795 Si02
#       8
#     2   2   2   2   2   2   2   2
#     4  12  28  50  80 105 155 205 258 311 383 464
#     4  12  26  45  80 109 154 203 262 307 382 460
#     4  12  28  48  76 112 152 208 266 313 379 469
#     4  11  26  44  69 114 150 198 242 322 381 451
#     4  11  24  45  74 106 152 196 254 305 387 455
#     4  10  25  47  79 106 148 194 259 308 381 454
#     4  12  27  46  75 111 160 194 252 317 393 449
#     4  12  29  51  77 113 151 200 253 323 389 449
#
# _framework density 23.494002999999999
#
# number of rings (size 3 to 8) (size 9 to 14) (size 15 to 20)
#    0.000    0.500    3.750    2.625    8.750    3.000 
#    2.250    0.000    0.000    0.000    0.000    0.000 
#    0.000    0.000    0.000    0.000    0.000    0.000 
#
# Total GULP energy -89397.261014 kJ/mol
# GULP energy per Si atom -5587.328813 kJ/mol
# Density = 2.344053 g / cm^3
# Si number density = 23.494003 Si / 1000 Ang^3
#
#
#
# Elastic Constant Matrix: (Units=GPa)
#
#
# Indices 1 2 3 4 5 6 
#
# 1 150.8781 58.6232 19.5232 0.3606 -8.2057 22.8016
# 2 58.6232 127.3484 38.4426 0.4106 -6.1761 27.9789
# 3 19.5232 38.4426 87.2640 -9.8500 -7.2397 -0.7978
# 4 0.3606 0.4106 -9.8500 34.0199 8.8021 -0.4590
# 5 -8.2057 -6.1761 -7.2397 8.8021 40.2328 3.4404
# 6 22.8016 27.9789 -0.7978 -0.4590 3.4404 50.4120
#
#
#
# Elastic Compliance Matrix: (Units=1/GPa)
#
#
# Indices 1 2 3 4 5 6 
#
# 1 0.008311 -0.003158 -0.000433 -0.000576 0.001439 -0.002116
# 2 -0.003158 0.011986 -0.004733 -0.001869 0.001215 -0.005399
# 3 -0.000433 -0.004733 0.014176 0.004055 0.000589 0.003044
# 4 -0.000576 -0.001869 0.004055 0.032424 -0.006951 0.002132
# 5 0.001439 0.001215 0.000589 -0.006951 0.027239 -0.003238
# 6 -0.002116 -0.005399 0.003044 0.002132 -0.003238 0.024079
#
#
# Mechanical properties :
#
#
# Convention : Reuss Voigt Hill
#
# Bulk Modulus (GPa) = 56.10539 66.51875 61.31207
# Shear Modulus (GPa) = 35.51016 41.52636 38.51826
#
# Velocity S-wave (km/s) = 3.89196 4.20876 4.05346
# Velocity P-wave (km/s) = 6.64297 7.21060 6.93260
#
# Compressibility (1/GPa) = 0.01782360
#
# Stress axis : x y z
#
# Youngs Moduli (GPa) = 120.32922 83.42893 70.54256
#
# Poissons Ratio (x) = 0.26350 0.03054
# Poissons Ratio (y) = 0.38004 0.33390
# Poissons Ratio (z) = 0.05209 0.39489
#
# Static dielectric constant tensor:
#      x y z
#    x 1.879940 0.003320 -0.007970 
#    y 0.003320 1.895710 -0.029620 
#    z -0.007970 -0.029620 1.930050 
# 
# From -- ./inp_files/571755.got.cif
#   From: 2010.05.17/outbox.cif.g08.bks.cpg/sg2_286_cif.got.tgz:571755.got - 2010.06.03 11:33:40.
