data_PCOD9051918
_publ_section_title
;
Structure prediction by ZEFSAII (Michael W. Deem and Ramdas Pophale) SiO2 
 PCOD9051918
Probable space group: P -1
;
_chemical_formula_sum "Si O2"
_cell_formula_units_Z 16
_cell_length_a 12.803404
_cell_length_b 6.070641
_cell_length_c 11.855345
_cell_angle_alpha 96.039455
_cell_angle_beta 121.669658
_cell_angle_gamma 113.552850
_cell_volume 657.702450
_symmetry_space_group_name_H-M "P -1"
_symmetry_group_IT_number 2
_symmetry_cell_setting 'triclinic'
loop_
_space_group_symop_operation_xyz
x,y,z
-x,-y,-z
loop_
_atom_site_type_symbol
_atom_site_label
_atom_site_fract_x
_atom_site_fract_y
_atom_site_fract_z
Si Si1 0.305868 0.302722 0.258085
Si Si2 0.041003 0.717359 0.133209
Si Si3 0.185923 0.536931 0.377676
Si Si4 0.653803 0.432313 0.151764
Si Si5 0.934801 0.692986 0.481734
Si Si6 0.370377 0.964493 0.071140
Si Si7 0.508730 0.111792 0.386836
Si Si8 0.770079 0.769706 0.033746
O O1 0.261078 0.457752 0.321612
O O2 0.450610 0.307259 0.370376
O O3 0.171263 0.001286 0.180292
O O4 0.315820 0.380040 0.137529
O O5 0.099229 0.641521 0.270290
O O6 0.910920 0.752694 0.100677
O O7 0.000000 0.500000 0.000000
O O8 0.091170 0.308328 0.399073
O O9 0.322627 0.758668 0.539508
O O10 0.788620 0.534869 0.316423
O O11 0.506470 0.255522 0.129226
O O12 0.693883 0.678708 0.107943
O O13 0.639492 0.238878 0.033907
O O14 0.000000 0.500000 0.500000
O O15 0.000000 0.000000 0.500000
O O16 0.408251 0.929207 0.217593
O O17 0.222312 0.959970 0.970747
O O18 0.500000 0.000000 0.500000
#
# Coordination Sequence:
#
# PCOD9051918 Si02
#       8
#     2   2   2   2   2   2   2   2
#     4  11  26  43  71 107 142 193 239 315 383 465
#     4  12  26  43  69 107 149 190 244 307 381 469
#     4  12  26  49  73 108 150 196 256 314 393 464
#     4  11  25  49  76 107 148 201 258 324 382 473
#     4  12  31  53  79 115 159 214 263 323 397 472
#     4  10  25  48  75 111 145 193 262 317 396 457
#     4  11  23  46  75 107 150 191 250 322 394 466
#     4  11  25  41  72 105 145 190 250 311 382 460
#
# _framework density 24.327109
#
# number of rings (size 3 to 8) (size 9 to 14) (size 15 to 20)
#    0.000    0.750    3.750    1.875   10.500    0.000 
#    0.000    0.000    0.000    0.000    0.000    0.000 
#    0.000    0.000    0.000    0.000    0.000    0.000 
#
# Total GULP energy -89310.288152 kJ/mol
# GULP energy per Si atom -5581.893010 kJ/mol
# Density = 2.427174 g / cm^3
# Si number density = 24.327109 Si / 1000 Ang^3
#
#
#
# Elastic Constant Matrix: (Units=GPa)
#
#
# Indices 1 2 3 4 5 6 
#
# 1 71.6447 28.0304 42.1753 -17.8461 0.2449 -9.9951
# 2 28.0304 100.4277 56.7010 -16.5538 10.8661 10.9781
# 3 42.1753 56.7010 152.8394 -33.4580 12.3452 -14.9832
# 4 -17.8461 -16.5538 -33.4580 55.0749 -2.6800 -2.3373
# 5 0.2449 10.8661 12.3452 -2.6800 55.3736 -10.4023
# 6 -9.9951 10.9781 -14.9832 -2.3373 -10.4023 42.3971
#
#
#
# Elastic Compliance Matrix: (Units=1/GPa)
#
#
# Indices 1 2 3 4 5 6 
#
# 1 0.018673 -0.004032 -0.002532 0.003647 0.002456 0.005355
# 2 -0.004032 0.015007 -0.004985 -0.000295 -0.003221 -0.007405
# 3 -0.002532 -0.004985 0.010488 0.004232 -0.000287 0.004563
# 4 0.003647 -0.000295 0.004232 0.022029 0.000890 0.003865
# 5 0.002456 -0.003221 -0.000287 0.000890 0.019963 0.006259
# 6 0.005355 -0.007405 0.004563 0.003865 0.006259 0.030128
#
#
# Mechanical properties :
#
#
# Convention : Reuss Voigt Hill
#
# Bulk Modulus (GPa) = 47.46204 64.30281 55.88242
# Shear Modulus (GPa) = 34.15125 43.76947 38.96036
#
# Velocity S-wave (km/s) = 3.75084 4.24631 4.00624
# Velocity P-wave (km/s) = 6.18957 7.10855 6.66491
#
# Compressibility (1/GPa) = 0.02106947
#
# Stress axis : x y z
#
# Youngs Moduli (GPa) = 53.55338 66.63772 95.34930
#
# Poissons Ratio (x) = 0.26870 0.24140
# Poissons Ratio (y) = 0.21594 0.47531
# Poissons Ratio (z) = 0.13558 0.33218
#
# Static dielectric constant tensor:
#      x y z
#    x 2.014620 0.041690 0.015660 
#    y 0.041690 2.053320 0.037310 
#    z 0.015660 0.037310 1.936170 
# 
# From -- ./inp_files/442008.got.cif
#   From: 2010.05.17/outbox.cif.g08.bks.cpg/sg2_222_cif.got.tgz:442008.got - 2010.06.03 11:33:40.
