data_PCOD9051928
_publ_section_title
;
Structure prediction by ZEFSAII (Michael W. Deem and Ramdas Pophale) SiO2 
 PCOD9051928
Probable space group: P -1
;
_chemical_formula_sum "Si O2"
_cell_formula_units_Z 15
_cell_length_a 9.611558
_cell_length_b 16.376236
_cell_length_c 4.865098
_cell_angle_alpha 92.516968
_cell_angle_beta 81.645988
_cell_angle_gamma 136.055060
_cell_volume 523.723282
_symmetry_space_group_name_H-M "P -1"
_symmetry_group_IT_number 2
_symmetry_cell_setting 'triclinic'
loop_
_space_group_symop_operation_xyz
x,y,z
-x,-y,-z
loop_
_atom_site_type_symbol
_atom_site_label
_atom_site_fract_x
_atom_site_fract_y
_atom_site_fract_z
Si Si1 0.303397 0.366944 0.291208
Si Si2 0.378221 0.690547 0.664126
Si Si3 0.460697 0.095293 0.088085
Si Si4 0.238453 0.940853 0.616506
Si Si5 0.848236 0.268034 0.613161
Si Si6 0.000000 0.000000 0.500000
Si Si7 0.727058 0.760230 0.236500
Si Si8 0.233301 0.470050 0.907341
O O1 0.225675 0.295603 0.583549
O O2 0.549501 0.473685 0.251125
O O3 0.221642 0.417808 0.194129
O O4 0.267275 0.279006 0.066201
O O5 0.503965 0.696102 0.394172
O O6 0.266554 0.581308 0.882937
O O7 0.549124 0.814070 0.802834
O O8 0.226731 0.690371 0.560213
O O9 0.296664 0.988599 0.915732
O O10 0.669595 0.179375 0.876505
O O11 0.432571 0.036089 0.371356
O O12 0.093768 0.951973 0.556369
O O13 0.145508 0.813201 0.574331
O O14 0.041293 0.371240 0.757920
O O15 0.130544 0.103151 0.727883
#
# Coordination Sequence:
#
# PCOD9051928 Si02
#       8
#     2   2   2   2   2   1   2   2
#     4  10  25  51  72 107 153 195 244 310 378 433
#     4  11  26  47  76 106 155 195 247 307 377 438
#     4  12  26  51  73 108 151 204 238 308 379 441
#     4  12  29  47  78 108 153 196 246 309 380 438
#     4  12  26  49  74 115 149 198 255 304 367 454
#     4  12  26  46  78 114 144 194 252 308 362 452
#     4  11  25  46  75 107 151 195 246 307 374 440
#     4  10  25  48  77 111 145 202 249 311 366 444
#
# _framework density 28.641081
#
# number of rings (size 3 to 8) (size 9 to 14) (size 15 to 20)
#    0.000    0.800    2.667    2.000    9.333    8.533 
#    7.200    0.000    0.000    0.000    0.000    0.000 
#    0.000    0.000    0.000    0.000    0.000    0.000 
#
# Total GULP energy -84002.201144 kJ/mol
# GULP energy per Si atom -5600.146743 kJ/mol
# Density = 2.857589 g / cm^3
# Si number density = 28.641081 Si / 1000 Ang^3
#
#
#
# Elastic Constant Matrix: (Units=GPa)
#
#
# Indices 1 2 3 4 5 6 
#
# 1 219.1405 60.7195 33.5373 10.3941 26.2551 -33.1304
# 2 60.7195 173.9075 33.5293 12.0014 20.3094 -31.0444
# 3 33.5373 33.5293 122.4463 11.3807 7.6306 -11.7051
# 4 10.3941 12.0014 11.3807 43.3397 -4.5663 6.4616
# 5 26.2551 20.3094 7.6306 -4.5663 38.6214 5.4460
# 6 -33.1304 -31.0444 -11.7051 6.4616 5.4460 60.1312
#
#
#
# Elastic Compliance Matrix: (Units=1/GPa)
#
#
# Indices 1 2 3 4 5 6 
#
# 1 0.005987 -0.000715 -0.000664 -0.002023 -0.004282 0.003405
# 2 -0.000715 0.007579 -0.000985 -0.002706 -0.004189 0.003998
# 3 -0.000664 -0.000985 0.009024 -0.002255 -0.001255 0.001239
# 4 -0.002023 -0.002706 -0.002255 0.026635 0.007305 -0.006474
# 5 -0.004282 -0.004189 -0.001255 0.007305 0.033326 -0.008570
# 6 0.003405 0.003998 0.001239 -0.006474 -0.008570 0.022283
#
#
# Mechanical properties :
#
#
# Convention : Reuss Voigt Hill
#
# Bulk Modulus (GPa) = 55.97923 85.67407 70.82665
# Shear Modulus (GPa) = 43.28397 54.26567 48.77482
#
# Velocity S-wave (km/s) = 3.89170 4.35751 4.13118
# Velocity P-wave (km/s) = 6.30724 7.43607 6.89480
#
# Compressibility (1/GPa) = 0.01786377
#
# Stress axis : x y z
#
# Youngs Moduli (GPa) = 167.03679 131.94075 110.80951
#
# Poissons Ratio (x) = 0.09430 0.07354
# Poissons Ratio (y) = 0.11939 0.10914
# Poissons Ratio (z) = 0.11085 0.12995
#
# Static dielectric constant tensor:
#      x y z
#    x 2.072670 -0.147100 0.031680 
#    y -0.147100 1.956890 0.098550 
#    z 0.031680 0.098550 2.165980 
# 
# From -- ./inp_files/82272.got.cif
#   From: 2010.05.17/outbox.cif.g08.bks.cpg/sg2_42_cif.got.tgz:82272.got - 2010.06.03 11:33:40.
