data_PCOD9051546
_publ_section_title
;
Structure prediction by ZEFSAII (Michael W. Deem and Ramdas Pophale) SiO2 
 PCOD9051546
Probable space group: P -1
;
_chemical_formula_sum "Si O2"
_cell_formula_units_Z 12
_cell_length_a 7.106459
_cell_length_b 6.730258
_cell_length_c 23.237075
_cell_angle_alpha 43.503112
_cell_angle_beta 146.499923
_cell_angle_gamma 132.846708
_cell_volume 413.922068
_symmetry_space_group_name_H-M "P -1"
_symmetry_group_IT_number 2
_symmetry_cell_setting 'triclinic'
loop_
_space_group_symop_operation_xyz
x,y,z
-x,-y,-z
loop_
_atom_site_type_symbol
_atom_site_label
_atom_site_fract_x
_atom_site_fract_y
_atom_site_fract_z
Si Si1 0.010129 0.852220 0.212422
Si Si2 0.855892 0.379982 0.110247
Si Si3 0.169091 0.737836 0.753896
Si Si4 0.143056 0.787881 0.473977
Si Si5 0.714097 0.777241 0.459019
Si Si6 0.971040 0.840857 0.964367
O O1 0.413591 0.926674 0.319610
O O2 0.923669 0.502515 0.268487
O O3 0.893792 0.951461 0.098464
O O4 0.789128 0.030561 0.157751
O O5 0.046109 0.409751 0.213874
O O6 0.500000 0.500000 0.000000
O O7 0.059657 0.531166 0.074276
O O8 0.568862 0.760479 0.862895
O O9 0.113857 0.060382 0.662171
O O10 0.180173 0.462749 0.519087
O O11 0.500000 0.000000 0.500000
O O12 0.132332 0.959637 0.502788
O O13 0.500000 0.500000 0.500000
O O14 0.000000 0.000000 0.000000
#
# Coordination Sequence:
#
# PCOD9051546 Si02
#       6
#     2   2   2   2   2   2
#     4  12  25  49  82 108 168 224 277 354 428 507
#     4  10  25  46  74 114 159 213 280 343 423 505
#     4  11  25  49  73 116 160 216 282 338 429 518
#     4  12  27  49  83 119 167 218 280 363 430 500
#     4  12  28  52  78 124 166 219 287 348 428 520
#     4  11  23  47  74 113 159 210 280 347 417 511
#
# _framework density 28.990964999999999
#
# number of rings (size 3 to 8) (size 9 to 14) (size 15 to 20)
#    0.000    0.667    3.333    3.500    4.667    2.667 
#    6.000    0.000    0.000    0.000    0.000    0.000 
#    0.000    0.000    0.000    0.000    0.000    0.000 
#
# Total GULP energy -66932.746817 kJ/mol
# GULP energy per Si atom -5577.728901 kJ/mol
# Density = 2.892498 g / cm^3
# Si number density = 28.990965 Si / 1000 Ang^3
#
#
#
# Elastic Constant Matrix: (Units=GPa)
#
#
# Indices 1 2 3 4 5 6 
#
# 1 211.6078 53.3300 60.3260 -9.0905 -12.2740 -9.7861
# 2 53.3300 235.3665 72.0874 -19.1785 -1.2995 20.7053
# 3 60.3260 72.0874 160.2624 -23.8561 -13.9435 -11.0230
# 4 -9.0905 -19.1785 -23.8561 65.3918 8.9412 0.5387
# 5 -12.2740 -1.2995 -13.9435 8.9412 45.7177 -6.5438
# 6 -9.7861 20.7053 -11.0230 0.5387 -6.5438 62.8344
#
#
#
# Elastic Compliance Matrix: (Units=1/GPa)
#
#
# Indices 1 2 3 4 5 6 
#
# 1 0.005488 -0.000872 -0.001536 -0.000221 0.001166 0.000996
# 2 -0.000872 0.005418 -0.002265 0.000838 -0.001287 -0.002460
# 3 -0.001536 -0.002265 0.008449 0.001907 0.002040 0.002185
# 4 -0.000221 0.000838 0.001907 0.016583 -0.002755 -0.000405
# 5 0.001166 -0.001287 0.002040 -0.002755 0.023807 0.003466
# 6 0.000996 -0.002460 0.002185 -0.000405 0.003466 0.017628
#
#
# Mechanical properties :
#
#
# Convention : Reuss Voigt Hill
#
# Bulk Modulus (GPa) = 99.93141 108.74705 104.33923
# Shear Modulus (GPa) = 55.52182 62.88835 59.20509
#
# Velocity S-wave (km/s) = 4.38098 4.66256 4.52396
# Velocity P-wave (km/s) = 7.75470 8.15954 7.95969
#
# Compressibility (1/GPa) = 0.01000686
#
# Stress axis : x y z
#
# Youngs Moduli (GPa) = 182.22668 184.58620 118.36211
#
# Poissons Ratio (x) = 0.16096 0.18185
# Poissons Ratio (y) = 0.15890 0.26810
# Poissons Ratio (z) = 0.27998 0.41810
#
# Static dielectric constant tensor:
#      x y z
#    x 2.580430 0.136230 0.159950 
#    y 0.136230 3.007010 0.377480 
#    z 0.159950 0.377480 2.860120 
# 
# From -- ./inp_files/487696.got.cif
#   From: 2010.05.17/outbox.cif.g08.bks.cpg/sg2_244_cif.got.tgz:487696.got - 2010.06.03 11:33:40.
