data_PCOD9051720
_publ_section_title
;
Structure prediction by ZEFSAII (Michael W. Deem and Ramdas Pophale) SiO2 
 PCOD9051720
Probable space group: P -1
;
_chemical_formula_sum "Si O2"
_cell_formula_units_Z 14
_cell_length_a 19.313510
_cell_length_b 5.380682
_cell_length_c 10.602390
_cell_angle_alpha 47.329246
_cell_angle_beta 44.252609
_cell_angle_gamma 55.114029
_cell_volume 557.227320
_symmetry_space_group_name_H-M "P -1"
_symmetry_group_IT_number 2
_symmetry_cell_setting 'triclinic'
loop_
_space_group_symop_operation_xyz
x,y,z
-x,-y,-z
loop_
_atom_site_type_symbol
_atom_site_label
_atom_site_fract_x
_atom_site_fract_y
_atom_site_fract_z
Si Si1 0.985600 0.885838 0.700484
Si Si2 0.847145 0.815625 0.529476
Si Si3 0.102789 0.150384 0.825421
Si Si4 0.336447 0.664690 0.392772
Si Si5 0.788864 0.148494 0.965929
Si Si6 0.552771 0.827303 0.789585
Si Si7 0.410914 0.125147 0.673613
O O1 0.053795 0.543234 0.778346
O O2 0.868832 0.873066 0.878564
O O3 0.000000 0.000000 0.500000
O O4 0.035243 0.165719 0.615834
O O5 0.835056 0.838328 0.387715
O O6 0.813567 0.496992 0.753617
O O7 0.773450 0.145631 0.564724
O O8 0.172521 0.943912 0.911491
O O9 0.000000 0.000000 0.000000
O O10 0.370781 0.364013 0.350329
O O11 0.348943 0.473297 0.577732
O O12 0.399219 0.978557 0.227420
O O13 0.672635 0.118811 0.118335
O O14 0.469750 0.115409 0.731707
O O15 0.500000 0.500000 0.000000
O O16 0.500000 0.000000 0.500000
#
# Coordination Sequence:
#
# PCOD9051720 Si02
#       7
#     2   2   2   2   2   2   2
#     4  12  25  46  73 107 152 191 251 310 377 465
#     4  12  27  47  72 110 152 195 249 312 379 467
#     4  12  26  45  74 106 151 197 246 308 383 460
#     4  11  26  46  75 107 150 194 248 316 380 450
#     4  12  25  48  73 107 148 200 253 309 389 445
#     4  11  24  48  75 108 145 197 253 315 383 451
#     4  10  25  47  73 105 145 193 255 314 376 452
#
# _framework density 25.124397999999999
#
# number of rings (size 3 to 8) (size 9 to 14) (size 15 to 20)
#    0.000    0.571    2.857    4.286    8.000    2.286 
#    2.571    0.000    0.000    0.000    0.000    0.000 
#    0.000    0.000    0.000    0.000    0.000    0.000 
#
# Total GULP energy -78228.571486 kJ/mol
# GULP energy per Si atom -5587.755106 kJ/mol
# Density = 2.506721 g / cm^3
# Si number density = 25.124398 Si / 1000 Ang^3
#
#
#
# Elastic Constant Matrix: (Units=GPa)
#
#
# Indices 1 2 3 4 5 6 
#
# 1 96.0516 1.3809 49.1819 14.5063 -15.8851 -2.5630
# 2 1.3809 71.8883 22.3447 -3.7745 -5.6729 -13.4305
# 3 49.1819 22.3447 152.1871 -2.9103 -7.7508 -0.5738
# 4 14.5063 -3.7745 -2.9103 38.8868 -1.8218 -2.2639
# 5 -15.8851 -5.6729 -7.7508 -1.8218 61.1833 -1.8637
# 6 -2.5630 -13.4305 -0.5738 -2.2639 -1.8637 33.9901
#
#
#
# Elastic Compliance Matrix: (Units=1/GPa)
#
#
# Indices 1 2 3 4 5 6 
#
# 1 0.014151 0.001418 -0.004719 -0.005270 0.003092 0.001366
# 2 0.001418 0.016167 -0.002692 0.001308 0.001767 0.006634
# 3 -0.004719 -0.002692 0.008507 0.002051 -0.000371 -0.001160
# 4 -0.005270 0.001308 0.002051 0.028075 -0.000090 0.002019
# 5 0.003092 0.001767 -0.000371 -0.000090 0.017318 0.001869
# 6 0.001366 0.006634 -0.001160 0.002019 0.001869 0.032362
#
#
# Mechanical properties :
#
#
# Convention : Reuss Voigt Hill
#
# Bulk Modulus (GPa) = 37.26031 51.77135 44.51583
# Shear Modulus (GPa) = 36.35981 43.29335 39.82658
#
# Velocity S-wave (km/s) = 3.80832 4.15560 3.98575
# Velocity P-wave (km/s) = 5.84810 6.60879 6.24005
#
# Compressibility (1/GPa) = 0.02683821
#
# Stress axis : x y z
#
# Youngs Moduli (GPa) = 70.66640 61.85292 117.54764
#
# Poissons Ratio (x) = -0.08768 0.55476
# Poissons Ratio (y) = -0.10018 0.31642
# Poissons Ratio (z) = 0.33350 0.16650
#
# Static dielectric constant tensor:
#      x y z
#    x 1.982550 0.036470 0.043040 
#    y 0.036470 2.142580 -0.071690 
#    z 0.043040 -0.071690 2.010540 
# 
# From -- ./inp_files/468243.got.cif
#   From: 2010.05.17/outbox.cif.g08.bks.cpg/sg2_235_cif.got.tgz:468243.got - 2010.06.03 11:33:40.
