data_PCOD9051680
_publ_section_title
;
Structure prediction by ZEFSAII (Michael W. Deem and Ramdas Pophale) SiO2 
 PCOD9051680
Probable space group: P -1
;
_chemical_formula_sum "Si O2"
_cell_formula_units_Z 16
_cell_length_a 11.168947
_cell_length_b 8.796654
_cell_length_c 19.699548
_cell_angle_alpha 77.922410
_cell_angle_beta 159.299991
_cell_angle_gamma 101.936460
_cell_volume 668.651286
_symmetry_space_group_name_H-M "P -1"
_symmetry_group_IT_number 2
_symmetry_cell_setting 'triclinic'
loop_
_space_group_symop_operation_xyz
x,y,z
-x,-y,-z
loop_
_atom_site_type_symbol
_atom_site_label
_atom_site_fract_x
_atom_site_fract_y
_atom_site_fract_z
Si Si1 0.742594 0.608471 0.228478
Si Si2 0.950034 0.919977 0.675814
Si Si3 0.624580 0.361963 0.751681
Si Si4 0.646142 0.583656 0.860464
Si Si5 0.622639 0.033914 0.823459
Si Si6 0.651699 0.091728 0.991473
Si Si7 0.792518 0.556142 0.597889
Si Si8 0.693098 0.176295 0.421175
O O1 0.630452 0.453322 0.225314
O O2 0.443250 0.732519 0.052658
O O3 0.895718 0.556941 0.241809
O O4 0.998909 0.710217 0.403311
O O5 0.877913 0.738088 0.640286
O O6 0.329721 0.976604 0.848794
O O7 0.003015 0.945524 0.782340
O O8 0.703827 0.038884 0.495548
O O9 0.654714 0.424765 0.837832
O O10 0.504723 0.186296 0.709095
O O11 0.379088 0.453553 0.566241
O O12 0.002340 0.374295 0.921280
O O13 0.601791 0.704810 0.763545
O O14 0.671762 0.069960 0.924337
O O15 0.337893 0.906082 0.661556
O O16 0.000000 0.000000 0.000000
O O17 0.500000 0.500000 0.500000
#
# Coordination Sequence:
#
# PCOD9051680 Si02
#       8
#     2   2   2   2   2   2   2   2
#     4  11  25  45  74 104 139 189 239 292 352 419
#     4  10  25  47  71  99 142 187 239 293 351 422
#     4  11  24  44  67 107 145 182 234 298 353 418
#     4  11  23  42  73 103 144 182 234 292 362 415
#     4  12  24  43  71 107 144 184 234 294 357 417
#     4  10  25  49  70 103 142 189 240 286 353 427
#     4  12  28  46  70 104 143 184 243 294 355 422
#     4  11  23  42  71 109 138 185 238 291 351 421
#
# _framework density 23.928767000000001
#
# number of rings (size 3 to 8) (size 9 to 14) (size 15 to 20)
#    0.000    1.000    5.000    0.375    3.500    3.500 
#    6.750    3.125    0.000    0.000    0.000    0.000 
#    0.000    0.000    0.000    0.000    0.000    0.000 
#
# Total GULP energy -89179.819325 kJ/mol
# GULP energy per Si atom -5573.738708 kJ/mol
# Density = 2.387430 g / cm^3
# Si number density = 23.928767 Si / 1000 Ang^3
#
#
#
# Elastic Constant Matrix: (Units=GPa)
#
#
# Indices 1 2 3 4 5 6 
#
# 1 119.9295 41.0072 23.6570 1.5189 7.3594 1.9012
# 2 41.0072 128.7430 25.2273 8.4496 -1.2910 0.9622
# 3 23.6570 25.2273 66.6141 -7.9758 -11.8655 3.1394
# 4 1.5189 8.4496 -7.9758 36.1431 1.1524 -2.3345
# 5 7.3594 -1.2910 -11.8655 1.1524 30.0536 -0.7177
# 6 1.9012 0.9622 3.1394 -2.3345 -0.7177 16.6595
#
#
#
# Elastic Compliance Matrix: (Units=1/GPa)
#
#
# Indices 1 2 3 4 5 6 
#
# 1 0.010135 -0.002575 -0.003349 -0.000478 -0.003911 -0.000612
# 2 -0.002575 0.009346 -0.002954 -0.002732 -0.000031 -0.000073
# 3 -0.003349 -0.002954 0.019433 0.004725 0.008135 -0.002097
# 4 -0.000478 -0.002732 0.004725 0.029569 0.000815 0.003501
# 5 -0.003911 -0.000031 0.008135 0.000815 0.037426 0.000642
# 6 -0.000612 -0.000073 -0.002097 0.003501 0.000642 0.061013
#
#
# Mechanical properties :
#
#
# Convention : Reuss Voigt Hill
#
# Bulk Modulus (GPa) = 47.26392 55.00773 51.13583
# Shear Modulus (GPa) = 26.07795 31.59758 28.83777
#
# Velocity S-wave (km/s) = 3.30482 3.63779 3.47529
# Velocity P-wave (km/s) = 5.86150 6.37830 6.12535
#
# Compressibility (1/GPa) = 0.02115779
#
# Stress axis : x y z
#
# Youngs Moduli (GPa) = 98.66621 106.99619 51.45766
#
# Poissons Ratio (x) = 0.27555 0.17234
# Poissons Ratio (y) = 0.25409 0.15201
# Poissons Ratio (z) = 0.33044 0.31608
#
# Static dielectric constant tensor:
#      x y z
#    x 1.987480 0.008260 0.046080 
#    y 0.008260 1.972840 -0.033450 
#    z 0.046080 -0.033450 1.991840 
# 
# From -- ./inp_files/594100.got.cif
#   From: 2010.05.17/outbox.cif.g08.bks.cpg/sg2_298_cif.got.tgz:594100.got - 2010.06.03 11:33:40.
