data_PCOD9051121
_publ_section_title
;
Structure prediction by ZEFSAII (Michael W. Deem and Ramdas Pophale) SiO2 
 PCOD9051121
Probable space group: P -1
;
_chemical_formula_sum "Si O2"
_cell_formula_units_Z 14
_cell_length_a 12.786259
_cell_length_b 23.690692
_cell_length_c 5.308782
_cell_angle_alpha 89.351034
_cell_angle_beta 109.895632
_cell_angle_gamma 151.169978
_cell_volume 564.776516
_symmetry_space_group_name_H-M "P -1"
_symmetry_group_IT_number 2
_symmetry_cell_setting 'triclinic'
loop_
_space_group_symop_operation_xyz
x,y,z
-x,-y,-z
loop_
_atom_site_type_symbol
_atom_site_label
_atom_site_fract_x
_atom_site_fract_y
_atom_site_fract_z
Si Si1 0.209700 0.850686 0.610266
Si Si2 0.638155 0.539302 0.365144
Si Si3 0.582253 0.350852 0.839264
Si Si4 0.993608 0.128414 0.500410
Si Si5 0.418736 0.834813 0.715915
Si Si6 0.865649 0.523884 0.557514
Si Si7 0.752265 0.912658 0.628340
O O1 0.075378 0.846426 0.403782
O O2 0.270627 0.823617 0.493840
O O3 0.974866 0.718877 0.627495
O O4 0.500000 0.000000 0.000000
O O5 0.500000 0.500000 0.500000
O O6 0.653199 0.479179 0.377639
O O7 0.500000 0.500000 0.000000
O O8 0.801475 0.466333 0.778501
O O9 0.406883 0.210195 0.659085
O O10 0.321605 0.276032 0.645995
O O11 0.755542 0.433605 0.240353
O O12 0.932539 0.045265 0.622718
O O13 0.735436 0.001416 0.085755
O O14 0.497036 0.825030 0.577084
O O15 0.193435 0.701397 0.742883
O O16 0.000000 0.000000 0.000000
#
# Coordination Sequence:
#
# PCOD9051121 Si02
#       7
#     2   2   2   2   2   2   2
#     4   9  21  45  68 106 136 182 230 293 357 421
#     4  11  22  43  70 101 142 187 231 286 351 425
#     4  12  26  45  74 104 141 191 241 287 350 424
#     4  11  23  45  73  99 140 186 238 290 352 424
#     4  10  25  45  70 102 143 180 234 295 361 419
#     4  11  26  45  68 107 145 181 236 296 356 418
#     4  12  26  45  72 103 138 188 245 295 345 421
#
# _framework density 24.788565999999999
#
# number of rings (size 3 to 8) (size 9 to 14) (size 15 to 20)
#    0.000    1.143    1.429    3.857    4.000    1.714 
#   12.857    0.000    0.000    0.000    0.000    0.000 
#    0.000    0.000    0.000    0.000    0.000    0.000 
#
# Total GULP energy -78394.242146 kJ/mol
# GULP energy per Si atom -5599.588725 kJ/mol
# Density = 2.473215 g / cm^3
# Si number density = 24.788566 Si / 1000 Ang^3
#
#
#
# Elastic Constant Matrix: (Units=GPa)
#
#
# Indices 1 2 3 4 5 6 
#
# 1 183.5876 44.2551 43.2284 -8.8837 1.6159 4.9666
# 2 44.2551 106.5965 29.6703 4.4759 -16.3110 16.1892
# 3 43.2284 29.6703 74.5755 7.2517 -8.6914 10.5523
# 4 -8.8837 4.4759 7.2517 41.2119 1.5614 4.4855
# 5 1.6159 -16.3110 -8.6914 1.5614 18.0590 -1.4978
# 6 4.9666 16.1892 10.5523 4.4855 -1.4978 50.9038
#
#
#
# Elastic Compliance Matrix: (Units=1/GPa)
#
#
# Indices 1 2 3 4 5 6 
#
# 1 0.007268 -0.002940 -0.004035 0.002730 -0.005429 0.000662
# 2 -0.002940 0.013366 -0.001655 -0.001888 0.011444 -0.003118
# 3 -0.004035 -0.001655 0.017998 -0.003904 0.007680 -0.002241
# 4 0.002730 -0.001888 -0.003904 0.026126 -0.006199 -0.001341
# 5 -0.005429 0.011444 0.007680 -0.006199 0.070255 -0.002089
# 6 0.000662 -0.003118 -0.002241 -0.001341 -0.002089 0.021093
#
#
# Mechanical properties :
#
#
# Convention : Reuss Voigt Hill
#
# Bulk Modulus (GPa) = 46.78953 66.56305 56.67629
# Shear Modulus (GPa) = 27.70224 38.54201 33.12213
#
# Velocity S-wave (km/s) = 3.34659 3.94741 3.65935
# Velocity P-wave (km/s) = 5.81802 6.90555 6.38498
#
# Compressibility (1/GPa) = 0.02137230
#
# Stress axis : x y z
#
# Youngs Moduli (GPa) = 137.59414 74.81452 55.56051
#
# Poissons Ratio (x) = 0.21996 0.22418
# Poissons Ratio (y) = 0.40454 0.09196
# Poissons Ratio (z) = 0.55518 0.12383
#
# Static dielectric constant tensor:
#      x y z
#    x 2.021600 -0.001550 0.057460 
#    y -0.001550 1.920320 -0.000440 
#    z 0.057460 -0.000440 1.922700 
# 
# From -- ./inp_files/84377.got.cif
#   From: 2010.05.17/outbox.cif.g08.bks.cpg/sg2_43_cif.got.tgz:84377.got - 2010.06.03 11:33:40.
