data_PCOD9051083
_publ_section_title
;
Structure prediction by ZEFSAII (Michael W. Deem and Ramdas Pophale) SiO2 
 PCOD9051083
Probable space group: P -1
;
_chemical_formula_sum "Si O2"
_cell_formula_units_Z 16
_cell_length_a 7.749125
_cell_length_b 10.964896
_cell_length_c 12.341742
_cell_angle_alpha 96.840083
_cell_angle_beta 67.078657
_cell_angle_gamma 51.761625
_cell_volume 657.929009
_symmetry_space_group_name_H-M "P -1"
_symmetry_group_IT_number 2
_symmetry_cell_setting 'triclinic'
loop_
_space_group_symop_operation_xyz
x,y,z
-x,-y,-z
loop_
_atom_site_type_symbol
_atom_site_label
_atom_site_fract_x
_atom_site_fract_y
_atom_site_fract_z
Si Si1 0.611572 0.821245 0.001340
Si Si2 0.608350 0.968893 0.225726
Si Si3 0.485670 0.361272 0.470093
Si Si4 0.175904 0.813283 0.081237
Si Si5 0.866151 0.629976 0.707944
Si Si6 0.670307 0.065706 0.562090
Si Si7 0.548146 0.382762 0.228425
Si Si8 0.763486 0.245968 0.697749
O O1 0.687520 0.824314 0.104477
O O2 0.355571 0.850949 0.054150
O O3 0.852250 0.663336 0.844686
O O4 0.500000 0.000000 0.000000
O O5 0.552445 0.927504 0.348324
O O6 0.852041 0.949620 0.168898
O O7 0.335261 0.172059 0.276379
O O8 0.500000 0.500000 0.500000
O O9 0.605286 0.200294 0.502894
O O10 0.641762 0.282681 0.308579
O O11 0.161137 0.490775 0.567465
O O12 0.247586 0.716557 0.168768
O O13 0.267704 0.718994 0.932291
O O14 0.724991 0.565376 0.722727
O O15 0.726034 0.120807 0.662742
O O16 0.943486 0.866756 0.437782
O O17 0.467587 0.562458 0.280609
#
# Coordination Sequence:
#
# PCOD9051083 Si02
#       8
#     2   2   2   2   2   2   2   2
#     4   9  21  42  69 105 150 182 237 296 354 429
#     4  11  24  46  73 110 146 191 240 295 363 437
#     4  12  26  45  71 105 140 190 241 295 358 429
#     4  11  25  44  77 110 142 191 239 296 368 427
#     4  10  25  45  69 103 146 188 236 301 361 422
#     4  11  26  45  74 105 142 197 238 298 361 427
#     4  11  25  48  70 104 147 185 241 300 358 430
#     4  11  24  48  72 103 146 189 245 294 361 432
#
# _framework density 24.318736000000001
#
# number of rings (size 3 to 8) (size 9 to 14) (size 15 to 20)
#    0.000    1.250    2.500    1.500    7.000    5.000 
#    0.000    1.250    0.000    0.000    0.000    0.000 
#    0.000    0.000    0.000    0.000    0.000    0.000 
#
# Total GULP energy -89362.842820 kJ/mol
# GULP energy per Si atom -5585.177676 kJ/mol
# Density = 2.426339 g / cm^3
# Si number density = 24.318736 Si / 1000 Ang^3
#
#
#
# Elastic Constant Matrix: (Units=GPa)
#
#
# Indices 1 2 3 4 5 6 
#
# 1 60.4896 14.2872 36.2733 7.9370 -10.3398 8.6757
# 2 14.2872 70.3559 53.6851 -10.9308 -0.0647 1.2371
# 3 36.2733 53.6851 153.4791 -31.3877 0.3397 7.3881
# 4 7.9370 -10.9308 -31.3877 21.3635 -2.4876 7.9808
# 5 -10.3398 -0.0647 0.3397 -2.4876 34.7740 -2.8388
# 6 8.6757 1.2371 7.3881 7.9808 -2.8388 31.8292
#
#
#
# Elastic Compliance Matrix: (Units=1/GPa)
#
#
# Indices 1 2 3 4 5 6 
#
# 1 0.029509 -0.000767 -0.013331 -0.031475 0.006945 0.003592
# 2 -0.000767 0.019437 -0.006642 0.000106 -0.000041 0.000965
# 3 -0.013331 -0.006642 0.019111 0.032685 -0.002557 -0.008968
# 4 -0.031475 0.000106 0.032685 0.116851 -0.003657 -0.028637
# 5 0.006945 -0.000041 -0.002557 -0.003657 0.030778 0.002364
# 6 0.003592 0.000965 -0.008968 -0.028637 0.002364 0.039874
#
#
# Mechanical properties :
#
#
# Convention : Reuss Voigt Hill
#
# Bulk Modulus (GPa) = 37.62724 54.75731 46.19228
# Shear Modulus (GPa) = 16.34523 29.59861 22.97192
#
# Velocity S-wave (km/s) = 2.59535 3.49250 3.07680
# Velocity P-wave (km/s) = 4.94846 6.23127 5.62655
#
# Compressibility (1/GPa) = 0.02657649
#
# Stress axis : x y z
#
# Youngs Moduli (GPa) = 33.88816 51.44811 52.32495
#
# Poissons Ratio (x) = 0.03946 0.69755
# Poissons Ratio (y) = 0.02599 0.34756
# Poissons Ratio (z) = 0.45176 0.34173
#
# Static dielectric constant tensor:
#      x y z
#    x 1.966150 -0.026290 0.090260 
#    y -0.026290 1.909220 -0.029600 
#    z 0.090260 -0.029600 2.021210 
# 
# From -- ./inp_files/392585.got.cif
#   From: 2010.05.17/outbox.cif.g08.bks.cpg/sg2_197_cif.got.tgz:392585.got - 2010.06.03 11:33:40.
