data_PCOD9051955
_publ_section_title
;
Structure prediction by ZEFSAII (Michael W. Deem and Ramdas Pophale) SiO2 
 PCOD9051955
Probable space group: P -1
;
_chemical_formula_sum "Si O2"
_cell_formula_units_Z 16
_cell_length_a 10.619701
_cell_length_b 16.668310
_cell_length_c 11.109889
_cell_angle_alpha 127.677895
_cell_angle_beta 35.502461
_cell_angle_gamma 137.823021
_cell_volume 766.655575
_symmetry_space_group_name_H-M "P -1"
_symmetry_group_IT_number 2
_symmetry_cell_setting 'triclinic'
loop_
_space_group_symop_operation_xyz
x,y,z
-x,-y,-z
loop_
_atom_site_type_symbol
_atom_site_label
_atom_site_fract_x
_atom_site_fract_y
_atom_site_fract_z
Si Si1 0.271606 0.699647 0.939667
Si Si2 0.713004 0.287622 0.494013
Si Si3 0.551464 0.479123 0.805395
Si Si4 0.793040 0.541332 0.292529
Si Si5 0.041799 0.326451 0.491514
Si Si6 0.836900 0.846614 0.614970
Si Si7 0.008018 0.720491 0.954651
Si Si8 0.828029 0.871692 0.357809
O O1 0.250119 0.573865 0.848052
O O2 0.554588 0.802361 0.848163
O O3 0.231950 0.722377 0.854929
O O4 0.005326 0.664482 0.176521
O O5 0.696108 0.406290 0.618409
O O6 0.441593 0.187512 0.556933
O O7 0.791785 0.272953 0.553883
O O8 0.926857 0.291119 0.243643
O O9 0.714199 0.601092 0.718810
O O10 0.500000 0.500000 0.000000
O O11 0.267273 0.391996 0.896288
O O12 0.500000 0.500000 0.500000
O O13 0.921459 0.569133 0.350369
O O14 0.069595 0.231598 0.461361
O O15 0.806839 0.830678 0.477378
O O16 0.030861 0.985850 0.615489
O O17 0.991508 0.832074 0.114626
#
# Coordination Sequence:
#
# PCOD9051955 Si02
#       8
#     2   2   2   2   2   2   2   2
#     4  11  23  38  67  96 132 174 216 273 340 397
#     4  11  24  45  68  97 137 181 222 271 341 408
#     4  11  24  39  65  99 141 174 210 270 340 417
#     4  11  23  40  59 100 144 166 206 277 340 402
#     4  12  24  40  70 102 135 174 225 272 339 407
#     4  11  24  46  69 100 132 176 236 288 329 395
#     4  11  22  41  66  94 128 185 221 265 340 408
#     4  10  25  49  68  91 137 180 231 289 336 387
#
# _framework density 20.869865999999998
#
# number of rings (size 3 to 8) (size 9 to 14) (size 15 to 20)
#    0.000    1.000    3.750    2.625    5.250    1.000 
#    2.250    0.625    0.000    0.000    0.000    0.000 
#    0.000    0.000    0.000    0.000    0.000    0.000 
#
# Total GULP energy -89179.981968 kJ/mol
# GULP energy per Si atom -5573.748873 kJ/mol
# Density = 2.082236 g / cm^3
# Si number density = 20.869866 Si / 1000 Ang^3
#
#
#
# Elastic Constant Matrix: (Units=GPa)
#
#
# Indices 1 2 3 4 5 6 
#
# 1 138.1534 63.6644 22.9647 -11.3249 -2.9231 13.2550
# 2 63.6644 115.1553 53.8272 -6.3579 -9.2315 2.4391
# 3 22.9647 53.8272 83.7364 -1.2647 6.7025 4.2907
# 4 -11.3249 -6.3579 -1.2647 22.2424 5.3242 0.0546
# 5 -2.9231 -9.2315 6.7025 5.3242 36.1328 -2.1951
# 6 13.2550 2.4391 4.2907 0.0546 -2.1951 31.8339
#
#
#
# Elastic Compliance Matrix: (Units=1/GPa)
#
#
# Indices 1 2 3 4 5 6 
#
# 1 0.010685 -0.006555 0.001728 0.004156 -0.002006 -0.004325
# 2 -0.006555 0.017392 -0.010032 -0.000386 0.006023 0.003165
# 3 0.001728 -0.010032 0.018563 0.000540 -0.006121 -0.002876
# 4 0.004156 -0.000386 0.000540 0.048721 -0.007185 -0.002353
# 5 -0.002006 0.006023 -0.006121 -0.007185 0.031452 0.003380
# 6 -0.004325 0.003165 -0.002876 -0.002353 0.003380 0.033596
#
#
# Mechanical properties :
#
#
# Convention : Reuss Voigt Hill
#
# Bulk Modulus (GPa) = 59.09613 68.66195 63.87904
# Shear Modulus (GPa) = 25.54074 31.14773 28.34424
#
# Velocity S-wave (km/s) = 3.50209 3.86745 3.68930
# Velocity P-wave (km/s) = 6.68811 7.27422 6.98732
#
# Compressibility (1/GPa) = 0.01692158
#
# Stress axis : x y z
#
# Youngs Moduli (GPa) = 93.59063 57.49914 53.87190
#
# Poissons Ratio (x) = 0.37689 -0.09310
# Poissons Ratio (y) = 0.61346 0.54045
# Poissons Ratio (z) = -0.16174 0.57684
#
# Static dielectric constant tensor:
#      x y z
#    x 1.798510 0.000770 0.017540 
#    y 0.000770 1.742610 -0.001390 
#    z 0.017540 -0.001390 1.861460 
# 
# From -- ./inp_files/436854.got.cif
#   From: 2010.05.17/outbox.cif.g08.bks.cpg/sg2_219_cif.got.tgz:436854.got - 2010.06.03 11:33:40.
