data_PCOD9051442
_publ_section_title
;
Structure prediction by ZEFSAII (Michael W. Deem and Ramdas Pophale) SiO2 
 PCOD9051442
Probable space group: P -1
;
_chemical_formula_sum "Si O2"
_cell_formula_units_Z 14
_cell_length_a 12.937789
_cell_length_b 9.015799
_cell_length_c 22.245223
_cell_angle_alpha 136.557198
_cell_angle_beta 154.454066
_cell_angle_gamma 32.548609
_cell_volume 595.336468
_symmetry_space_group_name_H-M "P -1"
_symmetry_group_IT_number 2
_symmetry_cell_setting 'triclinic'
loop_
_space_group_symop_operation_xyz
x,y,z
-x,-y,-z
loop_
_atom_site_type_symbol
_atom_site_label
_atom_site_fract_x
_atom_site_fract_y
_atom_site_fract_z
Si Si1 0.728198 0.698445 0.370425
Si Si2 0.211175 0.760717 0.887320
Si Si3 0.367006 0.284523 0.150982
Si Si4 0.364161 0.176217 0.417399
Si Si5 0.474028 0.677170 0.877966
Si Si6 0.803101 0.314812 0.467970
Si Si7 0.932402 0.862085 0.975174
O O1 0.595955 0.538211 0.235827
O O2 0.000000 0.500000 0.500000
O O3 0.920276 0.702248 0.420337
O O4 0.515439 0.985893 0.381109
O O5 0.303685 0.828016 0.894230
O O6 0.989509 0.694927 0.733962
O O7 0.500000 0.500000 0.000000
O O8 0.013451 0.032491 0.904962
O O9 0.557944 0.166670 0.153500
O O10 0.532623 0.391118 0.302364
O O11 0.373094 0.089151 0.146518
O O12 0.000000 0.500000 0.000000
O O13 0.369192 0.431094 0.500311
O O14 0.500000 0.000000 0.500000
O O15 0.839498 0.458809 0.018634
O O16 0.000000 0.000000 0.500000
O O17 0.000000 0.000000 0.000000
#
# Coordination Sequence:
#
# PCOD9051442 Si02
#       7
#     2   2   2   2   2   2   2
#     4  12  22  45  77 102 144 197 251 296 367 445
#     4  12  25  40  74 111 140 191 251 304 367 442
#     4  10  25  46  71 102 147 196 240 304 369 438
#     4  12  25  45  77 110 142 199 252 293 370 456
#     4  11  21  44  68 104 141 191 246 300 358 446
#     4  12  28  46  73 113 155 185 245 317 372 435
#     4  11  24  43  71  99 144 187 243 299 374 435
#
# _framework density 23.516114999999999
#
# number of rings (size 3 to 8) (size 9 to 14) (size 15 to 20)
#    0.000    0.571    7.143    0.000    6.000    1.143 
#    0.000    2.857    0.000    0.000    0.000    0.000 
#    0.000    0.000    0.000    0.000    0.000    0.000 
#
# Total GULP energy -77939.872418 kJ/mol
# GULP energy per Si atom -5567.133744 kJ/mol
# Density = 2.346259 g / cm^3
# Si number density = 23.516115 Si / 1000 Ang^3
#
#
#
# Elastic Constant Matrix: (Units=GPa)
#
#
# Indices 1 2 3 4 5 6 
#
# 1 182.6569 27.7684 26.4239 23.6002 16.5255 -16.0380
# 2 27.7684 82.6039 29.9683 12.9765 -0.8441 -7.9566
# 3 26.4239 29.9683 126.2206 -0.5153 -3.5506 -0.7173
# 4 23.6002 12.9765 -0.5153 40.9218 2.5300 -3.4064
# 5 16.5255 -0.8441 -3.5506 2.5300 27.1992 11.4189
# 6 -16.0380 -7.9566 -0.7173 -3.4064 11.4189 41.1979
#
#
#
# Elastic Compliance Matrix: (Units=1/GPa)
#
#
# Indices 1 2 3 4 5 6 
#
# 1 0.007117 -0.001087 -0.001388 -0.003087 -0.005895 0.003915
# 2 -0.001087 0.014421 -0.003194 -0.003841 0.000241 0.001922
# 3 -0.001388 -0.003194 0.009038 0.001650 0.002414 -0.001532
# 4 -0.003087 -0.003841 0.001650 0.027558 -0.000843 0.000597
# 5 -0.005895 0.000241 0.002414 -0.000843 0.047196 -0.015357
# 6 0.003915 0.001922 -0.001532 0.000597 -0.015357 0.030448
#
#
# Mechanical properties :
#
#
# Convention : Reuss Voigt Hill
#
# Bulk Modulus (GPa) = 51.98378 62.20029 57.09203
# Shear Modulus (GPa) = 32.56727 42.35184 37.45955
#
# Velocity S-wave (km/s) = 3.72545 4.24839 3.99548
# Velocity P-wave (km/s) = 6.37643 7.11144 6.75394
#
# Compressibility (1/GPa) = 0.01923677
#
# Stress axis : x y z
#
# Youngs Moduli (GPa) = 140.51338 69.34166 110.64913
#
# Poissons Ratio (x) = 0.07538 0.15358
# Poissons Ratio (y) = 0.15275 0.35346
# Poissons Ratio (z) = 0.19503 0.22151
#
# Static dielectric constant tensor:
#      x y z
#    x 1.919040 0.065560 -0.022060 
#    y 0.065560 2.054340 0.003140 
#    z -0.022060 0.003140 1.929820 
# 
# From -- ./inp_files/594202.got.cif
#   From: 2010.05.17/outbox.cif.g08.bks.cpg/sg2_298_cif.got.tgz:594202.got - 2010.06.03 11:33:40.
