data_PCOD9051361
_publ_section_title
;
Structure prediction by ZEFSAII (Michael W. Deem and Ramdas Pophale) SiO2 
 PCOD9051361
Probable space group: P -1
;
_chemical_formula_sum "Si O2"
_cell_formula_units_Z 14
_cell_length_a 17.064574
_cell_length_b 7.710588
_cell_length_c 5.330838
_cell_angle_alpha 119.587245
_cell_angle_beta 80.989737
_cell_angle_gamma 75.434024
_cell_volume 556.532602
_symmetry_space_group_name_H-M "P -1"
_symmetry_group_IT_number 2
_symmetry_cell_setting 'triclinic'
loop_
_space_group_symop_operation_xyz
x,y,z
-x,-y,-z
loop_
_atom_site_type_symbol
_atom_site_label
_atom_site_fract_x
_atom_site_fract_y
_atom_site_fract_z
Si Si1 0.015551 0.167743 0.426862
Si Si2 0.854638 0.660542 0.308744
Si Si3 0.866914 0.240212 0.196882
Si Si4 0.316327 0.548167 0.334054
Si Si5 0.750121 0.804322 0.980447
Si Si6 0.397146 0.859320 0.465804
Si Si7 0.559265 0.820238 0.647743
O O1 0.056873 0.314415 0.649881
O O2 0.928202 0.285798 0.404972
O O3 0.000000 0.000000 0.500000
O O4 0.086115 0.005470 0.086365
O O5 0.862935 0.413539 0.109108
O O6 0.813984 0.785709 0.165455
O O7 0.794164 0.754745 0.650908
O O8 0.772538 0.292936 0.384956
O O9 0.364806 0.677478 0.257320
O O10 0.381471 0.396201 0.399048
O O11 0.287445 0.381083 0.078997
O O12 0.668258 0.027244 0.194080
O O13 0.494450 0.775673 0.454702
O O14 0.388538 0.053430 0.422522
O O15 0.500000 0.000000 0.000000
#
# Coordination Sequence:
#
# PCOD9051361 Si02
#       7
#     2   2   2   2   2   2   2
#     4  11  26  44  70 105 142 189 243 297 356 432
#     4  11  26  45  75  99 151 188 236 302 360 417
#     4  10  25  46  68 105 140 187 243 294 357 435
#     4  11  24  48  72 105 141 193 245 292 370 434
#     4  11  25  46  72 113 140 192 246 299 355 437
#     4  11  24  44  76  98 153 189 235 306 362 427
#     4  11  24  48  68 111 144 186 242 299 361 441
#
# _framework density 25.155759
#
# number of rings (size 3 to 8) (size 9 to 14) (size 15 to 20)
#    0.000    1.143    1.429    3.429   10.000    1.143 
#    7.714    0.000    0.000    0.000    0.000    0.000 
#    0.000    0.000    0.000    0.000    0.000    0.000 
#
# Total GULP energy -78443.268269 kJ/mol
# GULP energy per Si atom -5603.090591 kJ/mol
# Density = 2.509850 g / cm^3
# Si number density = 25.155759 Si / 1000 Ang^3
#
#
#
# Elastic Constant Matrix: (Units=GPa)
#
#
# Indices 1 2 3 4 5 6 
#
# 1 144.6542 48.8722 23.3836 7.5012 12.1203 15.6210
# 2 48.8722 87.4971 10.5753 -7.5073 -13.4022 -5.6039
# 3 23.3836 10.5753 90.9518 -0.3953 -11.9791 -2.1919
# 4 7.5012 -7.5073 -0.3953 28.9728 -6.0849 3.2623
# 5 12.1203 -13.4022 -11.9791 -6.0849 32.0827 6.0938
# 6 15.6210 -5.6039 -2.1919 3.2623 6.0938 58.5497
#
#
#
# Elastic Compliance Matrix: (Units=1/GPa)
#
#
# Indices 1 2 3 4 5 6 
#
# 1 0.011899 -0.008581 -0.003507 -0.007205 -0.010251 -0.002659
# 2 -0.008581 0.019012 0.001842 0.009709 0.013285 0.002254
# 3 -0.003507 0.001842 0.012669 0.003010 0.007270 0.000662
# 4 -0.007205 0.009709 0.003010 0.042453 0.016159 -0.001083
# 5 -0.010251 0.013285 0.007270 0.016159 0.046651 -0.001477
# 6 -0.002659 0.002254 0.000662 -0.001083 -0.001477 0.018244
#
#
# Mechanical properties :
#
#
# Convention : Reuss Voigt Hill
#
# Bulk Modulus (GPa) = 43.31424 54.30725 48.81074
# Shear Modulus (GPa) = 27.91508 39.93918 33.92713
#
# Velocity S-wave (km/s) = 3.33481 3.98889 3.67643
# Velocity P-wave (km/s) = 5.66425 6.54601 6.12103
#
# Compressibility (1/GPa) = 0.02308710
#
# Stress axis : x y z
#
# Youngs Moduli (GPa) = 84.04295 52.59967 78.93391
#
# Poissons Ratio (x) = 0.45135 0.27681
# Poissons Ratio (y) = 0.72116 -0.14538
# Poissons Ratio (z) = 0.29473 -0.09688
#
# Static dielectric constant tensor:
#      x y z
#    x 1.981500 -0.004820 -0.041630 
#    y -0.004820 1.996930 0.053830 
#    z -0.041630 0.053830 2.104960 
# 
# From -- ./inp_files/91137.got.cif
#   From: 2010.05.17/outbox.cif.g08.bks.cpg/sg2_46_cif.got.tgz:91137.got - 2010.06.03 11:33:40.
