data_PCOD9051141
_publ_section_title
;
Structure prediction by ZEFSAII (Michael W. Deem and Ramdas Pophale) SiO2 
 PCOD9051141
Probable space group: P -1
;
_chemical_formula_sum "Si O2"
_cell_formula_units_Z 16
_cell_length_a 6.361449
_cell_length_b 11.261676
_cell_length_c 28.333442
_cell_angle_alpha 21.185467
_cell_angle_beta 84.996110
_cell_angle_gamma 83.084660
_cell_volume 726.441547
_symmetry_space_group_name_H-M "P -1"
_symmetry_group_IT_number 2
_symmetry_cell_setting 'triclinic'
loop_
_space_group_symop_operation_xyz
x,y,z
-x,-y,-z
loop_
_atom_site_type_symbol
_atom_site_label
_atom_site_fract_x
_atom_site_fract_y
_atom_site_fract_z
Si Si1 0.089359 0.573457 0.080556
Si Si2 0.458319 0.859644 0.426506
Si Si3 0.750937 0.156127 0.830960
Si Si4 0.820197 0.295088 0.601051
Si Si5 0.828810 0.295817 0.265896
Si Si6 0.361955 0.035376 0.943853
Si Si7 0.140030 0.190013 0.138420
Si Si8 0.128785 0.116867 0.409771
O O1 0.235802 0.410804 0.095457
O O2 0.944562 0.340814 0.197606
O O3 0.246795 0.712722 0.061676
O O4 0.929316 0.885453 0.950539
O O5 0.626806 0.535168 0.539051
O O6 0.301745 0.859975 0.383751
O O7 0.606574 0.157736 0.312209
O O8 0.334993 0.899381 0.464322
O O9 0.518485 0.099847 0.874809
O O10 0.804067 0.520916 0.710550
O O11 0.757141 0.043485 0.817951
O O12 0.000000 0.500000 0.500000
O O13 0.930591 0.076088 0.723418
O O14 0.802012 0.650345 0.160071
O O15 0.970806 0.095678 0.376170
O O16 0.500000 0.000000 0.000000
O O17 0.000000 0.500000 0.000000
O O18 0.000000 0.000000 0.500000
#
# Coordination Sequence:
#
# PCOD9051141 Si02
#       8
#     2   2   2   2   2   2   2   2
#     4  11  23  44  69 100 136 187 228 293 359 426
#     4  11  26  45  75 111 138 191 247 300 361 434
#     4  11  24  44  64 101 142 181 234 294 358 430
#     4  11  25  50  78 108 143 191 249 306 360 442
#     4  12  24  43  71 104 140 179 239 301 356 430
#     4  12  23  39  70 101 139 177 234 291 359 430
#     4  10  25  45  71 100 143 190 236 291 370 430
#     4  12  27  44  68 101 146 193 236 299 362 426
#
# _framework density 22.025172000000001
#
# number of rings (size 3 to 8) (size 9 to 14) (size 15 to 20)
#    0.000    0.750    3.750    3.375    5.250    2.000 
#    0.000    2.500    0.000    0.000    0.000    0.000 
#    0.000    0.000    0.000    0.000    0.000    0.000 
#
# Total GULP energy -89106.218690 kJ/mol
# GULP energy per Si atom -5569.138668 kJ/mol
# Density = 2.197504 g / cm^3
# Si number density = 22.025172 Si / 1000 Ang^3
#
#
#
# Elastic Constant Matrix: (Units=GPa)
#
#
# Indices 1 2 3 4 5 6 
#
# 1 75.6805 51.4267 23.3272 3.9702 -15.8412 -8.6330
# 2 51.4267 197.3599 43.4501 4.2360 -9.4810 -33.0389
# 3 23.3272 43.4501 84.9785 17.4819 -5.1208 -14.5397
# 4 3.9702 4.2360 17.4819 36.3839 -3.6108 -3.7672
# 5 -15.8412 -9.4810 -5.1208 -3.6108 31.4951 -4.3111
# 6 -8.6330 -33.0389 -14.5397 -3.7672 -4.3111 36.8137
#
#
#
# Elastic Compliance Matrix: (Units=1/GPa)
#
#
# Indices 1 2 3 4 5 6 
#
# 1 0.018217 -0.003649 -0.002620 0.000570 0.007832 0.000938
# 2 -0.003649 0.007351 -0.002060 0.001153 0.000879 0.005149
# 3 -0.002620 -0.002060 0.015411 -0.006548 0.000225 0.002980
# 4 0.000570 0.001153 -0.006548 0.030997 0.003418 0.002154
# 5 0.007832 0.000879 0.000225 0.003418 0.037402 0.007444
# 6 0.000938 0.005149 0.002980 0.002154 0.007444 0.034273
#
#
# Mechanical properties :
#
#
# Convention : Reuss Voigt Hill
#
# Bulk Modulus (GPa) = 41.11736 66.04744 53.58240
# Shear Modulus (GPa) = 29.68856 36.92620 33.30738
#
# Velocity S-wave (km/s) = 3.67541 4.09901 3.89297
# Velocity P-wave (km/s) = 6.05974 7.24257 6.67740
#
# Compressibility (1/GPa) = 0.02432063
#
# Stress axis : x y z
#
# Youngs Moduli (GPa) = 54.89374 136.04249 64.89073
#
# Poissons Ratio (x) = 0.49643 0.17000
# Poissons Ratio (y) = 0.20031 0.13367
# Poissons Ratio (z) = 0.14381 0.28024
#
# Static dielectric constant tensor:
#      x y z
#    x 1.697930 -0.064560 -0.049270 
#    y -0.064560 1.819150 -0.093690 
#    z -0.049270 -0.093690 1.806950 
# 
# From -- ./inp_files/621842.got.cif
#   From: 2010.05.17/outbox.cif.g08.bks.cpg/sg2_311_cif.got.tgz:621842.got - 2010.06.03 11:33:40.
