data_PCOD9051901
_publ_section_title
;
Structure prediction by ZEFSAII (Michael W. Deem and Ramdas Pophale) SiO2 
 PCOD9051901
Probable space group: P -1
;
_chemical_formula_sum "Si O2"
_cell_formula_units_Z 8
_cell_length_a 7.811121
_cell_length_b 8.991412
_cell_length_c 7.915261
_cell_angle_alpha 82.221381
_cell_angle_beta 82.241156
_cell_angle_gamma 33.981500
_cell_volume 307.594084
_symmetry_space_group_name_H-M "P -1"
_symmetry_group_IT_number 2
_symmetry_cell_setting 'triclinic'
loop_
_space_group_symop_operation_xyz
x,y,z
-x,-y,-z
loop_
_atom_site_type_symbol
_atom_site_label
_atom_site_fract_x
_atom_site_fract_y
_atom_site_fract_z
Si Si1 0.687826 0.493001 0.375835
Si Si2 0.748745 0.625368 0.682086
Si Si3 0.421881 0.123878 0.809136
Si Si4 0.746013 0.240550 0.121907
O O1 0.500000 0.500000 0.500000
O O2 0.815779 0.506363 0.507166
O O3 0.523083 0.738617 0.247169
O O4 0.863429 0.268803 0.247616
O O5 0.447515 0.752131 0.765896
O O6 0.053069 0.373739 0.790017
O O7 0.626128 0.882262 0.687030
O O8 0.500000 0.000000 0.000000
O O9 0.500000 0.500000 0.000000
O O10 0.000000 0.000000 0.000000
#
# Coordination Sequence:
#
# PCOD9051901 Si02
#       4
#     2   2   2   2
#     4  10  25  48  74 107 149 195 243 302 370 440
#     4  11  25  46  74 107 147 195 245 301 368 440
#     4  12  25  46  75 111 146 192 248 307 364 435
#     4  11  24  44  70 105 145 188 239 298 362 433
#
# _framework density 26.008303000000002
#
# number of rings (size 3 to 8) (size 9 to 14) (size 15 to 20)
#    0.000    1.000    0.000    5.250    0.000    6.000 
#    0.000   17.500    0.000    0.000    0.000    0.000 
#    0.000    0.000    0.000    0.000    0.000    0.000 
#
# Total GULP energy -44779.875647 kJ/mol
# GULP energy per Si atom -5597.484456 kJ/mol
# Density = 2.594911 g / cm^3
# Si number density = 26.008303 Si / 1000 Ang^3
#
#
#
# Elastic Constant Matrix: (Units=GPa)
#
#
# Indices 1 2 3 4 5 6 
#
# 1 155.6951 86.5864 61.7812 11.7617 16.2195 31.0657
# 2 86.5864 230.3089 88.6165 50.1332 8.9677 0.9569
# 3 61.7812 88.6165 173.9477 25.4746 7.4387 12.6881
# 4 11.7617 50.1332 25.4746 69.1441 13.8368 3.7571
# 5 16.2195 8.9677 7.4387 13.8368 47.2060 -6.3416
# 6 31.0657 0.9569 12.6881 3.7571 -6.3416 49.2005
#
#
#
# Elastic Compliance Matrix: (Units=1/GPa)
#
#
# Indices 1 2 3 4 5 6 
#
# 1 0.010932 -0.003917 -0.001585 0.002873 -0.004575 -0.007226
# 2 -0.003917 0.007541 -0.002116 -0.004626 0.002072 0.003493
# 3 -0.001585 -0.002116 0.007592 -0.000928 -0.000093 -0.000857
# 4 0.002873 -0.004626 -0.000928 0.019084 -0.006056 -0.003722
# 5 -0.004575 0.002072 -0.000093 -0.006056 0.025033 0.006561
# 6 -0.007226 0.003493 -0.000857 -0.003722 0.006561 0.026171
#
#
# Mechanical properties :
#
#
# Convention : Reuss Voigt Hill
#
# Bulk Modulus (GPa) = 92.35396 114.87999 103.61698
# Shear Modulus (GPa) = 43.40322 54.64129 49.02225
#
# Velocity S-wave (km/s) = 4.08955 4.58855 4.34622
# Velocity P-wave (km/s) = 7.60827 8.50526 8.06924
#
# Compressibility (1/GPa) = 0.01082791
#
# Stress axis : x y z
#
# Youngs Moduli (GPa) = 91.47740 132.61374 131.71242
#
# Poissons Ratio (x) = 0.51947 0.20876
# Poissons Ratio (y) = 0.35833 0.27873
# Poissons Ratio (z) = 0.14499 0.28064
#
# Static dielectric constant tensor:
#      x y z
#    x 2.422120 0.233190 -0.170130 
#    y 0.233190 2.224350 -0.161110 
#    z -0.170130 -0.161110 2.168300 
# 
# From -- ./inp_files/149998.got.cif
#   From: 2010.05.17/outbox.cif.g08.bks.cpg/sg2_75_cif.got.tgz:149998.got - 2010.06.03 11:33:40.
