data_PCOD9051808
_publ_section_title
;
Structure prediction by ZEFSAII (Michael W. Deem and Ramdas Pophale) SiO2 
 PCOD9051808
Probable space group: P -1
;
_chemical_formula_sum "Si O2"
_cell_formula_units_Z 14
_cell_length_a 18.899611
_cell_length_b 12.352758
_cell_length_c 6.622569
_cell_angle_alpha 46.281935
_cell_angle_beta 127.285031
_cell_angle_gamma 144.848551
_cell_volume 640.278817
_symmetry_space_group_name_H-M "P -1"
_symmetry_group_IT_number 2
_symmetry_cell_setting 'triclinic'
loop_
_space_group_symop_operation_xyz
x,y,z
-x,-y,-z
loop_
_atom_site_type_symbol
_atom_site_label
_atom_site_fract_x
_atom_site_fract_y
_atom_site_fract_z
Si Si1 0.705318 0.388968 0.014043
Si Si2 0.138594 0.220352 0.920751
Si Si3 0.465610 0.269358 0.868725
Si Si4 0.069443 0.645554 0.233831
Si Si5 0.367489 0.278095 0.306192
Si Si6 0.338441 0.974389 0.375436
Si Si7 0.125902 0.446661 0.269568
O O1 0.808482 0.603846 0.041295
O O2 0.671820 0.201851 0.323552
O O3 0.582344 0.344204 0.849691
O O4 0.756009 0.401507 0.867398
O O5 0.135905 0.307020 0.593739
O O6 0.240133 0.207706 0.114180
O O7 0.000000 0.000000 0.000000
O O8 0.365271 0.223076 0.606781
O O9 0.524695 0.472263 0.840669
O O10 0.410258 0.074971 0.161137
O O11 0.198070 0.863596 0.243130
O O12 0.105590 0.552881 0.263243
O O13 0.000000 0.500000 0.500000
O O14 0.986627 0.663004 0.940429
O O15 0.395630 0.161368 0.383846
#
# Coordination Sequence:
#
# PCOD9051808 Si02
#       7
#     2   2   2   2   2   2   2
#     4  11  25  46  69 106 135 173 237 285 335 407
#     4  11  26  44  69 100 142 179 226 278 345 408
#     4  10  25  48  67  98 140 184 226 277 345 403
#     4  11  24  43  69 105 140 171 225 285 345 405
#     4  10  26  44  67  98 139 178 233 275 339 407
#     4  12  24  41  75  99 134 180 231 286 336 399
#     4  11  24  43  71  96 144 178 220 284 346 398
#
# _framework density 21.865476000000001
#
# number of rings (size 3 to 8) (size 9 to 14) (size 15 to 20)
#    0.000    1.143    2.857    0.857    8.000    6.857 
#    0.000    0.000    0.000    0.000    0.000    0.000 
#    0.000    0.000    0.000    0.000    0.000    0.000 
#
# Total GULP energy -78253.557683 kJ/mol
# GULP energy per Si atom -5589.539834 kJ/mol
# Density = 2.181571 g / cm^3
# Si number density = 21.865476 Si / 1000 Ang^3
#
#
#
# Elastic Constant Matrix: (Units=GPa)
#
#
# Indices 1 2 3 4 5 6 
#
# 1 75.1433 27.9840 45.6332 -1.6417 -3.4411 -1.9256
# 2 27.9840 58.0087 56.9582 4.3478 1.2896 5.5569
# 3 45.6332 56.9582 157.3708 1.8868 1.7453 15.3071
# 4 -1.6417 4.3478 1.8868 35.4869 9.8487 2.7459
# 5 -3.4411 1.2896 1.7453 9.8487 42.8655 -4.1680
# 6 -1.9256 5.5569 15.3071 2.7459 -4.1680 26.6674
#
#
#
# Elastic Compliance Matrix: (Units=1/GPa)
#
#
# Indices 1 2 3 4 5 6 
#
# 1 0.017835 -0.005583 -0.003648 0.000767 0.002037 0.004785
# 2 -0.005583 0.028769 -0.008638 -0.003134 -0.000356 -0.001173
# 3 -0.003648 -0.008638 0.011035 0.001034 -0.001215 -0.005094
# 4 0.000767 -0.003134 0.001034 0.030925 -0.007403 -0.004227
# 5 0.002037 -0.000356 -0.001215 -0.007403 0.025809 0.005715
# 6 0.004785 -0.001173 -0.005094 -0.004227 0.005715 0.042341
#
#
# Mechanical properties :
#
#
# Convention : Reuss Voigt Hill
#
# Bulk Modulus (GPa) = 45.65996 61.29705 53.47851
# Shear Modulus (GPa) = 25.03087 31.66712 28.34900
#
# Velocity S-wave (km/s) = 3.38711 3.80974 3.60463
# Velocity P-wave (km/s) = 6.01866 6.88816 6.46804
#
# Compressibility (1/GPa) = 0.02190102
#
# Stress axis : x y z
#
# Youngs Moduli (GPa) = 56.06890 34.76000 90.61821
#
# Poissons Ratio (x) = 0.19406 0.33060
# Poissons Ratio (y) = 0.31302 0.78276
# Poissons Ratio (z) = 0.20456 0.30026
#
# Static dielectric constant tensor:
#      x y z
#    x 1.816610 -0.030180 0.000280 
#    y -0.030180 1.819440 0.021440 
#    z 0.000280 0.021440 1.792640 
# 
# From -- ./inp_files/109535.got.cif
#   From: 2010.05.17/outbox.cif.g08.bks.cpg/sg2_55_cif.got.tgz:109535.got - 2010.06.03 11:33:40.
