data_PCOD9051695
_publ_section_title
;
Structure prediction by ZEFSAII (Michael W. Deem and Ramdas Pophale) SiO2 
 PCOD9051695
Probable space group: P -1
;
_chemical_formula_sum "Si O2"
_cell_formula_units_Z 12
_cell_length_a 20.157718
_cell_length_b 7.211312
_cell_length_c 5.552994
_cell_angle_alpha 104.823550
_cell_angle_beta 88.996685
_cell_angle_gamma 139.784939
_cell_volume 482.943935
_symmetry_space_group_name_H-M "P -1"
_symmetry_group_IT_number 2
_symmetry_cell_setting 'triclinic'
loop_
_space_group_symop_operation_xyz
x,y,z
-x,-y,-z
loop_
_atom_site_type_symbol
_atom_site_label
_atom_site_fract_x
_atom_site_fract_y
_atom_site_fract_z
Si Si1 0.622338 0.343837 0.082312
Si Si2 0.567734 0.645752 0.291589
Si Si3 0.836025 0.680563 0.403961
Si Si4 0.137050 0.618192 0.977336
Si Si5 0.944709 0.228635 0.228006
Si Si6 0.719082 0.306513 0.683725
O O1 0.627377 0.577741 0.233263
O O2 0.711677 0.443733 0.272251
O O3 0.654410 0.333858 0.815302
O O4 0.500000 0.000000 0.000000
O O5 0.500000 0.500000 0.500000
O O6 0.646462 0.005764 0.421364
O O7 0.500000 0.500000 0.000000
O O8 0.877654 0.565438 0.296846
O O9 0.826197 0.648267 0.680411
O O10 0.895935 0.958718 0.315010
O O11 0.141538 0.840905 0.941624
O O12 0.238971 0.759512 0.152005
O O13 0.036019 0.378795 0.082332
O O14 0.000000 0.500000 0.500000
#
# Coordination Sequence:
#
# PCOD9051695 Si02
#       6
#     2   2   2   2   2   2
#     4  11  25  47  73 108 154 203 256 320 389 468
#     4  12  28  47  79 112 157 214 264 326 396 475
#     4  11  26  45  72 109 151 196 251 328 387 463
#     4  10  25  47  72 105 150 196 258 312 394 468
#     4  11  25  46  75 106 149 199 254 316 395 473
#     4  11  26  48  76 112 156 200 265 322 394 467
#
# _framework density 24.847601000000001
#
# number of rings (size 3 to 8) (size 9 to 14) (size 15 to 20)
#    0.000    1.000    1.667    2.500    9.333    9.333 
#    0.000    0.000    0.000    0.000    0.000    0.000 
#    0.000    0.000    0.000    0.000    0.000    0.000 
#
# Total GULP energy -67059.389757 kJ/mol
# GULP energy per Si atom -5588.282480 kJ/mol
# Density = 2.479105 g / cm^3
# Si number density = 24.847601 Si / 1000 Ang^3
#
#
#
# Elastic Constant Matrix: (Units=GPa)
#
#
# Indices 1 2 3 4 5 6 
#
# 1 134.3607 28.3750 53.2990 -2.2414 -29.0527 -6.2856
# 2 28.3750 80.7376 49.3175 -4.0753 -21.5016 -11.0246
# 3 53.2990 49.3175 131.3786 -16.5098 -37.2815 -3.0976
# 4 -2.2414 -4.0753 -16.5098 32.1825 7.3165 -7.3615
# 5 -29.0527 -21.5016 -37.2815 7.3165 63.4700 4.5633
# 6 -6.2856 -11.0246 -3.0976 -7.3615 4.5633 34.1477
#
#
#
# Elastic Compliance Matrix: (Units=1/GPa)
#
#
# Indices 1 2 3 4 5 6 
#
# 1 0.009303 -0.000830 -0.002953 -0.001380 0.002361 0.000564
# 2 -0.000830 0.017146 -0.005460 -0.000062 0.001896 0.004621
# 3 -0.002953 -0.005460 0.012440 0.004499 0.003637 -0.000694
# 4 -0.001380 -0.000062 0.004499 0.035774 -0.002724 0.008210
# 5 0.002361 0.001896 0.003637 -0.002724 0.020065 -0.001892
# 6 0.000564 0.004621 -0.000694 0.008210 -0.001892 0.032840
#
#
# Mechanical properties :
#
#
# Convention : Reuss Voigt Hill
#
# Bulk Modulus (GPa) = 49.01109 67.60668 58.30888
# Shear Modulus (GPa) = 32.71066 40.32573 36.51819
#
# Velocity S-wave (km/s) = 3.63223 4.03292 3.83781
# Velocity P-wave (km/s) = 6.11214 6.99668 6.56932
#
# Compressibility (1/GPa) = 0.02040354
#
# Stress axis : x y z
#
# Youngs Moduli (GPa) = 107.49050 58.32406 80.38328
#
# Poissons Ratio (x) = 0.04839 0.23735
# Poissons Ratio (y) = 0.08919 0.43892
# Poissons Ratio (z) = 0.31739 0.31847
#
# Static dielectric constant tensor:
#      x y z
#    x 1.551280 0.454460 -0.703880 
#    y 0.454460 1.550710 0.899540 
#    z -0.703880 0.899540 0.628060 
# 
# From -- ./inp_files/126056.got.cif
#   From: 2010.05.17/outbox.cif.g08.bks.cpg/sg2_64_cif.got.tgz:126056.got - 2010.06.03 11:33:40.
