data_PCOD9051163
_publ_section_title
;
Structure prediction by ZEFSAII (Michael W. Deem and Ramdas Pophale) SiO2 
 PCOD9051163
Probable space group: P -1
;
_chemical_formula_sum "Si O2"
_cell_formula_units_Z 11
_cell_length_a 12.147575
_cell_length_b 14.314821
_cell_length_c 13.978109
_cell_angle_alpha 19.469453
_cell_angle_beta 35.540093
_cell_angle_gamma 33.026868
_cell_volume 437.930574
_symmetry_space_group_name_H-M "P -1"
_symmetry_group_IT_number 2
_symmetry_cell_setting 'triclinic'
loop_
_space_group_symop_operation_xyz
x,y,z
-x,-y,-z
loop_
_atom_site_type_symbol
_atom_site_label
_atom_site_fract_x
_atom_site_fract_y
_atom_site_fract_z
Si Si1 0.500000 0.000000 0.000000
Si Si2 0.715055 0.432699 0.522993
Si Si3 0.139143 0.918626 0.720177
Si Si4 0.221879 0.886160 0.906210
Si Si5 0.125950 0.297188 0.021712
Si Si6 0.426665 0.297358 0.437012
O O1 0.594268 0.210297 0.808251
O O2 0.308412 0.999728 0.213523
O O3 0.710768 0.634099 0.235466
O O4 0.648774 0.639611 0.462480
O O5 0.953752 0.234846 0.557062
O O6 0.203867 0.789384 0.904522
O O7 0.340521 0.918043 0.527887
O O8 0.039490 0.743356 0.891324
O O9 0.294958 0.164383 0.592449
O O10 0.383004 0.624885 0.106455
O O11 0.000000 0.000000 0.000000
O O12 0.000000 0.500000 0.000000
#
# Coordination Sequence:
#
# PCOD9051163 Si02
#       6
#     1   2   2   2   2   2
#     4   8  24  44  70  96 146 180 248 294 370 404
#     4  10  25  45  71 105 144 191 247 300 368 437
#     4  12  27  43  76 108 145 197 247 302 371 440
#     4  12  26  49  77 111 153 193 245 301 371 444
#     4  10  25  47  71 102 147 188 252 301 365 435
#     4  12  28  47  79 110 154 193 242 305 373 439
#
# _framework density 25.118137999999998
#
# number of rings (size 3 to 8) (size 9 to 14) (size 15 to 20)
#    1.091    0.000    1.818    2.727    7.636    2.909 
#    0.000    0.000    0.000    0.000    0.000    0.000 
#    0.000    0.000    0.000    0.000    0.000    0.000 
#
# Total GULP energy -61390.271909 kJ/mol
# GULP energy per Si atom -5580.933810 kJ/mol
# Density = 2.506097 g / cm^3
# Si number density = 25.118138 Si / 1000 Ang^3
#
#
#
# Elastic Constant Matrix: (Units=GPa)
#
#
# Indices 1 2 3 4 5 6 
#
# 1 151.8401 92.9891 28.1869 16.8611 -10.7583 18.2651
# 2 92.9891 194.9051 9.3956 41.2264 -11.4406 13.7245
# 3 28.1869 9.3956 66.8521 4.8956 -7.6620 4.8072
# 4 16.8611 41.2264 4.8956 28.5026 -15.2410 -0.3453
# 5 -10.7583 -11.4406 -7.6620 -15.2410 53.8534 0.0422
# 6 18.2651 13.7245 4.8072 -0.3453 0.0422 49.6515
#
#
#
# Elastic Compliance Matrix: (Units=1/GPa)
#
#
# Indices 1 2 3 4 5 6 
#
# 1 0.010441 -0.005109 -0.003578 0.002435 0.001182 -0.002066
# 2 -0.005109 0.010273 0.001501 -0.013401 -0.002416 -0.001197
# 3 -0.003578 0.001501 0.016624 -0.002197 0.001348 -0.000724
# 4 0.002435 -0.013401 -0.002197 0.061290 0.014670 0.003435
# 5 0.001182 -0.002416 0.001348 0.014670 0.022635 0.000185
# 6 -0.002066 -0.001197 -0.000724 0.003435 0.000185 0.021325
#
#
# Mechanical properties :
#
#
# Convention : Reuss Voigt Hill
#
# Bulk Modulus (GPa) = 43.54618 74.97118 59.25868
# Shear Modulus (GPa) = 30.37373 45.26988 37.82180
#
# Velocity S-wave (km/s) = 3.48118 4.24993 3.88462
# Velocity P-wave (km/s) = 5.79071 7.34811 6.61540
#
# Compressibility (1/GPa) = 0.02296413
#
# Stress axis : x y z
#
# Youngs Moduli (GPa) = 95.77717 97.34453 60.15504
#
# Poissons Ratio (x) = 0.49733 0.21526
# Poissons Ratio (y) = 0.48932 -0.09028
# Poissons Ratio (z) = 0.34273 -0.14609
#
# Static dielectric constant tensor:
#      x y z
#    x 1.970210 -0.019660 0.061790 
#    y -0.019660 2.026890 -0.074080 
#    z 0.061790 -0.074080 2.077560 
# 
# From -- ./inp_files/19915.got.cif
#   From: 2010.05.17/outbox.cif.g08.bks.cpg/sg2_10_cif.got.tgz:19915.got - 2010.06.03 11:33:40.
