data_PCOD9051688
_publ_section_title
;
Structure prediction by ZEFSAII (Michael W. Deem and Ramdas Pophale) SiO2 
 PCOD9051688
Probable space group: P -1
;
_chemical_formula_sum "Si O2"
_cell_formula_units_Z 12
_cell_length_a 9.374140
_cell_length_b 9.231029
_cell_length_c 13.631797
_cell_angle_alpha 59.037387
_cell_angle_beta 52.980647
_cell_angle_gamma 30.574242
_cell_volume 479.044101
_symmetry_space_group_name_H-M "P -1"
_symmetry_group_IT_number 2
_symmetry_cell_setting 'triclinic'
loop_
_space_group_symop_operation_xyz
x,y,z
-x,-y,-z
loop_
_atom_site_type_symbol
_atom_site_label
_atom_site_fract_x
_atom_site_fract_y
_atom_site_fract_z
Si Si1 0.761360 0.712803 0.724290
Si Si2 0.920412 0.836625 0.163070
Si Si3 0.298078 0.876269 0.453575
Si Si4 0.430144 0.522174 0.685825
Si Si5 0.176887 0.920942 0.159446
Si Si6 0.204298 0.391746 0.044170
O O1 0.009339 0.380395 0.721497
O O2 0.773338 0.872829 0.601616
O O3 0.784011 0.743170 0.820350
O O4 0.436015 0.871696 0.794287
O O5 0.090390 0.867958 0.123166
O O6 0.060336 0.665932 0.062225
O O7 0.425191 0.695181 0.562185
O O8 0.537074 0.653762 0.345504
O O9 0.000000 0.000000 0.500000
O O10 0.701373 0.292335 0.729077
O O11 0.121998 0.760643 0.790106
O O12 0.457862 0.826148 0.052822
O O13 0.000000 0.500000 0.000000
#
# Coordination Sequence:
#
# PCOD9051688 Si02
#       6
#     2   2   2   2   2   2
#     4  10  26  45  72 104 140 192 240 294 357 418
#     4  10  25  47  72 103 153 190 230 295 358 437
#     4  11  25  49  72 104 143 190 240 306 359 413
#     4  11  27  41  78 102 141 190 243 292 357 428
#     4  12  25  47  72 112 144 192 238 285 375 427
#     4  10  27  44  75 109 148 187 239 301 350 432
#
# _framework density 25.049886000000001
#
# number of rings (size 3 to 8) (size 9 to 14) (size 15 to 20)
#    1.000    0.333    1.667    1.500   11.667    1.333 
#    0.000    5.833    0.000    0.000    0.000    0.000 
#    0.000    0.000    0.000    0.000    0.000    0.000 
#
# Total GULP energy -67260.175318 kJ/mol
# GULP energy per Si atom -5605.014610 kJ/mol
# Density = 2.499287 g / cm^3
# Si number density = 25.049886 Si / 1000 Ang^3
#
#
#
# Elastic Constant Matrix: (Units=GPa)
#
#
# Indices 1 2 3 4 5 6 
#
# 1 114.1537 24.7865 23.8620 10.1386 -3.8352 -12.8680
# 2 24.7865 113.3940 17.7921 -5.0166 -1.0252 -11.6123
# 3 23.8620 17.7921 60.1895 -3.0966 1.6273 -1.2604
# 4 10.1386 -5.0166 -3.0966 59.6235 -3.0074 -4.8311
# 5 -3.8352 -1.0252 1.6273 -3.0074 25.4144 -1.7847
# 6 -12.8680 -11.6123 -1.2604 -4.8311 -1.7847 39.4283
#
#
#
# Elastic Compliance Matrix: (Units=1/GPa)
#
#
# Indices 1 2 3 4 5 6 
#
# 1 0.010386 -0.001466 -0.003766 -0.001779 0.001728 0.002698
# 2 -0.001466 0.009804 -0.002220 0.001194 0.000634 0.002513
# 3 -0.003766 -0.002220 0.018851 0.001244 -0.001803 -0.001209
# 4 -0.001779 0.001194 0.001244 0.017502 0.001914 0.002042
# 5 0.001728 0.000634 -0.001803 0.001914 0.040169 0.002746
# 6 0.002698 0.002513 -0.001209 0.002042 0.002746 0.027319
#
#
# Mechanical properties :
#
#
# Convention : Reuss Voigt Hill
#
# Bulk Modulus (GPa) = 41.43088 46.73537 44.08312
# Shear Modulus (GPa) = 34.01860 39.64634 36.83247
#
# Velocity S-wave (km/s) = 3.68915 3.98263 3.83869
# Velocity P-wave (km/s) = 5.89251 6.31236 6.10604
#
# Compressibility (1/GPa) = 0.02413659
#
# Stress axis : x y z
#
# Youngs Moduli (GPa) = 96.28507 102.00438 53.04841
#
# Poissons Ratio (x) = 0.14956 0.19977
# Poissons Ratio (y) = 0.14117 0.11775
# Poissons Ratio (z) = 0.36259 0.22642
#
# Static dielectric constant tensor:
#      x y z
#    x 1.951270 0.014230 -0.002420 
#    y 0.014230 1.988830 -0.056030 
#    z -0.002420 -0.056030 2.028320 
# 
# From -- ./inp_files/24473.got.cif
#   From: 2010.05.17/outbox.cif.g08.bks.cpg/sg2_13_cif.got.tgz:24473.got - 2010.06.03 11:33:40.
