data_PCOD9051189
_publ_section_title
;
Structure prediction by ZEFSAII (Michael W. Deem and Ramdas Pophale) SiO2 
 PCOD9051189
Probable space group: P -1
;
_chemical_formula_sum "Si O2"
_cell_formula_units_Z 14
_cell_length_a 4.775651
_cell_length_b 14.990021
_cell_length_c 22.519017
_cell_angle_alpha 153.840110
_cell_angle_beta 130.113155
_cell_angle_gamma 52.241649
_cell_volume 540.768948
_symmetry_space_group_name_H-M "P -1"
_symmetry_group_IT_number 2
_symmetry_cell_setting 'triclinic'
loop_
_space_group_symop_operation_xyz
x,y,z
-x,-y,-z
loop_
_atom_site_type_symbol
_atom_site_label
_atom_site_fract_x
_atom_site_fract_y
_atom_site_fract_z
Si Si1 0.383880 0.702988 0.213777
Si Si2 0.627684 0.747436 0.560726
Si Si3 0.742336 0.816014 0.860805
Si Si4 0.807452 0.272173 0.019687
Si Si5 0.968883 0.955548 0.399643
Si Si6 0.097989 0.125258 0.845959
Si Si7 0.003406 0.670044 0.685819
O O1 0.541103 0.477856 0.115982
O O2 0.681312 0.785517 0.259798
O O3 0.318184 0.845554 0.347731
O O4 0.012003 0.743076 0.149147
O O5 0.760133 0.545427 0.422034
O O6 0.691651 0.693610 0.606566
O O7 0.230886 0.852252 0.548489
O O8 0.908799 0.918161 0.689704
O O9 0.297839 0.838547 0.816754
O O10 0.868004 0.722726 0.885858
O O11 0.850330 0.679842 0.736864
O O12 0.000000 0.000000 0.000000
O O13 0.538642 0.097440 0.892235
O O14 0.945633 0.241335 0.953371
O O15 0.000000 0.000000 0.500000
#
# Coordination Sequence:
#
# PCOD9051189 Si02
#       7
#     2   2   2   2   2   2   2
#     4  11  24  41  64 101 130 179 224 269 337 395
#     4  10  25  45  71  97 133 178 223 276 331 389
#     4  12  26  44  68 101 134 174 221 276 339 385
#     4  12  24  40  70  96 140 175 222 278 332 394
#     4  11  25  42  68  97 139 173 220 275 335 398
#     4  11  22  42  66  98 135 178 223 272 330 402
#     4  11  26  45  70  98 132 177 228 270 327 403
#
# _framework density 25.889061000000002
#
# number of rings (size 3 to 8) (size 9 to 14) (size 15 to 20)
#    0.000    0.857    0.000    6.857    4.000    8.000 
#    0.000    0.000    0.000    0.000    0.000    0.000 
#    0.000    0.000    0.000    0.000    0.000    0.000 
#
# Total GULP energy -78489.970166 kJ/mol
# GULP energy per Si atom -5606.426440 kJ/mol
# Density = 2.583014 g / cm^3
# Si number density = 25.889061 Si / 1000 Ang^3
#
#
#
# Elastic Constant Matrix: (Units=GPa)
#
#
# Indices 1 2 3 4 5 6 
#
# 1 139.3815 5.8049 43.2703 -10.8458 -32.5472 5.5234
# 2 5.8049 94.7255 60.1229 -8.2317 -15.4547 -1.0434
# 3 43.2703 60.1229 118.9121 -12.6044 -44.6505 4.2341
# 4 -10.8458 -8.2317 -12.6044 50.0414 3.0640 -3.1062
# 5 -32.5472 -15.4547 -44.6505 3.0640 56.2039 -8.1707
# 6 5.5234 -1.0434 4.2341 -3.1062 -8.1707 28.7881
#
#
#
# Elastic Compliance Matrix: (Units=1/GPa)
#
#
# Indices 1 2 3 4 5 6 
#
# 1 0.008844 0.001870 -0.002761 0.001316 0.003352 -0.000130
# 2 0.001870 0.016311 -0.009606 0.000861 -0.001937 0.001188
# 3 -0.002761 -0.009606 0.018310 0.001841 0.010294 0.000609
# 4 0.001316 0.000861 0.001841 0.020912 0.001645 0.002231
# 5 0.003352 -0.001937 0.010294 0.001645 0.028152 0.005940
# 6 -0.000130 0.001188 0.000609 0.002231 0.005940 0.036642
#
#
# Mechanical properties :
#
#
# Convention : Reuss Voigt Hill
#
# Bulk Modulus (GPa) = 44.50189 63.49059 53.99624
# Shear Modulus (GPa) = 31.71480 43.26143 37.48811
#
# Velocity S-wave (km/s) = 3.50384 4.09226 3.80943
# Velocity P-wave (km/s) = 5.79620 6.84880 6.34437
#
# Compressibility (1/GPa) = 0.02247096
#
# Stress axis : x y z
#
# Youngs Moduli (GPa) = 113.07054 61.30795 54.61511
#
# Poissons Ratio (x) = -0.11467 0.15081
# Poissons Ratio (y) = -0.21149 0.52464
# Poissons Ratio (z) = 0.31223 0.58893
#
# Static dielectric constant tensor:
#      x y z
#    x 2.028710 -0.030560 0.101460 
#    y -0.030560 2.115050 -0.011810 
#    z 0.101460 -0.011810 2.088360 
# 
# From -- ./inp_files/583658.got.cif
#   From: 2010.05.17/outbox.cif.g08.bks.cpg/sg2_292_cif.got.tgz:583658.got - 2010.06.03 11:33:40.
