data_PCOD9051600
_publ_section_title
;
Structure prediction by ZEFSAII (Michael W. Deem and Ramdas Pophale) SiO2 
 PCOD9051600
Probable space group: P -1
;
_chemical_formula_sum "Si O2"
_cell_formula_units_Z 16
_cell_length_a 8.742529
_cell_length_b 8.066301
_cell_length_c 14.491468
_cell_angle_alpha 93.461192
_cell_angle_beta 38.192789
_cell_angle_gamma 90.484395
_cell_volume 629.460254
_symmetry_space_group_name_H-M "P -1"
_symmetry_group_IT_number 2
_symmetry_cell_setting 'triclinic'
loop_
_space_group_symop_operation_xyz
x,y,z
-x,-y,-z
loop_
_atom_site_type_symbol
_atom_site_label
_atom_site_fract_x
_atom_site_fract_y
_atom_site_fract_z
Si Si1 0.162048 0.055977 0.675852
Si Si2 0.896934 0.592016 0.688308
Si Si3 0.655434 0.643598 0.471892
Si Si4 0.812526 0.118779 0.534112
Si Si5 0.157193 0.200171 0.101059
Si Si6 0.281258 0.263730 0.849112
Si Si7 0.475847 0.597574 0.752324
Si Si8 0.807090 0.145328 0.971862
O O1 0.349288 0.203522 0.592535
O O2 0.897608 0.161025 0.823955
O O3 0.214904 0.989658 0.547666
O O4 0.101713 0.887358 0.755626
O O5 0.779633 0.701022 0.833923
O O6 0.703531 0.526352 0.705383
O O7 0.073425 0.445601 0.642244
O O8 0.058526 0.717916 0.557946
O O9 0.500000 0.500000 0.500000
O O10 0.559026 0.683220 0.622383
O O11 0.550642 0.168744 0.707611
O O12 0.000000 0.000000 0.500000
O O13 0.310909 0.032000 0.987086
O O14 0.176818 0.304758 0.003011
O O15 0.311545 0.445861 0.798348
O O16 0.079005 0.153643 0.892538
O O17 0.348771 0.727517 0.888280
#
# Coordination Sequence:
#
# PCOD9051600 Si02
#       8
#     2   2   2   2   2   2   2   2
#     4   9  24  43  68  97 137 179 231 287 348 403
#     4  11  26  48  68 109 140 188 239 288 360 416
#     4  12  26  45  74 104 143 186 240 293 351 419
#     4  11  25  44  72 100 138 185 235 293 347 417
#     4   9  25  44  70  98 142 180 236 285 348 416
#     4  12  25  44  72 103 139 186 241 289 353 418
#     4  12  27  44  75 102 148 183 233 296 356 423
#     4  10  25  47  67 105 138 189 235 289 353 417
#
# _framework density 25.418603999999998
#
# number of rings (size 3 to 8) (size 9 to 14) (size 15 to 20)
#    0.750    0.500    1.250    2.625    8.750    3.500 
#    0.000    0.000    0.000    0.000    0.000    0.000 
#    0.000    0.000    0.000    0.000    0.000    0.000 
#
# Total GULP energy -89243.248039 kJ/mol
# GULP energy per Si atom -5577.703002 kJ/mol
# Density = 2.536075 g / cm^3
# Si number density = 25.418604 Si / 1000 Ang^3
#
#
#
# Elastic Constant Matrix: (Units=GPa)
#
#
# Indices 1 2 3 4 5 6 
#
# 1 69.7074 11.5147 27.8990 22.2090 4.3896 1.3915
# 2 11.5147 64.5694 45.7326 6.8270 19.8502 6.7949
# 3 27.8990 45.7326 146.4835 20.9017 28.2785 -5.8701
# 4 22.2090 6.8270 20.9017 44.6328 -4.3054 5.0313
# 5 4.3896 19.8502 28.2785 -4.3054 30.0196 9.1046
# 6 1.3915 6.7949 -5.8701 5.0313 9.1046 38.3131
#
#
#
# Elastic Compliance Matrix: (Units=1/GPa)
#
#
# Indices 1 2 3 4 5 6 
#
# 1 0.017858 -0.000609 -0.001559 -0.008369 -0.002195 0.000841
# 2 -0.000609 0.022428 -0.004886 -0.001526 -0.009690 -0.002201
# 3 -0.001559 -0.004886 0.011609 -0.005537 -0.010034 0.005813
# 4 -0.008369 -0.001526 -0.005537 0.031667 0.014370 -0.007847
# 5 -0.002195 -0.009690 -0.010034 0.014370 0.056089 -0.014955
# 6 0.000841 -0.002201 0.005813 -0.007847 -0.014955 0.031936
#
#
# Mechanical properties :
#
#
# Convention : Reuss Voigt Hill
#
# Bulk Modulus (GPa) = 26.46400 50.11700 38.29050
# Shear Modulus (GPa) = 25.21535 35.63401 30.42468
#
# Velocity S-wave (km/s) = 3.15303 3.74824 3.46344
# Velocity P-wave (km/s) = 4.86717 6.20418 5.57589
#
# Compressibility (1/GPa) = 0.03778719
#
# Stress axis : x y z
#
# Youngs Moduli (GPa) = 55.99627 44.58627 86.13836
#
# Poissons Ratio (x) = 0.02715 0.13433
# Poissons Ratio (y) = 0.03410 0.42087
# Poissons Ratio (z) = 0.08732 0.21785
#
# Static dielectric constant tensor:
#      x y z
#    x 2.068510 -0.042780 0.001770 
#    y -0.042780 2.072700 0.024830 
#    z 0.001770 0.024830 2.098070 
# 
# From -- ./inp_files/495109.got.cif
#   From: 2010.05.17/outbox.cif.g08.bks.cpg/sg2_248_cif.got.tgz:495109.got - 2010.06.03 11:33:40.
