data_PCOD9051736
_publ_section_title
;
Structure prediction by ZEFSAII (Michael W. Deem and Ramdas Pophale) SiO2 
 PCOD9051736
Probable space group: P -1
;
_chemical_formula_sum "Si O2"
_cell_formula_units_Z 16
_cell_length_a 8.276153
_cell_length_b 12.335799
_cell_length_c 14.855716
_cell_angle_alpha 28.927630
_cell_angle_beta 114.539877
_cell_angle_gamma 106.304742
_cell_volume 655.440737
_symmetry_space_group_name_H-M "P -1"
_symmetry_group_IT_number 2
_symmetry_cell_setting 'triclinic'
loop_
_space_group_symop_operation_xyz
x,y,z
-x,-y,-z
loop_
_atom_site_type_symbol
_atom_site_label
_atom_site_fract_x
_atom_site_fract_y
_atom_site_fract_z
Si Si1 0.841234 0.747228 0.591325
Si Si2 0.956995 0.697904 0.128936
Si Si3 0.085220 0.780564 0.798484
Si Si4 0.430543 0.398634 0.146087
Si Si5 0.771980 0.905959 0.776472
Si Si6 0.463826 0.297693 0.706066
Si Si7 0.551669 0.364135 0.386282
Si Si8 0.202086 0.075614 0.898943
O O1 0.639415 0.715210 0.587763
O O2 0.929848 0.548560 0.688201
O O3 0.967084 0.729271 0.722456
O O4 0.835525 0.997225 0.369410
O O5 0.897705 0.738993 0.188067
O O6 0.790916 0.753472 0.980757
O O7 0.071826 0.893771 0.986360
O O8 0.954239 0.841329 0.808465
O O9 0.246485 0.570322 0.006142
O O10 0.378623 0.161115 0.276349
O O11 0.570443 0.385216 0.268901
O O12 0.500000 0.500000 0.000000
O O13 0.713510 0.168371 0.598708
O O14 0.500000 0.500000 0.500000
O O15 0.462854 0.410007 0.723199
O O16 0.280420 0.191619 0.746414
O O17 0.627293 0.082720 0.895961
#
# Coordination Sequence:
#
# PCOD9051736 Si02
#       8
#     2   2   2   2   2   2   2   2
#     4  11  23  44  69  99 143 183 230 286 352 421
#     4  11  23  47  71 104 138 190 229 301 356 419
#     4  11  25  41  67 103 140 185 234 282 341 432
#     4  12  26  43  67 101 143 186 229 285 353 430
#     4  12  25  41  70 101 142 182 235 281 354 427
#     4  11  25  48  73 103 141 184 240 306 352 424
#     4  12  26  44  68 102 139 184 230 288 354 421
#     4  10  25  47  74 102 141 181 247 296 361 417
#
# _framework density 24.411052999999999
#
# number of rings (size 3 to 8) (size 9 to 14) (size 15 to 20)
#    0.000    0.750    3.750    3.000    7.000    1.000 
#    2.250    1.875    0.000    0.000    0.000    0.000 
#    0.000    0.000    0.000    0.000    0.000    0.000 
#
# Total GULP energy -89623.787902 kJ/mol
# GULP energy per Si atom -5601.486744 kJ/mol
# Density = 2.435549 g / cm^3
# Si number density = 24.411053 Si / 1000 Ang^3
#
#
#
# Elastic Constant Matrix: (Units=GPa)
#
#
# Indices 1 2 3 4 5 6 
#
# 1 89.8533 16.9976 26.7598 -15.6123 -17.8800 -3.6119
# 2 16.9976 74.7649 6.7305 -18.9364 -2.3095 -8.9690
# 3 26.7598 6.7305 96.4052 -19.5246 -6.6384 -6.7023
# 4 -15.6123 -18.9364 -19.5246 38.1521 -8.9363 7.2892
# 5 -17.8800 -2.3095 -6.6384 -8.9363 48.3477 -8.9988
# 6 -3.6119 -8.9690 -6.7023 7.2892 -8.9988 29.5142
#
#
#
# Elastic Compliance Matrix: (Units=1/GPa)
#
#
# Indices 1 2 3 4 5 6 
#
# 1 0.014232 -0.001376 -0.002301 0.005124 0.006088 0.001392
# 2 -0.001376 0.016143 0.001328 0.008010 0.002645 0.003867
# 3 -0.002301 0.001328 0.012516 0.006293 0.002499 0.002172
# 4 0.005124 0.008010 0.006293 0.038178 0.009837 -0.001939
# 5 0.006088 0.002645 0.002499 0.009837 0.026678 0.007821
# 6 0.001392 0.003867 0.002172 -0.001939 0.007821 0.038584
#
#
# Mechanical properties :
#
#
# Convention : Reuss Voigt Hill
#
# Bulk Modulus (GPa) = 26.18190 40.22213 33.20201
# Shear Modulus (GPa) = 30.53227 37.23850 33.88539
#
# Velocity S-wave (km/s) = 3.54044 3.90997 3.72979
# Velocity P-wave (km/s) = 5.24039 6.07426 5.67267
#
# Compressibility (1/GPa) = 0.03819433
#
# Stress axis : x y z
#
# Youngs Moduli (GPa) = 70.26219 61.94726 79.89510
#
# Poissons Ratio (x) = 0.08523 0.18383
# Poissons Ratio (y) = 0.09667 -0.10610
# Poissons Ratio (z) = 0.16166 -0.08227
#
# Static dielectric constant tensor:
#      x y z
#    x 1.951510 0.037920 -0.036930 
#    y 0.037920 1.955290 0.049800 
#    z -0.036930 0.049800 1.903260 
# 
# From -- ./inp_files/352368.got.cif
#   From: 2010.05.17/outbox.cif.g08.bks.cpg/sg2_177_cif.got.tgz:352368.got - 2010.06.03 11:33:40.
