data_PCOD9051672
_publ_section_title
;
Structure prediction by ZEFSAII (Michael W. Deem and Ramdas Pophale) SiO2 
 PCOD9051672
Probable space group: P -1
;
_chemical_formula_sum "Si O2"
_cell_formula_units_Z 14
_cell_length_a 11.223079
_cell_length_b 5.268360
_cell_length_c 12.191589
_cell_angle_alpha 84.393706
_cell_angle_beta 64.518718
_cell_angle_gamma 51.796755
_cell_volume 496.747865
_symmetry_space_group_name_H-M "P -1"
_symmetry_group_IT_number 2
_symmetry_cell_setting 'triclinic'
loop_
_space_group_symop_operation_xyz
x,y,z
-x,-y,-z
loop_
_atom_site_type_symbol
_atom_site_label
_atom_site_fract_x
_atom_site_fract_y
_atom_site_fract_z
Si Si1 0.058698 0.652152 0.889778
Si Si2 0.285102 0.718672 0.036928
Si Si3 0.257325 0.817344 0.301651
Si Si4 0.237398 0.221036 0.647168
Si Si5 0.421514 0.493495 0.643896
Si Si6 0.405372 0.116153 0.883227
Si Si7 0.759834 0.687800 0.616175
O O1 0.071590 0.527219 0.766505
O O2 0.256224 0.450027 0.857110
O O3 0.000000 0.500000 0.000000
O O4 0.916712 0.048561 0.925341
O O5 0.706773 0.245160 0.838126
O O6 0.391117 0.332105 0.981456
O O7 0.346134 0.904330 0.945796
O O8 0.432270 0.632240 0.315523
O O9 0.162709 0.683448 0.383843
O O10 0.150730 0.197639 0.359503
O O11 0.374845 0.264724 0.631115
O O12 0.244736 0.228739 0.512657
O O13 0.272298 0.894884 0.696454
O O14 0.500000 0.500000 0.500000
O O15 0.580628 0.879039 0.753267
#
# Coordination Sequence:
#
# PCOD9051672 Si02
#       7
#     2   2   2   2   2   2   2
#     4  10  25  47  71  95 131 180 231 267 318 394
#     4  11  26  46  61  96 134 184 216 266 323 397
#     4  12  24  39  65  95 144 166 215 267 337 403
#     4  12  25  43  71 101 132 167 226 285 325 387
#     4  12  22  40  69 105 133 164 215 277 341 389
#     4  11  24  42  71  93 130 169 229 274 326 386
#     4  12  24  42  67 104 126 170 215 284 342 382
#
# _framework density 28.183312000000001
#
# number of rings (size 3 to 8) (size 9 to 14) (size 15 to 20)
#    0.000    0.571    2.857    5.143    0.000    9.143 
#    0.000    1.429    0.000    0.000    0.000    0.000 
#    0.000    0.000    0.000    0.000    0.000    0.000 
#
# Total GULP energy -78280.562710 kJ/mol
# GULP energy per Si atom -5591.468765 kJ/mol
# Density = 2.811917 g / cm^3
# Si number density = 28.183312 Si / 1000 Ang^3
#
#
#
# Elastic Constant Matrix: (Units=GPa)
#
#
# Indices 1 2 3 4 5 6 
#
# 1 112.2388 37.6505 49.5696 9.8878 35.3071 1.0134
# 2 37.6505 161.7633 31.3899 5.7742 0.1132 35.9934
# 3 49.5696 31.3899 158.9718 7.4292 36.0609 -3.6466
# 4 9.8878 5.7742 7.4292 55.2933 -9.2581 -0.1873
# 5 35.3071 0.1132 36.0609 -9.2581 58.2734 6.3124
# 6 1.0134 35.9934 -3.6466 -0.1873 6.3124 59.4846
#
#
#
# Elastic Compliance Matrix: (Units=1/GPa)
#
#
# Indices 1 2 3 4 5 6 
#
# 1 0.013447 -0.003267 -0.001535 -0.003183 -0.007966 0.002489
# 2 -0.003267 0.008476 -0.001637 0.000513 0.003659 -0.005560
# 3 -0.001535 -0.001637 0.008253 -0.001430 -0.004618 0.002008
# 4 -0.003183 0.000513 -0.001430 0.019804 0.006059 -0.000924
# 5 -0.007966 0.003659 -0.004618 0.006059 0.026357 -0.005139
# 6 0.002489 -0.005560 0.002008 -0.000924 -0.005139 0.020799
#
#
# Mechanical properties :
#
#
# Convention : Reuss Voigt Hill
#
# Bulk Modulus (GPa) = 57.80526 74.46597 66.13562
# Shear Modulus (GPa) = 43.18550 55.56786 49.37668
#
# Velocity S-wave (km/s) = 3.91872 4.44515 4.19021
# Velocity P-wave (km/s) = 6.40547 7.26810 6.85038
#
# Compressibility (1/GPa) = 0.01729946
#
# Stress axis : x y z
#
# Youngs Moduli (GPa) = 74.36473 117.97951 121.17134
#
# Poissons Ratio (x) = 0.38538 0.18601
# Poissons Ratio (y) = 0.24291 0.19832
# Poissons Ratio (z) = 0.11416 0.19309
#
# Static dielectric constant tensor:
#      x y z
#    x 2.659830 0.322270 -0.981810 
#    y 0.322270 2.736530 -0.973080 
#    z -0.981810 -0.973080 4.977830 
# 
# From -- ./inp_files/571431.got.cif
#   From: 2010.05.17/outbox.cif.g08.bks.cpg/sg2_286_cif.got.tgz:571431.got - 2010.06.03 11:33:40.
