data_PCOD9051397
_publ_section_title
;
Structure prediction by ZEFSAII (Michael W. Deem and Ramdas Pophale) SiO2 
 PCOD9051397
Probable space group: P -1
;
_chemical_formula_sum "Si O2"
_cell_formula_units_Z 16
_cell_length_a 14.666385
_cell_length_b 10.873110
_cell_length_c 8.781775
_cell_angle_alpha 108.585309
_cell_angle_beta 57.045897
_cell_angle_gamma 62.211082
_cell_volume 662.070084
_symmetry_space_group_name_H-M "P -1"
_symmetry_group_IT_number 2
_symmetry_cell_setting 'triclinic'
loop_
_space_group_symop_operation_xyz
x,y,z
-x,-y,-z
loop_
_atom_site_type_symbol
_atom_site_label
_atom_site_fract_x
_atom_site_fract_y
_atom_site_fract_z
Si Si1 0.929523 0.858174 0.433955
Si Si2 0.790225 0.722602 0.592390
Si Si3 0.797461 0.242126 0.248956
Si Si4 0.811410 0.764563 0.946132
Si Si5 0.662361 0.648525 0.171015
Si Si6 0.767039 0.075500 0.973308
Si Si7 0.606803 0.676548 0.586326
Si Si8 0.605882 0.293436 0.718008
O O1 0.814943 0.834523 0.531578
O O2 0.138580 0.615718 0.116807
O O3 0.803237 0.068351 0.525007
O O4 0.915793 0.924234 0.645944
O O5 0.780205 0.756168 0.794411
O O6 0.635821 0.781720 0.687431
O O7 0.981239 0.465728 0.290495
O O8 0.752339 0.230652 0.119023
O O9 0.772842 0.418136 0.355148
O O10 0.659144 0.307947 0.516402
O O11 0.000000 0.000000 0.000000
O O12 0.694809 0.768821 0.144644
O O13 0.796912 0.935076 0.019582
O O14 0.591071 0.712266 0.434016
O O15 0.525181 0.703121 0.204026
O O16 0.570583 0.223523 0.146486
O O17 0.500000 0.500000 0.000000
#
# Coordination Sequence:
#
# PCOD9051397 Si02
#       8
#     2   2   2   2   2   2   2   2
#     4  10  25  46  70 100 133 179 221 279 334 396
#     4   9  21  42  69  97 133 176 223 268 335 401
#     4  12  27  46  68  95 135 182 223 272 337 405
#     4   9  21  41  68 100 129 176 223 271 332 400
#     4  11  26  45  68 101 139 172 223 283 335 395
#     4  11  24  43  68  99 135 174 223 274 333 404
#     4  12  25  42  67  98 136 176 216 285 334 394
#     4  12  28  45  69 103 133 178 229 277 331 405
#
# _framework density 24.166626999999998
#
# number of rings (size 3 to 8) (size 9 to 14) (size 15 to 20)
#    0.000    1.250    1.250    3.375    8.750    5.000 
#    0.000    0.000    0.000    0.000    0.000    0.000 
#    0.000    0.000    0.000    0.000    0.000    0.000 
#
# Total GULP energy -89516.571315 kJ/mol
# GULP energy per Si atom -5594.785707 kJ/mol
# Density = 2.411162 g / cm^3
# Si number density = 24.166627 Si / 1000 Ang^3
#
#
#
# Elastic Constant Matrix: (Units=GPa)
#
#
# Indices 1 2 3 4 5 6 
#
# 1 108.5548 -7.0959 11.5016 -3.9857 -0.2815 5.0772
# 2 -7.0959 86.3052 6.1413 17.4266 -2.0811 11.8986
# 3 11.5016 6.1413 71.0441 7.5505 -1.7010 -5.7629
# 4 -3.9857 17.4266 7.5505 36.6031 -0.1760 -3.8167
# 5 -0.2815 -2.0811 -1.7010 -0.1760 32.5784 8.2487
# 6 5.0772 11.8986 -5.7629 -3.8167 8.2487 22.4419
#
#
#
# Elastic Compliance Matrix: (Units=1/GPa)
#
#
# Indices 1 2 3 4 5 6 
#
# 1 0.009711 0.001401 -0.002019 0.000420 0.001023 -0.003763
# 2 0.001401 0.015065 -0.001528 -0.007876 0.003741 -0.011411
# 3 -0.002019 -0.001528 0.015150 -0.002097 -0.000607 0.005024
# 4 0.000420 -0.007876 -0.002097 0.032597 -0.003014 0.010194
# 5 0.001023 0.003741 -0.000607 -0.003014 0.034870 -0.015701
# 6 -0.003763 -0.011411 0.005024 0.010194 -0.015701 0.060256
#
#
# Mechanical properties :
#
#
# Convention : Reuss Voigt Hill
#
# Bulk Modulus (GPa) = 28.06242 31.88868 29.97555
# Shear Modulus (GPa) = 27.20065 35.34847 31.27456
#
# Velocity S-wave (km/s) = 3.35856 3.82867 3.60129
# Velocity P-wave (km/s) = 5.16499 5.72442 5.45188
#
# Compressibility (1/GPa) = 0.03563485
#
# Stress axis : x y z
#
# Youngs Moduli (GPa) = 102.97143 66.38121 66.00449
#
# Poissons Ratio (x) = -0.09299 0.13324
# Poissons Ratio (y) = -0.14425 0.10085
# Poissons Ratio (z) = 0.20786 0.10143
#
# Static dielectric constant tensor:
#      x y z
#    x 1.904630 -0.000230 -0.002760 
#    y -0.000230 1.950450 0.032930 
#    z -0.002760 0.032930 1.924730 
# 
# From -- ./inp_files/279823.got.cif
#   From: 2010.05.17/outbox.cif.g08.bks.cpg/sg2_140_cif.got.tgz:279823.got - 2010.06.03 11:33:40.
