data_PCOD9051523
_publ_section_title
;
Structure prediction by ZEFSAII (Michael W. Deem and Ramdas Pophale) SiO2 
 PCOD9051523
Probable space group: P -1
;
_chemical_formula_sum "Si O2"
_cell_formula_units_Z 16
_cell_length_a 29.567525
_cell_length_b 23.945203
_cell_length_c 5.809214
_cell_angle_alpha 77.680429
_cell_angle_beta 104.334140
_cell_angle_gamma 170.187510
_cell_volume 667.364756
_symmetry_space_group_name_H-M "P -1"
_symmetry_group_IT_number 2
_symmetry_cell_setting 'triclinic'
loop_
_space_group_symop_operation_xyz
x,y,z
-x,-y,-z
loop_
_atom_site_type_symbol
_atom_site_label
_atom_site_fract_x
_atom_site_fract_y
_atom_site_fract_z
Si Si1 0.030154 0.772921 0.382347
Si Si2 0.976112 0.611003 0.070933
Si Si3 0.866838 0.350357 0.214485
Si Si4 0.320232 0.651557 0.301011
Si Si5 0.545899 0.760541 0.114570
Si Si6 0.739912 0.769806 0.396440
Si Si7 0.999083 0.829482 0.946728
Si Si8 0.197245 0.263130 0.815714
O O1 0.998549 0.681675 0.249887
O O2 0.086481 0.901675 0.222073
O O3 0.730352 0.418440 0.433023
O O4 0.270001 0.044672 0.622753
O O5 0.848169 0.396404 0.153929
O O6 0.786928 0.414025 0.820674
O O7 0.275065 0.974280 0.014800
O O8 0.000000 0.500000 0.500000
O O9 0.602181 0.991344 0.226279
O O10 0.000000 0.500000 0.000000
O O11 0.115404 0.359465 0.188950
O O12 0.461703 0.610370 0.957999
O O13 0.258330 0.439159 0.110451
O O14 0.500000 0.500000 0.500000
O O15 0.721939 0.688325 0.306724
O O16 0.016128 0.092859 0.609024
O O17 0.777690 0.864551 0.171440
O O18 0.000000 0.000000 0.000000
#
# Coordination Sequence:
#
# PCOD9051523 Si02
#       8
#     2   2   2   2   2   2   2   2
#     4  10  26  46  76 114 144 202 253 321 385 472
#     4  10  25  46  74 105 152 201 246 322 390 456
#     4  12  29  45  76 115 156 204 260 321 393 471
#     4  10  25  46  73 109 151 193 263 309 383 474
#     4  11  25  47  78 105 155 194 262 318 391 461
#     4  11  28  52  78 110 157 202 257 325 403 473
#     4  11  25  48  78 109 147 202 259 313 390 474
#     4  11  26  51  74 114 149 203 255 326 392 475
#
# _framework density 23.974893000000002
#
# number of rings (size 3 to 8) (size 9 to 14) (size 15 to 20)
#    0.000    1.250    1.250    1.125   14.000    5.000 
#    4.500    0.625    0.000    0.000    0.000    0.000 
#    0.000    0.000    0.000    0.000    0.000    0.000 
#
# Total GULP energy -89467.484009 kJ/mol
# GULP energy per Si atom -5591.717751 kJ/mol
# Density = 2.392033 g / cm^3
# Si number density = 23.974893 Si / 1000 Ang^3
#
#
#
# Elastic Constant Matrix: (Units=GPa)
#
#
# Indices 1 2 3 4 5 6 
#
# 1 117.5300 28.3566 47.7606 -14.4656 4.4064 2.7261
# 2 28.3566 99.7726 41.2394 -30.3650 -12.9402 10.5063
# 3 47.7606 41.2394 123.8996 -19.0529 7.0677 13.7196
# 4 -14.4656 -30.3650 -19.0529 38.4003 4.8932 -7.3198
# 5 4.4064 -12.9402 7.0677 4.8932 36.9854 -8.6684
# 6 2.7261 10.5063 13.7196 -7.3198 -8.6684 34.3421
#
#
#
# Elastic Compliance Matrix: (Units=1/GPa)
#
#
# Indices 1 2 3 4 5 6 
#
# 1 0.010408 -0.001339 -0.003387 0.001502 -0.001026 0.000998
# 2 -0.001339 0.015273 -0.003430 0.009246 0.004941 0.000022
# 3 -0.003387 -0.003430 0.011413 0.001440 -0.004098 -0.003969
# 4 0.001502 0.009246 0.001440 0.035485 -0.001028 0.003781
# 5 -0.001026 0.004941 -0.004098 -0.001028 0.031679 0.007984
# 6 0.000998 0.000022 -0.003969 0.003781 0.007984 0.033440
#
#
# Mechanical properties :
#
#
# Convention : Reuss Voigt Hill
#
# Bulk Modulus (GPa) = 48.11825 63.99061 56.05443
# Shear Modulus (GPa) = 31.06777 36.86861 33.96819
#
# Velocity S-wave (km/s) = 3.60369 3.92573 3.76816
# Velocity P-wave (km/s) = 6.11795 6.87729 6.50870
#
# Compressibility (1/GPa) = 0.02078213
#
# Stress axis : x y z
#
# Youngs Moduli (GPa) = 96.07714 65.47308 87.61769
#
# Poissons Ratio (x) = 0.08767 0.29680
# Poissons Ratio (y) = 0.12864 0.30053
# Poissons Ratio (z) = 0.32546 0.22457
#
# Static dielectric constant tensor:
#      x y z
#    x 1.895770 0.059300 0.011350 
#    y 0.059300 2.029270 -0.066520 
#    z 0.011350 -0.066520 1.860200 
# 
# From -- ./inp_files/128839.got.cif
#   From: 2010.05.17/outbox.cif.g08.bks.cpg/sg2_65_cif.got.tgz:128839.got - 2010.06.03 11:33:40.
