data_PCOD9051867
_publ_section_title
;
Structure prediction by ZEFSAII (Michael W. Deem and Ramdas Pophale) SiO2 
 PCOD9051867
Probable space group: P -1
;
_chemical_formula_sum "Si O2"
_cell_formula_units_Z 14
_cell_length_a 7.856789
_cell_length_b 8.851809
_cell_length_c 8.502804
_cell_angle_alpha 96.752105
_cell_angle_beta 73.752451
_cell_angle_gamma 111.899164
_cell_volume 526.701488
_symmetry_space_group_name_H-M "P -1"
_symmetry_group_IT_number 2
_symmetry_cell_setting 'triclinic'
loop_
_space_group_symop_operation_xyz
x,y,z
-x,-y,-z
loop_
_atom_site_type_symbol
_atom_site_label
_atom_site_fract_x
_atom_site_fract_y
_atom_site_fract_z
Si Si1 0.508958 0.694857 0.206271
Si Si2 0.427140 0.013475 0.225401
Si Si3 0.932342 0.055214 0.862966
Si Si4 0.778138 0.858108 0.449599
Si Si5 0.221966 0.664424 0.787506
Si Si6 0.195919 0.468313 0.465487
Si Si7 0.849285 0.625116 0.003398
O O1 0.633348 0.767192 0.338004
O O2 0.337358 0.538376 0.291562
O O3 0.658882 0.665160 0.044695
O O4 0.432204 0.834540 0.194941
O O5 0.318347 0.040724 0.411089
O O6 0.631242 0.155170 0.201473
O O7 0.710746 0.978411 0.879141
O O8 0.040299 0.025766 0.678864
O O9 0.016349 0.251164 0.884186
O O10 0.000000 0.000000 0.000000
O O11 0.820404 0.715013 0.514557
O O12 0.279921 0.578942 0.613799
O O13 0.217339 0.553393 0.926929
O O14 0.004106 0.655857 0.829966
O O15 0.000000 0.500000 0.500000
#
# Coordination Sequence:
#
# PCOD9051867 Si02
#       7
#     2   2   2   2   2   2   2
#     4  11  23  43  74 111 148 193 244 313 367 441
#     4  12  26  44  80 113 145 194 259 304 379 441
#     4  11  26  47  73 107 154 196 240 314 376 446
#     4  11  23  47  72 110 150 193 251 311 366 449
#     4  11  24  47  74 105 146 198 249 306 363 449
#     4  12  24  44  78 108 147 197 254 305 372 439
#     4  10  25  48  72  98 154 194 240 305 373 441
#
# _framework density 26.580522999999999
#
# number of rings (size 3 to 8) (size 9 to 14) (size 15 to 20)
#    0.000    0.857    4.286    3.000    4.000    1.714 
#    0.000    1.429    0.000    0.000    0.000    0.000 
#    0.000    0.000    0.000    0.000    0.000    0.000 
#
# Total GULP energy -78517.980943 kJ/mol
# GULP energy per Si atom -5608.427210 kJ/mol
# Density = 2.652002 g / cm^3
# Si number density = 26.580523 Si / 1000 Ang^3
#
#
#
# Elastic Constant Matrix: (Units=GPa)
#
#
# Indices 1 2 3 4 5 6 
#
# 1 143.7800 51.5024 38.5328 -14.8433 -22.5327 -9.3373
# 2 51.5024 116.1593 82.3244 -0.9426 -2.7585 -18.9427
# 3 38.5328 82.3244 175.5353 7.5514 -35.8025 -16.1682
# 4 -14.8433 -0.9426 7.5514 54.3794 -0.3837 2.0231
# 5 -22.5327 -2.7585 -35.8025 -0.3837 35.3469 5.9211
# 6 -9.3373 -18.9427 -16.1682 2.0231 5.9211 53.5097
#
#
#
# Elastic Compliance Matrix: (Units=1/GPa)
#
#
# Indices 1 2 3 4 5 6 
#
# 1 0.009929 -0.005686 0.001954 0.002422 0.008003 -0.000667
# 2 -0.005686 0.018167 -0.009435 -0.000162 -0.012430 0.003970
# 3 0.001954 -0.009435 0.012362 -0.001229 0.013129 -0.000670
# 4 0.002422 -0.000162 -0.001229 0.019253 0.000630 -0.000804
# 5 0.008003 -0.012430 0.013129 0.000630 0.046431 -0.004198
# 6 -0.000667 0.003970 -0.000670 -0.000804 -0.004198 0.020270
#
#
# Mechanical properties :
#
#
# Convention : Reuss Voigt Hill
#
# Bulk Modulus (GPa) = 70.80075 86.68820 78.74448
# Shear Modulus (GPa) = 31.75528 46.18820 38.97174
#
# Velocity S-wave (km/s) = 3.46017 4.17306 3.83322
# Velocity P-wave (km/s) = 6.53130 7.47686 7.02002
#
# Compressibility (1/GPa) = 0.01412414
#
# Stress axis : x y z
#
# Youngs Moduli (GPa) = 100.71434 55.04337 80.89407
#
# Poissons Ratio (x) = 0.31298 -0.15805
# Poissons Ratio (y) = 0.57267 0.76322
# Poissons Ratio (z) = -0.19677 0.51932
#
# Static dielectric constant tensor:
#      x y z
#    x 2.110890 0.021640 -0.001110 
#    y 0.021640 2.072200 0.046700 
#    z -0.001110 0.046700 2.117590 
# 
# From -- ./inp_files/378548.got.cif
#   From: 2010.05.17/outbox.cif.g08.bks.cpg/sg2_190_cif.got.tgz:378548.got - 2010.06.03 11:33:40.
