data_PCOD9051759
_publ_section_title
;
Structure prediction by ZEFSAII (Michael W. Deem and Ramdas Pophale) SiO2 
 PCOD9051759
Probable space group: P -1
;
_chemical_formula_sum "Si O2"
_cell_formula_units_Z 12
_cell_length_a 13.311850
_cell_length_b 7.614881
_cell_length_c 8.886029
_cell_angle_alpha 51.855383
_cell_angle_beta 131.282464
_cell_angle_gamma 125.338164
_cell_volume 509.601773
_symmetry_space_group_name_H-M "P -1"
_symmetry_group_IT_number 2
_symmetry_cell_setting 'triclinic'
loop_
_space_group_symop_operation_xyz
x,y,z
-x,-y,-z
loop_
_atom_site_type_symbol
_atom_site_label
_atom_site_fract_x
_atom_site_fract_y
_atom_site_fract_z
Si Si1 0.808792 0.362936 0.832401
Si Si2 0.479259 0.697258 0.484560
Si Si3 0.646169 0.529069 0.211306
Si Si4 0.882960 0.329453 0.576026
Si Si5 0.225074 0.131246 0.396122
Si Si6 0.151157 0.002134 0.714430
O O1 0.644471 0.206768 0.747727
O O2 0.873898 0.374752 0.722491
O O3 0.194898 0.379990 0.253414
O O4 0.872127 0.232802 0.089181
O O5 0.500000 0.500000 0.500000
O O6 0.410399 0.562025 0.633539
O O7 0.636029 0.854563 0.571305
O O8 0.739954 0.362691 0.345891
O O9 0.761565 0.781180 0.211011
O O10 0.500000 0.500000 0.000000
O O11 0.000000 0.500000 0.500000
O O12 0.892774 0.069943 0.695328
O O13 0.240277 0.038995 0.628399
O O14 0.000000 0.000000 0.500000
#
# Coordination Sequence:
#
# PCOD9051759 Si02
#       6
#     2   2   2   2   2   2
#     4  10  25  47  75 106 153 199 248 318 383 444
#     4   9  19  44  68 109 143 188 249 301 380 443
#     4  11  25  46  75 113 156 196 255 321 378 455
#     4  11  25  49  76 112 153 200 259 314 385 464
#     4  11  24  46  77 107 153 192 256 317 378 465
#     4  12  26  49  74 106 158 204 250 313 384 455
#
# _framework density 23.547798
#
# number of rings (size 3 to 8) (size 9 to 14) (size 15 to 20)
#    0.000    1.333    5.000    1.000    4.667    5.333 
#    3.000    1.667    0.000    0.000    0.000    0.000 
#    0.000    0.000    0.000    0.000    0.000    0.000 
#
# Total GULP energy -66950.848911 kJ/mol
# GULP energy per Si atom -5579.237409 kJ/mol
# Density = 2.349420 g / cm^3
# Si number density = 23.547798 Si / 1000 Ang^3
#
#
#
# Elastic Constant Matrix: (Units=GPa)
#
#
# Indices 1 2 3 4 5 6 
#
# 1 119.2966 50.2435 43.3443 -16.8863 10.1664 17.2937
# 2 50.2435 169.9644 50.9256 -8.3825 3.5131 -0.8035
# 3 43.3443 50.9256 164.7706 -10.6321 8.5224 5.2570
# 4 -16.8863 -8.3825 -10.6321 30.4807 12.0109 3.5024
# 5 10.1664 3.5131 8.5224 12.0109 15.7211 5.6414
# 6 17.2937 -0.8035 5.2570 3.5024 5.6414 41.3363
#
#
#
# Elastic Compliance Matrix: (Units=1/GPa)
#
#
# Indices 1 2 3 4 5 6 
#
# 1 0.013965 -0.002859 -0.000884 0.013787 -0.016772 -0.004665
# 2 -0.002859 0.007155 -0.001625 -0.000844 0.001258 0.001441
# 3 -0.000884 -0.001625 0.007388 0.004074 -0.006144 -0.000108
# 4 0.013787 -0.000844 0.004074 0.065591 -0.059715 -0.003710
# 5 -0.016772 0.001258 -0.006144 -0.059715 0.124606 -0.004124
# 6 -0.004665 0.001441 -0.000108 -0.003710 -0.004124 0.027062
#
#
# Mechanical properties :
#
#
# Convention : Reuss Voigt Hill
#
# Bulk Modulus (GPa) = 56.26848 82.56204 69.41526
# Shear Modulus (GPa) = 19.05301 38.14218 28.59759
#
# Velocity S-wave (km/s) = 2.84759 4.02901 3.48867
# Velocity P-wave (km/s) = 5.89568 7.53535 6.76537
#
# Compressibility (1/GPa) = 0.01777194
#
# Stress axis : x y z
#
# Youngs Moduli (GPa) = 71.60969 139.76946 135.35685
#
# Poissons Ratio (x) = 0.39955 0.11967
# Poissons Ratio (y) = 0.20471 0.21994
# Poissons Ratio (z) = 0.06331 0.22711
#
# Static dielectric constant tensor:
#      x y z
#    x 1.847750 0.055150 0.106490 
#    y 0.055150 2.016110 0.109230 
#    z 0.106490 0.109230 2.131400 
# 
# From -- ./inp_files/173647.got.cif
#   From: 2010.05.17/outbox.cif.g08.bks.cpg/sg2_87_cif.got.tgz:173647.got - 2010.06.03 11:33:40.
