data_PCOD9051367
_publ_section_title
;
Structure prediction by ZEFSAII (Michael W. Deem and Ramdas Pophale) SiO2 
 PCOD9051367
Probable space group: P -1
;
_chemical_formula_sum "Si O2"
_cell_formula_units_Z 14
_cell_length_a 23.205594
_cell_length_b 10.532816
_cell_length_c 7.411567
_cell_angle_alpha 120.210749
_cell_angle_beta 111.419854
_cell_angle_gamma 25.677767
_cell_volume 659.218081
_symmetry_space_group_name_H-M "P -1"
_symmetry_group_IT_number 2
_symmetry_cell_setting 'triclinic'
loop_
_space_group_symop_operation_xyz
x,y,z
-x,-y,-z
loop_
_atom_site_type_symbol
_atom_site_label
_atom_site_fract_x
_atom_site_fract_y
_atom_site_fract_z
Si Si1 0.349599 0.771239 0.447415
Si Si2 0.272186 0.708087 0.609697
Si Si3 0.097240 0.669141 0.461921
Si Si4 0.621014 0.812301 0.624619
Si Si5 0.928153 0.494179 0.371715
Si Si6 0.549185 0.558050 0.040978
Si Si7 0.010621 0.649273 0.074737
O O1 0.500000 0.500000 0.500000
O O2 0.277659 0.823598 0.552495
O O3 0.236989 0.135167 0.542395
O O4 0.370165 0.637713 0.191581
O O5 0.325119 0.445304 0.393070
O O6 0.364817 0.566086 0.780193
O O7 0.126953 0.995498 0.742443
O O8 0.245406 0.421661 0.502621
O O9 0.124715 0.489209 0.208564
O O10 0.035209 0.709213 0.587143
O O11 0.000000 0.000000 0.500000
O O12 0.500000 0.000000 0.500000
O O13 0.563995 0.074934 0.849991
O O14 0.000000 0.500000 0.500000
O O15 0.970677 0.364899 0.124718
O O16 0.500000 0.500000 0.000000
O O17 0.000000 0.500000 0.000000
#
# Coordination Sequence:
#
# PCOD9051367 Si02
#       7
#     2   2   2   2   2   2   2
#     4  12  25  40  70 108 136 180 245 294 348 424
#     4  11  23  46  66 101 144 180 234 300 348 422
#     4  12  26  48  73 104 146 187 240 302 356 421
#     4  10  25  46  68  99 147 187 228 294 359 418
#     4  12  26  45  74 107 144 188 239 297 357 424
#     4  11  23  41  69  95 136 185 237 286 354 413
#     4  12  24  44  75 104 140 188 239 292 360 425
#
# _framework density 21.237279999999998
#
# number of rings (size 3 to 8) (size 9 to 14) (size 15 to 20)
#    0.000    0.571    5.714    1.714    6.000    1.143 
#    0.000    1.429    0.000    0.000    0.000    0.000 
#    0.000    0.000    0.000    0.000    0.000    0.000 
#
# Total GULP energy -78140.664690 kJ/mol
# GULP energy per Si atom -5581.476049 kJ/mol
# Density = 2.118894 g / cm^3
# Si number density = 21.237280 Si / 1000 Ang^3
#
#
#
# Elastic Constant Matrix: (Units=GPa)
#
#
# Indices 1 2 3 4 5 6 
#
# 1 119.9027 49.1075 53.9058 -7.2004 -0.0145 10.0793
# 2 49.1075 90.5264 29.8772 10.2697 3.7721 -4.1258
# 3 53.9058 29.8772 123.9016 4.5727 -12.6885 14.6983
# 4 -7.2004 10.2697 4.5727 36.2484 6.0076 5.1350
# 5 -0.0145 3.7721 -12.6885 6.0076 46.9978 -3.8887
# 6 10.0793 -4.1258 14.6983 5.1350 -3.8887 44.4132
#
#
#
# Elastic Compliance Matrix: (Units=1/GPa)
#
#
# Indices 1 2 3 4 5 6 
#
# 1 0.013654 -0.006716 -0.004336 0.005874 -0.001636 -0.003110
# 2 -0.006716 0.016013 -0.001247 -0.006213 -0.000491 0.004100
# 3 -0.004336 -0.001247 0.010920 -0.002088 0.003129 -0.002230
# 4 0.005874 -0.006213 -0.002088 0.032305 -0.004636 -0.005360
# 5 -0.001636 -0.000491 0.003129 -0.004636 0.022906 0.001832
# 6 -0.003110 0.004100 -0.002230 -0.005360 0.001832 0.025121
#
#
# Mechanical properties :
#
#
# Convention : Reuss Voigt Hill
#
# Bulk Modulus (GPa) = 62.54020 66.67908 64.60964
# Shear Modulus (GPa) = 33.14620 38.96123 36.05371
#
# Velocity S-wave (km/s) = 3.95493 4.28783 4.12474
# Velocity P-wave (km/s) = 7.09701 7.48194 7.29201
#
# Compressibility (1/GPa) = 0.01598972
#
# Stress axis : x y z
#
# Youngs Moduli (GPa) = 73.23839 62.44888 91.57191
#
# Poissons Ratio (x) = 0.41938 0.39710
# Poissons Ratio (y) = 0.49184 0.11418
# Poissons Ratio (z) = 0.31760 0.07787
#
# Static dielectric constant tensor:
#      x y z
#    x 1.731600 0.032180 0.011720 
#    y 0.032180 1.886620 0.031700 
#    z 0.011720 0.031700 1.733840 
# 
# From -- ./inp_files/358829.got.cif
#   From: 2010.05.17/outbox.cif.g08.bks.cpg/sg2_180_cif.got.tgz:358829.got - 2010.06.03 11:33:40.
