data_PCOD9051698
_publ_section_title
;
Structure prediction by ZEFSAII (Michael W. Deem and Ramdas Pophale) SiO2 
 PCOD9051698
Probable space group: P -1
;
_chemical_formula_sum "Si O2"
_cell_formula_units_Z 16
_cell_length_a 5.032996
_cell_length_b 8.764194
_cell_length_c 15.973287
_cell_angle_alpha 83.498667
_cell_angle_beta 111.568426
_cell_angle_gamma 75.662428
_cell_volume 618.311653
_symmetry_space_group_name_H-M "P -1"
_symmetry_group_IT_number 2
_symmetry_cell_setting 'triclinic'
loop_
_space_group_symop_operation_xyz
x,y,z
-x,-y,-z
loop_
_atom_site_type_symbol
_atom_site_label
_atom_site_fract_x
_atom_site_fract_y
_atom_site_fract_z
Si Si1 0.742741 0.151166 0.422687
Si Si2 0.885246 0.460921 0.724814
Si Si3 0.378651 0.949087 0.345485
Si Si4 0.769074 0.678073 0.953577
Si Si5 0.334968 0.652439 0.757758
Si Si6 0.917724 0.969744 0.872778
Si Si7 0.653331 0.829300 0.108896
Si Si8 0.059687 0.723589 0.414969
O O1 0.759386 0.194999 0.324998
O O2 0.781969 0.295960 0.474748
O O3 0.450273 0.091829 0.397282
O O4 0.000000 0.000000 0.500000
O O5 0.057493 0.591150 0.751137
O O6 0.104101 0.291999 0.795254
O O7 0.861349 0.432408 0.625056
O O8 0.579858 0.516438 0.739058
O O9 0.703189 0.813868 0.374478
O O10 0.194158 0.849966 0.376469
O O11 0.216721 0.020661 0.236363
O O12 0.503595 0.680809 0.858219
O O13 0.930318 0.801444 0.926599
O O14 0.658697 0.733500 0.030404
O O15 0.000000 0.500000 0.000000
O O16 0.215702 0.022428 0.901419
O O17 0.332853 0.894683 0.111723
#
# Coordination Sequence:
#
# PCOD9051698 Si02
#       8
#     2   2   2   2   2   2   2   2
#     4  10  25  47  72 107 139 187 241 299 361 435
#     4  12  25  45  73 106 145 192 238 298 369 436
#     4  11  20  41  71 102 135 181 229 292 352 420
#     4  12  28  50  74 111 151 200 243 308 372 436
#     4  12  28  47  72 104 148 189 242 298 366 439
#     4  12  24  48  75 109 145 194 250 304 362 434
#     4  12  26  48  77 109 147 192 252 303 361 444
#     4  11  23  41  72 101 139 179 230 290 356 421
#
# _framework density 25.876916999999999
#
# number of rings (size 3 to 8) (size 9 to 14) (size 15 to 20)
#    0.000    0.500    5.000    2.625    0.000    7.500 
#    0.000    0.000    0.000    0.000    0.000    0.000 
#    0.000    0.000    0.000    0.000    0.000    0.000 
#
# Total GULP energy -89840.799389 kJ/mol
# GULP energy per Si atom -5615.049962 kJ/mol
# Density = 2.581802 g / cm^3
# Si number density = 25.876917 Si / 1000 Ang^3
#
#
#
# Elastic Constant Matrix: (Units=GPa)
#
#
# Indices 1 2 3 4 5 6 
#
# 1 97.1572 11.7961 14.1141 -2.2409 1.5946 -7.8113
# 2 11.7961 76.2584 35.7362 2.9157 10.8490 -10.2850
# 3 14.1141 35.7362 167.7848 29.6849 -5.4221 -13.2151
# 4 -2.2409 2.9157 29.6849 68.9169 -5.8794 -4.1281
# 5 1.5946 10.8490 -5.4221 -5.8794 33.4828 -2.6640
# 6 -7.8113 -10.2850 -13.2151 -4.1281 -2.6640 39.5262
#
#
#
# Elastic Compliance Matrix: (Units=1/GPa)
#
#
# Indices 1 2 3 4 5 6 
#
# 1 0.010680 -0.001151 -0.000659 0.000782 0.000028 0.001674
# 2 -0.001151 0.015947 -0.003353 0.000421 -0.005384 0.002482
# 3 -0.000659 -0.003353 0.007394 -0.002822 0.001923 0.001304
# 4 0.000782 0.000421 -0.002822 0.015996 0.002269 0.001144
# 5 0.000028 -0.005384 0.001923 0.002269 0.032452 0.001672
# 6 0.001674 0.002482 0.001304 0.001144 0.001672 0.026945
#
#
# Mechanical properties :
#
#
# Convention : Reuss Voigt Hill
#
# Bulk Modulus (GPa) = 42.20279 51.61035 46.90657
# Shear Modulus (GPa) = 39.17332 47.02212 43.09772
#
# Velocity S-wave (km/s) = 3.89502 4.26742 4.08547
# Velocity P-wave (km/s) = 6.04754 6.65350 6.35774
#
# Compressibility (1/GPa) = 0.02369512
#
# Stress axis : x y z
#
# Youngs Moduli (GPa) = 93.63027 62.70706 135.25023
#
# Poissons Ratio (x) = 0.07221 0.08911
# Poissons Ratio (y) = 0.10781 0.45346
# Poissons Ratio (z) = 0.06169 0.21024
#
# Static dielectric constant tensor:
#      x y z
#    x 1.994480 -0.068730 -0.013980 
#    y -0.068730 2.076070 0.032180 
#    z -0.013980 0.032180 2.022570 
# 
# From -- ./inp_files/288909.got.cif
#   From: 2010.05.17/outbox.cif.g08.bks.cpg/sg2_145_cif.got.tgz:288909.got - 2010.06.03 11:33:40.
