data_PCOD9051534
_publ_section_title
;
Structure prediction by ZEFSAII (Michael W. Deem and Ramdas Pophale) SiO2 
 PCOD9051534
Probable space group: P -1
;
_chemical_formula_sum "Si O2"
_cell_formula_units_Z 16
_cell_length_a 11.728729
_cell_length_b 28.647336
_cell_length_c 9.466658
_cell_angle_alpha 25.420709
_cell_angle_beta 37.546658
_cell_angle_gamma 29.496171
_cell_volume 671.924591
_symmetry_space_group_name_H-M "P -1"
_symmetry_group_IT_number 2
_symmetry_cell_setting 'triclinic'
loop_
_space_group_symop_operation_xyz
x,y,z
-x,-y,-z
loop_
_atom_site_type_symbol
_atom_site_label
_atom_site_fract_x
_atom_site_fract_y
_atom_site_fract_z
Si Si1 0.436476 0.807528 0.188575
Si Si2 0.221794 0.048342 0.259697
Si Si3 0.827862 0.499534 0.279261
Si Si4 0.113243 0.020734 0.138180
Si Si5 0.724864 0.375469 0.195128
Si Si6 0.890879 0.679694 0.245386
Si Si7 0.869015 0.313225 0.528173
Si Si8 0.396253 0.211534 0.232585
O O1 0.288769 0.750082 0.463774
O O2 0.660234 0.701890 0.353227
O O3 0.281610 0.946821 0.043693
O O4 0.527011 0.823471 0.909022
O O5 0.430159 0.916143 0.493578
O O6 0.989591 0.061036 0.495017
O O7 0.240869 0.026988 0.131534
O O8 0.190372 0.182107 0.974546
O O9 0.782083 0.401027 0.516023
O O10 0.957538 0.437979 0.468536
O O11 0.618892 0.654634 0.081576
O O12 0.000000 0.500000 0.000000
O O13 0.901520 0.173349 0.894775
O O14 0.730465 0.397472 0.295935
O O15 0.500000 0.500000 0.000000
O O16 0.947785 0.344741 0.978647
O O17 0.135749 0.258070 0.385784
#
# Coordination Sequence:
#
# PCOD9051534 Si02
#       8
#     2   2   2   2   2   2   2   2
#     4  12  27  44  76 107 147 194 232 309 364 427
#     4  11  25  46  70 111 144 191 249 300 359 432
#     4  10  25  46  74 104 144 196 238 299 360 436
#     4  11  25  44  73 106 149 189 244 305 363 428
#     4  12  28  46  72 110 147 192 243 297 364 434
#     4  12  25  49  76 106 148 187 250 295 362 438
#     4  11  24  47  71 106 146 193 243 299 362 432
#     4  11  25  44  71 109 146 193 242 297 365 434
#
# _framework density 23.812196
#
# number of rings (size 3 to 8) (size 9 to 14) (size 15 to 20)
#    0.000    0.750    3.750    2.250    8.750    4.000 
#    0.000    1.875    0.000    0.000    0.000    0.000 
#    0.000    0.000    0.000    0.000    0.000    0.000 
#
# Total GULP energy -89705.805373 kJ/mol
# GULP energy per Si atom -5606.612836 kJ/mol
# Density = 2.375800 g / cm^3
# Si number density = 23.812196 Si / 1000 Ang^3
#
#
#
# Elastic Constant Matrix: (Units=GPa)
#
#
# Indices 1 2 3 4 5 6 
#
# 1 93.7033 23.3285 10.6691 -2.7331 32.0278 6.3660
# 2 23.3285 105.0128 13.0359 -7.6094 6.5975 15.9458
# 3 10.6691 13.0359 70.9538 -2.9782 15.8990 2.9444
# 4 -2.7331 -7.6094 -2.9782 41.1232 -8.2823 6.2843
# 5 32.0278 6.5975 15.8990 -8.2823 46.9283 -3.7428
# 6 6.3660 15.9458 2.9444 6.2843 -3.7428 37.7381
#
#
#
# Elastic Compliance Matrix: (Units=1/GPa)
#
#
# Indices 1 2 3 4 5 6 
#
# 1 0.014904 -0.002455 0.000595 -0.001158 -0.010421 -0.002364
# 2 -0.002455 0.011087 -0.001536 0.002616 0.000739 -0.004513
# 3 0.000595 -0.001536 0.015584 -0.000054 -0.005576 -0.001211
# 4 -0.001158 0.002616 -0.000054 0.026409 0.004716 -0.004836
# 5 -0.010421 0.000739 -0.005576 0.004716 0.031374 0.004207
# 6 -0.002364 -0.004513 -0.001211 -0.004836 0.004207 0.030121
#
#
# Mechanical properties :
#
#
# Convention : Reuss Voigt Hill
#
# Bulk Modulus (GPa) = 28.75082 40.41521 34.58301
# Shear Modulus (GPa) = 33.81409 40.00036 36.90722
#
# Velocity S-wave (km/s) = 3.77242 4.10301 3.94119
# Velocity P-wave (km/s) = 5.57450 6.28137 5.93846
#
# Compressibility (1/GPa) = 0.03478162
#
# Stress axis : x y z
#
# Youngs Moduli (GPa) = 67.09487 90.19462 64.16882
#
# Poissons Ratio (x) = 0.22143 -0.03815
# Poissons Ratio (y) = 0.16472 0.09859
# Poissons Ratio (z) = -0.03989 0.13857
#
# Static dielectric constant tensor:
#      x y z
#    x 1.912900 -0.015030 -0.071660 
#    y -0.015030 1.870310 0.003170 
#    z -0.071660 0.003170 1.920510 
# 
# From -- ./inp_files/285756.got.cif
#   From: 2010.05.17/outbox.cif.g08.bks.cpg/sg2_143_cif.got.tgz:285756.got - 2010.06.03 11:33:40.
