data_PCOD9051731
_publ_section_title
;
Structure prediction by ZEFSAII (Michael W. Deem and Ramdas Pophale) SiO2 
 PCOD9051731
Probable space group: P -1
;
_chemical_formula_sum "Si O2"
_cell_formula_units_Z 14
_cell_length_a 10.344229
_cell_length_b 11.571105
_cell_length_c 5.870554
_cell_angle_alpha 106.751827
_cell_angle_beta 80.152338
_cell_angle_gamma 61.013485
_cell_volume 546.575210
_symmetry_space_group_name_H-M "P -1"
_symmetry_group_IT_number 2
_symmetry_cell_setting 'triclinic'
loop_
_space_group_symop_operation_xyz
x,y,z
-x,-y,-z
loop_
_atom_site_type_symbol
_atom_site_label
_atom_site_fract_x
_atom_site_fract_y
_atom_site_fract_z
Si Si1 0.674026 0.907971 0.515012
Si Si2 0.290677 0.911431 0.021403
Si Si3 0.091465 0.192833 0.998258
Si Si4 0.780895 0.404191 0.493551
Si Si5 0.913452 0.543519 0.799769
Si Si6 0.606557 0.329121 0.812161
Si Si7 0.423442 0.290935 0.508750
O O1 0.831072 0.868326 0.306985
O O2 0.699026 0.754867 0.481516
O O3 0.500000 0.000000 0.500000
O O4 0.659440 0.005033 0.782851
O O5 0.290431 0.786624 0.088331
O O6 0.424427 0.830265 0.745115
O O7 0.134140 0.048884 0.037103
O O8 0.176213 0.279832 0.075937
O O9 0.915456 0.315525 0.210495
O O10 0.829316 0.458221 0.734613
O O11 0.715602 0.313642 0.560189
O O12 0.646861 0.554228 0.499013
O O13 0.000000 0.500000 0.500000
O O14 0.000000 0.500000 0.000000
O O15 0.481933 0.294274 0.743234
O O16 0.500000 0.500000 0.000000
#
# Coordination Sequence:
#
# PCOD9051731 Si02
#       7
#     2   2   2   2   2   2   2
#     4  12  25  43  78 107 147 194 247 323 386 460
#     4  12  25  49  72 111 149 195 266 310 397 463
#     4  11  27  45  72 113 148 192 253 326 398 449
#     4  11  27  48  75 112 154 200 257 326 387 468
#     4  10  25  47  73 113 157 200 253 325 407 469
#     4  12  27  47  78 109 149 211 263 308 385 479
#     4  12  26  49  76 113 150 200 262 319 388 471
#
# _framework density 25.614042999999999
#
# number of rings (size 3 to 8) (size 9 to 14) (size 15 to 20)
#    0.000    0.571    4.286    1.714   12.000    0.571 
#    0.000    2.857    0.000    0.000    0.000    0.000 
#    0.000    0.000    0.000    0.000    0.000    0.000 
#
# Total GULP energy -78228.015309 kJ/mol
# GULP energy per Si atom -5587.715379 kJ/mol
# Density = 2.555574 g / cm^3
# Si number density = 25.614043 Si / 1000 Ang^3
#
#
#
# Elastic Constant Matrix: (Units=GPa)
#
#
# Indices 1 2 3 4 5 6 
#
# 1 57.2535 7.7691 28.2645 0.9758 7.3005 14.1611
# 2 7.7691 154.5975 23.0518 4.7851 -0.0676 19.8201
# 3 28.2645 23.0518 132.4695 24.6004 0.3241 -3.6606
# 4 0.9758 4.7851 24.6004 43.4202 -1.4938 -7.8120
# 5 7.3005 -0.0676 0.3241 -1.4938 34.2256 -3.8859
# 6 14.1611 19.8201 -3.6606 -7.8120 -3.8859 36.7419
#
#
#
# Elastic Compliance Matrix: (Units=1/GPa)
#
#
# Indices 1 2 3 4 5 6 
#
# 1 0.023494 0.001006 -0.005535 0.000356 -0.006159 -0.010725
# 2 0.001006 0.007265 -0.001444 -0.000880 -0.000761 -0.004718
# 3 -0.005535 -0.001444 0.009947 -0.004767 0.001218 0.003019
# 4 0.000356 -0.000880 -0.004767 0.026922 0.001799 0.005777
# 5 -0.006159 -0.000761 0.001218 0.001799 0.031347 0.006603
# 6 -0.010725 -0.004718 0.003019 0.005777 0.006603 0.036123
#
#
# Mechanical properties :
#
#
# Convention : Reuss Voigt Hill
#
# Bulk Modulus (GPa) = 34.77072 51.38791 43.07932
# Shear Modulus (GPa) = 31.92204 41.89320 36.90762
#
# Velocity S-wave (km/s) = 3.53409 4.04859 3.80005
# Velocity P-wave (km/s) = 5.50067 6.47771 6.00908
#
# Compressibility (1/GPa) = 0.02875983
#
# Stress axis : x y z
#
# Youngs Moduli (GPa) = 42.56325 137.64684 100.53346
#
# Poissons Ratio (x) = -0.13847 0.55649
# Poissons Ratio (y) = -0.04282 0.14516
# Poissons Ratio (z) = 0.23560 0.19875
#
# Static dielectric constant tensor:
#      x y z
#    x 2.221610 -0.000260 0.030530 
#    y -0.000260 2.070660 -0.045680 
#    z 0.030530 -0.045680 1.995860 
# 
# From -- ./inp_files/68698.got.cif
#   From: 2010.05.17/outbox.cif.g08.bks.cpg/sg2_35_cif.got.tgz:68698.got - 2010.06.03 11:33:40.
