data_PCOD9051770
_publ_section_title
;
Structure prediction by ZEFSAII (Michael W. Deem and Ramdas Pophale) SiO2 
 PCOD9051770
Probable space group: P -1
;
_chemical_formula_sum "Si O2"
_cell_formula_units_Z 16
_cell_length_a 8.692884
_cell_length_b 17.561141
_cell_length_c 11.060712
_cell_angle_alpha 40.099226
_cell_angle_beta 43.860693
_cell_angle_gamma 39.697080
_cell_volume 657.677244
_symmetry_space_group_name_H-M "P -1"
_symmetry_group_IT_number 2
_symmetry_cell_setting 'triclinic'
loop_
_space_group_symop_operation_xyz
x,y,z
-x,-y,-z
loop_
_atom_site_type_symbol
_atom_site_label
_atom_site_fract_x
_atom_site_fract_y
_atom_site_fract_z
Si Si1 0.385928 0.196424 0.137396
Si Si2 0.049868 0.599505 0.712734
Si Si3 0.248794 0.001711 0.401995
Si Si4 0.274531 0.538251 0.929276
Si Si5 0.818482 0.298601 0.988985
Si Si6 0.408750 0.153980 0.806720
Si Si7 0.325486 0.744278 0.282574
Si Si8 0.168828 0.977777 0.753259
O O1 0.218876 0.270314 0.257647
O O2 0.629133 0.061982 0.207660
O O3 0.239473 0.142689 0.201037
O O4 0.477456 0.284214 0.902384
O O5 0.190934 0.568151 0.801102
O O6 0.219864 0.639324 0.484097
O O7 0.938981 0.501923 0.852430
O O8 0.484649 0.882226 0.345645
O O9 0.243375 0.003881 0.546873
O O10 0.000000 0.000000 0.500000
O O11 0.246844 0.658936 0.884877
O O12 0.569047 0.420417 0.918087
O O13 0.839122 0.159248 0.101453
O O14 0.110142 0.260281 0.848167
O O15 0.548864 0.225827 0.708191
O O16 0.500000 0.000000 0.000000
O O17 0.083214 0.891404 0.221524
#
# Coordination Sequence:
#
# PCOD9051770 Si02
#       8
#     2   2   2   2   2   2   2   2
#     4  12  24  43  68 107 150 181 229 302 358 434
#     4  11  24  48  73 102 136 192 251 289 360 423
#     4  12  23  40  71 107 151 189 225 285 376 440
#     4  10  25  47  75  95 140 204 239 297 345 419
#     4  11  23  46  73 100 143 187 242 292 356 427
#     4  12  22  41  69 115 142 180 232 299 367 432
#     4  12  25  41  75 109 145 182 232 300 376 429
#     4  12  24  41  70 110 141 183 230 291 372 427
#
# _framework density 24.328043999999998
#
# number of rings (size 3 to 8) (size 9 to 14) (size 15 to 20)
#    0.000    0.500    6.250    1.500    3.500    0.000 
#    0.000    6.250    2.750    0.000    0.000    0.000 
#    0.000    0.000    0.000    0.000    0.000    0.000 
#
# Total GULP energy -89393.284263 kJ/mol
# GULP energy per Si atom -5587.080266 kJ/mol
# Density = 2.427267 g / cm^3
# Si number density = 24.328044 Si / 1000 Ang^3
#
#
#
# Elastic Constant Matrix: (Units=GPa)
#
#
# Indices 1 2 3 4 5 6 
#
# 1 81.6609 16.9306 10.8003 -1.0760 -9.6199 -21.4663
# 2 16.9306 96.8348 -8.7756 17.0617 -3.6474 -24.4681
# 3 10.8003 -8.7756 94.5201 20.7322 -20.6534 -11.5700
# 4 -1.0760 17.0617 20.7322 27.6053 4.4444 -3.2564
# 5 -9.6199 -3.6474 -20.6534 4.4444 35.1110 0.2895
# 6 -21.4663 -24.4681 -11.5700 -3.2564 0.2895 51.1932
#
#
#
# Elastic Compliance Matrix: (Units=1/GPa)
#
#
# Indices 1 2 3 4 5 6 
#
# 1 0.014460 -0.001704 -0.001173 0.002667 0.002715 0.005138
# 2 -0.001704 0.016679 0.008220 -0.016922 0.008177 0.007992
# 3 -0.001173 0.008220 0.020513 -0.022230 0.015359 0.006572
# 4 0.002667 -0.016922 -0.022230 0.066189 -0.022419 -0.007657
# 5 0.002715 0.008177 0.015359 -0.022419 0.041890 0.006855
# 6 0.005138 0.007992 0.006572 -0.007657 0.006855 0.026468
#
#
# Mechanical properties :
#
#
# Convention : Reuss Voigt Hill
#
# Bulk Modulus (GPa) = 16.04165 34.54740 25.29452
# Shear Modulus (GPa) = 25.47218 39.71927 32.59573
#
# Velocity S-wave (km/s) = 3.23929 4.04499 3.66436
# Velocity P-wave (km/s) = 4.53860 6.00395 5.32195
#
# Compressibility (1/GPa) = 0.06233774
#
# Stress axis : x y z
#
# Youngs Moduli (GPa) = 69.15739 59.95640 48.74857
#
# Poissons Ratio (x) = 0.10216 0.05720
# Poissons Ratio (y) = 0.11783 -0.40072
# Poissons Ratio (z) = 0.08114 -0.49284
#
# Static dielectric constant tensor:
#      x y z
#    x 1.984480 0.004950 -0.055620 
#    y 0.004950 1.995030 -0.065980 
#    z -0.055620 -0.065980 2.078150 
# 
# From -- ./inp_files/402796.got.cif
#   From: 2010.05.17/outbox.cif.g08.bks.cpg/sg2_202_cif.got.tgz:402796.got - 2010.06.03 11:33:40.
