data_PCOD9051957
_publ_section_title
;
Structure prediction by ZEFSAII (Michael W. Deem and Ramdas Pophale) SiO2 
 PCOD9051957
Probable space group: P -1
;
_chemical_formula_sum "Si O2"
_cell_formula_units_Z 14
_cell_length_a 11.606388
_cell_length_b 7.526835
_cell_length_c 7.744936
_cell_angle_alpha 123.378001
_cell_angle_beta 77.488268
_cell_angle_gamma 114.198905
_cell_volume 515.312699
_symmetry_space_group_name_H-M "P -1"
_symmetry_group_IT_number 2
_symmetry_cell_setting 'triclinic'
loop_
_space_group_symop_operation_xyz
x,y,z
-x,-y,-z
loop_
_atom_site_type_symbol
_atom_site_label
_atom_site_fract_x
_atom_site_fract_y
_atom_site_fract_z
Si Si1 0.467513 0.391692 0.180508
Si Si2 0.198507 0.762889 0.391130
Si Si3 0.062583 0.378606 0.782472
Si Si4 0.853197 0.959348 0.184766
Si Si5 0.711294 0.597576 0.429583
Si Si6 0.134254 0.254379 0.262751
Si Si7 0.543845 0.163704 0.747022
O O1 0.612117 0.522868 0.268044
O O2 0.381977 0.383097 0.374152
O O3 0.436574 0.581342 0.182530
O O4 0.467332 0.168998 0.952029
O O5 0.183713 0.522562 0.354182
O O6 0.315143 0.834777 0.260047
O O7 0.059006 0.735917 0.360058
O O8 0.237026 0.953613 0.628406
O O9 0.112315 0.219996 0.803277
O O10 0.191531 0.534444 0.727229
O O11 0.000000 0.500000 0.000000
O O12 0.805755 0.855767 0.960643
O O13 0.986315 0.162348 0.221387
O O14 0.832375 0.800917 0.585011
O O15 0.500000 0.000000 0.500000
#
# Coordination Sequence:
#
# PCOD9051957 Si02
#       7
#     2   2   2   2   2   2   2
#     4  10  25  49  69 101 144 190 242 292 364 416
#     4  12  24  43  71 105 143 186 237 294 364 424
#     4  12  25  44  73 106 147 184 239 298 367 427
#     4  11  26  42  70 108 143 192 231 296 361 442
#     4  11  24  44  74  99 146 192 231 300 362 424
#     4  11  24  44  68 104 145 188 233 292 362 423
#     4  11  26  45  76 103 139 190 243 303 348 435
#
# _framework density 27.167973
#
# number of rings (size 3 to 8) (size 9 to 14) (size 15 to 20)
#    0.000    0.857    4.286    1.714    4.000    0.000 
#    0.000    4.286    0.000    0.000    0.000    0.000 
#    0.000    0.000    0.000    0.000    0.000    0.000 
#
# Total GULP energy -77946.467467 kJ/mol
# GULP energy per Si atom -5567.604819 kJ/mol
# Density = 2.710614 g / cm^3
# Si number density = 27.167973 Si / 1000 Ang^3
#
#
#
# Elastic Constant Matrix: (Units=GPa)
#
#
# Indices 1 2 3 4 5 6 
#
# 1 169.6295 18.8047 42.1106 -14.1325 -22.4688 36.6736
# 2 18.8047 49.3489 20.4400 2.9819 -19.8007 7.3430
# 3 42.1106 20.4400 208.3450 -9.0611 -23.9481 4.0549
# 4 -14.1325 2.9819 -9.0611 32.7875 4.0089 -7.6027
# 5 -22.4688 -19.8007 -23.9481 4.0089 66.2908 -15.6964
# 6 36.6736 7.3430 4.0549 -7.6027 -15.6964 24.2876
#
#
#
# Elastic Compliance Matrix: (Units=1/GPa)
#
#
# Indices 1 2 3 4 5 6 
#
# 1 0.009371 -0.001320 -0.001598 0.000603 -0.001157 -0.014044
# 2 -0.001320 0.024493 -0.001603 -0.004603 0.005913 -0.002763
# 3 -0.001598 -0.001603 0.005476 0.001593 0.001711 0.003588
# 4 0.000603 -0.004603 0.001593 0.034144 -0.000092 0.010844
# 5 -0.001157 0.005913 0.001711 -0.000092 0.020070 0.012615
# 6 -0.014044 -0.002763 0.003588 0.010844 0.012615 0.074163
#
#
# Mechanical properties :
#
#
# Convention : Reuss Voigt Hill
#
# Bulk Modulus (GPa) = 33.00502 65.55934 49.28218
# Shear Modulus (GPa) = 26.75822 47.73772 37.24797
#
# Velocity S-wave (km/s) = 3.14174 4.19636 3.70675
# Velocity P-wave (km/s) = 5.03345 6.90382 6.04146
#
# Compressibility (1/GPa) = 0.03029842
#
# Stress axis : x y z
#
# Youngs Moduli (GPa) = 106.70654 40.82825 182.61118
#
# Poissons Ratio (x) = 0.05390 0.29183
# Poissons Ratio (y) = 0.14087 0.29269
# Poissons Ratio (z) = 0.17053 0.06544
#
# Static dielectric constant tensor:
#      x y z
#    x 2.147330 0.030170 0.046480 
#    y 0.030170 2.268480 -0.097560 
#    z 0.046480 -0.097560 2.411960 
# 
# From -- ./inp_files/245827.got.cif
#   From: 2010.05.17/outbox.cif.g08.bks.cpg/sg2_123_cif.got.tgz:245827.got - 2010.06.03 11:33:40.
