data_PCOD9051314
_publ_section_title
;
Structure prediction by ZEFSAII (Michael W. Deem and Ramdas Pophale) SiO2 
 PCOD9051314
Probable space group: P -1
;
_chemical_formula_sum "Si O2"
_cell_formula_units_Z 12
_cell_length_a 13.520159
_cell_length_b 10.465465
_cell_length_c 8.338922
_cell_angle_alpha 123.325782
_cell_angle_beta 135.444357
_cell_angle_gamma 31.265034
_cell_volume 423.829912
_symmetry_space_group_name_H-M "P -1"
_symmetry_group_IT_number 2
_symmetry_cell_setting 'triclinic'
loop_
_space_group_symop_operation_xyz
x,y,z
-x,-y,-z
loop_
_atom_site_type_symbol
_atom_site_label
_atom_site_fract_x
_atom_site_fract_y
_atom_site_fract_z
Si Si1 0.624983 0.680983 0.685539
Si Si2 0.583387 0.745310 0.052183
Si Si3 0.800033 0.804925 0.554254
Si Si4 0.390577 0.614918 0.677541
Si Si5 0.104444 0.178805 0.984508
Si Si6 0.991678 0.089819 0.326777
O O1 0.534333 0.586477 0.487652
O O2 0.468287 0.910264 0.544273
O O3 0.583489 0.779545 0.885389
O O4 0.896437 0.422728 0.805922
O O5 0.771068 0.679179 0.323461
O O6 0.340476 0.979683 0.022587
O O7 0.594887 0.549973 0.923524
O O8 0.890959 0.725449 0.783978
O O9 0.919286 0.845656 0.629540
O O10 0.249823 0.663478 0.696081
O O11 0.192834 0.886985 0.551532
O O12 0.051345 0.047093 0.881155
#
# Coordination Sequence:
#
# PCOD9051314 Si02
#       6
#     2   2   2   2   2   2
#     4  11  24  42  72  93 126 181 215 257 328 388
#     4  11  23  44  66  97 136 167 211 276 323 375
#     4  12  24  42  69 100 129 167 222 269 316 384
#     4   9  19  40  66  95 127 173 213 261 325 382
#     4  10  25  46  64  95 137 170 212 268 323 384
#     4   9  19  39  67  93 130 168 213 270 313 378
#
# _framework density 28.313244000000001
#
# number of rings (size 3 to 8) (size 9 to 14) (size 15 to 20)
#    0.000    1.667    1.667    3.000    2.333    1.333 
#    6.000    1.667    0.000    0.000    0.000    0.000 
#    0.000    0.000    0.000    0.000    0.000    0.000 
#
# Total GULP energy -67266.399684 kJ/mol
# GULP energy per Si atom -5605.533307 kJ/mol
# Density = 2.824880 g / cm^3
# Si number density = 28.313244 Si / 1000 Ang^3
#
#
#
# Elastic Constant Matrix: (Units=GPa)
#
#
# Indices 1 2 3 4 5 6 
#
# 1 139.3883 35.8607 57.9050 4.7551 33.6888 4.8534
# 2 35.8607 87.2807 48.1865 17.7734 5.8239 -8.9266
# 3 57.9050 48.1865 226.6872 25.3862 26.9847 3.9573
# 4 4.7551 17.7734 25.3862 51.4838 6.0362 -2.8047
# 5 33.6888 5.8239 26.9847 6.0362 54.7692 -0.5273
# 6 4.8534 -8.9266 3.9573 -2.8047 -0.5273 44.5130
#
#
#
# Elastic Compliance Matrix: (Units=1/GPa)
#
#
# Indices 1 2 3 4 5 6 
#
# 1 0.009876 -0.003452 -0.001298 0.001446 -0.005243 -0.001625
# 2 -0.003452 0.015082 -0.002196 -0.003863 0.002059 0.003377
# 3 -0.001298 -0.002196 0.005607 -0.001756 -0.001546 -0.000926
# 4 0.001446 -0.003863 -0.001756 0.021756 -0.002006 0.000571
# 5 -0.005243 0.002059 -0.001546 -0.002006 0.022259 0.001259
# 6 -0.001625 0.003377 -0.000926 0.000571 0.001259 0.023453
#
#
# Mechanical properties :
#
#
# Convention : Reuss Voigt Hill
#
# Bulk Modulus (GPa) = 59.97711 81.91787 70.94749
# Shear Modulus (GPa) = 42.55964 50.91347 46.73655
#
# Velocity S-wave (km/s) = 3.88128 4.24514 4.06728
# Velocity P-wave (km/s) = 6.42769 7.28175 6.86801
#
# Compressibility (1/GPa) = 0.01667303
#
# Stress axis : x y z
#
# Youngs Moduli (GPa) = 101.25509 66.30284 178.36112
#
# Poissons Ratio (x) = 0.22885 0.23160
# Poissons Ratio (y) = 0.34949 0.39166
# Poissons Ratio (z) = 0.13148 0.14559
#
# Static dielectric constant tensor:
#      x y z
#    x 2.242480 0.006200 0.066490 
#    y 0.006200 2.232010 0.024770 
#    z 0.066490 0.024770 2.182040 
# 
# From -- ./inp_files/236924.got.cif
#   From: 2010.05.17/outbox.cif.g08.bks.cpg/sg2_119_cif.got.tgz:236924.got - 2010.06.03 11:33:40.
