data_PCOD9051947
_publ_section_title
;
Structure prediction by ZEFSAII (Michael W. Deem and Ramdas Pophale) SiO2 
 PCOD9051947
Probable space group: P -1
;
_chemical_formula_sum "Si O2"
_cell_formula_units_Z 13
_cell_length_a 10.633046
_cell_length_b 8.517603
_cell_length_c 9.090423
_cell_angle_alpha 94.421384
_cell_angle_beta 117.028669
_cell_angle_gamma 126.600504
_cell_volume 514.334175
_symmetry_space_group_name_H-M "P -1"
_symmetry_group_IT_number 2
_symmetry_cell_setting 'triclinic'
loop_
_space_group_symop_operation_xyz
x,y,z
-x,-y,-z
loop_
_atom_site_type_symbol
_atom_site_label
_atom_site_fract_x
_atom_site_fract_y
_atom_site_fract_z
Si Si1 0.190908 0.266667 0.122006
Si Si2 0.066015 0.726291 0.199535
Si Si3 0.533875 0.393252 0.131979
Si Si4 0.482393 0.047172 0.324335
Si Si5 0.998805 0.812645 0.468839
Si Si6 0.500000 0.000000 0.000000
Si Si7 0.867986 0.545913 0.643031
O O1 0.390904 0.337480 0.184849
O O2 0.198998 0.359688 0.288785
O O3 0.132880 0.356086 0.979757
O O4 0.000000 0.000000 0.000000
O O5 0.044384 0.525410 0.214771
O O6 0.116428 0.850758 0.390567
O O7 0.246236 0.902691 0.195843
O O8 0.769220 0.588371 0.299376
O O9 0.500000 0.500000 0.000000
O O10 0.479890 0.173128 0.042071
O O11 0.670525 0.315359 0.447160
O O12 0.500000 0.000000 0.500000
O O13 0.503957 0.964673 0.181213
O O14 0.034829 0.738430 0.629749
O O15 0.000000 0.000000 0.500000
#
# Coordination Sequence:
#
# PCOD9051947 Si02
#       7
#     2   2   2   2   2   1   2
#     4  12  27  49  75 116 159 206 264 334 408 490
#     4  11  25  49  74 116 158 208 270 332 414 483
#     4  12  29  50  81 117 156 217 267 335 417 486
#     4  10  25  48  83 118 153 217 275 341 407 492
#     4  12  27  49  74 115 161 210 267 340 398 491
#     4  12  26  54  84 114 168 210 274 340 426 478
#     4  11  26  49  80 112 157 213 274 336 409 488
#
# _framework density 25.275397000000002
#
# number of rings (size 3 to 8) (size 9 to 14) (size 15 to 20)
#    0.000    0.615    3.077    2.769    6.462    4.308 
#    5.538    0.000    0.000    0.000    0.000    0.000 
#    0.000    0.000    0.000    0.000    0.000    0.000 
#
# Total GULP energy -72510.288246 kJ/mol
# GULP energy per Si atom -5577.714480 kJ/mol
# Density = 2.521787 g / cm^3
# Si number density = 25.275397 Si / 1000 Ang^3
#
#
#
# Elastic Constant Matrix: (Units=GPa)
#
#
# Indices 1 2 3 4 5 6 
#
# 1 155.1102 25.4908 45.5616 15.2216 -37.2374 4.7766
# 2 25.4908 114.5526 14.8375 -10.9709 -7.7343 -9.8386
# 3 45.5616 14.8375 92.0445 2.3990 -33.6591 10.8658
# 4 15.2216 -10.9709 2.3990 39.7821 -7.4298 -4.0237
# 5 -37.2374 -7.7343 -33.6591 -7.4298 67.0073 -8.8852
# 6 4.7766 -9.8386 10.8658 -4.0237 -8.8852 48.6000
#
#
#
# Elastic Compliance Matrix: (Units=1/GPa)
#
#
# Indices 1 2 3 4 5 6 
#
# 1 0.008520 -0.001663 -0.002832 -0.003066 0.002741 -0.000293
# 2 -0.001663 0.009868 -0.001015 0.003794 0.000496 0.002793
# 3 -0.002832 -0.001015 0.014665 0.000724 0.005471 -0.002146
# 4 -0.003066 0.003794 0.000724 0.028199 0.002721 0.003739
# 5 0.002741 0.000496 0.005471 0.002721 0.019882 0.002468
# 6 -0.000293 0.002793 -0.002146 0.003739 0.002468 0.022411
#
#
# Mechanical properties :
#
#
# Convention : Reuss Voigt Hill
#
# Bulk Modulus (GPa) = 45.38605 59.27632 52.33118
# Shear Modulus (GPa) = 41.01430 49.46571 45.24001
#
# Velocity S-wave (km/s) = 4.03264 4.42868 4.23529
# Velocity P-wave (km/s) = 6.29909 7.04656 6.68328
#
# Compressibility (1/GPa) = 0.02203320
#
# Stress axis : x y z
#
# Youngs Moduli (GPa) = 117.36707 101.34003 68.18932
#
# Poissons Ratio (x) = 0.16851 0.19314
# Poissons Ratio (y) = 0.19516 0.06919
# Poissons Ratio (z) = 0.33244 0.10283
#
# Static dielectric constant tensor:
#      x y z
#    x 1.962900 -0.005480 0.048680 
#    y -0.005480 2.071680 -0.098350 
#    z 0.048680 -0.098350 2.064950 
# 
# From -- ./inp_files/152279.got.cif
#   From: 2010.05.17/outbox.cif.g08.bks.cpg/sg2_77_cif.got.tgz:152279.got - 2010.06.03 11:33:40.
