data_PCOD9051530
_publ_section_title
;
Structure prediction by ZEFSAII (Michael W. Deem and Ramdas Pophale) SiO2 
 PCOD9051530
Probable space group: P -1
;
_chemical_formula_sum "Si O2"
_cell_formula_units_Z 16
_cell_length_a 12.321146
_cell_length_b 8.493933
_cell_length_c 14.638140
_cell_angle_alpha 108.301502
_cell_angle_beta 74.546710
_cell_angle_gamma 148.659166
_cell_volume 756.502589
_symmetry_space_group_name_H-M "P -1"
_symmetry_group_IT_number 2
_symmetry_cell_setting 'triclinic'
loop_
_space_group_symop_operation_xyz
x,y,z
-x,-y,-z
loop_
_atom_site_type_symbol
_atom_site_label
_atom_site_fract_x
_atom_site_fract_y
_atom_site_fract_z
Si Si1 0.603968 0.606804 0.396074
Si Si2 0.698000 0.608816 0.723361
Si Si3 0.104797 0.818391 0.464462
Si Si4 0.295647 0.736971 0.437914
Si Si5 0.105395 0.600557 0.865814
Si Si6 0.927195 0.736169 0.314600
Si Si7 0.517568 0.346857 0.917798
Si Si8 0.734436 0.343081 0.980653
O O1 0.500000 0.500000 0.500000
O O2 0.454019 0.475996 0.325099
O O3 0.711272 0.563369 0.348115
O O4 0.794706 0.970993 0.431444
O O5 0.712318 0.441147 0.649402
O O6 0.600524 0.478984 0.821483
O O7 0.923383 0.976341 0.734739
O O8 0.251195 0.846649 0.408887
O O9 0.882154 0.481179 0.485120
O O10 0.058071 0.887577 0.406718
O O11 0.500000 0.000000 0.500000
O O12 0.109565 0.494841 0.755188
O O13 0.142694 0.516587 0.925510
O O14 0.295630 0.970160 0.895415
O O15 0.879446 0.404387 0.896463
O O16 0.500000 0.500000 0.000000
O O17 0.688035 0.451463 0.955138
O O18 0.500000 0.000000 0.000000
#
# Coordination Sequence:
#
# PCOD9051530 Si02
#       8
#     2   2   2   2   2   2   2   2
#     4  12  24  44  68  99 141 185 230 286 341 405
#     4  12  27  43  69 104 141 185 237 286 353 407
#     4  11  24  42  66  96 139 183 228 283 344 408
#     4  11  24  42  66  95 140 182 226 287 348 407
#     4  10  25  46  74 101 133 187 228 283 355 416
#     4  12  27  42  71 101 139 181 245 277 339 427
#     4  11  28  46  72 104 144 176 232 296 352 411
#     4   9  22  48  73  96 136 174 233 281 352 411
#
# _framework density 21.149961000000001
#
# number of rings (size 3 to 8) (size 9 to 14) (size 15 to 20)
#    0.000    1.000    3.750    1.125   10.500    2.500 
#    0.000    0.000    0.000    0.000    0.000    0.000 
#    0.000    0.000    0.000    0.000    0.000    0.000 
#
# Total GULP energy -89340.519123 kJ/mol
# GULP energy per Si atom -5583.782445 kJ/mol
# Density = 2.110182 g / cm^3
# Si number density = 21.149961 Si / 1000 Ang^3
#
#
#
# Elastic Constant Matrix: (Units=GPa)
#
#
# Indices 1 2 3 4 5 6 
#
# 1 159.9167 32.9783 68.6703 -13.5130 -11.5735 24.4722
# 2 32.9783 100.6873 40.9743 -8.6556 -17.3916 9.5323
# 3 68.6703 40.9743 108.5932 -10.5562 -12.5288 0.6108
# 4 -13.5130 -8.6556 -10.5562 35.4620 -12.2351 -4.3709
# 5 -11.5735 -17.3916 -12.5288 -12.2351 40.1539 -5.0325
# 6 24.4722 9.5323 0.6108 -4.3709 -5.0325 30.3823
#
#
#
# Elastic Compliance Matrix: (Units=1/GPa)
#
#
# Indices 1 2 3 4 5 6 
#
# 1 0.010310 0.000147 -0.006361 0.001236 0.000428 -0.007974
# 2 0.000147 0.012969 -0.004049 0.003433 0.005095 -0.002768
# 3 -0.006361 -0.004049 0.015367 0.003072 0.003025 0.007028
# 4 0.001236 0.003433 0.003072 0.036092 0.014483 0.005457
# 5 0.000428 0.005095 0.003025 0.014483 0.033292 0.005594
# 6 -0.007974 -0.002768 0.007028 0.005457 0.005594 0.041776
#
#
# Mechanical properties :
#
#
# Convention : Reuss Voigt Hill
#
# Bulk Modulus (GPa) = 55.18970 72.71589 63.95280
# Shear Modulus (GPa) = 28.34940 36.30459 32.32699
#
# Velocity S-wave (km/s) = 3.66512 4.14760 3.91380
# Velocity P-wave (km/s) = 6.63791 7.57579 7.12230
#
# Compressibility (1/GPa) = 0.01811932
#
# Stress axis : x y z
#
# Youngs Moduli (GPa) = 96.99299 77.10947 65.07559
#
# Poissons Ratio (x) = -0.01130 0.41393
# Poissons Ratio (y) = -0.01422 0.26349
# Poissons Ratio (z) = 0.61694 0.31221
#
# Static dielectric constant tensor:
#      x y z
#    x 1.829090 -0.036570 -0.002290 
#    y -0.036570 1.850660 -0.025190 
#    z -0.002290 -0.025190 1.743990 
# 
# From -- ./inp_files/89894.got.cif
#   From: 2010.05.17/outbox.cif.g08.bks.cpg/sg2_45_cif.got.tgz:89894.got - 2010.06.03 11:33:40.
