data_PCOD9051208
_publ_section_title
;
Structure prediction by ZEFSAII (Michael W. Deem and Ramdas Pophale) SiO2 
 PCOD9051208
Probable space group: P -1
;
_chemical_formula_sum "Si O2"
_cell_formula_units_Z 16
_cell_length_a 12.169552
_cell_length_b 26.197739
_cell_length_c 19.714684
_cell_angle_alpha 15.769405
_cell_angle_beta 147.436411
_cell_angle_gamma 155.893424
_cell_volume 660.728013
_symmetry_space_group_name_H-M "P -1"
_symmetry_group_IT_number 2
_symmetry_cell_setting 'triclinic'
loop_
_space_group_symop_operation_xyz
x,y,z
-x,-y,-z
loop_
_atom_site_type_symbol
_atom_site_label
_atom_site_fract_x
_atom_site_fract_y
_atom_site_fract_z
Si Si1 0.164367 0.348892 0.099975
Si Si2 0.271371 0.572141 0.016653
Si Si3 0.397785 0.149064 0.410156
Si Si4 0.111106 0.968138 0.259393
Si Si5 0.093562 0.773578 0.211669
Si Si6 0.902784 0.267822 0.576805
Si Si7 0.272494 0.864040 0.967031
Si Si8 0.157428 0.200928 0.525377
O O1 0.167840 0.414767 0.094195
O O2 0.295897 0.227707 0.314438
O O3 0.371584 0.609992 0.828142
O O4 0.870150 0.177008 0.127064
O O5 0.364769 0.477202 0.242411
O O6 0.555957 0.869306 0.766821
O O7 0.000000 0.500000 0.000000
O O8 0.572639 0.101024 0.600767
O O9 0.127335 0.959513 0.463121
O O10 0.003108 0.809720 0.335763
O O11 0.087041 0.178474 0.978731
O O12 0.922998 0.785637 0.458612
O O13 0.000000 0.500000 0.500000
O O14 0.078936 0.794777 0.257813
O O15 0.409775 0.993895 0.064616
O O16 0.087052 0.578504 0.269193
O O17 0.255291 0.047818 0.765280
#
# Coordination Sequence:
#
# PCOD9051208 Si02
#       8
#     2   2   2   2   2   2   2   2
#     4   9  20  39  67 104 138 179 228 286 340 415
#     4  12  27  40  70 108 148 183 230 282 354 424
#     4   9  19  39  70  98 141 176 228 283 351 402
#     4  12  28  47  68 104 150 182 232 284 353 417
#     4  12  28  48  76  99 137 187 239 294 340 415
#     4  11  26  45  73 101 140 191 226 294 348 411
#     4  10  25  45  72 105 134 182 244 283 344 415
#     4  11  24  42  71 105 141 188 224 292 344 415
#
# _framework density 24.215713000000001
#
# number of rings (size 3 to 8) (size 9 to 14) (size 15 to 20)
#    0.000    1.250    1.250    3.375   10.500    5.500 
#    0.000    0.000    0.000    0.000    0.000    0.000 
#    0.000    0.000    0.000    0.000    0.000    0.000 
#
# Total GULP energy -89568.837090 kJ/mol
# GULP energy per Si atom -5598.052318 kJ/mol
# Density = 2.416060 g / cm^3
# Si number density = 24.215713 Si / 1000 Ang^3
#
#
#
# Elastic Constant Matrix: (Units=GPa)
#
#
# Indices 1 2 3 4 5 6 
#
# 1 173.8368 43.5610 15.7041 1.5482 -6.0889 -16.9891
# 2 43.5610 44.2505 -4.1544 4.1892 -15.7947 1.5510
# 3 15.7041 -4.1544 51.0745 7.1566 2.9865 5.8375
# 4 1.5482 4.1892 7.1566 20.1735 -2.8127 -6.9492
# 5 -6.0889 -15.7947 2.9865 -2.8127 35.4068 -4.7895
# 6 -16.9891 1.5510 5.8375 -6.9492 -4.7895 50.1532
#
#
#
# Elastic Compliance Matrix: (Units=1/GPa)
#
#
# Indices 1 2 3 4 5 6 
#
# 1 0.009201 -0.010743 -0.004729 0.004474 -0.001855 0.004442
# 2 -0.010743 0.039999 0.007892 -0.010414 0.013701 -0.005929
# 3 -0.004729 0.007892 0.024202 -0.012257 -0.001183 -0.006474
# 4 0.004474 -0.010414 -0.012257 0.060358 0.003572 0.011968
# 5 -0.001855 0.013701 -0.001183 0.003572 0.034813 0.002905
# 6 0.004442 -0.005929 -0.006474 0.011968 0.002905 0.024316
#
#
# Mechanical properties :
#
#
# Convention : Reuss Voigt Hill
#
# Bulk Modulus (GPa) = 17.16946 42.15368 29.66157
# Shear Modulus (GPa) = 21.98158 35.41678 28.69918
#
# Velocity S-wave (km/s) = 3.01614 3.82848 3.44633
# Velocity P-wave (km/s) = 4.38578 6.08181 5.30205
#
# Compressibility (1/GPa) = 0.05824297
#
# Stress axis : x y z
#
# Youngs Moduli (GPa) = 108.68236 25.00038 41.31909
#
# Poissons Ratio (x) = 0.26858 0.19540
# Poissons Ratio (y) = 1.16758 -0.32611
# Poissons Ratio (z) = 0.51397 -0.19731
#
# Static dielectric constant tensor:
#      x y z
#    x 1.888610 -0.000070 0.033080 
#    y -0.000070 1.892340 -0.040610 
#    z 0.033080 -0.040610 2.044170 
# 
# From -- ./inp_files/522418.got.cif
#   From: 2010.05.17/outbox.cif.g08.bks.cpg/sg2_262_cif.got.tgz:522418.got - 2010.06.03 11:33:40.
