data_PCOD9051480
_publ_section_title
;
Structure prediction by ZEFSAII (Michael W. Deem and Ramdas Pophale) SiO2 
 PCOD9051480
Probable space group: P -1
;
_chemical_formula_sum "Si O2"
_cell_formula_units_Z 14
_cell_length_a 14.142621
_cell_length_b 9.616392
_cell_length_c 8.927735
_cell_angle_alpha 147.166414
_cell_angle_beta 93.407222
_cell_angle_gamma 102.573260
_cell_volume 571.207082
_symmetry_space_group_name_H-M "P -1"
_symmetry_group_IT_number 2
_symmetry_cell_setting 'triclinic'
loop_
_space_group_symop_operation_xyz
x,y,z
-x,-y,-z
loop_
_atom_site_type_symbol
_atom_site_label
_atom_site_fract_x
_atom_site_fract_y
_atom_site_fract_z
Si Si1 0.376551 0.126816 0.814430
Si Si2 0.293719 0.107979 0.180123
Si Si3 0.412214 0.832456 0.071246
Si Si4 0.626519 0.406936 0.598907
Si Si5 0.057432 0.814346 0.381454
Si Si6 0.057456 0.839022 0.767808
Si Si7 0.291650 0.229855 0.637683
O O1 0.494835 0.262659 0.027294
O O2 0.380127 0.170445 0.677598
O O3 0.315253 0.789089 0.555459
O O4 0.325901 0.323901 0.039966
O O5 0.367939 0.430580 0.407340
O O6 0.278538 0.139607 0.381961
O O7 0.346390 0.893605 0.991099
O O8 0.180394 0.984616 0.972764
O O9 0.504486 0.168515 0.422106
O O10 0.330070 0.579641 0.947728
O O11 0.054015 0.821658 0.569863
O O12 0.179974 0.005862 0.504828
O O13 0.000000 0.000000 0.500000
O O14 0.000000 0.500000 0.000000
O O15 0.000000 0.500000 0.500000
O O16 0.000000 0.000000 0.000000
#
# Coordination Sequence:
#
# PCOD9051480 Si02
#       7
#     2   2   2   2   2   2   2
#     4  10  25  46  72 105 153 206 261 316 377 456
#     4  12  27  45  77 114 157 205 261 322 396 464
#     4  10  26  44  78 106 164 198 272 304 398 452
#     4  10  25  46  72 105 153 206 261 316 377 456
#     4  12  29  55  83 116 154 203 262 330 395 473
#     4  12  29  55  83 116 154 203 262 330 395 473
#     4  12  27  45  77 114 157 205 261 322 396 464
#
# _framework density 24.509499999999999
#
# number of rings (size 3 to 8) (size 9 to 14) (size 15 to 20)
#    0.857    0.000    0.000    5.143   10.000    4.571 
#    0.000    1.429    0.000    0.000    0.000    0.000 
#    0.000    0.000    0.000    0.000    0.000    0.000 
#
# Total GULP energy -78052.904915 kJ/mol
# GULP energy per Si atom -5575.207494 kJ/mol
# Density = 2.445372 g / cm^3
# Si number density = 24.509500 Si / 1000 Ang^3
#
#
#
# Elastic Constant Matrix: (Units=GPa)
#
#
# Indices 1 2 3 4 5 6 
#
# 1 87.6147 61.9689 80.6114 6.0740 7.7473 -13.3343
# 2 61.9689 256.2439 107.1181 -1.2698 -5.8314 -7.7072
# 3 80.6114 107.1181 180.2552 10.3839 -10.7964 -7.8579
# 4 6.0740 -1.2698 10.3839 63.2319 -7.1326 -2.4321
# 5 7.7473 -5.8314 -10.7964 -7.1326 38.3616 2.2192
# 6 -13.3343 -7.7072 -7.8579 -2.4321 2.2192 53.5692
#
#
#
# Elastic Compliance Matrix: (Units=1/GPa)
#
#
# Indices 1 2 3 4 5 6 
#
# 1 0.022632 -0.001615 -0.009370 -0.001401 -0.007962 0.004293
# 2 -0.001615 0.005337 -0.002456 0.000732 0.000581 0.000015
# 3 -0.009370 -0.002456 0.011458 -0.000546 0.004713 -0.001225
# 4 -0.001401 0.000732 -0.000546 0.016435 0.003279 0.000287
# 5 -0.007962 0.000581 0.004713 0.003279 0.029833 -0.002294
# 6 0.004293 0.000015 -0.001225 0.000287 -0.002294 0.019666
#
#
# Mechanical properties :
#
#
# Convention : Reuss Voigt Hill
#
# Bulk Modulus (GPa) = 79.71950 113.72339 96.72145
# Shear Modulus (GPa) = 36.65005 49.32691 42.98848
#
# Velocity S-wave (km/s) = 3.87116 4.49103 4.19256
# Velocity P-wave (km/s) = 7.25105 8.56696 7.93633
#
# Compressibility (1/GPa) = 0.01254398
#
# Stress axis : x y z
#
# Youngs Moduli (GPa) = 44.18562 187.36700 87.27471
#
# Poissons Ratio (x) = 0.30261 0.81780
# Poissons Ratio (y) = 0.07136 0.21435
# Poissons Ratio (z) = 0.41404 0.46018
#
# Static dielectric constant tensor:
#      x y z
#    x 1.988140 -0.006090 -0.196420 
#    y -0.006090 2.020560 -0.111190 
#    z -0.196420 -0.111190 1.974710 
# 
# From -- ./inp_files/293664.got.cif
#   From: 2010.05.17/outbox.cif.g08.bks.cpg/sg2_147_cif.got.tgz:293664.got - 2010.06.03 11:33:40.
