data_PCOD9051645
_publ_section_title
;
Structure prediction by ZEFSAII (Michael W. Deem and Ramdas Pophale) SiO2 
 PCOD9051645
Probable space group: P -1
;
_chemical_formula_sum "Si O2"
_cell_formula_units_Z 16
_cell_length_a 14.065526
_cell_length_b 11.125790
_cell_length_c 4.869761
_cell_angle_alpha 90.942716
_cell_angle_beta 114.550329
_cell_angle_gamma 68.079052
_cell_volume 634.317533
_symmetry_space_group_name_H-M "P -1"
_symmetry_group_IT_number 2
_symmetry_cell_setting 'triclinic'
loop_
_space_group_symop_operation_xyz
x,y,z
-x,-y,-z
loop_
_atom_site_type_symbol
_atom_site_label
_atom_site_fract_x
_atom_site_fract_y
_atom_site_fract_z
Si Si1 0.059809 0.642930 0.990535
Si Si2 0.430672 0.414367 0.819842
Si Si3 0.207165 0.983630 0.683322
Si Si4 0.554680 0.277925 0.440944
Si Si5 0.382358 0.002881 0.249084
Si Si6 0.160791 0.233031 0.923800
Si Si7 0.827177 0.525894 0.383013
Si Si8 0.797146 0.184957 0.818545
O O1 0.125178 0.516261 0.257511
O O2 0.114537 0.748560 0.099427
O O3 0.933033 0.705178 0.955434
O O4 0.086996 0.588219 0.713917
O O5 0.460630 0.373059 0.539985
O O6 0.300103 0.469851 0.754156
O O7 0.500000 0.500000 0.000000
O O8 0.496512 0.285959 0.080436
O O9 0.178057 0.939009 0.358041
O O10 0.129067 0.128522 0.702956
O O11 0.202254 0.871925 0.879086
O O12 0.332156 0.990257 0.883378
O O13 0.672699 0.298783 0.588364
O O14 0.607552 0.132141 0.612768
O O15 0.500000 0.000000 0.500000
O O16 0.280787 0.141416 0.209840
O O17 0.177537 0.339449 0.749584
#
# Coordination Sequence:
#
# PCOD9051645 Si02
#       8
#     2   2   2   2   2   2   2   2
#     4  12  26  45  74 100 142 193 240 298 349 419
#     4  12  24  42  69  99 135 184 235 283 349 413
#     4   9  23  40  69 102 138 183 229 286 353 420
#     4  11  22  41  65 101 134 174 226 290 343 417
#     4   9  20  44  66 100 134 179 221 284 353 415
#     4  10  25  47  70 108 142 191 238 291 360 429
#     4  12  26  47  68 104 141 191 241 297 351 420
#     4  11  21  44  68 102 144 179 234 289 357 411
#
# _framework density 25.223959000000001
#
# number of rings (size 3 to 8) (size 9 to 14) (size 15 to 20)
#    0.750    0.500    0.000    6.375    0.000    3.000 
#    4.500    3.750    0.000    0.000    0.000    0.000 
#    0.000    0.000    0.000    0.000    0.000    0.000 
#
# Total GULP energy -89441.382223 kJ/mol
# GULP energy per Si atom -5590.086389 kJ/mol
# Density = 2.516655 g / cm^3
# Si number density = 25.223959 Si / 1000 Ang^3
#
#
#
# Elastic Constant Matrix: (Units=GPa)
#
#
# Indices 1 2 3 4 5 6 
#
# 1 136.1177 44.3306 21.3660 7.1100 15.0371 -2.6618
# 2 44.3306 95.2546 5.6324 2.7127 15.7551 -1.9566
# 3 21.3660 5.6324 66.5528 6.3518 -1.0073 3.7629
# 4 7.1100 2.7127 6.3518 40.0982 -6.5834 4.1493
# 5 15.0371 15.7551 -1.0073 -6.5834 36.8954 0.3593
# 6 -2.6618 -1.9566 3.7629 4.1493 0.3593 31.6685
#
#
#
# Elastic Compliance Matrix: (Units=1/GPa)
#
#
# Indices 1 2 3 4 5 6 
#
# 1 0.009355 -0.003703 -0.002646 -0.001528 -0.002587 0.001101
# 2 -0.003703 0.012953 0.000087 -0.000991 -0.004203 0.000656
# 3 -0.002646 0.000087 0.016157 -0.001700 0.001198 -0.001928
# 4 -0.001528 -0.000991 -0.001700 0.026873 0.005830 -0.003575
# 5 -0.002587 -0.004203 0.001198 0.005830 0.031043 -0.001735
# 6 0.001101 0.000656 -0.001928 -0.003575 -0.001735 0.032427
#
#
# Mechanical properties :
#
#
# Convention : Reuss Voigt Hill
#
# Bulk Modulus (GPa) = 38.54914 48.95368 43.75141
# Shear Modulus (GPa) = 33.33776 36.83883 35.08830
#
# Velocity S-wave (km/s) = 3.63942 3.82576 3.73375
# Velocity P-wave (km/s) = 5.74251 6.24219 5.99756
#
# Compressibility (1/GPa) = 0.02594092
#
# Stress axis : x y z
#
# Youngs Moduli (GPa) = 106.89400 77.19953 61.89262
#
# Poissons Ratio (x) = 0.28589 0.16374
# Poissons Ratio (y) = 0.39586 -0.00536
# Poissons Ratio (z) = 0.28279 -0.00668
#
# Static dielectric constant tensor:
#      x y z
#    x 2.155540 0.051600 0.067780 
#    y 0.051600 2.018870 -0.017080 
#    z 0.067780 -0.017080 2.065270 
# 
# From -- ./inp_files/95200.got.cif
#   From: 2010.05.17/outbox.cif.g08.bks.cpg/sg2_48_cif.got.tgz:95200.got - 2010.06.03 11:33:40.
