data_PCOD9051087
_publ_section_title
;
Structure prediction by ZEFSAII (Michael W. Deem and Ramdas Pophale) SiO2 
 PCOD9051087
Probable space group: P -1
;
_chemical_formula_sum "Si O2"
_cell_formula_units_Z 13
_cell_length_a 6.507305
_cell_length_b 16.418548
_cell_length_c 6.942710
_cell_angle_alpha 96.798600
_cell_angle_beta 118.205916
_cell_angle_gamma 59.982318
_cell_volume 559.187567
_symmetry_space_group_name_H-M "P -1"
_symmetry_group_IT_number 2
_symmetry_cell_setting 'triclinic'
loop_
_space_group_symop_operation_xyz
x,y,z
-x,-y,-z
loop_
_atom_site_type_symbol
_atom_site_label
_atom_site_fract_x
_atom_site_fract_y
_atom_site_fract_z
Si Si1 0.826813 0.932500 0.594406
Si Si2 0.468616 0.761383 0.471528
Si Si3 0.028224 0.592729 0.525211
Si Si4 0.052951 0.064800 0.800449
Si Si5 0.203898 0.648877 0.250309
Si Si6 0.500000 0.500000 0.000000
Si Si7 0.782554 0.824190 0.858191
O O1 0.902979 0.835572 0.712047
O O2 0.884699 0.924194 0.390887
O O3 0.500000 0.000000 0.500000
O O4 0.001998 0.977149 0.769580
O O5 0.244959 0.843904 0.262121
O O6 0.346462 0.695007 0.450495
O O7 0.527290 0.814789 0.683084
O O8 0.748125 0.689019 0.472961
O O9 0.106666 0.599319 0.344010
O O10 0.000000 0.500000 0.500000
O O11 0.242883 0.579642 0.778707
O O12 0.256784 0.082140 0.023383
O O13 0.401280 0.572591 0.162954
O O14 0.964731 0.735400 0.050197
#
# Coordination Sequence:
#
# PCOD9051087 Si02
#       7
#     2   2   2   2   2   1   2
#     4  11  23  47  72 103 146 181 239 291 342 418
#     4  11  24  46  66 105 142 181 231 294 348 413
#     4  12  27  48  72 104 143 182 238 294 353 424
#     4  10  25  45  69 104 143 186 234 292 342 420
#     4  11  27  46  69 105 143 179 242 295 347 430
#     4  12  24  46  72 102 134 188 232 290 360 412
#     4  11  24  45  69 103 138 189 228 285 360 405
#
# _framework density 23.248013
#
# number of rings (size 3 to 8) (size 9 to 14) (size 15 to 20)
#    0.000    0.923    4.615    0.923    4.308    2.462 
#    8.308    0.000    0.000    0.000    0.000    0.000 
#    0.000    0.000    0.000    0.000    0.000    0.000 
#
# Total GULP energy -72391.772288 kJ/mol
# GULP energy per Si atom -5568.597868 kJ/mol
# Density = 2.319510 g / cm^3
# Si number density = 23.248013 Si / 1000 Ang^3
#
#
#
# Elastic Constant Matrix: (Units=GPa)
#
#
# Indices 1 2 3 4 5 6 
#
# 1 67.9097 55.3623 55.8751 -8.4098 -5.4717 22.3722
# 2 55.3623 108.0939 42.0288 6.2254 -2.7542 18.8665
# 3 55.8751 42.0288 126.7821 -0.1457 7.3497 19.9771
# 4 -8.4098 6.2254 -0.1457 32.0842 10.0861 3.1467
# 5 -5.4717 -2.7542 7.3497 10.0861 23.3765 -9.5368
# 6 22.3722 18.8665 19.9771 3.1467 -9.5368 53.0472
#
#
#
# Elastic Compliance Matrix: (Units=1/GPa)
#
#
# Indices 1 2 3 4 5 6 
#
# 1 0.043057 -0.016630 -0.012328 0.014461 0.002487 -0.008012
# 2 -0.016630 0.017652 0.001173 -0.008507 0.001958 0.001151
# 3 -0.012328 0.001173 0.013602 -0.000960 -0.007258 -0.001588
# 4 0.014461 -0.008507 -0.000960 0.043692 -0.019782 -0.008860
# 5 0.002487 0.001958 -0.007258 -0.019782 0.059665 0.012888
# 6 -0.008012 0.001151 -0.001588 -0.008860 0.012888 0.025262
#
#
# Mechanical properties :
#
#
# Convention : Reuss Voigt Hill
#
# Bulk Modulus (GPa) = 53.36184 67.70201 60.53192
# Shear Modulus (GPa) = 18.88600 31.66956 25.27778
#
# Velocity S-wave (km/s) = 2.85330 3.69487 3.30101
# Velocity P-wave (km/s) = 5.81878 6.88386 6.37361
#
# Compressibility (1/GPa) = 0.01873998
#
# Stress axis : x y z
#
# Youngs Moduli (GPa) = 23.22504 56.65230 73.51994
#
# Poissons Ratio (x) = 0.94213 0.90636
# Poissons Ratio (y) = 0.38623 -0.08624
# Poissons Ratio (z) = 0.28632 -0.06645
#
# Static dielectric constant tensor:
#      x y z
#    x 1.913970 -0.014320 0.034980 
#    y -0.014320 1.893150 0.023610 
#    z 0.034980 0.023610 1.885110 
# 
# From -- ./inp_files/6747.got.cif
#   From: 2010.05.17/outbox.cif.g08.bks.cpg/sg2_4_cif.got.tgz:6747.got - 2010.06.03 11:33:40.
