data_PCOD9051380
_publ_section_title
;
Structure prediction by ZEFSAII (Michael W. Deem and Ramdas Pophale) SiO2 
 PCOD9051380
Probable space group: P -1
;
_chemical_formula_sum "Si O2"
_cell_formula_units_Z 14
_cell_length_a 23.193240
_cell_length_b 9.061691
_cell_length_c 9.455249
_cell_angle_alpha 148.977613
_cell_angle_beta 37.957631
_cell_angle_gamma 129.437508
_cell_volume 624.785004
_symmetry_space_group_name_H-M "P -1"
_symmetry_group_IT_number 2
_symmetry_cell_setting 'triclinic'
loop_
_space_group_symop_operation_xyz
x,y,z
-x,-y,-z
loop_
_atom_site_type_symbol
_atom_site_label
_atom_site_fract_x
_atom_site_fract_y
_atom_site_fract_z
Si Si1 0.261135 0.545551 0.768795
Si Si2 0.873119 0.945950 0.917256
Si Si3 0.548313 0.673323 0.163408
Si Si4 0.981848 0.444153 0.152508
Si Si5 0.096526 0.375461 0.126793
Si Si6 0.470980 0.329931 0.283355
Si Si7 0.257555 0.184285 0.200240
O O1 0.360367 0.374940 0.489669
O O2 0.228075 0.394311 0.564116
O O3 0.177058 0.551253 0.051196
O O4 0.283293 0.867878 0.959013
O O5 0.967267 0.754050 0.513490
O O6 0.852222 0.823188 0.010997
O O7 0.805717 0.891630 0.873179
O O8 0.891570 0.270830 0.177634
O O9 0.528543 0.487630 0.184620
O O10 0.500000 0.000000 0.500000
O O11 0.500000 0.500000 0.000000
O O12 0.656950 0.680522 0.925318
O O13 0.054483 0.255095 0.963283
O O14 0.000000 0.500000 0.000000
O O15 0.000000 0.500000 0.500000
O O16 0.500000 0.500000 0.500000
O O17 0.500000 0.000000 0.000000
#
# Coordination Sequence:
#
# PCOD9051380 Si02
#       7
#     2   2   2   2   2   2   2
#     4  12  26  47  71 103 144 190 238 292 355 430
#     4  11  24  40  64  98 130 173 227 285 348 408
#     4  12  23  46  73 102 145 186 238 294 357 429
#     4  11  22  42  67  93 130 176 227 282 346 412
#     4  10  25  46  69 102 143 184 234 298 356 412
#     4  12  26  46  72 109 147 185 236 297 364 427
#     4  12  24  45  70 104 138 187 242 288 350 431
#
# _framework density 22.407708
#
# number of rings (size 3 to 8) (size 9 to 14) (size 15 to 20)
#    0.000    0.571    2.857    5.143    2.000    5.714 
#    2.571    0.000    0.000    0.000    0.000    0.000 
#    0.000    0.000    0.000    0.000    0.000    0.000 
#
# Total GULP energy -78006.725866 kJ/mol
# GULP energy per Si atom -5571.908990 kJ/mol
# Density = 2.235671 g / cm^3
# Si number density = 22.407708 Si / 1000 Ang^3
#
#
#
# Elastic Constant Matrix: (Units=GPa)
#
#
# Indices 1 2 3 4 5 6 
#
# 1 134.3301 62.8276 18.2782 -8.1127 16.1052 -19.0492
# 2 62.8276 190.4181 60.5007 -15.2644 0.2941 -21.4768
# 3 18.2782 60.5007 71.4532 11.7236 10.8710 -11.8009
# 4 -8.1127 -15.2644 11.7236 51.8588 4.8069 6.4074
# 5 16.1052 0.2941 10.8710 4.8069 39.6847 -8.0157
# 6 -19.0492 -21.4768 -11.8009 6.4074 -8.0157 51.7441
#
#
#
# Elastic Compliance Matrix: (Units=1/GPa)
#
#
# Indices 1 2 3 4 5 6 
#
# 1 0.009561 -0.003279 0.001143 0.000411 -0.003861 0.001770
# 2 -0.003279 0.009223 -0.007898 0.003587 0.003166 0.000866
# 3 0.001143 -0.007898 0.022755 -0.007094 -0.005297 0.002390
# 4 0.000411 0.003587 -0.007094 0.022526 -0.001587 -0.003013
# 5 -0.003861 0.003166 -0.005297 -0.001587 0.029069 0.003384
# 6 0.001770 0.000866 0.002390 -0.003013 0.003384 0.021780
#
#
# Mechanical properties :
#
#
# Convention : Reuss Voigt Hill
#
# Bulk Modulus (GPa) = 46.57368 75.49049 61.03208
# Shear Modulus (GPa) = 35.17671 45.63051 40.40361
#
# Velocity S-wave (km/s) = 3.96643 4.51752 4.25091
# Velocity P-wave (km/s) = 6.46580 7.80854 7.16868
#
# Compressibility (1/GPa) = 0.02147136
#
# Stress axis : x y z
#
# Youngs Moduli (GPa) = 104.58665 108.42121 43.94719
#
# Poissons Ratio (x) = 0.35555 -0.05024
# Poissons Ratio (y) = 0.34298 0.34709
# Poissons Ratio (z) = -0.11957 0.85629
#
# Static dielectric constant tensor:
#      x y z
#    x 1.815900 0.026190 -0.101010 
#    y 0.026190 1.726150 -0.002140 
#    z -0.101010 -0.002140 1.898570 
# 
# From -- ./inp_files/218471.got.cif
#   From: 2010.05.17/outbox.cif.g08.bks.cpg/sg2_110_cif.got.tgz:218471.got - 2010.06.03 11:33:40.
