data_PCOD9051985
_publ_section_title
;
Structure prediction by ZEFSAII (Michael W. Deem and Ramdas Pophale) SiO2 
 PCOD9051985
Probable space group: P -1
;
_chemical_formula_sum "Si O2"
_cell_formula_units_Z 14
_cell_length_a 10.089427
_cell_length_b 8.446100
_cell_length_c 15.011318
_cell_angle_alpha 97.120351
_cell_angle_beta 33.233815
_cell_angle_gamma 75.307664
_cell_volume 524.447539
_symmetry_space_group_name_H-M "P -1"
_symmetry_group_IT_number 2
_symmetry_cell_setting 'triclinic'
loop_
_space_group_symop_operation_xyz
x,y,z
-x,-y,-z
loop_
_atom_site_type_symbol
_atom_site_label
_atom_site_fract_x
_atom_site_fract_y
_atom_site_fract_z
Si Si1 0.440392 0.914431 0.941162
Si Si2 0.659956 0.231792 0.710202
Si Si3 0.413355 0.176755 0.445419
Si Si4 0.470772 0.384098 0.586398
Si Si5 0.828695 0.422589 0.511698
Si Si6 0.770360 0.250954 0.832114
Si Si7 0.835455 0.798579 0.058198
O O1 0.797323 0.708684 0.695374
O O2 0.267620 0.066352 0.964577
O O3 0.237619 0.850881 0.083172
O O4 0.500000 0.000000 0.000000
O O5 0.684223 0.406346 0.681339
O O6 0.604195 0.223596 0.844182
O O7 0.401366 0.248432 0.801582
O O8 0.000000 0.000000 0.500000
O O9 0.434006 0.238606 0.539228
O O10 0.325528 0.361495 0.439303
O O11 0.113288 0.182973 0.613471
O O12 0.734361 0.956019 0.208556
O O13 0.500000 0.500000 0.500000
O O14 0.781612 0.285046 0.464859
O O15 0.178060 0.574746 0.825740
O O16 0.500000 0.500000 0.000000
#
# Coordination Sequence:
#
# PCOD9051985 Si02
#       7
#     2   2   2   2   2   2   2
#     4  12  22  40  72 105 135 186 229 291 360 403
#     4  12  23  42  69 104 140 178 232 296 352 412
#     4  11  24  45  72 106 141 185 240 288 347 424
#     4  10  25  49  72  97 147 188 234 286 355 421
#     4  11  24  44  72  98 141 191 231 286 358 420
#     4  12  23  38  69 106 143 174 233 298 347 405
#     4  12  25  45  75 104 142 183 238 294 351 417
#
# _framework density 26.694761
#
# number of rings (size 3 to 8) (size 9 to 14) (size 15 to 20)
#    0.000    0.571    5.714    2.571    2.000    4.000 
#    0.000    0.714    6.286    0.000    0.000    0.000 
#    0.000    0.000    0.000    0.000    0.000    0.000 
#
# Total GULP energy -78291.744355 kJ/mol
# GULP energy per Si atom -5592.267454 kJ/mol
# Density = 2.663400 g / cm^3
# Si number density = 26.694761 Si / 1000 Ang^3
#
#
#
# Elastic Constant Matrix: (Units=GPa)
#
#
# Indices 1 2 3 4 5 6 
#
# 1 119.6430 46.1317 30.2253 14.5159 3.1451 3.2364
# 2 46.1317 165.9616 60.6997 -31.0538 3.9626 -16.8948
# 3 30.2253 60.6997 146.7485 15.1010 3.9888 4.8958
# 4 14.5159 -31.0538 15.1010 50.7319 6.1649 1.8424
# 5 3.1451 3.9626 3.9888 6.1649 35.6454 0.5767
# 6 3.2364 -16.8948 4.8958 1.8424 0.5767 45.6980
#
#
#
# Elastic Compliance Matrix: (Units=1/GPa)
#
#
# Indices 1 2 3 4 5 6 
#
# 1 0.010747 -0.004419 0.000274 -0.005850 0.000560 -0.002196
# 2 -0.004419 0.011415 -0.004919 0.009801 -0.002099 0.004691
# 3 0.000274 -0.004919 0.009471 -0.005877 0.000522 -0.002622
# 4 -0.005850 0.009801 -0.005877 0.029625 -0.005097 0.003537
# 5 0.000560 -0.002099 0.000522 -0.005097 0.029078 -0.001033
# 6 -0.002196 0.004691 -0.002622 0.003537 -0.001033 0.023924
#
#
# Mechanical properties :
#
#
# Convention : Reuss Voigt Hill
#
# Bulk Modulus (GPa) = 74.04957 78.49629 76.27293
# Shear Modulus (GPa) = 36.52602 46.10148 41.31375
#
# Velocity S-wave (km/s) = 3.70305 4.16021 3.93827
# Velocity P-wave (km/s) = 6.78844 7.24882 7.02241
#
# Compressibility (1/GPa) = 0.01350447
#
# Stress axis : x y z
#
# Youngs Moduli (GPa) = 93.04653 87.60716 105.58948
#
# Poissons Ratio (x) = 0.38716 -0.02897
# Poissons Ratio (y) = 0.41120 0.51941
# Poissons Ratio (z) = -0.02553 0.43095
#
# Static dielectric constant tensor:
#      x y z
#    x 2.124170 0.033630 0.103500 
#    y 0.033630 2.050420 0.005770 
#    z 0.103500 0.005770 2.143720 
# 
# From -- ./inp_files/565990.got.cif
#   From: 2010.05.17/outbox.cif.g08.bks.cpg/sg2_283_cif.got.tgz:565990.got - 2010.06.03 11:33:40.
