data_PCOD9051593
_publ_section_title
;
Structure prediction by ZEFSAII (Michael W. Deem and Ramdas Pophale) SiO2 
 PCOD9051593
Probable space group: P -1
;
_chemical_formula_sum "Si O2"
_cell_formula_units_Z 16
_cell_length_a 8.706552
_cell_length_b 12.675267
_cell_length_c 16.240950
_cell_angle_alpha 136.112152
_cell_angle_beta 68.803078
_cell_angle_gamma 76.710265
_cell_volume 754.500862
_symmetry_space_group_name_H-M "P -1"
_symmetry_group_IT_number 2
_symmetry_cell_setting 'triclinic'
loop_
_space_group_symop_operation_xyz
x,y,z
-x,-y,-z
loop_
_atom_site_type_symbol
_atom_site_label
_atom_site_fract_x
_atom_site_fract_y
_atom_site_fract_z
Si Si1 0.171917 0.676465 0.487777
Si Si2 0.162984 0.896324 0.325941
Si Si3 0.047878 0.552591 0.892283
Si Si4 0.662670 0.068144 0.216890
Si Si5 0.409663 0.359614 0.577475
Si Si6 0.763298 0.477842 0.984790
Si Si7 0.930634 0.206763 0.237498
Si Si8 0.499400 0.833227 0.868735
O O1 0.397992 0.643750 0.431293
O O2 0.074951 0.732029 0.632366
O O3 0.292981 0.434837 0.295334
O O4 0.959584 0.890024 0.588624
O O5 0.160237 0.739820 0.187726
O O6 0.461133 0.711749 0.179524
O O7 0.000000 0.000000 0.500000
O O8 0.285311 0.364920 0.681707
O O9 0.889936 0.514208 0.921902
O O10 0.130226 0.570731 0.972071
O O11 0.876801 0.793479 0.013179
O O12 0.550364 0.139232 0.369354
O O13 0.774179 0.159628 0.239285
O O14 0.471360 0.177737 0.241472
O O15 0.211260 0.579005 0.676311
O O16 0.215792 0.973698 0.022412
O O17 0.500000 0.000000 0.000000
#
# Coordination Sequence:
#
# PCOD9051593 Si02
#       8
#     2   2   2   2   2   2   2   2
#     4  11  23  42  68  99 129 176 226 272 318 397
#     4  11  25  47  73  92 133 181 225 266 332 397
#     4  11  23  41  72  99 134 166 217 285 335 374
#     4  11  21  40  65  99 130 173 219 267 319 398
#     4  11  20  39  72  97 126 176 225 266 321 387
#     4  10  25  47  66 103 130 169 227 282 328 387
#     4  11  21  41  67  93 133 176 223 266 312 392
#     4  12  25  39  60  96 141 175 209 263 336 394
#
# _framework density 21.206071000000001
#
# number of rings (size 3 to 8) (size 9 to 14) (size 15 to 20)
#    0.000    1.000    3.750    4.125    0.000    5.500 
#    2.250    3.125    0.000    0.000    0.000    0.000 
#    0.000    0.000    0.000    0.000    0.000    0.000 
#
# Total GULP energy -89484.152464 kJ/mol
# GULP energy per Si atom -5592.759529 kJ/mol
# Density = 2.115781 g / cm^3
# Si number density = 21.206071 Si / 1000 Ang^3
#
#
#
# Elastic Constant Matrix: (Units=GPa)
#
#
# Indices 1 2 3 4 5 6 
#
# 1 92.6555 -4.1696 43.8738 -12.4243 21.9106 -7.8252
# 2 -4.1696 67.2509 9.9543 10.9434 -6.4200 6.0384
# 3 43.8738 9.9543 117.2100 -11.8721 10.3042 -3.9142
# 4 -12.4243 10.9434 -11.8721 59.1524 -0.1751 -7.4955
# 5 21.9106 -6.4200 10.3042 -0.1751 26.9440 -7.1813
# 6 -7.8252 6.0384 -3.9142 -7.4955 -7.1813 12.7179
#
#
#
# Elastic Compliance Matrix: (Units=1/GPa)
#
#
# Indices 1 2 3 4 5 6 
#
# 1 0.016218 -0.000190 -0.004694 0.003063 -0.010169 0.004688
# 2 -0.000190 0.017236 -0.002469 -0.005080 0.002307 -0.010751
# 3 -0.004694 -0.002469 0.010804 0.001978 -0.000177 0.002675
# 4 0.003063 -0.005080 0.001978 0.021110 0.000356 0.017548
# 5 -0.010169 0.002307 -0.000177 0.000356 0.051895 0.022106
# 6 0.004688 -0.010751 0.002675 0.017548 0.022106 0.110266
#
#
# Mechanical properties :
#
#
# Convention : Reuss Voigt Hill
#
# Bulk Modulus (GPa) = 33.83887 41.82593 37.83240
# Shear Modulus (GPa) = 19.83458 34.92672 27.38065
#
# Velocity S-wave (km/s) = 3.06163 4.06275 3.59718
# Velocity P-wave (km/s) = 5.33759 6.46330 5.92723
#
# Compressibility (1/GPa) = 0.02955181
#
# Stress axis : x y z
#
# Youngs Moduli (GPa) = 61.65934 58.01976 92.56209
#
# Poissons Ratio (x) = 0.01102 0.43447
# Poissons Ratio (y) = 0.01171 0.22854
# Poissons Ratio (z) = 0.28941 0.14325
#
# Static dielectric constant tensor:
#      x y z
#    x 1.764570 0.008630 -0.013220 
#    y 0.008630 1.747480 -0.008490 
#    z -0.013220 -0.008490 1.764950 
# 
# From -- ./inp_files/500821.got.cif
#   From: 2010.05.17/outbox.cif.g08.bks.cpg/sg2_251_cif.got.tgz:500821.got - 2010.06.03 11:33:40.
