data_PCOD9051078
_publ_section_title
;
Structure prediction by ZEFSAII (Michael W. Deem and Ramdas Pophale) SiO2 
 PCOD9051078
Probable space group: P -1
;
_chemical_formula_sum "Si O2"
_cell_formula_units_Z 16
_cell_length_a 9.399144
_cell_length_b 9.457083
_cell_length_c 12.694441
_cell_angle_alpha 50.373525
_cell_angle_beta 122.375738
_cell_angle_gamma 115.972675
_cell_volume 725.898100
_symmetry_space_group_name_H-M "P -1"
_symmetry_group_IT_number 2
_symmetry_cell_setting 'triclinic'
loop_
_space_group_symop_operation_xyz
x,y,z
-x,-y,-z
loop_
_atom_site_type_symbol
_atom_site_label
_atom_site_fract_x
_atom_site_fract_y
_atom_site_fract_z
Si Si1 0.484909 0.590619 0.282452
Si Si2 0.478887 0.766633 0.422203
Si Si3 0.695347 0.365599 0.205373
Si Si4 0.661912 0.867460 0.848342
Si Si5 0.832559 0.002887 0.500637
Si Si6 0.751535 0.762292 0.148921
Si Si7 0.020976 0.060964 0.185730
Si Si8 0.819715 0.372923 0.009690
O O1 0.439770 0.670568 0.339318
O O2 0.547592 0.393393 0.424489
O O3 0.633884 0.729418 0.220111
O O4 0.323996 0.569886 0.151050
O O5 0.676994 0.856490 0.464810
O O6 0.378257 0.940957 0.308904
O O7 0.492235 0.295002 0.160634
O O8 0.743941 0.562089 0.186647
O O9 0.758489 0.373128 0.105866
O O10 0.778030 0.205208 0.372517
O O11 0.844643 0.835729 0.892850
O O12 0.673367 0.883238 0.971448
O O13 0.877048 0.953353 0.659869
O O14 0.000000 0.000000 0.500000
O O15 0.938524 0.861723 0.204040
O O16 0.862888 0.169576 0.094093
O O17 0.000000 0.500000 0.000000
#
# Coordination Sequence:
#
# PCOD9051078 Si02
#       8
#     2   2   2   2   2   2   2   2
#     4  11  25  44  71 104 144 183 235 291 352 423
#     4  10  25  45  69 102 140 191 231 287 355 416
#     4  11  26  44  73 102 143 187 235 291 351 419
#     4  11  25  47  72 101 143 184 239 288 350 425
#     4  11  23  45  69 100 142 186 241 286 347 424
#     4  12  26  44  72 107 144 181 237 292 356 409
#     4  12  27  44  74 106 143 185 236 292 356 413
#     4  12  25  45  75 105 140 190 238 287 350 420
#
# _framework density 22.041661000000001
#
# number of rings (size 3 to 8) (size 9 to 14) (size 15 to 20)
#    0.000    0.750    2.500    3.750    7.000    3.500 
#    2.250    0.000    0.000    0.000    0.000    0.000 
#    0.000    0.000    0.000    0.000    0.000    0.000 
#
# Total GULP energy -89603.301989 kJ/mol
# GULP energy per Si atom -5600.206374 kJ/mol
# Density = 2.199149 g / cm^3
# Si number density = 22.041661 Si / 1000 Ang^3
#
#
#
# Elastic Constant Matrix: (Units=GPa)
#
#
# Indices 1 2 3 4 5 6 
#
# 1 92.1196 9.1639 0.2916 -6.2596 -11.8541 9.8978
# 2 9.1639 76.0922 0.4922 -2.0299 -2.5455 5.7574
# 3 0.2916 0.4922 99.3734 -12.6084 -15.0111 -3.9073
# 4 -6.2596 -2.0299 -12.6084 28.5692 -0.0267 -0.1213
# 5 -11.8541 -2.5455 -15.0111 -0.0267 27.3054 -1.0574
# 6 9.8978 5.7574 -3.9073 -0.1213 -1.0574 32.7238
#
#
#
# Elastic Compliance Matrix: (Units=1/GPa)
#
#
# Indices 1 2 3 4 5 6 
#
# 1 0.012236 -0.000965 0.001096 0.003088 0.005704 -0.003205
# 2 -0.000965 0.013459 0.000074 0.000770 0.000798 -0.002039
# 3 0.001096 0.000074 0.011877 0.005499 0.007069 0.001322
# 4 0.003088 0.000770 0.005499 0.038165 0.004468 -0.000127
# 5 0.005704 0.000798 0.007069 0.004468 0.043079 0.000387
# 6 -0.003205 -0.002039 0.001322 -0.000127 0.000387 0.032057
#
#
# Mechanical properties :
#
#
# Convention : Reuss Voigt Hill
#
# Bulk Modulus (GPa) = 26.32743 31.94230 29.13486
# Shear Modulus (GPa) = 30.65182 34.89552 32.77367
#
# Velocity S-wave (km/s) = 3.73316 3.98321 3.86021
# Velocity P-wave (km/s) = 5.52742 5.97310 5.75457
#
# Compressibility (1/GPa) = 0.03798320
#
# Stress axis : x y z
#
# Youngs Moduli (GPa) = 81.72542 74.29875 84.19636
#
# Poissons Ratio (x) = 0.07170 -0.09230
# Poissons Ratio (y) = 0.07887 -0.00625
# Poissons Ratio (z) = -0.08959 -0.00552
#
# Static dielectric constant tensor:
#      x y z
#    x 1.783270 -0.026320 -0.002160 
#    y -0.026320 1.814120 -0.029860 
#    z -0.002160 -0.029860 1.818860 
# 
# From -- ./inp_files/316028.got.cif
#   From: 2010.05.17/outbox.cif.g08.bks.cpg/sg2_159_cif.got.tgz:316028.got - 2010.06.03 11:33:40.
