data_PCOD9051880
_publ_section_title
;
Structure prediction by ZEFSAII (Michael W. Deem and Ramdas Pophale) SiO2 
 PCOD9051880
Probable space group: P -1
;
_chemical_formula_sum "Si O2"
_cell_formula_units_Z 15
_cell_length_a 12.170895
_cell_length_b 14.441062
_cell_length_c 11.356690
_cell_angle_alpha 53.698907
_cell_angle_beta 23.965623
_cell_angle_gamma 55.130444
_cell_volume 650.534643
_symmetry_space_group_name_H-M "P -1"
_symmetry_group_IT_number 2
_symmetry_cell_setting 'triclinic'
loop_
_space_group_symop_operation_xyz
x,y,z
-x,-y,-z
loop_
_atom_site_type_symbol
_atom_site_label
_atom_site_fract_x
_atom_site_fract_y
_atom_site_fract_z
Si Si1 0.168294 0.810974 0.687723
Si Si2 0.751174 0.022069 0.315924
Si Si3 0.013599 0.574262 0.753668
Si Si4 0.746228 0.558947 0.770761
Si Si5 0.292183 0.351106 0.764367
Si Si6 0.000000 0.000000 0.500000
Si Si7 0.315657 0.790208 0.213935
Si Si8 0.808937 0.799759 0.575074
O O1 0.406450 0.713133 0.488323
O O2 0.247020 0.861909 0.697957
O O3 0.097277 0.914004 0.585135
O O4 0.898577 0.746834 0.011288
O O5 0.745850 0.923558 0.492676
O O6 0.500000 0.000000 0.500000
O O7 0.000000 0.000000 0.000000
O O8 0.214373 0.461455 0.674481
O O9 0.204132 0.679742 0.469797
O O10 0.834283 0.553907 0.827287
O O11 0.810635 0.605718 0.037813
O O12 0.711428 0.695173 0.676057
O O13 0.000000 0.500000 0.500000
O O14 0.500000 0.500000 0.000000
O O15 0.800882 0.088194 0.709531
O O16 0.134351 0.781835 0.280308
O O17 0.634445 0.794088 0.872567
#
# Coordination Sequence:
#
# PCOD9051880 Si02
#       8
#     2   2   2   2   2   1   2   2
#     4  12  28  47  75 111 144 195 248 301 371 429
#     4  12  27  48  71 101 147 192 238 292 362 439
#     4  10  25  48  73 108 151 193 244 298 378 432
#     4  11  25  43  70 103 140 186 246 300 355 426
#     4  11  27  47  74 107 152 195 238 305 369 450
#     4  12  26  44  78 108 154 176 260 300 362 426
#     4  11  24  42  73 106 141 184 231 305 355 423
#     4  11  25  45  68 101 139 184 240 291 361 416
#
# _framework density 23.057955
#
# number of rings (size 3 to 8) (size 9 to 14) (size 15 to 20)
#    0.000    0.800    2.667    3.200    5.600   10.667 
#    0.000    0.000    0.000    0.000    0.000    0.000 
#    0.000    0.000    0.000    0.000    0.000    0.000 
#
# Total GULP energy -83540.604348 kJ/mol
# GULP energy per Si atom -5569.373623 kJ/mol
# Density = 2.300547 g / cm^3
# Si number density = 23.057955 Si / 1000 Ang^3
#
#
#
# Elastic Constant Matrix: (Units=GPa)
#
#
# Indices 1 2 3 4 5 6 
#
# 1 77.3582 22.2790 8.1605 1.4719 -4.0700 -3.2438
# 2 22.2790 100.8239 1.6339 19.3029 8.4947 -1.3934
# 3 8.1605 1.6339 94.5712 16.4739 -5.4170 -4.1122
# 4 1.4719 19.3029 16.4739 33.9331 5.5230 2.8258
# 5 -4.0700 8.4947 -5.4170 5.5230 25.6621 3.7902
# 6 -3.2438 -1.3934 -4.1122 2.8258 3.7902 48.8437
#
#
#
# Elastic Compliance Matrix: (Units=1/GPa)
#
#
# Indices 1 2 3 4 5 6 
#
# 1 0.014250 -0.003662 -0.001264 0.001587 0.002801 0.000426
# 2 -0.003662 0.012315 0.001186 -0.007001 -0.003026 0.000848
# 3 -0.001264 0.001186 0.012150 -0.007157 0.003345 0.001127
# 4 0.001587 -0.007001 -0.007157 0.038163 -0.006804 -0.002377
# 5 0.002801 -0.003026 0.003345 -0.006804 0.042962 -0.002559
# 6 0.000426 0.000848 0.001127 -0.002377 -0.002559 0.020957
#
#
# Mechanical properties :
#
#
# Convention : Reuss Voigt Hill
#
# Bulk Modulus (GPa) = 32.01499 37.43336 34.72417
# Shear Modulus (GPa) = 31.50809 37.73308 34.62059
#
# Velocity S-wave (km/s) = 3.70059 4.04969 3.87907
# Velocity P-wave (km/s) = 5.67221 6.17546 5.92918
#
# Compressibility (1/GPa) = 0.03123537
#
# Stress axis : x y z
#
# Youngs Moduli (GPa) = 70.17549 81.20006 82.30469
#
# Poissons Ratio (x) = 0.29738 0.10403
# Poissons Ratio (y) = 0.25701 -0.09764
# Poissons Ratio (z) = 0.08869 -0.09633
#
# Static dielectric constant tensor:
#      x y z
#    x 1.914520 -0.028370 0.033640 
#    y -0.028370 1.859040 0.015580 
#    z 0.033640 0.015580 1.776690 
# 
# From -- ./inp_files/432791.got.cif
#   From: 2010.05.17/outbox.cif.g08.bks.cpg/sg2_217_cif.got.tgz:432791.got - 2010.06.03 11:33:40.
