data_PCOD9051158
_publ_section_title
;
Structure prediction by ZEFSAII (Michael W. Deem and Ramdas Pophale) SiO2 
 PCOD9051158
Probable space group: P -1
;
_chemical_formula_sum "Si O2"
_cell_formula_units_Z 15
_cell_length_a 14.800798
_cell_length_b 5.859327
_cell_length_c 22.655793
_cell_angle_alpha 98.468265
_cell_angle_beta 23.457032
_cell_angle_gamma 107.280117
_cell_volume 705.098975
_symmetry_space_group_name_H-M "P -1"
_symmetry_group_IT_number 2
_symmetry_cell_setting 'triclinic'
loop_
_space_group_symop_operation_xyz
x,y,z
-x,-y,-z
loop_
_atom_site_type_symbol
_atom_site_label
_atom_site_fract_x
_atom_site_fract_y
_atom_site_fract_z
Si Si1 0.949337 0.414289 0.330324
Si Si2 0.394572 0.796146 0.004035
Si Si3 0.780743 0.589332 0.715921
Si Si4 0.988292 0.225367 0.975031
Si Si5 0.484295 0.034415 0.833788
Si Si6 0.000000 0.000000 0.500000
Si Si7 0.415205 0.433311 0.633455
Si Si8 0.341856 0.104234 0.557928
O O1 0.064700 0.483658 0.329042
O O2 0.683243 0.429597 0.485778
O O3 0.138594 0.587537 0.174724
O O4 0.890503 0.123035 0.339071
O O5 0.595591 0.680815 0.865671
O O6 0.376124 0.928702 0.959347
O O7 0.500000 0.000000 0.000000
O O8 0.608392 0.338591 0.774071
O O9 0.964324 0.801512 0.570401
O O10 0.226110 0.306298 0.793158
O O11 0.000000 0.500000 0.000000
O O12 0.733645 0.088830 0.086490
O O13 0.000000 0.000000 0.000000
O O14 0.710808 0.957630 0.681263
O O15 0.293160 0.289653 0.640052
O O16 0.482156 0.726894 0.592653
O O17 0.500000 0.000000 0.500000
#
# Coordination Sequence:
#
# PCOD9051158 Si02
#       8
#     2   2   2   2   2   1   2   2
#     4  11  24  39  73 106 145 180 239 298 383 460
#     4  11  25  43  68 115 145 184 234 306 389 454
#     4  11  25  44  73 103 143 191 239 311 374 455
#     4  12  33  52  78 109 151 208 264 319 375 447
#     4  11  27  48  77 103 151 191 253 315 380 453
#     4  10  26  48  72 102 140 194 254 302 382 432
#     4  10  25  45  71 104 144 191 247 302 376 443
#     4   9  22  41  68 104 139 187 231 301 361 455
#
# _framework density 21.273610000000001
#
# number of rings (size 3 to 8) (size 9 to 14) (size 15 to 20)
#    0.000    1.333    1.333    0.800   18.667    1.067 
#    0.000    0.000    0.000    0.000    0.000    0.000 
#    0.000    0.000    0.000    0.000    0.000    0.000 
#
# Total GULP energy -83537.625715 kJ/mol
# GULP energy per Si atom -5569.175048 kJ/mol
# Density = 2.122519 g / cm^3
# Si number density = 21.273610 Si / 1000 Ang^3
#
#
#
# Elastic Constant Matrix: (Units=GPa)
#
#
# Indices 1 2 3 4 5 6 
#
# 1 120.7799 51.8249 60.6771 -15.3737 1.1490 -7.3534
# 2 51.8249 81.4043 43.8046 -19.9012 -6.4647 -0.0536
# 3 60.6771 43.8046 156.2770 -24.0053 24.3465 -5.3775
# 4 -15.3737 -19.9012 -24.0053 35.2074 -12.8715 -2.4940
# 5 1.1490 -6.4647 24.3465 -12.8715 39.6696 -19.3861
# 6 -7.3534 -0.0536 -5.3775 -2.4940 -19.3861 36.9744
#
#
#
# Elastic Compliance Matrix: (Units=1/GPa)
#
#
# Indices 1 2 3 4 5 6 
#
# 1 0.012892 -0.005680 -0.003563 0.001439 0.003224 0.003825
# 2 -0.005680 0.022175 -0.003924 0.012684 0.013317 0.006170
# 3 -0.003563 -0.003924 0.010048 -0.000377 -0.008702 -0.003841
# 4 0.001439 0.012684 -0.000377 0.046465 0.025527 0.016768
# 5 0.003224 0.013317 -0.008702 0.025527 0.055735 0.030339
# 6 0.003825 0.006170 -0.003841 0.016768 0.030339 0.044295
#
#
# Mechanical properties :
#
#
# Convention : Reuss Voigt Hill
#
# Bulk Modulus (GPa) = 53.24739 74.56383 63.90561
# Shear Modulus (GPa) = 22.30107 35.84727 29.07417
#
# Velocity S-wave (km/s) = 3.24125 4.10940 3.70087
# Velocity P-wave (km/s) = 6.25234 7.59225 6.95464
#
# Compressibility (1/GPa) = 0.01878026
#
# Stress axis : x y z
#
# Youngs Moduli (GPa) = 77.56717 45.09643 99.52210
#
# Poissons Ratio (x) = 0.25614 0.35460
# Poissons Ratio (y) = 0.44057 0.39056
# Poissons Ratio (z) = 0.27638 0.17697
#
# Static dielectric constant tensor:
#      x y z
#    x 1.745900 -0.024800 0.009600 
#    y -0.024800 1.888250 0.004850 
#    z 0.009600 0.004850 1.730700 
# 
# From -- ./inp_files/369199.got.cif
#   From: 2010.05.17/outbox.cif.g08.bks.cpg/sg2_185_cif.got.tgz:369199.got - 2010.06.03 11:33:40.
