data_PCOD9051514
_publ_section_title
;
Structure prediction by ZEFSAII (Michael W. Deem and Ramdas Pophale) SiO2 
 PCOD9051514
Probable space group: P -1
;
_chemical_formula_sum "Si O2"
_cell_formula_units_Z 14
_cell_length_a 20.472532
_cell_length_b 9.161715
_cell_length_c 8.308349
_cell_angle_alpha 55.510166
_cell_angle_beta 47.588620
_cell_angle_gamma 26.398773
_cell_volume 508.143176
_symmetry_space_group_name_H-M "P -1"
_symmetry_group_IT_number 2
_symmetry_cell_setting 'triclinic'
loop_
_space_group_symop_operation_xyz
x,y,z
-x,-y,-z
loop_
_atom_site_type_symbol
_atom_site_label
_atom_site_fract_x
_atom_site_fract_y
_atom_site_fract_z
Si Si1 0.493305 0.259944 0.916842
Si Si2 0.687708 0.531992 0.595851
Si Si3 0.759557 0.526534 0.955751
Si Si4 0.058461 0.145520 0.524902
Si Si5 0.584073 0.208587 0.281436
Si Si6 0.849766 0.827890 0.320530
Si Si7 0.857355 0.524974 0.124151
O O1 0.413097 0.294697 0.181531
O O2 0.364422 0.425809 0.888255
O O3 0.492207 0.468911 0.823736
O O4 0.664623 0.869592 0.850517
O O5 0.553681 0.707999 0.571057
O O6 0.796704 0.518518 0.383473
O O7 0.816020 0.154690 0.617312
O O8 0.918198 0.245142 0.754189
O O9 0.815988 0.468710 0.077876
O O10 0.149120 0.052323 0.597803
O O11 0.965649 0.469098 0.402935
O O12 0.673282 0.073137 0.390436
O O13 0.730758 0.904726 0.103525
O O14 0.955178 0.737976 0.055491
#
# Coordination Sequence:
#
# PCOD9051514 Si02
#       7
#     2   2   2   2   2   2   2
#     4  11  26  46  76 107 146 194 243 296 363 431
#     4  12  27  44  78 109 148 187 246 299 364 424
#     4  10  25  47  74 103 151 192 240 295 367 431
#     4  10  25  47  74 105 149 191 240 299 367 431
#     4  12  26  44  75 108 144 190 244 301 352 434
#     4  10  25  46  73 104 150 191 241 297 365 430
#     4  11  25  47  73 106 150 189 240 304 360 426
#
# _framework density 27.551289000000001
#
# number of rings (size 3 to 8) (size 9 to 14) (size 15 to 20)
#    0.000    1.143    1.429    2.143   12.000    3.429 
#    0.000    0.000    0.000    0.000    0.000    0.000 
#    0.000    0.000    0.000    0.000    0.000    0.000 
#
# Total GULP energy -78581.772388 kJ/mol
# GULP energy per Si atom -5612.983742 kJ/mol
# Density = 2.748858 g / cm^3
# Si number density = 27.551289 Si / 1000 Ang^3
#
#
#
# Elastic Constant Matrix: (Units=GPa)
#
#
# Indices 1 2 3 4 5 6 
#
# 1 119.9902 14.4749 21.4779 0.1080 -7.8847 -9.6894
# 2 14.4749 103.9726 26.3419 2.3410 -7.1334 11.1768
# 3 21.4779 26.3419 107.5258 8.6738 -9.4556 -2.8774
# 4 0.1080 2.3410 8.6738 39.7609 -1.3673 -4.0195
# 5 -7.8847 -7.1334 -9.4556 -1.3673 28.7437 -5.1299
# 6 -9.6894 11.1768 -2.8774 -4.0195 -5.1299 43.1915
#
#
#
# Elastic Compliance Matrix: (Units=1/GPa)
#
#
# Indices 1 2 3 4 5 6 
#
# 1 0.009055 -0.001055 -0.001336 0.000664 0.002268 0.002547
# 2 -0.001055 0.010783 -0.002392 -0.000388 0.001028 -0.003101
# 3 -0.001336 -0.002392 0.010573 -0.001955 0.002631 0.001154
# 4 0.000664 -0.000388 -0.001955 0.025907 0.001151 0.002667
# 5 0.002268 0.001028 0.002631 0.001151 0.037476 0.004976
# 6 0.002547 -0.003101 0.001154 0.002667 0.004976 0.025442
#
#
# Mechanical properties :
#
#
# Convention : Reuss Voigt Hill
#
# Bulk Modulus (GPa) = 47.97536 50.67533 49.32534
# Shear Modulus (GPa) = 36.83201 40.28547 38.55874
#
# Velocity S-wave (km/s) = 3.66027 3.82802 3.74508
# Velocity P-wave (km/s) = 5.94258 6.16209 6.05333
#
# Compressibility (1/GPa) = 0.02084404
#
# Stress axis : x y z
#
# Youngs Moduli (GPa) = 110.44160 92.73452 94.58083
#
# Poissons Ratio (x) = 0.09785 0.12637
# Poissons Ratio (y) = 0.11653 0.22626
# Poissons Ratio (z) = 0.14756 0.22184
#
# Static dielectric constant tensor:
#      x y z
#    x 2.128980 -0.025290 0.000600 
#    y -0.025290 2.113490 -0.072770 
#    z 0.000600 -0.072770 2.139320 
# 
# From -- ./inp_files/343404.got.cif
#   From: 2010.05.17/outbox.cif.g08.bks.cpg/sg2_172_cif.got.tgz:343404.got - 2010.06.03 11:33:40.
