data_PCOD9051871
_publ_section_title
;
Structure prediction by ZEFSAII (Michael W. Deem and Ramdas Pophale) SiO2 
 PCOD9051871
Probable space group: P -1
;
_chemical_formula_sum "Si O2"
_cell_formula_units_Z 12
_cell_length_a 8.008229
_cell_length_b 8.896241
_cell_length_c 14.985420
_cell_angle_alpha 146.326630
_cell_angle_beta 98.672060
_cell_angle_gamma 66.442188
_cell_volume 506.694348
_symmetry_space_group_name_H-M "P -1"
_symmetry_group_IT_number 2
_symmetry_cell_setting 'triclinic'
loop_
_space_group_symop_operation_xyz
x,y,z
-x,-y,-z
loop_
_atom_site_type_symbol
_atom_site_label
_atom_site_fract_x
_atom_site_fract_y
_atom_site_fract_z
Si Si1 0.295268 0.684568 0.785159
Si Si2 0.603936 0.147111 0.639001
Si Si3 0.974570 0.335927 0.005271
Si Si4 0.338187 0.857807 0.160103
Si Si5 0.064008 0.357395 0.668417
Si Si6 0.393758 0.230901 0.191780
O O1 0.439576 0.514451 0.799199
O O2 0.476261 0.606470 0.695473
O O3 0.147234 0.550752 0.713756
O O4 0.156947 0.051299 0.932131
O O5 0.653591 0.026553 0.683329
O O6 0.500000 0.000000 0.500000
O O7 0.814776 0.994851 0.533248
O O8 0.853237 0.166769 0.885592
O O9 0.000000 0.500000 0.000000
O O10 0.885239 0.603589 0.206229
O O11 0.388549 0.036254 0.178717
O O12 0.500000 0.500000 0.000000
O O13 0.832540 0.525137 0.723256
O O14 0.500000 0.000000 0.000000
#
# Coordination Sequence:
#
# PCOD9051871 Si02
#       6
#     2   2   2   2   2   2
#     4  11  23  45  70 101 144 190 231 293 360 421
#     4  10  25  48  73 102 150 193 232 301 365 414
#     4  12  25  44  73 105 140 186 247 294 350 430
#     4  12  25  44  74 107 142 189 247 292 351 440
#     4  11  24  48  71 103 151 186 235 307 357 415
#     4  12  23  41  75 107 141 189 242 294 360 425
#
# _framework density 23.682917
#
# number of rings (size 3 to 8) (size 9 to 14) (size 15 to 20)
#    0.000    0.667    3.333    5.500    2.333    1.333 
#    0.000    4.167    0.000    0.000    0.000    0.000 
#    0.000    0.000    0.000    0.000    0.000    0.000 
#
# Total GULP energy -66809.789539 kJ/mol
# GULP energy per Si atom -5567.482462 kJ/mol
# Density = 2.362901 g / cm^3
# Si number density = 23.682917 Si / 1000 Ang^3
#
#
#
# Elastic Constant Matrix: (Units=GPa)
#
#
# Indices 1 2 3 4 5 6 
#
# 1 174.9951 62.9423 34.9603 4.8863 -6.7764 14.9024
# 2 62.9423 175.1968 66.5567 -5.4150 -6.2191 29.9801
# 3 34.9603 66.5567 70.5238 -16.4205 -19.1788 5.4843
# 4 4.8863 -5.4150 -16.4205 42.8756 -4.2441 -3.4270
# 5 -6.7764 -6.2191 -19.1788 -4.2441 37.3770 13.9969
# 6 14.9024 29.9801 5.4843 -3.4270 13.9969 59.2069
#
#
#
# Elastic Compliance Matrix: (Units=1/GPa)
#
#
# Indices 1 2 3 4 5 6 
#
# 1 0.006849 -0.001442 -0.002487 -0.002001 -0.000189 -0.000835
# 2 -0.001442 0.010655 -0.010598 -0.003124 -0.002959 -0.003532
# 3 -0.002487 -0.010598 0.032887 0.013134 0.016198 -0.000123
# 4 -0.002001 -0.003124 0.013134 0.029112 0.009003 0.000426
# 5 -0.000189 -0.002959 0.016198 0.009003 0.038783 -0.008602
# 6 -0.000835 -0.003532 -0.000123 0.000426 -0.008602 0.020958
#
#
# Mechanical properties :
#
#
# Convention : Reuss Voigt Hill
#
# Bulk Modulus (GPa) = 46.86594 83.29268 65.07931
# Shear Modulus (GPa) = 28.50455 44.97567 36.74011
#
# Velocity S-wave (km/s) = 3.47304 4.36257 3.94297
# Velocity P-wave (km/s) = 5.99288 7.78603 6.94755
#
# Compressibility (1/GPa) = 0.02133746
#
# Stress axis : x y z
#
# Youngs Moduli (GPa) = 145.99616 93.85433 30.40705
#
# Poissons Ratio (x) = 0.13530 0.07563
# Poissons Ratio (y) = 0.21047 0.32226
# Poissons Ratio (z) = 0.36312 0.99468
#
# Static dielectric constant tensor:
#      x y z
#    x 2.756730 -0.223590 0.159480 
#    y -0.223590 2.048070 -0.021800 
#    z 0.159480 -0.021800 2.134400 
# 
# From -- ./inp_files/490208.got.cif
#   From: 2010.05.17/outbox.cif.g08.bks.cpg/sg2_246_cif.got.tgz:490208.got - 2010.06.03 11:33:40.
