data_PCOD9051931
_publ_section_title
;
Structure prediction by ZEFSAII (Michael W. Deem and Ramdas Pophale) SiO2 
 PCOD9051931
Probable space group: P -1
;
_chemical_formula_sum "Si O2"
_cell_formula_units_Z 14
_cell_length_a 9.722013
_cell_length_b 8.610563
_cell_length_c 8.903008
_cell_angle_alpha 130.620141
_cell_angle_beta 83.785615
_cell_angle_gamma 100.668198
_cell_volume 555.852683
_symmetry_space_group_name_H-M "P -1"
_symmetry_group_IT_number 2
_symmetry_cell_setting 'triclinic'
loop_
_space_group_symop_operation_xyz
x,y,z
-x,-y,-z
loop_
_atom_site_type_symbol
_atom_site_label
_atom_site_fract_x
_atom_site_fract_y
_atom_site_fract_z
Si Si1 0.984340 0.607471 0.387988
Si Si2 0.100576 0.842257 0.820541
Si Si3 0.769184 0.790269 0.350892
Si Si4 0.850458 0.514194 0.949054
Si Si5 0.412277 0.092694 0.937328
Si Si6 0.625664 0.175956 0.696089
Si Si7 0.505711 0.464544 0.657701
O O1 0.024159 0.735881 0.614148
O O2 0.913005 0.768014 0.400998
O O3 0.000000 0.500000 0.000000
O O4 0.888497 0.381352 0.244823
O O5 0.123323 0.536709 0.258362
O O6 0.257880 0.961254 0.866452
O O7 0.000000 0.000000 0.000000
O O8 0.505143 0.900828 0.227145
O O9 0.653332 0.613018 0.322433
O O10 0.714083 0.000758 0.523944
O O11 0.799915 0.725687 0.136796
O O12 0.727260 0.332140 0.888117
O O13 0.419512 0.327526 0.141251
O O14 0.500000 0.000000 0.000000
O O15 0.578127 0.289431 0.625513
O O16 0.500000 0.500000 0.500000
#
# Coordination Sequence:
#
# PCOD9051931 Si02
#       7
#     2   2   2   2   2   2   2
#     4  10  26  49  77 115 167 220 280 339 404 502
#     4  11  28  49  82 119 169 224 284 334 416 495
#     4  11  25  49  82 116 161 212 274 340 420 499
#     4  10  25  48  77 115 164 208 270 335 412 499
#     4  12  28  52  84 124 170 220 274 350 420 497
#     4  12  28  51  81 122 162 218 276 343 428 491
#     4  12  28  51  80 119 164 210 277 352 419 499
#
# _framework density 25.186530000000001
#
# number of rings (size 3 to 8) (size 9 to 14) (size 15 to 20)
#    0.000    0.857    1.429    2.571    8.000    8.000 
#    0.000    0.000    0.000    0.000    0.000    0.000 
#    0.000    0.000    0.000    0.000    0.000    0.000 
#
# Total GULP energy -78213.897164 kJ/mol
# GULP energy per Si atom -5586.706940 kJ/mol
# Density = 2.512920 g / cm^3
# Si number density = 25.186530 Si / 1000 Ang^3
#
#
#
# Elastic Constant Matrix: (Units=GPa)
#
#
# Indices 1 2 3 4 5 6 
#
# 1 136.3321 78.8597 54.0047 7.4574 -13.1562 -13.4713
# 2 78.8597 157.0030 91.6805 11.9896 -9.6483 -15.2086
# 3 54.0047 91.6805 196.7233 19.2747 -30.3987 -34.4989
# 4 7.4574 11.9896 19.2747 46.6958 -3.8205 1.1185
# 5 -13.1562 -9.6483 -30.3987 -3.8205 50.7461 16.4755
# 6 -13.4713 -15.2086 -34.4989 1.1185 16.4755 40.5494
#
#
#
# Elastic Compliance Matrix: (Units=1/GPa)
#
#
# Indices 1 2 3 4 5 6 
#
# 1 0.010529 -0.005002 -0.000161 -0.000242 0.001359 0.000940
# 2 -0.005002 0.011178 -0.004078 -0.000508 -0.001558 -0.000292
# 3 -0.000161 -0.004078 0.008467 -0.002323 0.002574 0.004639
# 4 -0.000242 -0.000508 -0.002323 0.022727 0.001260 -0.003386
# 5 0.001359 -0.001558 0.002574 0.001260 0.023894 -0.007686
# 6 0.000940 -0.000292 0.004639 -0.003386 -0.007686 0.032027
#
#
# Mechanical properties :
#
#
# Convention : Reuss Voigt Hill
#
# Bulk Modulus (GPa) = 85.52933 104.34980 94.93957
# Shear Modulus (GPa) = 38.10937 45.29917 41.70427
#
# Velocity S-wave (km/s) = 3.89406 4.24553 4.07359
# Velocity P-wave (km/s) = 7.36548 8.09651 7.73963
#
# Compressibility (1/GPa) = 0.01169190
#
# Stress axis : x y z
#
# Youngs Moduli (GPa) = 94.97454 89.46294 118.10593
#
# Poissons Ratio (x) = 0.44745 0.01902
# Poissons Ratio (y) = 0.47502 0.48169
# Poissons Ratio (z) = 0.01530 0.36487
#
# Static dielectric constant tensor:
#      x y z
#    x 2.090440 0.075690 0.018210 
#    y 0.075690 2.182440 -0.086840 
#    z 0.018210 -0.086840 2.025680 
# 
# From -- ./inp_files/235942.got.cif
#   From: 2010.05.17/outbox.cif.g08.bks.cpg/sg2_118_cif.got.tgz:235942.got - 2010.06.03 11:33:40.
