data_PCOD9051011
_publ_section_title
;
Structure prediction by ZEFSAII (Michael W. Deem and Ramdas Pophale) SiO2 
 PCOD9051011
Probable space group: P -1
;
_chemical_formula_sum "Si O2"
_cell_formula_units_Z 12
_cell_length_a 14.434281
_cell_length_b 17.848440
_cell_length_c 9.340664
_cell_angle_alpha 39.798764
_cell_angle_beta 52.661010
_cell_angle_gamma 22.264764
_cell_volume 526.673673
_symmetry_space_group_name_H-M "P -1"
_symmetry_group_IT_number 2
_symmetry_cell_setting 'triclinic'
loop_
_space_group_symop_operation_xyz
x,y,z
-x,-y,-z
loop_
_atom_site_type_symbol
_atom_site_label
_atom_site_fract_x
_atom_site_fract_y
_atom_site_fract_z
Si Si1 0.150598 0.759652 0.297861
Si Si2 0.692318 0.695668 0.405956
Si Si3 0.301236 0.046228 0.020289
Si Si4 0.249050 0.711251 0.611545
Si Si5 0.798133 0.887518 0.285654
Si Si6 0.292686 0.416367 0.134576
O O1 0.155183 0.772270 0.446499
O O2 0.469234 0.472907 0.380446
O O3 0.975478 0.807318 0.341348
O O4 0.000000 0.000000 0.000000
O O5 0.607349 0.907976 0.187019
O O6 0.645526 0.664191 0.638567
O O7 0.010059 0.397588 0.505841
O O8 0.524370 0.797826 0.281817
O O9 0.239500 0.026534 0.966245
O O10 0.027567 0.314058 0.972748
O O11 0.324555 0.520090 0.898589
O O12 0.000000 0.000000 0.500000
O O13 0.499390 0.148789 0.245247
#
# Coordination Sequence:
#
# PCOD9051011 Si02
#       6
#     2   2   2   2   2   2
#     4  11  26  45  64  99 136 170 220 273 330 380
#     4  10  25  45  69  96 134 173 217 276 332 383
#     4  10  25  45  67 100 132 171 220 274 331 387
#     4  11  28  44  68  97 134 176 224 269 321 394
#     4  11  24  41  69  95 135 173 213 275 324 390
#     4  11  24  41  69 100 126 174 226 261 331 394
#
# _framework density 22.784507000000001
#
# number of rings (size 3 to 8) (size 9 to 14) (size 15 to 20)
#    0.000    1.333    1.667    2.000   11.667    4.667 
#    0.000    3.333    0.000    0.000    0.000    0.000 
#    0.000    0.000    0.000    0.000    0.000    0.000 
#
# Total GULP energy -67040.336671 kJ/mol
# GULP energy per Si atom -5586.694723 kJ/mol
# Density = 2.273265 g / cm^3
# Si number density = 22.784507 Si / 1000 Ang^3
#
#
#
# Elastic Constant Matrix: (Units=GPa)
#
#
# Indices 1 2 3 4 5 6 
#
# 1 75.2674 20.8220 26.1245 3.0312 18.4697 -0.8657
# 2 20.8220 161.1838 39.8731 -14.2187 22.8470 20.2117
# 3 26.1245 39.8731 129.9269 2.7910 14.9253 12.4096
# 4 3.0312 -14.2187 2.7910 28.8318 -11.3023 -3.7409
# 5 18.4697 22.8470 14.9253 -11.3023 41.9088 -7.6309
# 6 -0.8657 20.2117 12.4096 -3.7409 -7.6309 27.0846
#
#
#
# Elastic Compliance Matrix: (Units=1/GPa)
#
#
# Indices 1 2 3 4 5 6 
#
# 1 0.016232 -0.000913 -0.001960 -0.004964 -0.007420 -0.000678
# 2 -0.000913 0.008229 -0.001244 0.001700 -0.004384 -0.006600
# 3 -0.001960 -0.001244 0.009435 -0.003387 -0.003633 -0.004949
# 4 -0.004964 0.001700 -0.003387 0.044191 0.016358 0.010837
# 5 -0.007420 -0.004384 -0.003633 0.016358 0.038467 0.017796
# 6 -0.000678 -0.006600 -0.004949 0.010837 0.017796 0.050603
#
#
# Mechanical properties :
#
#
# Convention : Reuss Voigt Hill
#
# Bulk Modulus (GPa) = 38.96914 60.00193 49.48553
# Shear Modulus (GPa) = 27.18215 38.20227 32.69221
#
# Velocity S-wave (km/s) = 3.45775 4.09917 3.79204
# Velocity P-wave (km/s) = 5.75168 6.98541 6.39835
#
# Compressibility (1/GPa) = 0.02566133
#
# Stress axis : x y z
#
# Youngs Moduli (GPa) = 61.60811 121.52416 105.98564
#
# Poissons Ratio (x) = 0.11098 0.20770
# Poissons Ratio (y) = 0.05626 0.13187
# Poissons Ratio (z) = 0.12074 0.15121
#
# Static dielectric constant tensor:
#      x y z
#    x 1.876790 -0.000650 -0.035040 
#    y -0.000650 1.843680 0.012420 
#    z -0.035040 0.012420 1.857970 
# 
# From -- ./inp_files/135798.got.cif
#   From: 2010.05.17/outbox.cif.g08.bks.cpg/sg2_68_cif.got.tgz:135798.got - 2010.06.03 11:33:40.
