data_PCOD9051123
_publ_section_title
;
Structure prediction by ZEFSAII (Michael W. Deem and Ramdas Pophale) SiO2 
 PCOD9051123
Probable space group: P -1
;
_chemical_formula_sum "Si O2"
_cell_formula_units_Z 13
_cell_length_a 6.414396
_cell_length_b 17.086756
_cell_length_c 16.340381
_cell_angle_alpha 23.115186
_cell_angle_beta 116.830962
_cell_angle_gamma 124.062857
_cell_volume 571.141966
_symmetry_space_group_name_H-M "P -1"
_symmetry_group_IT_number 2
_symmetry_cell_setting 'triclinic'
loop_
_space_group_symop_operation_xyz
x,y,z
-x,-y,-z
loop_
_atom_site_type_symbol
_atom_site_label
_atom_site_fract_x
_atom_site_fract_y
_atom_site_fract_z
Si Si1 0.157824 0.645754 0.209049
Si Si2 0.701971 0.704446 0.998684
Si Si3 0.516706 0.971903 0.829881
Si Si4 0.159132 0.361991 0.184258
Si Si5 0.037825 0.011277 0.628162
Si Si6 0.500000 0.500000 0.500000
Si Si7 0.016693 0.772089 0.237787
O O1 0.289369 0.480373 0.406442
O O2 0.113527 0.712973 0.227677
O O3 0.365445 0.857622 0.995451
O O4 0.896023 0.595984 0.162492
O O5 0.603035 0.799711 0.965921
O O6 0.859298 0.916169 0.766760
O O7 0.456127 0.525544 0.083208
O O8 0.316919 0.020609 0.691403
O O9 0.765787 0.182573 0.698411
O O10 0.094195 0.174480 0.285203
O O11 0.074138 0.239558 0.374397
O O12 0.000000 0.500000 0.000000
O O13 0.738520 0.610984 0.372558
O O14 0.000000 0.000000 0.000000
#
# Coordination Sequence:
#
# PCOD9051123 Si02
#       7
#     2   2   2   2   2   1   2
#     4  11  24  45  66  97 141 182 234 276 341 405
#     4  11  23  45  68 102 138 179 229 289 344 409
#     4  11  23  45  68  99 136 181 232 288 344 404
#     4  11  23  47  73  98 141 177 227 286 348 422
#     4  10  25  45  70 103 135 183 228 280 355 417
#     4  12  26  40  66 100 132 186 238 272 342 402
#     4  12  24  44  67  95 139 185 225 287 337 403
#
# _framework density 22.761416000000001
#
# number of rings (size 3 to 8) (size 9 to 14) (size 15 to 20)
#    0.000    0.923    4.615    1.385    2.154    0.615 
#    8.308    0.000    0.000    0.000    0.000    0.000 
#    0.000    0.000    0.000    0.000    0.000    0.000 
#
# Total GULP energy -72453.202107 kJ/mol
# GULP energy per Si atom -5573.323239 kJ/mol
# Density = 2.270961 g / cm^3
# Si number density = 22.761416 Si / 1000 Ang^3
#
#
#
# Elastic Constant Matrix: (Units=GPa)
#
#
# Indices 1 2 3 4 5 6 
#
# 1 135.8542 66.2207 51.1508 4.8534 -28.4300 32.3481
# 2 66.2207 98.8493 14.6290 13.7062 -8.2059 40.4643
# 3 51.1508 14.6290 101.3870 33.3447 5.2382 15.7922
# 4 4.8534 13.7062 33.3447 32.9006 2.2835 5.0496
# 5 -28.4300 -8.2059 5.2382 2.2835 33.0879 13.1687
# 6 32.3481 40.4643 15.7922 5.0496 13.1687 55.8752
#
#
#
# Elastic Compliance Matrix: (Units=1/GPa)
#
#
# Indices 1 2 3 4 5 6 
#
# 1 0.026728 -0.011871 -0.017744 0.018690 0.025330 -0.009521
# 2 -0.011871 0.023492 0.009668 -0.016072 -0.000276 -0.011355
# 3 -0.017744 0.009668 0.027218 -0.028178 -0.015964 0.001887
# 4 0.018690 -0.016072 -0.028178 0.062000 0.012126 0.000322
# 5 0.025330 -0.000276 -0.015964 0.012126 0.064010 -0.026135
# 6 -0.009521 -0.011355 0.001887 0.000322 -0.026135 0.037229
#
#
# Mechanical properties :
#
#
# Convention : Reuss Voigt Hill
#
# Bulk Modulus (GPa) = 26.63476 66.67685 46.65581
# Shear Modulus (GPa) = 17.05975 37.97873 27.51924
#
# Velocity S-wave (km/s) = 2.74068 4.08923 3.48088
# Velocity P-wave (km/s) = 4.66285 7.18701 6.05786
#
# Compressibility (1/GPa) = 0.03754492
#
# Stress axis : x y z
#
# Youngs Moduli (GPa) = 37.41355 42.56753 36.73979
#
# Poissons Ratio (x) = 0.50532 0.65192
# Poissons Ratio (y) = 0.44413 -0.35521
# Poissons Ratio (z) = 0.66388 -0.41156
#
# Static dielectric constant tensor:
#      x y z
#    x 1.808150 -0.014620 0.010490 
#    y -0.014620 1.841310 0.015410 
#    z 0.010490 0.015410 1.860530 
# 
# From -- ./inp_files/483786.got.cif
#   From: 2010.05.17/outbox.cif.g08.bks.cpg/sg2_242_cif.got.tgz:483786.got - 2010.06.03 11:33:40.
