data_PCOD9051661
_publ_section_title
;
Structure prediction by ZEFSAII (Michael W. Deem and Ramdas Pophale) SiO2 
 PCOD9051661
Probable space group: P -1
;
_chemical_formula_sum "Si O2"
_cell_formula_units_Z 14
_cell_length_a 15.642118
_cell_length_b 7.299777
_cell_length_c 7.083969
_cell_angle_alpha 122.258215
_cell_angle_beta 113.950513
_cell_angle_gamma 88.710816
_cell_volume 605.078023
_symmetry_space_group_name_H-M "P -1"
_symmetry_group_IT_number 2
_symmetry_cell_setting 'triclinic'
loop_
_space_group_symop_operation_xyz
x,y,z
-x,-y,-z
loop_
_atom_site_type_symbol
_atom_site_label
_atom_site_fract_x
_atom_site_fract_y
_atom_site_fract_z
Si Si1 0.706613 0.215575 0.435743
Si Si2 0.540274 0.875942 0.299477
Si Si3 0.949872 0.792615 0.972877
Si Si4 0.991451 0.347714 0.664617
Si Si5 0.823302 0.044620 0.139486
Si Si6 0.787718 0.396554 0.010869
Si Si7 0.642610 0.495582 0.217299
O O1 0.760877 0.062253 0.277283
O O2 0.693449 0.410673 0.392241
O O3 0.603301 0.062109 0.321592
O O4 0.761250 0.315176 0.730294
O O5 0.609668 0.721494 0.347243
O O6 0.500000 0.000000 0.500000
O O7 0.451795 0.704085 0.023739
O O8 0.943358 0.556569 0.737601
O O9 0.014801 0.770467 0.201962
O O10 0.845637 0.819171 0.961372
O O11 0.000000 0.000000 0.000000
O O12 0.104827 0.445454 0.787423
O O13 0.931930 0.178587 0.368955
O O14 0.785746 0.175765 0.011967
O O15 0.711604 0.512007 0.105493
#
# Coordination Sequence:
#
# PCOD9051661 Si02
#       7
#     2   2   2   2   2   2   2
#     4  11  24  46  69 103 139 173 225 279 335 405
#     4  11  23  49  76  99 136 174 219 279 343 410
#     4  11  23  41  67  96 127 182 236 275 331 391
#     4  11  24  45  65  95 139 185 226 280 329 387
#     4  11  25  45  67  97 139 185 229 276 333 393
#     4  11  23  46  67 100 141 172 233 279 329 404
#     4  10  25  47  71 105 132 176 220 277 344 404
#
# _framework density 23.137513999999999
#
# number of rings (size 3 to 8) (size 9 to 14) (size 15 to 20)
#    0.000    1.143    2.857    3.000    2.000    0.571 
#   10.286    0.000    0.000    0.000    0.000    0.000 
#    0.000    0.000    0.000    0.000    0.000    0.000 
#
# Total GULP energy -78410.230930 kJ/mol
# GULP energy per Si atom -5600.730781 kJ/mol
# Density = 2.308485 g / cm^3
# Si number density = 23.137514 Si / 1000 Ang^3
#
#
#
# Elastic Constant Matrix: (Units=GPa)
#
#
# Indices 1 2 3 4 5 6 
#
# 1 161.0983 36.1206 34.6980 11.5127 -26.1439 2.9630
# 2 36.1206 104.7072 22.7030 3.7733 -17.2148 0.8496
# 3 34.6980 22.7030 66.2755 0.0212 1.7764 30.0561
# 4 11.5127 3.7733 0.0212 27.6767 -3.3964 -18.6017
# 5 -26.1439 -17.2148 1.7764 -3.3964 30.2263 -12.1506
# 6 2.9630 0.8496 30.0561 -18.6017 -12.1506 12.9828
#
#
#
# Elastic Compliance Matrix: (Units=1/GPa)
#
#
# Indices 1 2 3 4 5 6 
#
# 1 0.007866 -0.001714 -0.001101 -0.006391 0.002952 -0.005528
# 2 -0.001714 0.010557 0.000181 -0.004908 0.001366 -0.006471
# 3 -0.001101 0.000181 0.004845 0.017202 0.010090 0.023113
# 4 -0.006391 -0.004908 0.017202 0.019941 -0.017476 -0.025829
# 5 0.002952 0.001366 0.010090 -0.017476 0.022598 -0.028012
# 6 -0.005528 -0.006471 0.023113 -0.025829 -0.028012 -0.038023
#
#
# Mechanical properties :
#
#
# Convention : Reuss Voigt Hill
#
# Bulk Modulus (GPa) = 55.55971 57.68046 56.62009
# Shear Modulus (GPa) = 128.02772 30.08112 79.05442
#
# Velocity S-wave (km/s) = 7.44671 3.60960 5.85161
# Velocity P-wave (km/s) = 9.89965 6.50814 8.37732
#
# Compressibility (1/GPa) = 0.01799865
#
# Stress axis : x y z
#
# Youngs Moduli (GPa) = 127.12313 94.72685 206.38732
#
# Poissons Ratio (x) = 0.16240 0.22726
# Poissons Ratio (y) = 0.21794 -0.03730
# Poissons Ratio (z) = 0.13998 -0.01712
#
# Static dielectric constant tensor:
#      x y z
#    x 1.892830 -0.005780 -0.032720 
#    y -0.005780 1.869770 0.006500 
#    z -0.032720 0.006500 1.885710 
# 
# From -- ./inp_files/91205.got.cif
#   From: 2010.05.17/outbox.cif.g08.bks.cpg/sg2_46_cif.got.tgz:91205.got - 2010.06.03 11:33:40.
