data_PCOD9051987
_publ_section_title
;
Structure prediction by ZEFSAII (Michael W. Deem and Ramdas Pophale) SiO2 
 PCOD9051987
Probable space group: P -1
;
_chemical_formula_sum "Si O2"
_cell_formula_units_Z 16
_cell_length_a 19.749599
_cell_length_b 5.963951
_cell_length_c 10.587007
_cell_angle_alpha 113.323146
_cell_angle_beta 42.242137
_cell_angle_gamma 126.872979
_cell_volume 667.912992
_symmetry_space_group_name_H-M "P -1"
_symmetry_group_IT_number 2
_symmetry_cell_setting 'triclinic'
loop_
_space_group_symop_operation_xyz
x,y,z
-x,-y,-z
loop_
_atom_site_type_symbol
_atom_site_label
_atom_site_fract_x
_atom_site_fract_y
_atom_site_fract_z
Si Si1 0.603142 0.675535 0.992681
Si Si2 0.427205 0.746313 0.392189
Si Si3 0.946355 0.663048 0.023965
Si Si4 0.226263 0.378767 0.084282
Si Si5 0.815392 0.698611 0.435379
Si Si6 0.825577 0.165810 0.672495
Si Si7 0.424062 0.647441 0.663147
Si Si8 0.042829 0.760911 0.253786
O O1 0.696981 0.967946 0.864949
O O2 0.500000 0.500000 0.000000
O O3 0.536115 0.699073 0.211984
O O4 0.683684 0.564691 0.913628
O O5 0.318068 0.530840 0.411967
O O6 0.398266 0.722355 0.575223
O O7 0.481630 0.061695 0.337682
O O8 0.840129 0.623040 0.246260
O O9 0.932793 0.491096 0.877043
O O10 0.000000 0.500000 0.000000
O O11 0.000000 0.000000 0.000000
O O12 0.307325 0.495328 0.873670
O O13 0.158480 0.529414 0.266023
O O14 0.134603 0.047611 0.118576
O O15 0.912474 0.683354 0.383424
O O16 0.829837 0.007068 0.505509
O O17 0.919126 0.164419 0.638355
O O18 0.500000 0.500000 0.500000
#
# Coordination Sequence:
#
# PCOD9051987 Si02
#       8
#     2   2   2   2   2   2   2   2
#     4  11  22  45  65  99 143 179 240 297 367 432
#     4  11  24  42  70 102 143 184 239 308 363 440
#     4  10  25  49  73 104 144 194 249 310 362 433
#     4  11  25  44  74 105 139 198 237 304 373 445
#     4  11  25  47  69 109 144 194 246 303 373 447
#     4  11  24  45  73 102 145 194 239 302 369 454
#     4  11  24  43  69 103 141 185 246 300 370 438
#     4  10  26  47  74 102 148 191 246 300 375 444
#
# _framework density 23.955217999999999
#
# number of rings (size 3 to 8) (size 9 to 14) (size 15 to 20)
#    0.000    1.250    3.750    0.375    7.000    1.000 
#   13.500    0.000    0.000    0.000    0.000    0.000 
#    0.000    0.000    0.000    0.000    0.000    0.000 
#
# Total GULP energy -89238.813639 kJ/mol
# GULP energy per Si atom -5577.425852 kJ/mol
# Density = 2.390069 g / cm^3
# Si number density = 23.955218 Si / 1000 Ang^3
#
#
#
# Elastic Constant Matrix: (Units=GPa)
#
#
# Indices 1 2 3 4 5 6 
#
# 1 67.8170 35.1619 15.9209 -10.6454 -14.8162 18.9773
# 2 35.1619 149.8161 59.5016 8.4683 -14.3611 3.6794
# 3 15.9209 59.5016 130.8504 1.3062 -9.2701 1.3008
# 4 -10.6454 8.4683 1.3062 51.4661 3.1040 -1.9339
# 5 -14.8162 -14.3611 -9.2701 3.1040 36.8232 -0.8794
# 6 18.9773 3.6794 1.3008 -1.9339 -0.8794 31.8684
#
#
#
# Elastic Compliance Matrix: (Units=1/GPa)
#
#
# Indices 1 2 3 4 5 6 
#
# 1 0.022899 -0.004635 -0.000126 0.004625 0.006683 -0.012631
# 2 -0.004635 0.009406 -0.003626 -0.002419 0.001135 0.001707
# 3 -0.000126 -0.003626 0.009364 0.000286 0.000872 0.000153
# 4 0.004625 -0.002419 0.000286 0.020778 -0.000792 -0.001247
# 5 0.006683 0.001135 0.000872 -0.000792 0.030495 -0.003353
# 6 -0.012631 0.001707 0.000153 -0.001247 -0.003353 0.038529
#
#
# Mechanical properties :
#
#
# Convention : Reuss Voigt Hill
#
# Bulk Modulus (GPa) = 40.16728 63.29473 51.73100
# Shear Modulus (GPa) = 31.94022 39.89147 35.91584
#
# Velocity S-wave (km/s) = 3.65544 4.08518 3.87627
# Velocity P-wave (km/s) = 5.88391 6.98076 6.45567
#
# Compressibility (1/GPa) = 0.02489589
#
# Stress axis : x y z
#
# Youngs Moduli (GPa) = 43.67076 106.31086 106.79456
#
# Poissons Ratio (x) = 0.49275 0.01341
# Poissons Ratio (y) = 0.20242 0.38721
# Poissons Ratio (z) = 0.00549 0.38546
#
# Static dielectric constant tensor:
#      x y z
#    x 2.020710 -0.112730 -0.014950 
#    y -0.112730 2.009820 0.046130 
#    z -0.014950 0.046130 2.018760 
# 
# From -- ./inp_files/468466.got.cif
#   From: 2010.05.17/outbox.cif.g08.bks.cpg/sg2_235_cif.got.tgz:468466.got - 2010.06.03 11:33:40.
