data_PCOD9051986
_publ_section_title
;
Structure prediction by ZEFSAII (Michael W. Deem and Ramdas Pophale) SiO2 
 PCOD9051986
Probable space group: P -1
;
_chemical_formula_sum "Si O2"
_cell_formula_units_Z 14
_cell_length_a 14.061615
_cell_length_b 5.005271
_cell_length_c 13.851457
_cell_angle_alpha 107.054217
_cell_angle_beta 132.048724
_cell_angle_gamma 102.752735
_cell_volume 560.001040
_symmetry_space_group_name_H-M "P -1"
_symmetry_group_IT_number 2
_symmetry_cell_setting 'triclinic'
loop_
_space_group_symop_operation_xyz
x,y,z
-x,-y,-z
loop_
_atom_site_type_symbol
_atom_site_label
_atom_site_fract_x
_atom_site_fract_y
_atom_site_fract_z
Si Si1 0.405852 0.512478 0.349519
Si Si2 0.381075 0.506877 0.992748
Si Si3 0.280025 0.806284 0.416916
Si Si4 0.205616 0.018905 0.998474
Si Si5 0.312354 0.908123 0.659032
Si Si6 0.819311 0.672221 0.342921
Si Si7 0.995918 0.683389 0.114294
O O1 0.500000 0.500000 0.500000
O O2 0.275978 0.546922 0.312026
O O3 0.537953 0.861668 0.421707
O O4 0.327044 0.204450 0.189282
O O5 0.499960 0.872659 0.166908
O O6 0.500000 0.500000 0.000000
O O7 0.298440 0.199877 0.981934
O O8 0.250228 0.454678 0.824890
O O9 0.248937 0.694132 0.494444
O O10 0.167151 0.894134 0.303510
O O11 0.079123 0.110909 0.931741
O O12 0.114024 0.617938 0.914525
O O13 0.216646 0.648854 0.654149
O O14 0.274996 0.190307 0.657308
O O15 0.000000 0.000000 0.500000
O O16 0.000000 0.500000 0.000000
#
# Coordination Sequence:
#
# PCOD9051986 Si02
#       7
#     2   2   2   2   2   2   2
#     4  11  25  44  73 101 143 188 236 286 346 430
#     4  10  25  49  73 102 140 188 241 298 351 417
#     4  11  26  43  69 105 141 187 234 288 351 426
#     4  12  27  47  73 105 144 193 240 289 361 424
#     4  11  25  45  71 100 138 182 227 289 351 411
#     4  11  26  45  71 102 138 177 233 288 350 416
#     4  12  27  46  71 104 151 191 233 291 359 427
#
# _framework density 24.999955
#
# number of rings (size 3 to 8) (size 9 to 14) (size 15 to 20)
#    0.000    0.857    2.857    2.143   10.000    4.571 
#    0.000    0.000    0.000    0.000    0.000    0.000 
#    0.000    0.000    0.000    0.000    0.000    0.000 
#
# Total GULP energy -78451.522794 kJ/mol
# GULP energy per Si atom -5603.680200 kJ/mol
# Density = 2.494305 g / cm^3
# Si number density = 24.999955 Si / 1000 Ang^3
#
#
#
# Elastic Constant Matrix: (Units=GPa)
#
#
# Indices 1 2 3 4 5 6 
#
# 1 81.7546 6.8017 36.9977 -4.0990 -9.0018 11.3131
# 2 6.8017 77.8875 11.7298 -7.4438 3.2655 15.8604
# 3 36.9977 11.7298 146.1595 -20.4537 3.8918 13.4390
# 4 -4.0990 -7.4438 -20.4537 40.5930 5.6893 0.0466
# 5 -9.0018 3.2655 3.8918 5.6893 30.1630 -3.2142
# 6 11.3131 15.8604 13.4390 0.0466 -3.2142 41.9904
#
#
#
# Elastic Compliance Matrix: (Units=1/GPa)
#
#
# Indices 1 2 3 4 5 6 
#
# 1 0.014786 -0.000605 -0.003800 -0.001227 0.004970 -0.002157
# 2 -0.000605 0.014421 -0.000002 0.002994 -0.002893 -0.005508
# 3 -0.003800 -0.000002 0.008703 0.004468 -0.003315 -0.002020
# 4 -0.001227 0.002994 0.004468 0.028281 -0.006898 -0.002790
# 5 0.004970 -0.002893 -0.003315 -0.006898 0.037069 0.003660
# 6 -0.002157 -0.005508 -0.002020 -0.002790 0.003660 0.027406
#
#
# Mechanical properties :
#
#
# Convention : Reuss Voigt Hill
#
# Bulk Modulus (GPa) = 34.36801 46.31777 40.34289
# Shear Modulus (GPa) = 33.51675 39.23413 36.37544
#
# Velocity S-wave (km/s) = 3.66549 3.96582 3.81861
# Velocity P-wave (km/s) = 5.62952 6.28790 5.96780
#
# Compressibility (1/GPa) = 0.02909682
#
# Stress axis : x y z
#
# Youngs Moduli (GPa) = 67.63180 69.34188 114.90162
#
# Poissons Ratio (x) = 0.04197 0.43661
# Poissons Ratio (y) = 0.04094 0.00018
# Poissons Ratio (z) = 0.25699 0.00011
#
# Static dielectric constant tensor:
#      x y z
#    x 2.078620 0.016430 -0.000720 
#    y 0.016430 1.974330 0.007200 
#    z -0.000720 0.007200 1.954680 
# 
# From -- ./inp_files/27474.got.cif
#   From: 2010.05.17/outbox.cif.g08.bks.cpg/sg2_14_cif.got.tgz:27474.got - 2010.06.03 11:33:40.
