data_PCOD9051122
_publ_section_title
;
Structure prediction by ZEFSAII (Michael W. Deem and Ramdas Pophale) SiO2 
 PCOD9051122
Probable space group: P -1
;
_chemical_formula_sum "Si O2"
_cell_formula_units_Z 16
_cell_length_a 8.890191
_cell_length_b 8.952360
_cell_length_c 14.226059
_cell_angle_alpha 74.710750
_cell_angle_beta 42.121484
_cell_angle_gamma 67.637116
_cell_volume 701.965076
_symmetry_space_group_name_H-M "P -1"
_symmetry_group_IT_number 2
_symmetry_cell_setting 'triclinic'
loop_
_space_group_symop_operation_xyz
x,y,z
-x,-y,-z
loop_
_atom_site_type_symbol
_atom_site_label
_atom_site_fract_x
_atom_site_fract_y
_atom_site_fract_z
Si Si1 0.952543 0.961814 0.420570
Si Si2 0.599574 0.598062 0.631848
Si Si3 0.862199 0.499695 0.161173
Si Si4 0.554694 0.026746 0.329807
Si Si5 0.371322 0.933958 0.925960
Si Si6 0.001990 0.765606 0.162338
Si Si7 0.928134 0.393190 0.658030
Si Si8 0.815236 0.829671 0.855713
O O1 0.674264 0.017928 0.523623
O O2 0.036489 0.768370 0.395258
O O3 0.000000 0.000000 0.500000
O O4 0.078580 0.053253 0.275883
O O5 0.402698 0.508228 0.723960
O O6 0.475006 0.788208 0.661308
O O7 0.733731 0.538061 0.677293
O O8 0.820227 0.569239 0.463278
O O9 0.876614 0.660667 0.178005
O O10 0.005054 0.342860 0.179664
O O11 0.000000 0.500000 0.000000
O O12 0.559107 0.015758 0.215849
O O13 0.794880 0.911196 0.275870
O O14 0.588901 0.822653 0.902061
O O15 0.176938 0.841504 0.013617
O O16 0.265385 0.083424 0.021018
O O17 0.136240 0.655579 0.202389
#
# Coordination Sequence:
#
# PCOD9051122 Si02
#       8
#     2   2   2   2   2   2   2   2
#     4  11  23  43  73 103 139 178 233 281 347 412
#     4  10  25  46  70  95 147 176 232 276 353 407
#     4  12  28  44  68 101 142 181 232 290 346 404
#     4  11  24  43  72 100 137 183 226 285 346 405
#     4  11  23  44  69 100 138 182 229 280 344 419
#     4  12  26  42  73 101 139 176 237 285 345 400
#     4  10  25  45  70 103 134 188 222 288 340 416
#     4  11  25  43  71 102 139 184 233 283 344 417
#
# _framework density 22.793157999999998
#
# number of rings (size 3 to 8) (size 9 to 14) (size 15 to 20)
#    0.000    1.000    2.500    2.625    7.000    3.000 
#    0.000    0.000    0.000    0.000    0.000    0.000 
#    0.000    0.000    0.000    0.000    0.000    0.000 
#
# Total GULP energy -89608.084234 kJ/mol
# GULP energy per Si atom -5600.505265 kJ/mol
# Density = 2.274128 g / cm^3
# Si number density = 22.793158 Si / 1000 Ang^3
#
#
#
# Elastic Constant Matrix: (Units=GPa)
#
#
# Indices 1 2 3 4 5 6 
#
# 1 66.0698 30.6535 31.1296 -6.1469 -16.1584 16.0799
# 2 30.6535 77.5869 22.0007 -8.5099 -22.0888 -2.3797
# 3 31.1296 22.0007 81.4957 -11.3003 -14.5115 12.7123
# 4 -6.1469 -8.5099 -11.3003 18.1878 2.2299 -3.3171
# 5 -16.1584 -22.0888 -14.5115 2.2299 50.2868 -5.2872
# 6 16.0799 -2.3797 12.7123 -3.3171 -5.2872 42.3759
#
#
#
# Elastic Compliance Matrix: (Units=1/GPa)
#
#
# Indices 1 2 3 4 5 6 
#
# 1 0.023409 -0.007435 -0.005513 -0.000586 0.001907 -0.007454
# 2 -0.007435 0.018596 -0.001205 0.005718 0.005745 0.005392
# 3 -0.005513 -0.001205 0.016350 0.007120 0.001882 -0.002088
# 4 -0.000586 0.005718 0.007120 0.062283 0.001987 0.003531
# 5 0.001907 0.005745 0.001882 0.001987 0.023703 0.002147
# 6 -0.007454 0.005392 -0.002088 0.003531 0.002147 0.027900
#
#
# Mechanical properties :
#
#
# Convention : Reuss Voigt Hill
#
# Bulk Modulus (GPa) = 33.28082 43.63555 38.45819
# Shear Modulus (GPa) = 23.74561 31.59465 27.67013
#
# Velocity S-wave (km/s) = 3.23117 3.72714 3.48798
# Velocity P-wave (km/s) = 5.34356 6.14067 5.75593
#
# Compressibility (1/GPa) = 0.03004733
#
# Stress axis : x y z
#
# Youngs Moduli (GPa) = 42.71887 53.77450 61.16197
#
# Poissons Ratio (x) = 0.39982 0.33721
# Poissons Ratio (y) = 0.31762 0.07372
# Poissons Ratio (z) = 0.23553 0.06482
#
# Static dielectric constant tensor:
#      x y z
#    x 1.854350 0.015950 0.004620 
#    y 0.015950 1.808740 0.019760 
#    z 0.004620 0.019760 1.836780 
# 
# From -- ./inp_files/205420.got.cif
#   From: 2010.05.17/outbox.cif.g08.bks.cpg/sg2_103_cif.got.tgz:205420.got - 2010.06.03 11:33:40.
