data_PCOD9051374
_publ_section_title
;
Structure prediction by ZEFSAII (Michael W. Deem and Ramdas Pophale) SiO2 
 PCOD9051374
Probable space group: P -1
;
_chemical_formula_sum "Si O2"
_cell_formula_units_Z 12
_cell_length_a 5.176227
_cell_length_b 16.400421
_cell_length_c 15.918083
_cell_angle_alpha 153.802810
_cell_angle_beta 129.008643
_cell_angle_gamma 57.762068
_cell_volume 461.616256
_symmetry_space_group_name_H-M "P -1"
_symmetry_group_IT_number 2
_symmetry_cell_setting 'triclinic'
loop_
_space_group_symop_operation_xyz
x,y,z
-x,-y,-z
loop_
_atom_site_type_symbol
_atom_site_label
_atom_site_fract_x
_atom_site_fract_y
_atom_site_fract_z
Si Si1 0.772346 0.823246 0.822564
Si Si2 0.175130 0.468802 0.748869
Si Si3 0.309853 0.168371 0.812909
Si Si4 0.592036 0.142755 0.576273
Si Si5 0.669434 0.878830 0.032699
Si Si6 0.601541 0.509526 0.368660
O O1 0.860063 0.811613 0.927934
O O2 0.715716 0.632669 0.585124
O O3 0.419021 0.917228 0.822586
O O4 0.000000 0.000000 0.000000
O O5 0.354464 0.305816 0.678916
O O6 0.200730 0.427805 0.616495
O O7 0.797753 0.475010 0.709608
O O8 0.413217 0.660074 0.985043
O O9 0.978981 0.211156 0.734385
O O10 0.433082 0.979275 0.626423
O O11 0.215874 0.129448 0.855506
O O12 0.500000 0.000000 0.500000
O O13 0.373721 0.709561 0.816340
#
# Coordination Sequence:
#
# PCOD9051374 Si02
#       6
#     2   2   2   2   2   2
#     4  11  26  43  74 103 142 183 238 292 351 421
#     4  11  27  46  73 105 145 187 235 288 352 424
#     4  10  25  46  69 103 139 189 233 292 352 419
#     4  11  26  43  75 102 143 182 238 294 352 422
#     4  10  25  46  69 101 141 185 235 289 350 417
#     4  11  27  46  74 104 145 188 234 289 351 424
#
# _framework density 25.995618
#
# number of rings (size 3 to 8) (size 9 to 14) (size 15 to 20)
#    0.000    1.333    0.000    2.000   21.000    1.333 
#    0.000    0.000    0.000    0.000    0.000    0.000 
#    0.000    0.000    0.000    0.000    0.000    0.000 
#
# Total GULP energy -67223.410619 kJ/mol
# GULP energy per Si atom -5601.950885 kJ/mol
# Density = 2.593645 g / cm^3
# Si number density = 25.995618 Si / 1000 Ang^3
#
#
#
# Elastic Constant Matrix: (Units=GPa)
#
#
# Indices 1 2 3 4 5 6 
#
# 1 79.7331 14.8096 24.6379 -12.4245 0.5617 1.5465
# 2 14.8096 121.6280 51.6009 17.5569 -7.9079 -9.0489
# 3 24.6379 51.6009 149.2301 -17.5334 -18.7163 -5.5626
# 4 -12.4245 17.5569 -17.5334 32.1598 2.4348 -10.2332
# 5 0.5617 -7.9079 -18.7163 2.4348 47.7198 -7.6696
# 6 1.5465 -9.0489 -5.5626 -10.2332 -7.6696 57.2009
#
#
#
# Elastic Compliance Matrix: (Units=1/GPa)
#
#
# Indices 1 2 3 4 5 6 
#
# 1 0.014272 -0.002331 -0.000947 0.006406 -0.001231 0.000134
# 2 -0.002331 0.012122 -0.004962 -0.010355 0.000574 -0.000277
# 3 -0.000947 -0.004962 0.009998 0.008230 0.003026 0.002091
# 4 0.006406 -0.010355 0.008230 0.045997 0.000255 0.007252
# 5 -0.001231 0.000574 0.003026 0.000255 0.022805 0.003522
# 6 0.000134 -0.000277 0.002091 0.007252 0.003522 0.019408
#
#
# Mechanical properties :
#
#
# Convention : Reuss Voigt Hill
#
# Bulk Modulus (GPa) = 50.22056 59.18756 54.70406
# Shear Modulus (GPa) = 33.84831 44.71895 39.28363
#
# Velocity S-wave (km/s) = 3.61235 4.15209 3.89159
# Velocity P-wave (km/s) = 6.06296 6.76788 6.42509
#
# Compressibility (1/GPa) = 0.01991216
#
# Stress axis : x y z
#
# Youngs Moduli (GPa) = 70.06914 82.49468 100.02473
#
# Poissons Ratio (x) = 0.19226 0.09474
# Poissons Ratio (y) = 0.16330 0.49630
# Poissons Ratio (z) = 0.06637 0.40932
#
# Static dielectric constant tensor:
#      x y z
#    x 2.274940 -0.076810 0.011940 
#    y -0.076810 2.091130 -0.014320 
#    z 0.011940 -0.014320 2.013300 
# 
# From -- ./inp_files/31460.got.cif
#   From: 2010.05.17/outbox.cif.g08.bks.cpg/sg2_16_cif.got.tgz:31460.got - 2010.06.03 11:33:40.
