data_PCOD9051468
_publ_section_title
;
Structure prediction by ZEFSAII (Michael W. Deem and Ramdas Pophale) SiO2 
 PCOD9051468
Probable space group: P -1
;
_chemical_formula_sum "Si O2"
_cell_formula_units_Z 16
_cell_length_a 20.161627
_cell_length_b 5.734118
_cell_length_c 9.159279
_cell_angle_alpha 97.540867
_cell_angle_beta 73.226620
_cell_angle_gamma 131.091789
_cell_volume 761.581028
_symmetry_space_group_name_H-M "P -1"
_symmetry_group_IT_number 2
_symmetry_cell_setting 'triclinic'
loop_
_space_group_symop_operation_xyz
x,y,z
-x,-y,-z
loop_
_atom_site_type_symbol
_atom_site_label
_atom_site_fract_x
_atom_site_fract_y
_atom_site_fract_z
Si Si1 0.254607 0.315156 0.484284
Si Si2 0.601940 0.716408 0.139515
Si Si3 0.677912 0.418593 0.225721
Si Si4 0.614217 0.723831 0.791077
Si Si5 0.910451 0.351041 0.448884
Si Si6 0.033045 0.351633 0.874164
Si Si7 0.773274 0.380211 0.712696
Si Si8 0.148220 0.332494 0.006933
O O1 0.305872 0.547295 0.607364
O O2 0.329972 0.314568 0.360327
O O3 0.218579 0.375842 0.371958
O O4 0.158094 0.008145 0.585479
O O5 0.625269 0.540843 0.214109
O O6 0.492456 0.506702 0.192435
O O7 0.642309 0.072020 0.177577
O O8 0.627634 0.701776 0.954046
O O9 0.776162 0.671111 0.106276
O O10 0.665868 0.084172 0.761468
O O11 0.945072 0.550056 0.297797
O O12 0.838843 0.340849 0.588215
O O13 0.000000 0.500000 0.500000
O O14 0.122727 0.454763 0.905463
O O15 0.948033 0.986907 0.908644
O O16 0.000000 0.500000 0.000000
O O17 0.807467 0.462708 0.861406
#
# Coordination Sequence:
#
# PCOD9051468 Si02
#       8
#     2   2   2   2   2   2   2   2
#     4  11  26  42  70 100 141 184 231 295 349 425
#     4  11  27  47  75 106 139 188 234 293 352 425
#     4  12  27  45  74 106 146 183 234 293 357 415
#     4  10  25  46  72 101 139 181 237 287 351 425
#     4  11  24  41  64  97 136 182 231 291 347 422
#     4  11  24  40  65  94 136 177 235 289 349 416
#     4  11  23  43  67  95 135 180 232 285 352 416
#     4  11  24  41  67  98 132 185 231 292 346 420
#
# _framework density 21.008925000000001
#
# number of rings (size 3 to 8) (size 9 to 14) (size 15 to 20)
#    0.000    1.000    1.250    3.750    8.750    8.000 
#    0.000    0.000    0.000    0.000    0.000    0.000 
#    0.000    0.000    0.000    0.000    0.000    0.000 
#
# Total GULP energy -89175.644388 kJ/mol
# GULP energy per Si atom -5573.477774 kJ/mol
# Density = 2.096111 g / cm^3
# Si number density = 21.008925 Si / 1000 Ang^3
#
#
#
# Elastic Constant Matrix: (Units=GPa)
#
#
# Indices 1 2 3 4 5 6 
#
# 1 98.4338 41.2113 33.6699 2.5413 20.2387 16.6363
# 2 41.2113 84.9245 44.0738 3.3020 3.8601 15.8784
# 3 33.6699 44.0738 129.2322 4.6180 11.0047 20.1635
# 4 2.5413 3.3020 4.6180 33.0312 3.9515 -0.8655
# 5 20.2387 3.8601 11.0047 3.9515 29.7700 -3.9853
# 6 16.6363 15.8784 20.1635 -0.8655 -3.9853 23.8849
#
#
#
# Elastic Compliance Matrix: (Units=1/GPa)
#
#
# Indices 1 2 3 4 5 6 
#
# 1 0.016657 -0.005803 0.000191 0.000451 -0.012027 -0.009896
# 2 -0.005803 0.017265 -0.004015 -0.001155 0.002861 -0.003611
# 3 0.000191 -0.004015 0.010572 -0.000755 -0.004374 -0.007146
# 4 0.000451 -0.001155 -0.000755 0.030954 -0.003775 0.001583
# 5 -0.012027 0.002861 -0.004374 -0.003775 0.045882 0.017686
# 6 -0.009896 -0.003611 -0.007146 0.001583 0.017686 0.060201
#
#
# Mechanical properties :
#
#
# Convention : Reuss Voigt Hill
#
# Bulk Modulus (GPa) = 39.61951 61.16675 50.39313
# Shear Modulus (GPa) = 23.90082 30.24625 27.07353
#
# Velocity S-wave (km/s) = 3.37657 3.79844 3.59370
# Velocity P-wave (km/s) = 5.83960 6.95811 6.42325
#
# Compressibility (1/GPa) = 0.02524009
#
# Stress axis : x y z
#
# Youngs Moduli (GPa) = 60.03508 57.92082 94.59055
#
# Poissons Ratio (x) = 0.33612 -0.01810
# Poissons Ratio (y) = 0.34839 0.37980
# Poissons Ratio (z) = -0.01149 0.23256
#
# Static dielectric constant tensor:
#      x y z
#    x 1.754390 -0.063160 -0.003250 
#    y -0.063160 1.798140 0.022200 
#    z -0.003250 0.022200 1.723570 
# 
# From -- ./inp_files/38756.got.cif
#   From: 2010.05.17/outbox.cif.g08.bks.cpg/sg2_20_cif.got.tgz:38756.got - 2010.06.03 11:33:40.
