data_PCOD9051829
_publ_section_title
;
Structure prediction by ZEFSAII (Michael W. Deem and Ramdas Pophale) SiO2 
 PCOD9051829
Probable space group: P -1
;
_chemical_formula_sum "Si O2"
_cell_formula_units_Z 12
_cell_length_a 9.128855
_cell_length_b 12.515899
_cell_length_c 8.175435
_cell_angle_alpha 39.233045
_cell_angle_beta 67.260552
_cell_angle_gamma 49.926241
_cell_volume 439.785746
_symmetry_space_group_name_H-M "P -1"
_symmetry_group_IT_number 2
_symmetry_cell_setting 'triclinic'
loop_
_space_group_symop_operation_xyz
x,y,z
-x,-y,-z
loop_
_atom_site_type_symbol
_atom_site_label
_atom_site_fract_x
_atom_site_fract_y
_atom_site_fract_z
Si Si1 0.486835 0.095322 0.069030
Si Si2 0.080930 0.871015 0.785270
Si Si3 0.933107 0.846592 0.269691
Si Si4 0.353291 0.474328 0.494902
Si Si5 0.515102 0.241863 0.354442
Si Si6 0.096700 0.489223 0.140045
O O1 0.710761 0.020251 0.095286
O O2 0.432520 0.987587 0.354941
O O3 0.331749 0.337825 0.800821
O O4 0.500000 0.000000 0.000000
O O5 0.312261 0.760772 0.797155
O O6 0.013693 0.041734 0.753843
O O7 0.019680 0.712727 0.987415
O O8 0.000000 0.000000 0.500000
O O9 0.906657 0.672753 0.552863
O O10 0.146080 0.686490 0.282289
O O11 0.500000 0.500000 0.500000
O O12 0.452183 0.350601 0.430876
O O13 0.330670 0.371145 0.160753
O O14 0.000000 0.500000 0.000000
#
# Coordination Sequence:
#
# PCOD9051829 Si02
#       6
#     2   2   2   2   2   2
#     4   9  23  46  73 102 145 189 236 298 355 426
#     4  12  25  46  73 107 142 187 242 290 354 427
#     4  11  26  47  74 109 141 190 240 292 361 423
#     4  11  25  46  72 104 143 186 236 294 358 422
#     4  10  25  48  70 104 141 188 238 289 358 426
#     4  11  25  46  74 103 145 189 235 298 353 424
#
# _framework density 27.286016
#
# number of rings (size 3 to 8) (size 9 to 14) (size 15 to 20)
#    0.000    1.333    1.667    1.500    4.667   10.667 
#    6.000    0.000    0.000    0.000    0.000    0.000 
#    0.000    0.000    0.000    0.000    0.000    0.000 
#
# Total GULP energy -67209.141212 kJ/mol
# GULP energy per Si atom -5600.761768 kJ/mol
# Density = 2.722391 g / cm^3
# Si number density = 27.286016 Si / 1000 Ang^3
#
#
#
# Elastic Constant Matrix: (Units=GPa)
#
#
# Indices 1 2 3 4 5 6 
#
# 1 163.2069 42.9934 26.8899 -4.3603 5.3945 22.1938
# 2 42.9934 136.6195 13.0155 -9.5597 -2.7045 20.2188
# 3 26.8899 13.0155 129.9718 -19.5518 -20.8181 21.9655
# 4 -4.3603 -9.5597 -19.5518 36.5979 5.6343 -0.4350
# 5 5.3945 -2.7045 -20.8181 5.6343 69.1915 4.6241
# 6 22.1938 20.2188 21.9655 -0.4350 4.6241 60.5256
#
#
#
# Elastic Compliance Matrix: (Units=1/GPa)
#
#
# Indices 1 2 3 4 5 6 
#
# 1 0.007050 -0.001921 -0.001188 -0.000180 -0.000871 -0.001447
# 2 -0.001921 0.008377 0.000332 0.002024 0.000562 -0.002243
# 3 -0.001188 0.000332 0.009623 0.004607 0.002850 -0.003352
# 4 -0.000180 0.002024 0.004607 0.030402 -0.000863 -0.001998
# 5 -0.000871 0.000562 0.002850 -0.000863 0.015611 -0.002102
# 6 -0.001447 -0.002243 -0.003352 -0.001998 -0.002102 0.019164
#
#
# Mechanical properties :
#
#
# Convention : Reuss Voigt Hill
#
# Bulk Modulus (GPa) = 51.29461 66.17732 58.73597
# Shear Modulus (GPa) = 48.88605 56.38963 52.63784
#
# Velocity S-wave (km/s) = 4.23734 4.55093 4.39693
# Velocity P-wave (km/s) = 6.54062 7.20559 6.88114
#
# Compressibility (1/GPa) = 0.01949522
#
# Stress axis : x y z
#
# Youngs Moduli (GPa) = 141.84929 119.37225 103.92247
#
# Poissons Ratio (x) = 0.22932 0.12348
# Poissons Ratio (y) = 0.27249 -0.03451
# Poissons Ratio (z) = 0.16854 -0.03964
#
# Static dielectric constant tensor:
#      x y z
#    x 1.924530 -0.177370 -0.255930 
#    y -0.177370 2.302040 -0.096110 
#    z -0.255930 -0.096110 2.008390 
# 
# From -- ./inp_files/183703.got.cif
#   From: 2010.05.17/outbox.cif.g08.bks.cpg/sg2_92_cif.got.tgz:183703.got - 2010.06.03 11:33:40.
