data_PCOD9051047
_publ_section_title
;
Structure prediction by ZEFSAII (Michael W. Deem and Ramdas Pophale) SiO2 
 PCOD9051047
Probable space group: P -1
;
_chemical_formula_sum "Si O2"
_cell_formula_units_Z 15
_cell_length_a 4.666894
_cell_length_b 16.010369
_cell_length_c 8.763881
_cell_angle_alpha 95.487332
_cell_angle_beta 122.801871
_cell_angle_gamma 72.920353
_cell_volume 524.493645
_symmetry_space_group_name_H-M "P -1"
_symmetry_group_IT_number 2
_symmetry_cell_setting 'triclinic'
loop_
_space_group_symop_operation_xyz
x,y,z
-x,-y,-z
loop_
_atom_site_type_symbol
_atom_site_label
_atom_site_fract_x
_atom_site_fract_y
_atom_site_fract_z
Si Si1 0.148165 0.867173 0.548277
Si Si2 0.500000 0.500000 0.000000
Si Si3 0.827170 0.915691 0.775254
Si Si4 0.352167 0.458328 0.688221
Si Si5 0.140301 0.064358 0.834871
Si Si6 0.589975 0.717184 0.434799
Si Si7 0.692419 0.358013 0.182470
Si Si8 0.528858 0.786951 0.081430
O O1 0.466382 0.898318 0.717764
O O2 0.349634 0.777489 0.504559
O O3 0.886153 0.874182 0.614996
O O4 0.943456 0.929997 0.368482
O O5 0.246009 0.445926 0.828758
O O6 0.516256 0.537772 0.808034
O O7 0.849538 0.014611 0.793604
O O8 0.146807 0.859505 0.961151
O O9 0.542602 0.369079 0.646112
O O10 0.000000 0.500000 0.500000
O O11 0.827344 0.400429 0.081284
O O12 0.191635 0.161951 0.879517
O O13 0.500000 0.000000 0.000000
O O14 0.587027 0.759264 0.272184
O O15 0.990137 0.681198 0.614905
O O16 0.505240 0.287677 0.060225
#
# Coordination Sequence:
#
# PCOD9051047 Si02
#       8
#     2   1   2   2   2   2   2   2
#     4  12  25  47  77 108 145 194 244 308 368 433
#     4   8  14  28  54  98 140 190 236 288 360 420
#     4  11  26  48  73 104 148 192 246 308 369 434
#     4   8  15  28  54  99 139 187 230 290 350 429
#     4  10  25  45  68 104 144 191 244 304 365 446
#     4  11  20  36  68 109 145 190 248 300 364 434
#     4   9  17  33  63 104 147 194 239 302 361 430
#     4  11  21  41  69 105 142 192 248 298 367 433
#
# _framework density 28.599011000000001
#
# number of rings (size 3 to 8) (size 9 to 14) (size 15 to 20)
#    0.800    1.067    2.667    1.600    0.000    3.200 
#    0.000    6.667    0.000    1.600    0.000    0.000 
#    0.000    0.000    0.000    0.000    0.000    0.000 
#
# Total GULP energy -83552.086274 kJ/mol
# GULP energy per Si atom -5570.139085 kJ/mol
# Density = 2.853392 g / cm^3
# Si number density = 28.599011 Si / 1000 Ang^3
#
#
#
# Elastic Constant Matrix: (Units=GPa)
#
#
# Indices 1 2 3 4 5 6 
#
# 1 74.2263 30.2615 25.2266 7.1555 0.6494 5.1580
# 2 30.2615 231.2086 73.4550 41.0686 -0.1640 -6.6757
# 3 25.2266 73.4550 252.6589 3.9390 -16.2186 -0.8831
# 4 7.1555 41.0686 3.9390 79.0742 0.2318 -4.4074
# 5 0.6494 -0.1640 -16.2186 0.2318 35.0064 16.3602
# 6 5.1580 -6.6757 -0.8831 -4.4074 16.3602 36.2155
#
#
#
# Elastic Compliance Matrix: (Units=1/GPa)
#
#
# Indices 1 2 3 4 5 6 
#
# 1 0.014692 -0.001584 -0.000971 -0.000612 0.000551 -0.002732
# 2 -0.001584 0.005497 -0.001479 -0.002552 -0.001306 0.001482
# 3 -0.000971 -0.001479 0.004646 0.000551 0.002711 -0.001179
# 4 -0.000612 -0.002552 0.000551 0.014091 -0.000592 0.001613
# 5 0.000551 -0.001306 0.002711 -0.000592 0.037980 -0.017483
# 6 -0.002732 0.001482 -0.001179 0.001613 -0.017483 0.036340
#
#
# Mechanical properties :
#
#
# Convention : Reuss Voigt Hill
#
# Bulk Modulus (GPa) = 59.63944 90.66444 75.15194
# Shear Modulus (GPa) = 39.39969 58.66926 49.03448
#
# Velocity S-wave (km/s) = 3.71571 4.53420 4.14521
# Velocity P-wave (km/s) = 6.26958 7.69303 7.01749
#
# Compressibility (1/GPa) = 0.01676743
#
# Stress axis : x y z
#
# Youngs Moduli (GPa) = 68.06326 181.90319 215.23287
#
# Poissons Ratio (x) = 0.28817 0.20899
# Poissons Ratio (y) = 0.10783 0.31832
# Poissons Ratio (z) = 0.06609 0.26903
#
# Static dielectric constant tensor:
#      x y z
#    x 2.328880 -0.132750 0.011360 
#    y -0.132750 2.397460 -0.097710 
#    z 0.011360 -0.097710 2.499720 
# 
# From -- ./inp_files/137756.got.cif
#   From: 2010.05.17/outbox.cif.g08.bks.cpg/sg2_69_cif.got.tgz:137756.got - 2010.06.03 11:33:40.
