data_PCOD9051399
_publ_section_title
;
Structure prediction by ZEFSAII (Michael W. Deem and Ramdas Pophale) SiO2 
 PCOD9051399
Probable space group: P -1
;
_chemical_formula_sum "Si O2"
_cell_formula_units_Z 13
_cell_length_a 8.477640
_cell_length_b 11.690870
_cell_length_c 11.725515
_cell_angle_alpha 52.314258
_cell_angle_beta 106.077652
_cell_angle_gamma 65.481533
_cell_volume 565.575446
_symmetry_space_group_name_H-M "P -1"
_symmetry_group_IT_number 2
_symmetry_cell_setting 'triclinic'
loop_
_space_group_symop_operation_xyz
x,y,z
-x,-y,-z
loop_
_atom_site_type_symbol
_atom_site_label
_atom_site_fract_x
_atom_site_fract_y
_atom_site_fract_z
Si Si1 0.500000 0.000000 0.000000
Si Si2 0.935959 0.936150 0.352476
Si Si3 0.192666 0.809064 0.058544
Si Si4 0.746281 0.526495 0.408028
Si Si5 0.701664 0.075642 0.457182
Si Si6 0.995362 0.660672 0.182620
Si Si7 0.136185 0.348443 0.229604
O O1 0.310538 0.270949 0.765671
O O2 0.288343 0.093965 0.992932
O O3 0.035530 0.710971 0.472121
O O4 0.169725 0.873608 0.487973
O O5 0.721580 0.079953 0.321165
O O6 0.833903 0.079399 0.129423
O O7 0.480896 0.623697 0.273326
O O8 0.111088 0.698953 0.093977
O O9 0.000000 0.000000 0.000000
O O10 0.826132 0.461526 0.595536
O O11 0.425825 0.215064 0.363553
O O12 0.871293 0.818740 0.670305
O O13 0.999135 0.505634 0.216176
O O14 0.000000 0.500000 0.000000
#
# Coordination Sequence:
#
# PCOD9051399 Si02
#       7
#     1   2   2   2   2   2   2
#     4  12  26  42  64 102 140 174 226 278 340 416
#     4  11  24  46  72 102 139 177 230 286 344 398
#     4  12  24  43  69 104 138 179 226 278 340 417
#     4  12  25  43  69 102 137 180 221 285 350 406
#     4  10  25  46  70 101 135 182 231 283 332 408
#     4  12  26  44  70 102 138 182 225 284 349 404
#     4  11  25  45  70  97 136 184 231 278 338 407
#
# _framework density 22.985439
#
# number of rings (size 3 to 8) (size 9 to 14) (size 15 to 20)
#    0.000    0.615    3.077    3.692    2.154    7.385 
#    0.000    3.846    0.000    0.000    0.000    0.000 
#    0.000    0.000    0.000    0.000    0.000    0.000 
#
# Total GULP energy -72527.179072 kJ/mol
# GULP energy per Si atom -5579.013775 kJ/mol
# Density = 2.293312 g / cm^3
# Si number density = 22.985439 Si / 1000 Ang^3
#
#
#
# Elastic Constant Matrix: (Units=GPa)
#
#
# Indices 1 2 3 4 5 6 
#
# 1 65.0123 8.9683 8.5604 -6.4975 -13.5472 -3.1237
# 2 8.9683 125.5398 59.6400 8.5828 -9.6288 1.7365
# 3 8.5604 59.6400 94.1155 -2.4701 -23.2128 -0.0982
# 4 -6.4975 8.5828 -2.4701 31.5691 1.2645 -10.8976
# 5 -13.5472 -9.6288 -23.2128 1.2645 44.4869 -6.6480
# 6 -3.1237 1.7365 -0.0982 -10.8976 -6.6480 37.1833
#
#
#
# Elastic Compliance Matrix: (Units=1/GPa)
#
#
# Indices 1 2 3 4 5 6 
#
# 1 0.017465 -0.001761 0.001157 0.005374 0.006016 0.004203
# 2 -0.001761 0.012268 -0.008371 -0.005189 -0.002507 -0.002712
# 3 0.001157 -0.008371 0.018003 0.004770 0.008310 0.003419
# 4 0.005374 -0.005189 0.004770 0.038820 0.003806 0.012764
# 5 0.006016 -0.002507 0.008310 0.003806 0.029034 0.006951
# 6 0.004203 -0.002712 0.003419 0.012764 0.006951 0.032366
#
#
# Mechanical properties :
#
#
# Convention : Reuss Voigt Hill
#
# Bulk Modulus (GPa) = 33.57423 48.77833 41.17628
# Shear Modulus (GPa) = 28.43529 36.48111 32.45820
#
# Velocity S-wave (km/s) = 3.52106 3.98821 3.76190
# Velocity P-wave (km/s) = 5.58291 6.51731 6.06812
#
# Compressibility (1/GPa) = 0.02978475
#
# Stress axis : x y z
#
# Youngs Moduli (GPa) = 57.25725 81.51009 55.54566
#
# Poissons Ratio (x) = 0.14357 -0.06426
# Poissons Ratio (y) = 0.10085 0.46500
# Poissons Ratio (z) = -0.06624 0.68236
#
# Static dielectric constant tensor:
#      x y z
#    x 1.891830 0.024760 -0.006610 
#    y 0.024760 1.893500 -0.021810 
#    z -0.006610 -0.021810 1.834130 
# 
# From -- ./inp_files/25492.got.cif
#   From: 2010.05.17/outbox.cif.g08.bks.cpg/sg2_13_cif.got.tgz:25492.got - 2010.06.03 11:33:40.
