data_PCOD9051401
_publ_section_title
;
Structure prediction by ZEFSAII (Michael W. Deem and Ramdas Pophale) SiO2 
 PCOD9051401
Probable space group: P -1
;
_chemical_formula_sum "Si O2"
_cell_formula_units_Z 12
_cell_length_a 14.875461
_cell_length_b 9.514096
_cell_length_c 8.218019
_cell_angle_alpha 100.866739
_cell_angle_beta 47.017436
_cell_angle_gamma 135.202821
_cell_volume 491.407135
_symmetry_space_group_name_H-M "P -1"
_symmetry_group_IT_number 2
_symmetry_cell_setting 'triclinic'
loop_
_space_group_symop_operation_xyz
x,y,z
-x,-y,-z
loop_
_atom_site_type_symbol
_atom_site_label
_atom_site_fract_x
_atom_site_fract_y
_atom_site_fract_z
Si Si1 0.517138 0.600015 0.675409
Si Si2 0.084984 0.177115 0.789879
Si Si3 0.582660 0.991310 0.680318
Si Si4 0.870561 0.474924 0.276072
Si Si5 0.787799 0.157013 0.785578
Si Si6 0.787800 0.852728 0.821506
O O1 0.500000 0.500000 0.500000
O O2 0.738429 0.750035 0.499060
O O3 0.527711 0.776828 0.660777
O O4 0.356646 0.406728 0.977242
O O5 0.176005 0.421424 0.738574
O O6 0.876490 0.004703 0.910393
O O7 0.000000 0.000000 0.000000
O O8 0.666939 0.189075 0.496704
O O9 0.779775 0.161842 0.600992
O O10 0.371758 0.866943 0.977505
O O11 0.003046 0.631500 0.315390
O O12 0.000000 0.500000 0.000000
O O13 0.692692 0.906816 0.872804
O O14 0.000000 0.000000 0.500000
#
# Coordination Sequence:
#
# PCOD9051401 Si02
#       6
#     2   2   2   2   2   2
#     4  12  26  43  72 103 144 188 237 295 355 422
#     4  11  23  44  68 100 142 185 235 288 355 419
#     4  11  25  45  71 101 143 184 236 291 357 424
#     4  11  25  41  70 102 139 184 231 291 354 423
#     4  10  25  46  70 101 139 183 236 290 357 419
#     4  11  25  45  72 103 139 185 241 293 352 425
#
# _framework density 24.419668999999999
#
# number of rings (size 3 to 8) (size 9 to 14) (size 15 to 20)
#    0.000    1.000    1.667    3.500    4.667   11.333 
#    0.000    0.000    0.000    0.000    0.000    0.000 
#    0.000    0.000    0.000    0.000    0.000    0.000 
#
# Total GULP energy -66838.459919 kJ/mol
# GULP energy per Si atom -5569.871660 kJ/mol
# Density = 2.436409 g / cm^3
# Si number density = 24.419669 Si / 1000 Ang^3
#
#
#
# Elastic Constant Matrix: (Units=GPa)
#
#
# Indices 1 2 3 4 5 6 
#
# 1 104.0934 57.9458 11.3028 -15.5069 9.5934 -27.6381
# 2 57.9458 172.9177 51.3673 -16.5056 15.6379 -56.4115
# 3 11.3028 51.3673 106.7585 -27.5788 20.6961 -31.2710
# 4 -15.5069 -16.5056 -27.5788 39.6409 -16.1228 3.6407
# 5 9.5934 15.6379 20.6961 -16.1228 37.0262 -10.4221
# 6 -27.6381 -56.4115 -31.2710 3.6407 -10.4221 66.9456
#
#
#
# Elastic Compliance Matrix: (Units=1/GPa)
#
#
# Indices 1 2 3 4 5 6 
#
# 1 0.012935 -0.003551 0.002639 0.005029 -0.000215 0.003274
# 2 -0.003551 0.009499 -0.002554 0.000283 -0.000043 0.005324
# 3 0.002639 -0.002554 0.014428 0.008502 -0.002614 0.004807
# 4 0.005029 0.000283 0.008502 0.037493 0.011867 0.006094
# 5 -0.000215 -0.000043 -0.002614 0.011867 0.034669 0.003406
# 6 0.003274 0.005324 0.004807 0.006094 0.003406 0.023219
#
#
# Mechanical properties :
#
#
# Convention : Reuss Voigt Hill
#
# Bulk Modulus (GPa) = 33.41147 69.44461 51.42804
# Shear Modulus (GPa) = 33.52272 46.26611 39.89441
#
# Velocity S-wave (km/s) = 3.70912 4.35745 4.04629
# Velocity P-wave (km/s) = 5.66174 7.33595 6.55254
#
# Compressibility (1/GPa) = 0.02992984
#
# Stress axis : x y z
#
# Youngs Moduli (GPa) = 77.30813 105.26972 69.31189
#
# Poissons Ratio (x) = 0.37383 -0.18291
# Poissons Ratio (y) = 0.27453 0.17702
# Poissons Ratio (z) = -0.20401 0.26886
#
# Static dielectric constant tensor:
#      x y z
#    x 2.128500 0.111530 0.124250 
#    y 0.111530 2.067800 -0.057660 
#    z 0.124250 -0.057660 2.015030 
# 
# From -- ./inp_files/177054.got.cif
#   From: 2010.05.17/outbox.cif.g08.bks.cpg/sg2_89_cif.got.tgz:177054.got - 2010.06.03 11:33:40.
