data_PCOD9051357
_publ_section_title
;
Structure prediction by ZEFSAII (Michael W. Deem and Ramdas Pophale) SiO2 
 PCOD9051357
Probable space group: P -1
;
_chemical_formula_sum "Si O2"
_cell_formula_units_Z 16
_cell_length_a 19.072657
_cell_length_b 9.287390
_cell_length_c 8.363909
_cell_angle_alpha 101.984953
_cell_angle_beta 149.276019
_cell_angle_gamma 76.787839
_cell_volume 736.702685
_symmetry_space_group_name_H-M "P -1"
_symmetry_group_IT_number 2
_symmetry_cell_setting 'triclinic'
loop_
_space_group_symop_operation_xyz
x,y,z
-x,-y,-z
loop_
_atom_site_type_symbol
_atom_site_label
_atom_site_fract_x
_atom_site_fract_y
_atom_site_fract_z
Si Si1 0.472261 0.161364 0.905259
Si Si2 0.093589 0.588162 0.588836
Si Si3 0.788177 0.627982 0.505404
Si Si4 0.008903 0.157910 0.137799
Si Si5 0.628756 0.413384 0.323058
Si Si6 0.910541 0.868662 0.339813
Si Si7 0.368672 0.031413 0.359818
Si Si8 0.274209 0.725738 0.229608
O O1 0.352275 0.266152 0.784352
O O2 0.406799 0.140917 0.599025
O O3 0.610817 0.245562 0.189269
O O4 0.500000 0.000000 0.000000
O O5 0.158224 0.480344 0.556683
O O6 0.000000 0.500000 0.500000
O O7 0.987793 0.727879 0.368136
O O8 0.214267 0.653800 0.940175
O O9 0.905535 0.738918 0.781442
O O10 0.751386 0.512596 0.543307
O O11 0.081010 0.147340 0.453813
O O12 0.856404 0.232267 0.898929
O O13 0.000000 0.000000 0.000000
O O14 0.624681 0.390212 0.499588
O O15 0.500000 0.500000 0.000000
O O16 0.000000 0.000000 0.500000
O O17 0.758987 0.903898 0.982418
O O18 0.333680 0.877797 0.335918
O O19 0.500000 0.000000 0.500000
#
# Coordination Sequence:
#
# PCOD9051357 Si02
#       8
#     2   2   2   2   2   2   2   2
#     4  11  25  48  73 100 149 191 250 304 362 451
#     4  11  23  46  72 101 152 187 237 313 370 439
#     4  11  25  47  71 107 141 193 245 297 385 425
#     4  11  24  43  75 107 140 187 240 313 365 436
#     4  10  25  46  68 103 144 191 241 300 368 444
#     4  11  24  46  72 107 147 189 249 300 363 442
#     4  12  27  44  75 111 143 197 249 306 370 437
#     4  11  23  47  67 105 146 186 248 305 365 432
#
# _framework density 21.718395000000001
#
# number of rings (size 3 to 8) (size 9 to 14) (size 15 to 20)
#    0.000    1.000    6.250    0.750    3.500    3.500 
#    0.000    2.500    0.000    0.000    0.000    0.000 
#    0.000    0.000    0.000    0.000    0.000    0.000 
#
# Total GULP energy -89361.510549 kJ/mol
# GULP energy per Si atom -5585.094409 kJ/mol
# Density = 2.166896 g / cm^3
# Si number density = 21.718395 Si / 1000 Ang^3
#
#
#
# Elastic Constant Matrix: (Units=GPa)
#
#
# Indices 1 2 3 4 5 6 
#
# 1 73.5084 50.0282 36.5599 -2.8633 10.0455 -0.8038
# 2 50.0282 154.6843 38.5064 10.1574 11.7090 6.2772
# 3 36.5599 38.5064 126.6882 -4.1031 -1.0737 3.1862
# 4 -2.8633 10.1574 -4.1031 53.2856 6.8855 8.3744
# 5 10.0455 11.7090 -1.0737 6.8855 29.2161 6.1263
# 6 -0.8038 6.2772 3.1862 8.3744 6.1263 50.2105
#
#
#
# Elastic Compliance Matrix: (Units=1/GPa)
#
#
# Indices 1 2 3 4 5 6 
#
# 1 0.020192 -0.005242 -0.004250 0.002266 -0.005865 0.001586
# 2 -0.005242 0.008685 -0.001178 -0.001774 -0.001166 -0.000657
# 3 -0.004250 -0.001178 0.009539 0.000571 0.002340 -0.000907
# 4 0.002266 -0.001774 0.000571 0.020235 -0.004264 -0.002633
# 5 -0.005865 -0.001166 0.002340 -0.004264 0.038663 -0.004103
# 6 0.001586 -0.000657 -0.000907 -0.002633 -0.004103 0.021021
#
#
# Mechanical properties :
#
#
# Convention : Reuss Voigt Hill
#
# Bulk Modulus (GPa) = 58.56002 67.22997 62.89500
# Shear Modulus (GPa) = 34.39588 41.86154 38.12871
#
# Velocity S-wave (km/s) = 3.98392 4.39506 4.19453
# Velocity P-wave (km/s) = 6.94147 7.53511 7.24437
#
# Compressibility (1/GPa) = 0.01707650
#
# Stress axis : x y z
#
# Youngs Moduli (GPa) = 49.52419 115.14549 104.83279
#
# Poissons Ratio (x) = 0.60357 0.44555
# Poissons Ratio (y) = 0.25959 0.12347
# Poissons Ratio (z) = 0.21048 0.13562
#
# Static dielectric constant tensor:
#      x y z
#    x 1.781990 -0.049690 0.029500 
#    y -0.049690 1.780680 0.023030 
#    z 0.029500 0.023030 1.819380 
# 
# From -- ./inp_files/343707.got.cif
#   From: 2010.05.17/outbox.cif.g08.bks.cpg/sg2_172_cif.got.tgz:343707.got - 2010.06.03 11:33:40.
