data_PCOD9051313
_publ_section_title
;
Structure prediction by ZEFSAII (Michael W. Deem and Ramdas Pophale) SiO2 
 PCOD9051313
Probable space group: P -1
;
_chemical_formula_sum "Si O2"
_cell_formula_units_Z 16
_cell_length_a 11.689695
_cell_length_b 16.118963
_cell_length_c 8.976666
_cell_angle_alpha 53.601336
_cell_angle_beta 95.324498
_cell_angle_gamma 136.758062
_cell_volume 735.000180
_symmetry_space_group_name_H-M "P -1"
_symmetry_group_IT_number 2
_symmetry_cell_setting 'triclinic'
loop_
_space_group_symop_operation_xyz
x,y,z
-x,-y,-z
loop_
_atom_site_type_symbol
_atom_site_label
_atom_site_fract_x
_atom_site_fract_y
_atom_site_fract_z
Si Si1 0.469921 0.547785 0.089389
Si Si2 0.948457 0.634709 0.151377
Si Si3 0.750775 0.411013 0.936762
Si Si4 0.220665 0.696131 0.679632
Si Si5 0.443118 0.023160 0.824841
Si Si6 0.382856 0.648979 0.348022
Si Si7 0.275966 0.257883 0.628352
Si Si8 0.106196 0.172824 0.017439
O O1 0.348460 0.391867 0.368789
O O2 0.703800 0.747027 0.969563
O O3 0.500000 0.500000 0.000000
O O4 0.342737 0.556194 0.036548
O O5 0.853085 0.471817 0.213599
O O6 0.847121 0.535744 0.406960
O O7 0.890929 0.710927 0.035886
O O8 0.199995 0.819667 0.976973
O O9 0.698331 0.272642 0.179745
O O10 0.652096 0.338078 0.837174
O O11 0.007105 0.602822 0.754881
O O12 0.397714 0.873131 0.403255
O O13 0.485155 0.170778 0.729612
O O14 0.500000 0.000000 0.000000
O O15 0.518872 0.647330 0.383393
O O16 0.155533 0.216027 0.800150
O O17 0.113846 0.053142 0.755820
#
# Coordination Sequence:
#
# PCOD9051313 Si02
#       8
#     2   2   2   2   2   2   2   2
#     4  12  25  41  68  98 131 174 215 260 327 386
#     4  11  21  39  70  94 126 169 214 265 324 376
#     4  11  23  44  67  92 133 175 213 265 327 386
#     4  10  25  46  64  93 134 171 213 271 325 380
#     4  11  23  40  66  98 125 167 223 266 318 381
#     4  11  21  40  68  93 132 171 213 268 319 383
#     4  11  23  41  64  98 133 170 215 265 319 383
#     4  11  22  40  67  97 130 170 212 268 318 380
#
# _framework density 21.768702999999999
#
# number of rings (size 3 to 8) (size 9 to 14) (size 15 to 20)
#    0.000    1.000    3.750    3.375    1.750    2.500 
#    0.000    8.125    0.000    0.000    0.000    0.000 
#    0.000    0.000    0.000    0.000    0.000    0.000 
#
# Total GULP energy -89473.676101 kJ/mol
# GULP energy per Si atom -5592.104756 kJ/mol
# Density = 2.171916 g / cm^3
# Si number density = 21.768703 Si / 1000 Ang^3
#
#
#
# Elastic Constant Matrix: (Units=GPa)
#
#
# Indices 1 2 3 4 5 6 
#
# 1 117.4758 32.5962 23.7016 -4.5058 -12.1215 13.9534
# 2 32.5962 87.8160 47.5214 -6.5276 -4.8267 8.7180
# 3 23.7016 47.5214 122.7465 -11.8880 -15.9070 25.3850
# 4 -4.5058 -6.5276 -11.8880 35.3207 -0.6136 6.3088
# 5 -12.1215 -4.8267 -15.9070 -0.6136 26.1730 1.9078
# 6 13.9534 8.7180 25.3850 6.3088 1.9078 41.6305
#
#
#
# Elastic Compliance Matrix: (Units=1/GPa)
#
#
# Indices 1 2 3 4 5 6 
#
# 1 0.010354 -0.003603 0.001018 0.001771 0.005070 -0.003837
# 2 -0.003603 0.015699 -0.006073 0.000043 -0.002589 0.001735
# 3 0.001018 -0.006073 0.013684 0.005296 0.008419 -0.008602
# 4 0.001771 0.000043 0.005296 0.032019 0.005449 -0.008934
# 5 0.005070 -0.002589 0.008419 0.005449 0.045995 -0.009225
# 6 -0.003837 0.001735 -0.008602 -0.008934 -0.009225 0.031966
#
#
# Mechanical properties :
#
#
# Convention : Reuss Voigt Hill
#
# Bulk Modulus (GPa) = 44.59811 59.51961 52.05886
# Shear Modulus (GPa) = 28.65228 35.57279 32.11254
#
# Velocity S-wave (km/s) = 3.63190 4.04682 3.84496
# Velocity P-wave (km/s) = 6.17409 7.01690 6.60894
#
# Compressibility (1/GPa) = 0.02242248
#
# Stress axis : x y z
#
# Youngs Moduli (GPa) = 96.58544 63.69630 73.07590
#
# Poissons Ratio (x) = 0.22947 -0.07437
# Poissons Ratio (y) = 0.34795 0.44376
# Poissons Ratio (z) = -0.09829 0.38680
#
# Static dielectric constant tensor:
#      x y z
#    x 1.826790 -0.042710 -0.000050 
#    y -0.042710 1.841900 0.003690 
#    z -0.000050 0.003690 1.773010 
# 
# From -- ./inp_files/273640.got.cif
#   From: 2010.05.17/outbox.cif.g08.bks.cpg/sg2_137_cif.got.tgz:273640.got - 2010.06.03 11:33:40.
