data_PCOD9051354
_publ_section_title
;
Structure prediction by ZEFSAII (Michael W. Deem and Ramdas Pophale) SiO2 
 PCOD9051354
Probable space group: P -1
;
_chemical_formula_sum "Si O2"
_cell_formula_units_Z 15
_cell_length_a 8.412096
_cell_length_b 16.757306
_cell_length_c 8.577541
_cell_angle_alpha 140.690504
_cell_angle_beta 127.229126
_cell_angle_gamma 66.097162
_cell_volume 605.135384
_symmetry_space_group_name_H-M "P -1"
_symmetry_group_IT_number 2
_symmetry_cell_setting 'triclinic'
loop_
_space_group_symop_operation_xyz
x,y,z
-x,-y,-z
loop_
_atom_site_type_symbol
_atom_site_label
_atom_site_fract_x
_atom_site_fract_y
_atom_site_fract_z
Si Si1 0.946500 0.249397 0.521705
Si Si2 0.500000 0.500000 0.000000
Si Si3 0.434795 0.703821 0.809555
Si Si4 0.860922 0.376038 0.970007
Si Si5 0.583148 0.156901 0.662731
Si Si6 0.049615 0.990263 0.337435
Si Si7 0.280126 0.425927 0.425989
Si Si8 0.152486 0.123724 0.220484
O O1 0.721116 0.231600 0.292465
O O2 0.949860 0.349567 0.813440
O O3 0.085167 0.248278 0.449029
O O4 0.014814 0.127027 0.461106
O O5 0.281936 0.516626 0.970956
O O6 0.615199 0.557426 0.319102
O O7 0.330809 0.563200 0.579939
O O8 0.625695 0.678284 0.781991
O O9 0.465792 0.777398 0.103568
O O10 0.705660 0.261489 0.779617
O O11 0.040640 0.398290 0.232736
O O12 0.729456 0.050712 0.617693
O O13 0.377007 0.110388 0.382441
O O14 0.000000 0.000000 0.500000
O O15 0.893167 0.883621 0.999606
O O16 0.000000 0.000000 0.000000
#
# Coordination Sequence:
#
# PCOD9051354 Si02
#       8
#     2   1   2   2   2   2   2   2
#     4  11  23  47  71 104 139 187 233 289 352 417
#     4  12  24  44  70 104 140 188 232 294 346 412
#     4  11  24  47  72 104 140 190 233 290 357 412
#     4  12  26  46  70 108 143 187 233 293 351 418
#     4  12  25  46  73 103 144 188 234 285 357 420
#     4  11  24  47  70 106 140 181 235 293 349 420
#     4  11  26  47  71 105 145 183 238 295 346 419
#     4  10  25  46  68 103 139 184 232 289 346 413
#
# _framework density 24.787841
#
# number of rings (size 3 to 8) (size 9 to 14) (size 15 to 20)
#    0.000    0.800    5.333    1.200    0.000    5.333 
#    4.800    0.000    0.000    0.000    0.000    0.000 
#    0.000    0.000    0.000    0.000    0.000    0.000 
#
# Total GULP energy -83695.747392 kJ/mol
# GULP energy per Si atom -5579.716493 kJ/mol
# Density = 2.473142 g / cm^3
# Si number density = 24.787841 Si / 1000 Ang^3
#
#
#
# Elastic Constant Matrix: (Units=GPa)
#
#
# Indices 1 2 3 4 5 6 
#
# 1 97.5849 70.5908 91.5251 -4.7320 -13.4866 -24.6136
# 2 70.5908 301.9721 -13.8186 -33.7445 -7.1734 -32.2587
# 3 91.5251 -13.8186 228.0164 -31.0428 -4.6365 -38.2201
# 4 -4.7320 -33.7445 -31.0428 49.7113 -12.1483 9.1663
# 5 -13.4866 -7.1734 -4.6365 -12.1483 70.3661 5.8188
# 6 -24.6136 -32.2587 -38.2201 9.1663 5.8188 54.0101
#
#
#
# Elastic Compliance Matrix: (Units=1/GPa)
#
#
# Indices 1 2 3 4 5 6 
#
# 1 0.028952 -0.008575 -0.013595 -0.011129 0.001846 0.000142
# 2 -0.008575 0.006547 0.005143 0.006440 0.000266 0.002520
# 3 -0.013595 0.005143 0.012024 0.008978 -0.000059 0.003868
# 4 -0.011129 0.006440 0.008978 0.030187 0.004365 -0.000466
# 5 0.001846 0.000266 -0.000059 0.004365 0.015462 -0.001448
# 6 0.000142 0.002520 0.003868 -0.000466 -0.001448 0.023057
#
#
# Mechanical properties :
#
#
# Convention : Reuss Voigt Hill
#
# Bulk Modulus (GPa) = 74.23984 102.68534 88.46259
# Shear Modulus (GPa) = 32.30578 66.76923 49.53750
#
# Velocity S-wave (km/s) = 3.61403 5.19565 4.47526
# Velocity P-wave (km/s) = 6.88695 8.80390 7.90376
#
# Compressibility (1/GPa) = 0.01346986
#
# Stress axis : x y z
#
# Youngs Moduli (GPa) = 34.53974 152.75101 83.16967
#
# Poissons Ratio (x) = 1.30980 1.13067
# Poissons Ratio (y) = 0.29617 -0.42776
# Poissons Ratio (z) = 0.46956 -0.78563
#
# Static dielectric constant tensor:
#      x y z
#    x 2.116010 0.144280 -0.150870 
#    y 0.144280 2.096360 -0.050890 
#    z -0.150870 -0.050890 2.112490 
# 
# From -- ./inp_files/222707.got.cif
#   From: 2010.05.17/outbox.cif.g08.bks.cpg/sg2_112_cif.got.tgz:222707.got - 2010.06.03 11:33:40.
