data_PCOD9051339
_publ_section_title
;
Structure prediction by ZEFSAII (Michael W. Deem and Ramdas Pophale) SiO2 
 PCOD9051339
Probable space group: P -1
;
_chemical_formula_sum "Si O2"
_cell_formula_units_Z 14
_cell_length_a 8.956859
_cell_length_b 5.219078
_cell_length_c 11.962628
_cell_angle_alpha 86.773955
_cell_angle_beta 79.303689
_cell_angle_gamma 93.327751
_cell_volume 547.285667
_symmetry_space_group_name_H-M "P -1"
_symmetry_group_IT_number 2
_symmetry_cell_setting 'triclinic'
loop_
_space_group_symop_operation_xyz
x,y,z
-x,-y,-z
loop_
_atom_site_type_symbol
_atom_site_label
_atom_site_fract_x
_atom_site_fract_y
_atom_site_fract_z
Si Si1 0.148217 0.905829 0.042472
Si Si2 0.288685 0.519657 0.159779
Si Si3 0.405212 0.734696 0.538392
Si Si4 0.869988 0.335392 0.590423
Si Si5 0.218955 0.518297 0.765627
Si Si6 0.020511 0.992609 0.736223
Si Si7 0.397808 0.267235 0.936040
O O1 0.160448 0.617016 0.089795
O O2 0.297348 0.997378 0.952250
O O3 0.127335 0.035629 0.162759
O O4 0.000000 0.000000 0.000000
O O5 0.207853 0.523146 0.294069
O O6 0.434886 0.734100 0.140401
O O7 0.384237 0.336943 0.068530
O O8 0.500000 0.500000 0.500000
O O9 0.259727 0.735896 0.479027
O O10 0.354211 0.655747 0.671115
O O11 0.500000 0.000000 0.500000
O O12 0.000000 0.500000 0.500000
O O13 0.947997 0.082902 0.629825
O O14 0.137294 0.243029 0.742545
O O15 0.295094 0.449793 0.872959
O O16 0.099631 0.734041 0.757709
#
# Coordination Sequence:
#
# PCOD9051339 Si02
#       7
#     2   2   2   2   2   2   2
#     4  11  22  40  69 103 149 195 244 309 368 453
#     4  10  25  46  67 110 146 199 252 308 391 453
#     4  12  28  51  77 111 152 201 259 318 388 461
#     4  11  25  51  81 108 154 201 261 325 380 460
#     4  12  25  47  74 110 150 201 252 316 384 450
#     4  11  26  43  74 113 147 193 258 312 377 452
#     4  11  24  44  72 102 155 197 248 312 383 463
#
# _framework density 25.580791000000001
#
# number of rings (size 3 to 8) (size 9 to 14) (size 15 to 20)
#    0.000    0.857    2.857    3.000    4.000    2.857 
#   12.857    0.000    0.000    0.000    0.000    0.000 
#    0.000    0.000    0.000    0.000    0.000    0.000 
#
# Total GULP energy -78090.085221 kJ/mol
# GULP energy per Si atom -5577.863230 kJ/mol
# Density = 2.552257 g / cm^3
# Si number density = 25.580791 Si / 1000 Ang^3
#
#
#
# Elastic Constant Matrix: (Units=GPa)
#
#
# Indices 1 2 3 4 5 6 
#
# 1 110.5786 36.2773 30.6463 -30.1176 -11.8818 15.9364
# 2 36.2773 131.8264 36.9679 -37.4242 -7.1628 -1.1023
# 3 30.6463 36.9679 160.9482 -31.8803 -19.9428 17.8356
# 4 -30.1176 -37.4242 -31.8803 40.5461 -2.3983 -2.0331
# 5 -11.8818 -7.1628 -19.9428 -2.3983 72.1251 -13.7730
# 6 15.9364 -1.1023 17.8356 -2.0331 -13.7730 47.8358
#
#
#
# Elastic Compliance Matrix: (Units=1/GPa)
#
#
# Indices 1 2 3 4 5 6 
#
# 1 0.012216 -0.001022 0.000080 0.008120 0.001568 -0.003326
# 2 -0.001022 0.010582 -0.000504 0.008767 0.001326 0.001527
# 3 0.000080 -0.000504 0.007957 0.005855 0.001938 -0.002198
# 4 0.008120 0.008767 0.005855 0.043617 0.005012 -0.001389
# 5 0.001568 0.001326 0.001938 0.005012 0.015625 0.003498
# 6 -0.003326 0.001527 -0.002198 -0.001389 0.003498 0.023816
#
#
# Mechanical properties :
#
#
# Convention : Reuss Voigt Hill
#
# Bulk Modulus (GPa) = 35.89028 67.90402 51.89715
# Shear Modulus (GPa) = 39.68492 52.06548 45.87520
#
# Velocity S-wave (km/s) = 3.94300 4.51636 4.23939
# Velocity P-wave (km/s) = 5.89833 7.33480 6.65543
#
# Compressibility (1/GPa) = 0.02786270
#
# Stress axis : x y z
#
# Youngs Moduli (GPa) = 81.86178 94.50067 125.67100
#
# Poissons Ratio (x) = 0.09654 -0.01003
# Poissons Ratio (y) = 0.08363 0.06339
# Poissons Ratio (z) = -0.00654 0.04766
#
# Static dielectric constant tensor:
#      x y z
#    x 7.610330 -3.040710 -0.677510 
#    y -3.040710 3.988640 0.453590 
#    z -0.677510 0.453590 2.104090 
# 
# From -- ./inp_files/372927.got.cif
#   From: 2010.05.17/outbox.cif.g08.bks.cpg/sg2_187_cif.got.tgz:372927.got - 2010.06.03 11:33:40.
