data_PCOD9051905
_publ_section_title
;
Structure prediction by ZEFSAII (Michael W. Deem and Ramdas Pophale) SiO2 
 PCOD9051905
Probable space group: P -1
;
_chemical_formula_sum "Si O2"
_cell_formula_units_Z 15
_cell_length_a 17.280672
_cell_length_b 12.084321
_cell_length_c 14.256344
_cell_angle_alpha 50.563122
_cell_angle_beta 32.061698
_cell_angle_gamma 27.886078
_cell_volume 656.867776
_symmetry_space_group_name_H-M "P -1"
_symmetry_group_IT_number 2
_symmetry_cell_setting 'triclinic'
loop_
_space_group_symop_operation_xyz
x,y,z
-x,-y,-z
loop_
_atom_site_type_symbol
_atom_site_label
_atom_site_fract_x
_atom_site_fract_y
_atom_site_fract_z
Si Si1 0.701236 0.248065 0.632959
Si Si2 0.286479 0.948394 0.614849
Si Si3 0.515621 0.310858 0.269388
Si Si4 0.209262 0.457386 0.815361
Si Si5 0.361910 0.259658 0.968170
Si Si6 0.053354 0.916118 0.725963
Si Si7 0.784611 0.720803 0.407778
Si Si8 0.500000 0.500000 0.000000
O O1 0.573381 0.496528 0.669781
O O2 0.525086 0.259472 0.841025
O O3 0.729858 0.234985 0.498473
O O4 0.000000 0.000000 0.500000
O O5 0.255491 0.948880 0.758869
O O6 0.592751 0.701946 0.392360
O O7 0.141875 0.946347 0.704414
O O8 0.177972 0.202310 0.584037
O O9 0.280718 0.390782 0.443864
O O10 0.591477 0.320906 0.089819
O O11 0.375632 0.274051 0.835260
O O12 0.071670 0.728780 0.824700
O O13 0.000000 0.500000 0.000000
O O14 0.049536 0.513366 0.183724
O O15 0.500000 0.000000 0.000000
O O16 0.767396 0.216254 0.821277
O O17 0.500000 0.000000 0.500000
#
# Coordination Sequence:
#
# PCOD9051905 Si02
#       8
#     2   2   2   2   2   2   2   1
#     4  12  24  47  78 106 156 200 253 324 385 452
#     4  11  24  47  76 104 149 198 246 321 370 447
#     4  11  24  47  71 106 148 199 250 314 382 451
#     4  12  26  46  77 111 148 201 255 312 380 464
#     4  12  28  47  77 117 150 206 265 312 390 468
#     4  12  27  49  73 113 148 198 264 306 385 456
#     4  10  25  48  74 109 155 200 254 318 389 453
#     4  12  30  42  76 108 150 200 250 310 384 454
#
# _framework density 22.835646000000001
#
# number of rings (size 3 to 8) (size 9 to 14) (size 15 to 20)
#    0.000    0.533    4.000    3.600    9.333    0.533 
#    0.000    1.333    0.000    0.000    0.000    0.000 
#    0.000    0.000    0.000    0.000    0.000    0.000 
#
# Total GULP energy -83506.910097 kJ/mol
# GULP energy per Si atom -5567.127340 kJ/mol
# Density = 2.278367 g / cm^3
# Si number density = 22.835646 Si / 1000 Ang^3
#
#
#
# Elastic Constant Matrix: (Units=GPa)
#
#
# Indices 1 2 3 4 5 6 
#
# 1 104.3670 30.2259 46.4169 -33.2632 -8.3958 17.0380
# 2 30.2259 115.9944 41.5230 -15.2561 -18.1405 21.7187
# 3 46.4169 41.5230 137.3060 -18.1959 -9.9261 5.9414
# 4 -33.2632 -15.2561 -18.1959 35.3996 5.6975 -4.8623
# 5 -8.3958 -18.1405 -9.9261 5.6975 39.0008 -4.3555
# 6 17.0380 21.7187 5.9414 -4.8623 -4.3555 42.3422
#
#
#
# Elastic Compliance Matrix: (Units=1/GPa)
#
#
# Indices 1 2 3 4 5 6 
#
# 1 0.015868 -0.000496 -0.003389 0.012366 0.000044 -0.004230
# 2 -0.000496 0.011370 -0.002549 0.001880 0.003736 -0.004674
# 3 -0.003389 -0.002549 0.009251 0.000594 0.000519 0.001495
# 4 0.012366 0.001880 0.000594 0.041174 -0.002501 -0.001553
# 5 0.000044 0.003736 0.000519 -0.002501 0.027950 0.000581
# 6 -0.004230 -0.004674 0.001495 -0.001553 0.000581 0.027389
#
#
# Mechanical properties :
#
#
# Convention : Reuss Voigt Hill
#
# Bulk Modulus (GPa) = 42.33719 65.99988 54.16854
# Shear Modulus (GPa) = 32.52164 39.31529 35.91846
#
# Velocity S-wave (km/s) = 3.77790 4.15379 3.97030
# Velocity P-wave (km/s) = 6.13272 7.20904 6.69255
#
# Compressibility (1/GPa) = 0.02361989
#
# Stress axis : x y z
#
# Youngs Moduli (GPa) = 63.01949 87.95289 108.09455
#
# Poissons Ratio (x) = 0.04365 0.36635
# Poissons Ratio (y) = 0.03127 0.27554
# Poissons Ratio (z) = 0.21359 0.22420
#
# Static dielectric constant tensor:
#      x y z
#    x 1.912830 -0.068850 -0.035890 
#    y -0.068850 1.175300 -0.228110 
#    z -0.035890 -0.228110 1.828940 
# 
# From -- ./inp_files/538408.got.cif
#   From: 2010.05.17/outbox.cif.g08.bks.cpg/sg2_270_cif.got.tgz:538408.got - 2010.06.03 11:33:40.
