data_PCOD9051654
_publ_section_title
;
Structure prediction by ZEFSAII (Michael W. Deem and Ramdas Pophale) SiO2 
 PCOD9051654
Probable space group: P -1
;
_chemical_formula_sum "Si O2"
_cell_formula_units_Z 16
_cell_length_a 9.116948
_cell_length_b 5.698469
_cell_length_c 30.858290
_cell_angle_alpha 77.680360
_cell_angle_beta 29.335671
_cell_angle_gamma 69.814308
_cell_volume 723.737837
_symmetry_space_group_name_H-M "P -1"
_symmetry_group_IT_number 2
_symmetry_cell_setting 'triclinic'
loop_
_space_group_symop_operation_xyz
x,y,z
-x,-y,-z
loop_
_atom_site_type_symbol
_atom_site_label
_atom_site_fract_x
_atom_site_fract_y
_atom_site_fract_z
Si Si1 0.369698 0.656911 0.761893
Si Si2 0.753978 0.079811 0.902254
Si Si3 0.933403 0.729747 0.106017
Si Si4 0.619408 0.772929 0.780710
Si Si5 0.646164 0.463723 0.381178
Si Si6 0.675027 0.494434 0.063599
Si Si7 0.409113 0.985831 0.473850
Si Si8 0.206680 0.639165 0.413513
O O1 0.186213 0.503032 0.843113
O O2 0.564104 0.745763 0.744995
O O3 0.620031 0.508383 0.667713
O O4 0.065035 0.867471 0.811244
O O5 0.555804 0.249605 0.908152
O O6 0.919692 0.210971 0.889522
O O7 0.500000 0.000000 0.000000
O O8 0.618721 0.943742 0.161138
O O9 0.206166 0.685983 0.001735
O O10 0.491859 0.600725 0.851581
O O11 0.984654 0.683031 0.701647
O O12 0.527251 0.217487 0.417802
O O13 0.496300 0.632719 0.370736
O O14 0.546057 0.691570 0.434234
O O15 0.000000 0.500000 0.000000
O O16 0.038600 0.092836 0.550495
O O17 0.500000 0.000000 0.500000
O O18 0.000000 0.500000 0.500000
#
# Coordination Sequence:
#
# PCOD9051654 Si02
#       8
#     2   2   2   2   2   2   2   2
#     4  11  24  47  69  98 139 182 238 291 358 428
#     4  11  24  43  69 100 137 184 235 288 357 428
#     4  11  24  44  66  97 139 185 229 288 357 424
#     4  11  26  42  68 105 137 186 239 293 357 431
#     4  11  26  45  71 108 143 184 240 296 363 430
#     4  12  23  43  68  98 143 183 230 295 354 428
#     4  11  24  47  75 105 142 186 235 299 368 432
#     4  10  25  47  71 101 141 185 235 299 361 432
#
# _framework density 22.107451999999999
#
# number of rings (size 3 to 8) (size 9 to 14) (size 15 to 20)
#    0.000    1.000    2.500    3.000    5.250    4.000 
#    9.000    0.000    0.000    0.000    0.000    0.000 
#    0.000    0.000    0.000    0.000    0.000    0.000 
#
# Total GULP energy -89184.489841 kJ/mol
# GULP energy per Si atom -5574.030615 kJ/mol
# Density = 2.205713 g / cm^3
# Si number density = 22.107452 Si / 1000 Ang^3
#
#
#
# Elastic Constant Matrix: (Units=GPa)
#
#
# Indices 1 2 3 4 5 6 
#
# 1 -52.4105 14.9838 -69.5584 -458.5204 -45.6575 -184.5835
# 2 14.9838 56.7162 10.3991 -15.5884 -21.2387 -33.1268
# 3 -69.5584 10.3991 22.5933 -291.4965 -28.0764 -111.4262
# 4 -458.5204 -15.5884 -291.4965-1524.1367 -61.0400 -479.2543
# 5 -45.6575 -21.2387 -28.0764 -61.0400 51.4537 -0.9740
# 6 -184.5835 -33.1268 -111.4262 -479.2543 -0.9740 -96.9813
#
#
#
# Elastic Compliance Matrix: (Units=1/GPa)
#
#
# Indices 1 2 3 4 5 6 
#
# 1 0.019723 0.002351 -0.000170 -0.010550 0.006126 0.013930
# 2 0.002351 0.025608 -0.000295 -0.005231 0.006535 0.012899
# 3 -0.000170 -0.000295 0.014477 -0.004113 0.002825 0.004086
# 4 -0.010550 -0.005231 -0.004113 0.008791 -0.003655 -0.016812
# 5 0.006126 0.006535 0.002825 -0.003655 0.024787 0.000674
# 6 0.013930 0.012899 0.004086 -0.016812 0.000674 0.037147
#
#
# Mechanical properties :
#
#
# Convention : Reuss Voigt Hill
#
# Bulk Modulus (GPa) = 15.72818 -6.82801 4.45009
# Shear Modulus (GPa) = 33.79465 -309.19457 -137.69996
#
# Velocity S-wave (km/s) = 3.91404 -11.83907 -7.90075
# Velocity P-wave (km/s) = 5.24940 13.78332 9.01176
#
# Compressibility (1/GPa) = 0.06358016
#
# Stress axis : x y z
#
# Youngs Moduli (GPa) = 50.70348 39.04996 69.07699
#
# Poissons Ratio (x) = -0.09182 0.01172
# Poissons Ratio (y) = -0.11922 0.02039
# Poissons Ratio (z) = 0.00860 0.01153
#
# Static dielectric constant tensor:
#      x y z
#    x 1.839680 0.071870 0.038080 
#    y 0.071870 1.877840 0.103850 
#    z 0.038080 0.103850 1.920090 
# 
# From -- ./inp_files/37796.got.cif
#   From: 2010.05.17/outbox.cif.g08.bks.cpg/sg2_19_cif.got.tgz:37796.got - 2010.06.03 11:33:40.
