data_PCOD9051896
_publ_section_title
;
Structure prediction by ZEFSAII (Michael W. Deem and Ramdas Pophale) SiO2 
 PCOD9051896
Probable space group: P -1
;
_chemical_formula_sum "Si O2"
_cell_formula_units_Z 14
_cell_length_a 8.053425
_cell_length_b 11.473133
_cell_length_c 14.020486
_cell_angle_alpha 29.928055
_cell_angle_beta 113.853987
_cell_angle_gamma 110.728349
_cell_volume 591.096751
_symmetry_space_group_name_H-M "P -1"
_symmetry_group_IT_number 2
_symmetry_cell_setting 'triclinic'
loop_
_space_group_symop_operation_xyz
x,y,z
-x,-y,-z
loop_
_atom_site_type_symbol
_atom_site_label
_atom_site_fract_x
_atom_site_fract_y
_atom_site_fract_z
Si Si1 0.915289 0.251301 0.630171
Si Si2 0.728670 0.027226 0.083458
Si Si3 0.700071 0.935655 0.926130
Si Si4 0.939690 0.242898 0.267562
Si Si5 0.676543 0.557812 0.760677
Si Si6 0.733081 0.425120 0.274675
Si Si7 0.648281 0.954384 0.312361
O O1 0.816823 0.274213 0.488503
O O2 0.000000 0.500000 0.500000
O O3 0.788811 0.174280 0.742644
O O4 0.060484 0.043378 0.812652
O O5 0.654457 0.868046 0.266235
O O6 0.690452 0.298558 0.903726
O O7 0.659912 0.957053 0.013317
O O8 0.540448 0.910898 0.828215
O O9 0.801001 0.690563 0.118156
O O10 0.814058 0.355607 0.240632
O O11 0.127613 0.377630 0.191875
O O12 0.806428 0.147159 0.223147
O O13 0.000000 0.000000 0.500000
O O14 0.487567 0.582567 0.758549
O O15 0.660169 0.749476 0.536073
#
# Coordination Sequence:
#
# PCOD9051896 Si02
#       7
#     2   2   2   2   2   2   2
#     4  12  26  44  73 106 147 197 236 300 375 429
#     4  12  26  44  73 106 150 188 246 298 369 438
#     4  12  26  45  71 111 145 189 248 297 365 448
#     4  10  25  48  74 105 150 189 252 302 363 436
#     4  11  25  47  76 109 145 196 243 304 367 434
#     4  12  25  49  75 110 148 192 247 305 366 436
#     4  11  25  47  69 107 142 196 242 301 367 427
#
# _framework density 23.684785000000002
#
# number of rings (size 3 to 8) (size 9 to 14) (size 15 to 20)
#    0.000    0.571    4.286    3.429    4.000    4.000 
#    2.571    0.000    0.000    0.000    0.000    0.000 
#    0.000    0.000    0.000    0.000    0.000    0.000 
#
# Total GULP energy -78141.628084 kJ/mol
# GULP energy per Si atom -5581.544863 kJ/mol
# Density = 2.363088 g / cm^3
# Si number density = 23.684785 Si / 1000 Ang^3
#
#
#
# Elastic Constant Matrix: (Units=GPa)
#
#
# Indices 1 2 3 4 5 6 
#
# 1 104.3242 43.1276 30.2100 -1.1153 1.2409 20.5167
# 2 43.1276 87.4644 34.9081 5.0966 8.3539 10.1076
# 3 30.2100 34.9081 116.4037 6.7870 -9.3277 17.3743
# 4 -1.1153 5.0966 6.7870 39.2461 3.7642 -3.5267
# 5 1.2409 8.3539 -9.3277 3.7642 48.3048 -1.8850
# 6 20.5167 10.1076 17.3743 -3.5267 -1.8850 39.7177
#
#
#
# Elastic Compliance Matrix: (Units=1/GPa)
#
#
# Indices 1 2 3 4 5 6 
#
# 1 0.013151 -0.005569 -0.001057 0.000829 0.000168 -0.004832
# 2 -0.005569 0.015960 -0.003535 -0.001305 -0.003194 0.000094
# 3 -0.001057 -0.003535 0.010754 -0.001991 0.002741 -0.003306
# 4 0.000829 -0.001305 -0.001991 0.026493 -0.002126 0.003026
# 5 0.000168 -0.003194 0.002741 -0.002126 0.021960 0.000380
# 6 -0.004832 0.000094 -0.003306 0.003026 0.000380 0.029383
#
#
# Mechanical properties :
#
#
# Convention : Reuss Voigt Hill
#
# Bulk Modulus (GPa) = 51.16493 58.29820 54.73157
# Shear Modulus (GPa) = 34.59327 38.78348 36.68838
#
# Velocity S-wave (km/s) = 3.82589 4.05098 3.94004
# Velocity P-wave (km/s) = 6.41606 6.82262 6.62246
#
# Compressibility (1/GPa) = 0.01954464
#
# Stress axis : x y z
#
# Youngs Moduli (GPa) = 76.04117 62.65580 92.98658
#
# Poissons Ratio (x) = 0.34891 0.09825
# Poissons Ratio (y) = 0.42345 0.32870
# Poissons Ratio (z) = 0.08035 0.22149
#
# Static dielectric constant tensor:
#      x y z
#    x 2.201810 0.077080 0.036810 
#    y 0.077080 1.591970 -0.270030 
#    z 0.036810 -0.270030 1.532150 
# 
# From -- ./inp_files/348834.got.cif
#   From: 2010.05.17/outbox.cif.g08.bks.cpg/sg2_175_cif.got.tgz:348834.got - 2010.06.03 11:33:40.
