data_PCOD9051408
_publ_section_title
;
Structure prediction by ZEFSAII (Michael W. Deem and Ramdas Pophale) SiO2 
 PCOD9051408
Probable space group: P -1
;
_chemical_formula_sum "Si O2"
_cell_formula_units_Z 12
_cell_length_a 5.574554
_cell_length_b 15.372794
_cell_length_c 8.476222
_cell_angle_alpha 60.621758
_cell_angle_beta 57.516083
_cell_angle_gamma 80.703053
_cell_volume 528.779510
_symmetry_space_group_name_H-M "P -1"
_symmetry_group_IT_number 2
_symmetry_cell_setting 'triclinic'
loop_
_space_group_symop_operation_xyz
x,y,z
-x,-y,-z
loop_
_atom_site_type_symbol
_atom_site_label
_atom_site_fract_x
_atom_site_fract_y
_atom_site_fract_z
Si Si1 0.766840 0.711683 0.570996
Si Si2 0.828565 0.593734 0.961886
Si Si3 0.327119 0.478421 0.416538
Si Si4 0.814582 0.211246 0.220070
Si Si5 0.872670 0.929375 0.966081
Si Si6 0.758416 0.122930 0.666101
O O1 0.860236 0.636662 0.736868
O O2 0.666749 0.638570 0.527170
O O3 0.504731 0.760175 0.696654
O O4 0.026392 0.800109 0.373026
O O5 0.966893 0.685348 0.941257
O O6 0.506505 0.551582 0.161059
O O7 0.000000 0.500000 0.000000
O O8 0.500000 0.500000 0.500000
O O9 0.000000 0.500000 0.500000
O O10 0.826683 0.154634 0.434099
O O11 0.906649 0.140860 0.113987
O O12 0.805151 0.008458 0.784832
O O13 0.569915 0.869232 0.181804
O O14 0.000000 0.000000 0.000000
#
# Coordination Sequence:
#
# PCOD9051408 Si02
#       6
#     2   2   2   2   2   2
#     4  11  25  46  71 102 143 193 248 301 368 452
#     4  11  24  47  70 101 144 197 247 297 371 446
#     4  12  28  44  72 107 151 195 246 314 369 439
#     4  11  25  44  74 101 146 190 244 301 372 440
#     4  11  25  46  73 104 145 185 243 306 374 449
#     4  10  25  46  70 104 142 186 246 300 375 442
#
# _framework density 22.693770000000001
#
# number of rings (size 3 to 8) (size 9 to 14) (size 15 to 20)
#    0.000    1.000    1.667    3.000    7.000    9.333 
#    0.000    0.000    0.000    0.000    0.000    0.000 
#    0.000    0.000    0.000    0.000    0.000    0.000 
#
# Total GULP energy -67208.532461 kJ/mol
# GULP energy per Si atom -5600.711038 kJ/mol
# Density = 2.264212 g / cm^3
# Si number density = 22.693770 Si / 1000 Ang^3
#
#
#
# Elastic Constant Matrix: (Units=GPa)
#
#
# Indices 1 2 3 4 5 6 
#
# 1 101.0589 67.5593 29.5463 10.2036 -31.7463 0.8345
# 2 67.5593 184.4376 62.0890 17.7206 -19.2088 6.7461
# 3 29.5463 62.0890 101.0632 -5.9924 -45.7068 5.9901
# 4 10.2036 17.7206 -5.9924 27.2742 2.1558 -7.4172
# 5 -31.7463 -19.2088 -45.7068 2.1558 52.6406 -3.8816
# 6 0.8345 6.7461 5.9901 -7.4172 -3.8816 43.6078
#
#
#
# Elastic Compliance Matrix: (Units=1/GPa)
#
#
# Indices 1 2 3 4 5 6 
#
# 1 0.016500 -0.005942 0.003686 -0.002187 0.011125 0.000715
# 2 -0.005942 0.010167 -0.007654 -0.006106 -0.006418 -0.002018
# 3 0.003686 -0.007654 0.022285 0.007280 0.018551 0.000942
# 4 -0.002187 -0.006106 0.007280 0.045047 0.001503 0.007782
# 5 0.011125 -0.006418 0.018551 0.001503 0.039558 0.002009
# 6 0.000715 -0.002018 0.000942 0.007782 0.002009 0.024603
#
#
# Mechanical properties :
#
#
# Convention : Reuss Voigt Hill
#
# Bulk Modulus (GPa) = 34.32652 78.32764 56.32708
# Shear Modulus (GPa) = 26.63944 39.86221 33.25083
#
# Velocity S-wave (km/s) = 3.42989 4.19564 3.83194
# Velocity P-wave (km/s) = 5.55377 7.61979 6.66729
#
# Compressibility (1/GPa) = 0.02913200
#
# Stress axis : x y z
#
# Youngs Moduli (GPa) = 60.60747 98.35535 44.87243
#
# Poissons Ratio (x) = 0.58444 -0.16541
# Poissons Ratio (y) = 0.36014 0.34347
# Poissons Ratio (z) = -0.22342 0.75284
#
# Static dielectric constant tensor:
#      x y z
#    x 1.882620 0.011250 0.026910 
#    y 0.011250 1.822210 0.007250 
#    z 0.026910 0.007250 1.836740 
# 
# From -- ./inp_files/36467.got.cif
#   From: 2010.05.17/outbox.cif.g08.bks.cpg/sg2_19_cif.got.tgz:36467.got - 2010.06.03 11:33:40.
