data_PCOD9051258
_publ_section_title
;
Structure prediction by ZEFSAII (Michael W. Deem and Ramdas Pophale) SiO2 
 PCOD9051258
Probable space group: P -1
;
_chemical_formula_sum "Si O2"
_cell_formula_units_Z 10
_cell_length_a 11.322424
_cell_length_b 4.796079
_cell_length_c 18.653680
_cell_angle_alpha 113.835545
_cell_angle_beta 27.983152
_cell_angle_gamma 125.128820
_cell_volume 374.165741
_symmetry_space_group_name_H-M "P -1"
_symmetry_group_IT_number 2
_symmetry_cell_setting 'triclinic'
loop_
_space_group_symop_operation_xyz
x,y,z
-x,-y,-z
loop_
_atom_site_type_symbol
_atom_site_label
_atom_site_fract_x
_atom_site_fract_y
_atom_site_fract_z
Si Si1 0.679482 0.890503 0.129360
Si Si2 0.878545 0.242608 0.623058
Si Si3 0.238991 0.452017 0.774476
Si Si4 0.559642 0.056648 0.558274
Si Si5 0.592383 0.198232 0.046037
O O1 0.328050 0.701701 0.316798
O O2 0.642784 0.593069 0.060518
O O3 0.718889 0.283709 0.156527
O O4 0.000000 0.000000 0.000000
O O5 0.119016 0.620021 0.565376
O O6 0.658257 0.030368 0.785187
O O7 0.000000 0.000000 0.500000
O O8 0.341935 0.186579 0.716187
O O9 0.456623 0.696783 0.619735
O O10 0.907723 0.254376 0.904991
O O11 0.500000 0.000000 0.500000
O O12 0.500000 0.000000 0.000000
#
# Coordination Sequence:
#
# PCOD9051258 Si02
#       5
#     2   2   2   2   2
#     4  10  25  45  74 102 150 197 256 303 383 452
#     4  12  26  47  79 108 148 198 259 317 380 452
#     4  11  26  48  73 107 155 203 254 309 386 462
#     4  12  27  46  75 111 158 198 252 320 390 449
#     4  11  27  46  75 109 150 201 257 315 379 460
#
# _framework density 26.726126000000001
#
# number of rings (size 3 to 8) (size 9 to 14) (size 15 to 20)
#    0.000    0.800    2.000    3.000   11.200    4.000 
#    0.000    0.000    0.000    0.000    0.000    0.000 
#    0.000    0.000    0.000    0.000    0.000    0.000 
#
# Total GULP energy -55881.452622 kJ/mol
# GULP energy per Si atom -5588.145262 kJ/mol
# Density = 2.666530 g / cm^3
# Si number density = 26.726126 Si / 1000 Ang^3
#
#
#
# Elastic Constant Matrix: (Units=GPa)
#
#
# Indices 1 2 3 4 5 6 
#
# 1 129.4151 59.7758 77.9369 -15.0036 -2.1966 39.8684
# 2 59.7758 143.8432 61.6197 -10.0609 -8.8140 31.6425
# 3 77.9369 61.6197 185.1998 -32.1081 -24.2367 27.0913
# 4 -15.0036 -10.0609 -32.1081 68.6172 -16.1590 -10.1611
# 5 -2.1966 -8.8140 -24.2367 -16.1590 72.0523 -4.1662
# 6 39.8684 31.6425 27.0913 -10.1611 -4.1662 66.9346
#
#
#
# Elastic Compliance Matrix: (Units=1/GPa)
#
#
# Indices 1 2 3 4 5 6 
#
# 1 0.012865 -0.002630 -0.004162 -0.000668 -0.001765 -0.004946
# 2 -0.002630 0.009226 -0.001649 -0.000237 0.000317 -0.002144
# 3 -0.004162 -0.001649 0.008749 0.003845 0.003507 0.000519
# 4 -0.000668 -0.000237 0.003845 0.017742 0.005337 0.001979
# 5 -0.001765 0.000317 0.003507 0.005337 0.016316 0.001308
# 6 -0.004946 -0.002144 0.000519 0.001979 0.001308 0.019071
#
#
# Mechanical properties :
#
#
# Convention : Reuss Voigt Hill
#
# Bulk Modulus (GPa) = 71.64510 95.23588 83.44049
# Shear Modulus (GPa) = 47.39195 58.79584 53.09390
#
# Velocity S-wave (km/s) = 4.21556 4.69544 4.46195
# Velocity P-wave (km/s) = 7.11055 8.06893 7.60485
#
# Compressibility (1/GPa) = 0.01395769
#
# Stress axis : x y z
#
# Youngs Moduli (GPa) = 77.73243 108.39314 114.29525
#
# Poissons Ratio (x) = 0.28507 0.47571
# Poissons Ratio (y) = 0.20443 0.18845
# Poissons Ratio (z) = 0.32353 0.17872
#
# Static dielectric constant tensor:
#      x y z
#    x 2.879100 -0.078290 0.248610 
#    y -0.078290 1.982530 -0.042470 
#    z 0.248610 -0.042470 2.226250 
# 
# From -- ./inp_files/16303.got.cif
#   From: 2010.05.17/outbox.cif.g08.bks.cpg/sg2_9_cif.got.tgz:16303.got - 2010.06.03 11:33:40.
