data_PCOD9051778
_publ_section_title
;
Structure prediction by ZEFSAII (Michael W. Deem and Ramdas Pophale) SiO2 
 PCOD9051778
Probable space group: P -1
;
_chemical_formula_sum "Si O2"
_cell_formula_units_Z 12
_cell_length_a 16.382350
_cell_length_b 12.428053
_cell_length_c 14.540244
_cell_angle_alpha 160.294830
_cell_angle_beta 25.877965
_cell_angle_gamma 150.164408
_cell_volume 431.451810
_symmetry_space_group_name_H-M "P -1"
_symmetry_group_IT_number 2
_symmetry_cell_setting 'triclinic'
loop_
_space_group_symop_operation_xyz
x,y,z
-x,-y,-z
loop_
_atom_site_type_symbol
_atom_site_label
_atom_site_fract_x
_atom_site_fract_y
_atom_site_fract_z
Si Si1 0.908607 0.133074 0.788374
Si Si2 0.178628 0.270949 0.058155
Si Si3 0.564090 0.463438 0.799662
Si Si4 0.143377 0.993538 0.605394
Si Si5 0.558227 0.129930 0.243150
Si Si6 0.834169 0.219149 0.192435
O O1 0.682475 0.129909 0.024941
O O2 0.000000 0.000000 0.500000
O O3 0.986400 0.942980 0.642759
O O4 0.000000 0.500000 0.000000
O O5 0.156699 0.647194 0.363145
O O6 0.370870 0.219484 0.768378
O O7 0.197878 0.169790 0.065552
O O8 0.000000 0.000000 0.000000
O O9 0.742987 0.341515 0.474055
O O10 0.500000 0.500000 0.000000
O O11 0.541867 0.775973 0.015771
O O12 0.339277 0.171658 0.506216
O O13 0.052840 0.251520 0.968906
O O14 0.704601 0.319920 0.321659
#
# Coordination Sequence:
#
# PCOD9051778 Si02
#       6
#     2   2   2   2   2   2
#     4  11  28  54  82 110 150 198 264 341 402 449
#     4  11  25  40  69 107 155 201 246 298 368 465
#     4  11  24  45  68 105 156 209 244 296 379 463
#     4  10  26  48  73 113 145 200 262 312 386 467
#     4  10  25  47  76 109 150 198 254 312 387 466
#     4  11  24  42  71 101 159 199 241 301 368 456
#
# _framework density 27.813071000000001
#
# number of rings (size 3 to 8) (size 9 to 14) (size 15 to 20)
#    0.000    1.333    1.667    1.000   11.667    2.667 
#    3.000    0.000    0.000    0.000    0.000    0.000 
#    0.000    0.000    0.000    0.000    0.000    0.000 
#
# Total GULP energy -66920.789796 kJ/mol
# GULP energy per Si atom -5576.732483 kJ/mol
# Density = 2.774977 g / cm^3
# Si number density = 27.813071 Si / 1000 Ang^3
#
#
#
# Elastic Constant Matrix: (Units=GPa)
#
#
# Indices 1 2 3 4 5 6 
#
# 1 59.1079 10.3685 48.5769 -13.8482 16.2647 -12.7268
# 2 10.3685 156.6279 80.6311 -54.0883 11.7146 -7.0041
# 3 48.5769 80.6311 239.1025 -65.0464 28.8306 5.8470
# 4 -13.8482 -54.0883 -65.0464 82.2353 -3.5394 -19.2515
# 5 16.2647 11.7146 28.8306 -3.5394 59.9649 -5.0861
# 6 -12.7268 -7.0041 5.8470 -19.2515 -5.0861 32.9281
#
#
#
# Elastic Compliance Matrix: (Units=1/GPa)
#
#
# Indices 1 2 3 4 5 6 
#
# 1 0.025907 0.003924 -0.004702 0.006548 -0.003882 0.014912
# 2 0.003924 0.010390 -0.002349 0.007581 -0.000800 0.008452
# 3 -0.004702 -0.002349 0.006852 0.002466 -0.001613 -0.002341
# 4 0.006548 0.007581 0.002466 0.024269 -0.001512 0.017661
# 5 -0.003882 -0.000800 -0.001613 -0.001512 0.018624 0.000608
# 6 0.014912 0.008452 -0.002341 0.017661 0.000608 0.048765
#
#
# Mechanical properties :
#
#
# Convention : Reuss Voigt Hill
#
# Bulk Modulus (GPa) = 27.10358 81.55460 54.32909
# Shear Modulus (GPa) = 32.60343 56.04311 44.32327
#
# Velocity S-wave (km/s) = 3.42750 4.49374 3.99634
# Velocity P-wave (km/s) = 5.04280 7.50406 6.39299
#
# Compressibility (1/GPa) = 0.03689549
#
# Stress axis : x y z
#
# Youngs Moduli (GPa) = 38.59975 96.25062 145.93895
#
# Poissons Ratio (x) = -0.37768 0.68617
# Poissons Ratio (y) = -0.15146 0.34277
# Poissons Ratio (z) = 0.18149 0.22606
#
# Static dielectric constant tensor:
#      x y z
#    x 2.948750 0.490130 0.022460 
#    y 0.490130 2.539800 0.093250 
#    z 0.022460 0.093250 2.312090 
# 
# From -- ./inp_files/578236.got.cif
#   From: 2010.05.17/outbox.cif.g08.bks.cpg/sg2_290_cif.got.tgz:578236.got - 2010.06.03 11:33:40.
