data_PCOD9051748
_publ_section_title
;
Structure prediction by ZEFSAII (Michael W. Deem and Ramdas Pophale) SiO2 
 PCOD9051748
Probable space group: P -1
;
_chemical_formula_sum "Si O2"
_cell_formula_units_Z 12
_cell_length_a 14.911220
_cell_length_b 5.350231
_cell_length_c 9.188695
_cell_angle_alpha 110.197192
_cell_angle_beta 84.622415
_cell_angle_gamma 49.165268
_cell_volume 464.869207
_symmetry_space_group_name_H-M "P -1"
_symmetry_group_IT_number 2
_symmetry_cell_setting 'triclinic'
loop_
_space_group_symop_operation_xyz
x,y,z
-x,-y,-z
loop_
_atom_site_type_symbol
_atom_site_label
_atom_site_fract_x
_atom_site_fract_y
_atom_site_fract_z
Si Si1 0.263679 0.532952 0.340161
Si Si2 0.074390 0.411126 0.620527
Si Si3 0.411280 0.572146 0.154834
Si Si4 0.647595 0.180591 0.245353
Si Si5 0.835713 0.698686 0.851055
Si Si6 0.713205 0.653235 0.391834
O O1 0.377109 0.346553 0.168738
O O2 0.150252 0.620236 0.289865
O O3 0.323507 0.248196 0.411455
O O4 0.201043 0.938081 0.495721
O O5 0.133551 0.576875 0.666385
O O6 0.000000 0.500000 0.500000
O O7 0.973923 0.551656 0.792316
O O8 0.502688 0.457573 0.255193
O O9 0.266362 0.947155 0.178659
O O10 0.500000 0.500000 0.000000
O O11 0.678529 0.426424 0.311030
O O12 0.654022 0.976450 0.344099
O O13 0.761044 0.844014 0.044593
#
# Coordination Sequence:
#
# PCOD9051748 Si02
#       6
#     2   2   2   2   2   2
#     4  12  24  46  77 111 144 197 255 296 372 442
#     4  12  24  47  76 112 146 194 254 305 364 448
#     4  10  25  47  74 111 145 199 249 304 368 444
#     4  11  29  49  73 112 156 193 245 311 372 438
#     4  11  26  46  79 109 147 201 251 303 365 445
#     4  12  27  50  73 113 153 196 243 309 380 429
#
# _framework density 25.813713
#
# number of rings (size 3 to 8) (size 9 to 14) (size 15 to 20)
#    0.000    0.667    5.000    0.500    7.000    4.000 
#    0.000    0.000    0.000    0.000    0.000    0.000 
#    0.000    0.000    0.000    0.000    0.000    0.000 
#
# Total GULP energy -66994.679618 kJ/mol
# GULP energy per Si atom -5582.889968 kJ/mol
# Density = 2.575496 g / cm^3
# Si number density = 25.813713 Si / 1000 Ang^3
#
#
#
# Elastic Constant Matrix: (Units=GPa)
#
#
# Indices 1 2 3 4 5 6 
#
# 1 152.8082 34.2961 4.4387 -23.5854 -13.1918 17.7973
# 2 34.2961 131.1903 47.5905 -43.7810 -13.2769 4.4524
# 3 4.4387 47.5905 102.0358 -30.8097 -38.3425 13.9800
# 4 -23.5854 -43.7810 -30.8097 42.1452 -6.7938 -5.6385
# 5 -13.1918 -13.2769 -38.3425 -6.7938 47.7487 -6.3518
# 6 17.7973 4.4524 13.9800 -5.6385 -6.3518 36.1424
#
#
#
# Elastic Compliance Matrix: (Units=1/GPa)
#
#
# Indices 1 2 3 4 5 6 
#
# 1 0.009379 -0.000222 0.007115 0.011190 0.009308 -0.003962
# 2 -0.000222 0.013159 0.000801 0.015441 0.006672 0.001760
# 3 0.007115 0.000801 0.031093 0.031842 0.030993 -0.005215
# 4 0.011190 0.015441 0.031842 0.076353 0.043802 -0.000119
# 5 0.009308 0.006672 0.030993 0.043802 0.056404 -0.000647
# 6 -0.003962 0.001760 -0.005215 -0.000119 -0.000647 0.031287
#
#
# Mechanical properties :
#
#
# Convention : Reuss Voigt Hill
#
# Bulk Modulus (GPa) = 14.48906 62.07610 38.28258
# Shear Modulus (GPa) = 22.19319 45.18784 33.69052
#
# Velocity S-wave (km/s) = 2.93532 4.18848 3.61659
# Velocity P-wave (km/s) = 4.13682 6.89138 5.68350
#
# Compressibility (1/GPa) = 0.06901757
#
# Stress axis : x y z
#
# Youngs Moduli (GPa) = 106.61651 75.99520 32.16134
#
# Poissons Ratio (x) = 0.01690 -0.22882
# Poissons Ratio (y) = 0.02370 -0.02575
# Poissons Ratio (z) = -0.75856 -0.06084
#
# Static dielectric constant tensor:
#      x y z
#    x 2.106400 0.165690 0.141230 
#    y 0.165690 2.210980 0.183800 
#    z 0.141230 0.183800 2.225430 
# 
# From -- ./inp_files/130635.got.cif
#   From: 2010.05.17/outbox.cif.g08.bks.cpg/sg2_66_cif.got.tgz:130635.got - 2010.06.03 11:33:40.
