data_PCOD9051191
_publ_section_title
;
Structure prediction by ZEFSAII (Michael W. Deem and Ramdas Pophale) SiO2 
 PCOD9051191
Probable space group: P -1
;
_chemical_formula_sum "Si O2"
_cell_formula_units_Z 14
_cell_length_a 14.612844
_cell_length_b 28.109092
_cell_length_c 14.826283
_cell_angle_alpha 19.801857
_cell_angle_beta 159.808001
_cell_angle_gamma 159.595907
_cell_volume 630.952152
_symmetry_space_group_name_H-M "P -1"
_symmetry_group_IT_number 2
_symmetry_cell_setting 'triclinic'
loop_
_space_group_symop_operation_xyz
x,y,z
-x,-y,-z
loop_
_atom_site_type_symbol
_atom_site_label
_atom_site_fract_x
_atom_site_fract_y
_atom_site_fract_z
Si Si1 0.417610 0.838886 0.761449
Si Si2 0.438771 0.290087 0.447369
Si Si3 0.567693 0.228943 0.481198
Si Si4 0.802778 0.483780 0.935482
Si Si5 0.870168 0.006390 0.199584
Si Si6 0.966435 0.542520 0.184322
Si Si7 0.217257 0.224129 0.635115
O O1 0.112014 0.805198 0.589459
O O2 0.500000 0.000000 0.500000
O O3 0.389444 0.705116 0.902246
O O4 0.641807 0.833609 0.052775
O O5 0.563910 0.314348 0.418897
O O6 0.274853 0.102426 0.652737
O O7 0.713622 0.382556 0.604940
O O8 0.199766 0.355141 0.122483
O O9 0.760991 0.363827 0.347651
O O10 0.223251 0.119990 0.330225
O O11 0.714341 0.114272 0.839797
O O12 0.625665 0.585622 0.573659
O O13 0.976548 0.544873 0.080923
O O14 0.000000 0.500000 0.000000
O O15 0.802284 0.875113 0.293941
#
# Coordination Sequence:
#
# PCOD9051191 Si02
#       7
#     2   2   2   2   2   2   2
#     4  11  25  44  70 101 136 175 231 294 351 403
#     4  12  25  47  74 101 143 188 239 284 352 426
#     4  12  26  46  70 109 142 184 231 302 353 408
#     4  10  25  45  71  98 139 185 237 279 348 420
#     4  12  25  43  73 101 147 181 237 280 358 420
#     4  12  26  45  73 104 140 187 237 293 349 419
#     4  11  24  44  67  97 139 184 229 280 343 428
#
# _framework density 22.188687000000002
#
# number of rings (size 3 to 8) (size 9 to 14) (size 15 to 20)
#    0.000    0.571    1.429    6.000    8.000    2.286 
#    0.000    0.000    0.000    0.000    0.000    0.000 
#    0.000    0.000    0.000    0.000    0.000    0.000 
#
# Total GULP energy -78367.497962 kJ/mol
# GULP energy per Si atom -5597.678426 kJ/mol
# Density = 2.213819 g / cm^3
# Si number density = 22.188687 Si / 1000 Ang^3
#
#
#
# Elastic Constant Matrix: (Units=GPa)
#
#
# Indices 1 2 3 4 5 6 
#
# 1 114.0760 2.4451 -5.4575 -14.8333 0.4229 -26.6409
# 2 2.4451 87.8802 33.1879 -4.5565 -5.5731 4.7362
# 3 -5.4575 33.1879 159.6264 -8.9856 19.9723 6.4968
# 4 -14.8333 -4.5565 -8.9856 46.8233 11.9892 -4.9772
# 5 0.4229 -5.5731 19.9723 11.9892 42.6861 -4.4014
# 6 -26.6409 4.7362 6.4968 -4.9772 -4.4014 50.5884
#
#
#
# Elastic Compliance Matrix: (Units=1/GPa)
#
#
# Indices 1 2 3 4 5 6 
#
# 1 0.010791 -0.000717 0.000663 0.004403 -0.001129 0.006000
# 2 -0.000717 0.012782 -0.003064 -0.000478 0.003145 -0.000954
# 3 0.000663 -0.003064 0.007686 0.002554 -0.004773 -0.000515
# 4 0.004403 -0.000478 0.002554 0.025684 -0.008117 0.003856
# 5 -0.001129 0.003145 -0.004773 -0.008117 0.028507 0.001406
# 6 0.006000 -0.000954 -0.000515 0.003856 0.001406 0.023584
#
#
# Mechanical properties :
#
#
# Convention : Reuss Voigt Hill
#
# Bulk Modulus (GPa) = 39.96251 46.88151 43.42201
# Shear Modulus (GPa) = 40.44939 50.11338 45.28138
#
# Velocity S-wave (km/s) = 4.27426 4.75753 4.52236
# Velocity P-wave (km/s) = 6.51218 7.16612 6.84696
#
# Compressibility (1/GPa) = 0.02502346
#
# Stress axis : x y z
#
# Youngs Moduli (GPa) = 92.66986 78.23383 130.10222
#
# Poissons Ratio (x) = 0.05611 -0.08625
# Poissons Ratio (y) = 0.06647 0.39859
# Poissons Ratio (z) = -0.06143 0.23968
#
# Static dielectric constant tensor:
#      x y z
#    x 1.874560 0.138520 -0.056460 
#    y 0.138520 2.073140 -0.090090 
#    z -0.056460 -0.090090 1.780910 
# 
# From -- ./inp_files/310062.got.cif
#   From: 2010.05.17/outbox.cif.g08.bks.cpg/sg2_156_cif.got.tgz:310062.got - 2010.06.03 11:33:40.
