data_PCOD9051143
_publ_section_title
;
Structure prediction by ZEFSAII (Michael W. Deem and Ramdas Pophale) SiO2 
 PCOD9051143
Probable space group: P -1
;
_chemical_formula_sum "Si O2"
_cell_formula_units_Z 16
_cell_length_a 9.115702
_cell_length_b 8.725543
_cell_length_c 16.415494
_cell_angle_alpha 117.211326
_cell_angle_beta 46.985779
_cell_angle_gamma 87.883022
_cell_volume 716.484428
_symmetry_space_group_name_H-M "P -1"
_symmetry_group_IT_number 2
_symmetry_cell_setting 'triclinic'
loop_
_space_group_symop_operation_xyz
x,y,z
-x,-y,-z
loop_
_atom_site_type_symbol
_atom_site_label
_atom_site_fract_x
_atom_site_fract_y
_atom_site_fract_z
Si Si1 0.901210 0.703930 0.347888
Si Si2 0.754895 0.104280 0.919045
Si Si3 0.004994 0.644817 0.465082
Si Si4 0.980404 0.830869 0.918363
Si Si5 0.509824 0.549877 0.178913
Si Si6 0.402827 0.382274 0.667112
Si Si7 0.070475 0.927754 0.606652
Si Si8 0.652341 0.686619 0.002184
O O1 0.700466 0.732357 0.369371
O O2 0.869343 0.643102 0.435745
O O3 0.146382 0.523647 0.169603
O O4 0.892521 0.912246 0.416207
O O5 0.686130 0.308186 0.042553
O O6 0.524796 0.167903 0.966290
O O7 0.863823 0.920919 0.896577
O O8 0.952384 0.042655 0.761858
O O9 0.261480 0.583561 0.313985
O O10 0.922051 0.857120 0.594018
O O11 0.000000 0.500000 0.500000
O O12 0.234497 0.620037 0.765496
O O13 0.797562 0.774662 0.010542
O O14 0.000000 0.000000 0.000000
O O15 0.602881 0.628083 0.235148
O O16 0.511658 0.644594 0.114302
O O17 0.679091 0.276007 0.517086
#
# Coordination Sequence:
#
# PCOD9051143 Si02
#       8
#     2   2   2   2   2   2   2   2
#     4  11  22  45  75 105 140 185 242 288 358 422
#     4  12  23  43  71 104 141 183 244 291 353 421
#     4  11  26  45  69 102 146 187 231 295 357 416
#     4  11  25  44  67 106 148 187 235 292 358 424
#     4  11  22  47  74 103 142 181 240 291 356 420
#     4  10  25  45  71 100 146 186 232 293 354 424
#     4  11  25  44  70 102 140 191 235 289 355 423
#     4  11  24  42  78 106 139 186 237 304 347 414
#
# _framework density 22.33126
#
# number of rings (size 3 to 8) (size 9 to 14) (size 15 to 20)
#    0.000    1.000    3.750    2.250    3.500    5.500 
#    2.250    0.000    0.000    0.000    0.000    0.000 
#    0.000    0.000    0.000    0.000    0.000    0.000 
#
# Total GULP energy -89370.220457 kJ/mol
# GULP energy per Si atom -5585.638779 kJ/mol
# Density = 2.228043 g / cm^3
# Si number density = 22.331260 Si / 1000 Ang^3
#
#
#
# Elastic Constant Matrix: (Units=GPa)
#
#
# Indices 1 2 3 4 5 6 
#
# 1 116.8093 26.1970 9.6141 -2.0016 12.1495 -4.1870
# 2 26.1970 88.6472 16.7951 -2.3622 3.5938 -5.3455
# 3 9.6141 16.7951 50.8053 6.6493 -1.4947 -6.7187
# 4 -2.0016 -2.3622 6.6493 39.8335 -7.8724 4.6492
# 5 12.1495 3.5938 -1.4947 -7.8724 36.2835 7.9507
# 6 -4.1870 -5.3455 -6.7187 4.6492 7.9507 41.5748
#
#
#
# Elastic Compliance Matrix: (Units=1/GPa)
#
#
# Indices 1 2 3 4 5 6 
#
# 1 0.009569 -0.002460 -0.000900 -0.000308 -0.003321 0.001171
# 2 -0.002460 0.012830 -0.003832 0.001081 -0.000538 0.000765
# 3 -0.000900 -0.003832 0.022158 -0.004408 -0.000133 0.003516
# 4 -0.000308 0.001081 -0.004408 0.027855 0.006965 -0.005051
# 5 -0.003321 -0.000538 -0.000133 0.006965 0.031829 -0.007291
# 6 0.001171 0.000765 0.003516 -0.005051 -0.007291 0.026797
#
#
# Mechanical properties :
#
#
# Convention : Reuss Voigt Hill
#
# Bulk Modulus (GPa) = 33.14247 40.16381 36.65314
# Shear Modulus (GPa) = 32.15828 37.11539 34.63683
#
# Velocity S-wave (km/s) = 3.79892 4.08123 3.94261
# Velocity P-wave (km/s) = 5.84089 6.34296 6.09709
#
# Compressibility (1/GPa) = 0.03017276
#
# Stress axis : x y z
#
# Youngs Moduli (GPa) = 104.50486 77.93934 45.13031
#
# Poissons Ratio (x) = 0.19175 0.04062
# Poissons Ratio (y) = 0.25711 0.17295
# Poissons Ratio (z) = 0.09405 0.29868
#
# Static dielectric constant tensor:
#      x y z
#    x 1.875240 0.001230 -0.026170 
#    y 0.001230 1.858480 0.007920 
#    z -0.026170 0.007920 1.811020 
# 
# From -- ./inp_files/495392.got.cif
#   From: 2010.05.17/outbox.cif.g08.bks.cpg/sg2_248_cif.got.tgz:495392.got - 2010.06.03 11:33:40.
