data_PCOD9051544
_publ_section_title
;
Structure prediction by ZEFSAII (Michael W. Deem and Ramdas Pophale) SiO2 
 PCOD9051544
Probable space group: P -1
;
_chemical_formula_sum "Si O2"
_cell_formula_units_Z 16
_cell_length_a 8.375159
_cell_length_b 5.671488
_cell_length_c 15.482010
_cell_angle_alpha 84.379431
_cell_angle_beta 100.589589
_cell_angle_gamma 110.384199
_cell_volume 677.138157
_symmetry_space_group_name_H-M "P -1"
_symmetry_group_IT_number 2
_symmetry_cell_setting 'triclinic'
loop_
_space_group_symop_operation_xyz
x,y,z
-x,-y,-z
loop_
_atom_site_type_symbol
_atom_site_label
_atom_site_fract_x
_atom_site_fract_y
_atom_site_fract_z
Si Si1 0.429945 0.922552 0.397827
Si Si2 0.306867 0.144327 0.043987
Si Si3 0.130574 0.469629 0.766877
Si Si4 0.280734 0.656417 0.954690
Si Si5 0.181725 0.494595 0.486623
Si Si6 0.990655 0.827592 0.651408
Si Si7 0.798518 0.963783 0.765514
Si Si8 0.311752 0.312989 0.656437
O O1 0.255452 0.700420 0.414033
O O2 0.552332 0.810621 0.358151
O O3 0.500000 0.000000 0.500000
O O4 0.361055 0.073137 0.314811
O O5 0.512688 0.241094 0.044048
O O6 0.265907 0.102435 0.142410
O O7 0.240701 0.372004 0.998343
O O8 0.237726 0.871578 0.998484
O O9 0.187098 0.621490 0.854684
O O10 0.294116 0.394630 0.749838
O O11 0.099688 0.643345 0.681441
O O12 0.953725 0.235605 0.771127
O O13 0.143138 0.238652 0.437911
O O14 0.313693 0.515941 0.576246
O O15 0.000000 0.500000 0.500000
O O16 0.894473 0.795928 0.734031
O O17 0.122884 0.101293 0.637006
#
# Coordination Sequence:
#
# PCOD9051544 Si02
#       8
#     2   2   2   2   2   2   2   2
#     4  12  26  43  66 103 139 181 239 288 348 420
#     4  10  25  47  74 106 144 187 235 297 367 431
#     4  11  25  45  70 103 138 184 236 289 357 425
#     4  10  25  46  74 108 145 185 237 298 363 436
#     4  12  21  43  66  92 140 180 232 284 353 416
#     4  11  23  44  65  97 135 183 232 288 350 426
#     4  11  26  45  69 102 138 187 231 294 355 426
#     4  11  25  40  68  98 134 187 229 291 350 420
#
# _framework density 23.628857
#
# number of rings (size 3 to 8) (size 9 to 14) (size 15 to 20)
#    0.000    1.000    2.500    3.000    7.000    4.000 
#    0.000    0.000    0.000    0.000    0.000    0.000 
#    0.000    0.000    0.000    0.000    0.000    0.000 
#
# Total GULP energy -89305.183038 kJ/mol
# GULP energy per Si atom -5581.573940 kJ/mol
# Density = 2.357508 g / cm^3
# Si number density = 23.628857 Si / 1000 Ang^3
#
#
#
# Elastic Constant Matrix: (Units=GPa)
#
#
# Indices 1 2 3 4 5 6 
#
# 1 84.2305 19.5239 45.1962 10.3561 -16.5707 -18.3413
# 2 19.5239 76.7639 50.0868 9.0467 -9.2095 -12.9626
# 3 45.1962 50.0868 154.6421 18.7400 -17.9111 -9.8979
# 4 10.3561 9.0467 18.7400 43.8252 0.6909 -2.8665
# 5 -16.5707 -9.2095 -17.9111 0.6909 44.8367 2.3297
# 6 -18.3413 -12.9626 -9.8979 -2.8665 2.3297 26.5455
#
#
#
# Elastic Compliance Matrix: (Units=1/GPa)
#
#
# Indices 1 2 3 4 5 6 
#
# 1 0.017070 0.000591 -0.003787 -0.001947 0.004424 0.010072
# 2 0.000591 0.017718 -0.005161 -0.001163 0.001456 0.006882
# 3 -0.003787 -0.005161 0.009571 -0.002283 0.001500 -0.001947
# 4 -0.001947 -0.001163 -0.002283 0.024535 -0.002253 0.000083
# 5 0.004424 0.001456 0.001500 -0.002253 0.024772 0.001910
# 6 0.010072 0.006882 -0.001947 0.000083 0.001910 0.047107
#
#
# Mechanical properties :
#
#
# Convention : Reuss Voigt Hill
#
# Bulk Modulus (GPa) = 36.17469 60.58334 48.37902
# Shear Modulus (GPa) = 29.99324 36.43011 33.21168
#
# Velocity S-wave (km/s) = 3.56666 3.93079 3.75314
# Velocity P-wave (km/s) = 5.68367 6.80417 6.26901
#
# Compressibility (1/GPa) = 0.02764363
#
# Stress axis : x y z
#
# Youngs Moduli (GPa) = 58.58072 56.43888 104.48329
#
# Poissons Ratio (x) = -0.03333 0.39571
# Poissons Ratio (y) = -0.03460 0.53927
# Poissons Ratio (z) = 0.22186 0.29130
#
# Static dielectric constant tensor:
#      x y z
#    x 1.905390 -0.044750 -0.014160 
#    y -0.044750 2.042350 0.062330 
#    z -0.014160 0.062330 1.849200 
# 
# From -- ./inp_files/38453.got.cif
#   From: 2010.05.17/outbox.cif.g08.bks.cpg/sg2_20_cif.got.tgz:38453.got - 2010.06.03 11:33:40.
