data_PCOD9051727
_publ_section_title
;
Structure prediction by ZEFSAII (Michael W. Deem and Ramdas Pophale) SiO2 
 PCOD9051727
Probable space group: P -1
;
_chemical_formula_sum "Si O2"
_cell_formula_units_Z 14
_cell_length_a 14.623287
_cell_length_b 9.786624
_cell_length_c 5.313325
_cell_angle_alpha 70.469111
_cell_angle_beta 65.002757
_cell_angle_gamma 99.452381
_cell_volume 606.557984
_symmetry_space_group_name_H-M "P -1"
_symmetry_group_IT_number 2
_symmetry_cell_setting 'triclinic'
loop_
_space_group_symop_operation_xyz
x,y,z
-x,-y,-z
loop_
_atom_site_type_symbol
_atom_site_label
_atom_site_fract_x
_atom_site_fract_y
_atom_site_fract_z
Si Si1 0.380455 0.678199 0.387110
Si Si2 0.907109 0.228961 0.815758
Si Si3 0.915802 0.878360 0.488541
Si Si4 0.245715 0.081078 0.676128
Si Si5 0.791770 0.640536 0.168347
Si Si6 0.495935 0.170158 0.355735
Si Si7 0.857176 0.362981 0.295411
O O1 0.327340 0.491683 0.598995
O O2 0.460998 0.743714 0.484249
O O3 0.273783 0.725960 0.502644
O O4 0.433317 0.737520 0.019226
O O5 0.913954 0.312298 0.490121
O O6 0.004896 0.164815 0.768418
O O7 0.897530 0.332586 0.996139
O O8 0.796691 0.078466 0.024935
O O9 0.831231 0.957065 0.453582
O O10 0.839828 0.717101 0.800891
O O11 0.000000 0.000000 0.500000
O O12 0.211175 0.215005 0.758583
O O13 0.372325 0.145190 0.455264
O O14 0.863209 0.539035 0.226492
O O15 0.500000 0.000000 0.500000
#
# Coordination Sequence:
#
# PCOD9051727 Si02
#       7
#     2   2   2   2   2   2   2
#     4  10  25  48  71 111 153 189 248 315 376 443
#     4  12  25  47  78 106 151 203 254 312 375 441
#     4  12  27  49  76 112 155 204 259 313 379 454
#     4  12  28  46  78 111 153 198 262 312 379 462
#     4  10  28  47  76 108 164 192 256 312 390 441
#     4  12  26  47  82 110 148 201 254 307 387 452
#     4  10  25  47  73 109 155 191 250 315 374 444
#
# _framework density 23.081057000000001
#
# number of rings (size 3 to 8) (size 9 to 14) (size 15 to 20)
#    0.857    0.000    1.429    4.286    8.000    2.286 
#    0.000    0.000    0.000    0.000    0.000    0.000 
#    0.000    0.000    0.000    0.000    0.000    0.000 
#
# Total GULP energy -78250.197981 kJ/mol
# GULP energy per Si atom -5589.299856 kJ/mol
# Density = 2.302852 g / cm^3
# Si number density = 23.081057 Si / 1000 Ang^3
#
#
#
# Elastic Constant Matrix: (Units=GPa)
#
#
# Indices 1 2 3 4 5 6 
#
# 1 123.0305 8.0406 25.5330 14.2282 -5.6525 -2.1995
# 2 8.0406 106.0850 17.7291 1.2820 2.5956 6.2185
# 3 25.5330 17.7291 122.7387 -7.9126 -5.1186 6.2804
# 4 14.2282 1.2820 -7.9126 43.3287 -0.9686 -7.4858
# 5 -5.6525 2.5956 -5.1186 -0.9686 41.2798 4.0388
# 6 -2.1995 6.2185 6.2804 -7.4858 4.0388 29.4028
#
#
#
# Elastic Compliance Matrix: (Units=1/GPa)
#
#
# Indices 1 2 3 4 5 6 
#
# 1 0.008987 -0.000342 -0.002003 -0.003248 0.000906 0.000221
# 2 -0.000342 0.009812 -0.001325 -0.000767 -0.000658 -0.001923
# 3 -0.002003 -0.001325 0.009011 0.002124 0.001114 -0.001407
# 4 -0.003248 -0.000767 0.002124 0.025590 -0.000119 0.005997
# 5 0.000906 -0.000658 0.001114 -0.000119 0.024866 -0.003477
# 6 0.000221 -0.001923 -0.001407 0.005997 -0.003477 0.036738
#
#
# Mechanical properties :
#
#
# Convention : Reuss Voigt Hill
#
# Bulk Modulus (GPa) = 48.85192 50.49551 49.67372
# Shear Modulus (GPa) = 38.70940 42.83902 40.77421
#
# Velocity S-wave (km/s) = 4.09969 4.31283 4.20761
# Velocity P-wave (km/s) = 6.60464 6.83562 6.72112
#
# Compressibility (1/GPa) = 0.02047002
#
# Stress axis : x y z
#
# Youngs Moduli (GPa) = 111.26671 101.91836 110.97800
#
# Poissons Ratio (x) = 0.03489 0.22230
# Poissons Ratio (y) = 0.03809 0.14700
# Poissons Ratio (z) = 0.22288 0.13500
#
# Static dielectric constant tensor:
#      x y z
#    x 1.897680 0.034570 0.040010 
#    y 0.034570 1.888360 -0.002960 
#    z 0.040010 -0.002960 1.905980 
# 
# From -- ./inp_files/94384.got.cif
#   From: 2010.05.17/outbox.cif.g08.bks.cpg/sg2_48_cif.got.tgz:94384.got - 2010.06.03 11:33:40.
