data_PCOD9051543
_publ_section_title
;
Structure prediction by ZEFSAII (Michael W. Deem and Ramdas Pophale) SiO2 
 PCOD9051543
Probable space group: P -1
;
_chemical_formula_sum "Si O2"
_cell_formula_units_Z 16
_cell_length_a 5.896152
_cell_length_b 16.417910
_cell_length_c 7.773264
_cell_angle_alpha 106.683273
_cell_angle_beta 62.602067
_cell_angle_gamma 105.442706
_cell_volume 631.932861
_symmetry_space_group_name_H-M "P -1"
_symmetry_group_IT_number 2
_symmetry_cell_setting 'triclinic'
loop_
_space_group_symop_operation_xyz
x,y,z
-x,-y,-z
loop_
_atom_site_type_symbol
_atom_site_label
_atom_site_fract_x
_atom_site_fract_y
_atom_site_fract_z
Si Si1 0.732940 0.471329 0.669814
Si Si2 0.648844 0.669549 0.440661
Si Si3 0.713503 0.936366 0.903538
Si Si4 0.896835 0.401242 0.917105
Si Si5 0.552853 0.159306 0.371115
Si Si6 0.627636 0.657181 0.828995
Si Si7 0.909015 0.819146 0.007894
Si Si8 0.137637 0.052949 0.646571
O O1 0.543373 0.419770 0.567784
O O2 0.766523 0.412152 0.784252
O O3 0.649615 0.559948 0.812571
O O4 0.000000 0.500000 0.500000
O O5 0.499218 0.747689 0.493659
O O6 0.739439 0.677567 0.611979
O O7 0.879562 0.654213 0.227916
O O8 0.640339 0.867154 0.736994
O O9 0.711290 0.881333 0.042971
O O10 0.000336 0.988159 0.801440
O O11 0.500000 0.000000 0.000000
O O12 0.681374 0.347399 0.079818
O O13 0.000000 0.500000 0.000000
O O14 0.436668 0.086744 0.508157
O O15 0.835556 0.165141 0.192474
O O16 0.766212 0.724388 0.957744
O O17 0.961615 0.857757 0.204303
O O18 0.000000 0.000000 0.500000
#
# Coordination Sequence:
#
# PCOD9051543 Si02
#       8
#     2   2   2   2   2   2   2   2
#     4  12  24  45  74 100 147 193 241 293 362 427
#     4  12  26  47  70 105 150 189 246 299 356 429
#     4  11  23  49  74 104 143 186 240 295 365 441
#     4  12  27  46  72 105 143 196 250 298 354 432
#     4  11  26  45  72 106 148 188 240 304 359 428
#     4  12  26  46  71 110 143 196 242 298 366 422
#     4  12  26  47  74 107 150 187 238 304 368 429
#     4  10  25  46  74 108 139 190 240 294 365 440
#
# _framework density 25.319144999999999
#
# number of rings (size 3 to 8) (size 9 to 14) (size 15 to 20)
#    0.000    0.500    5.000    2.625    1.750    2.500 
#    4.500    0.000    0.000    0.000    0.000    0.000 
#    0.000    0.000    0.000    0.000    0.000    0.000 
#
# Total GULP energy -89459.512484 kJ/mol
# GULP energy per Si atom -5591.219530 kJ/mol
# Density = 2.526152 g / cm^3
# Si number density = 25.319145 Si / 1000 Ang^3
#
#
#
# Elastic Constant Matrix: (Units=GPa)
#
#
# Indices 1 2 3 4 5 6 
#
# 1 54.3675 35.4952 38.8695 12.2586 -8.4447 9.1058
# 2 35.4952 127.9572 48.3405 33.9502 -1.2280 22.8902
# 3 38.8695 48.3405 154.8840 20.1713 -15.2131 20.5011
# 4 12.2586 33.9502 20.1713 56.2074 10.9026 3.7166
# 5 -8.4447 -1.2280 -15.2131 10.9026 55.5185 -5.5760
# 6 9.1058 22.8902 20.5011 3.7166 -5.5760 51.9440
#
#
#
# Elastic Compliance Matrix: (Units=1/GPa)
#
#
# Indices 1 2 3 4 5 6 
#
# 1 0.025587 -0.004984 -0.004361 -0.001553 0.002877 -0.000148
# 2 -0.004984 0.011683 -0.001275 -0.005255 -0.000160 -0.003412
# 3 -0.004361 -0.001275 0.008562 -0.001583 0.001790 -0.001747
# 4 -0.001553 -0.005255 -0.001583 0.022806 -0.005162 0.001027
# 5 0.002877 -0.000160 0.001790 -0.005162 0.020089 0.001386
# 6 -0.000148 -0.003412 -0.001747 0.001027 0.001386 0.021546
#
#
# Mechanical properties :
#
#
# Convention : Reuss Voigt Hill
#
# Bulk Modulus (GPa) = 40.66514 64.73544 52.70029
# Shear Modulus (GPa) = 35.78815 47.03423 41.41119
#
# Velocity S-wave (km/s) = 3.76371 4.31473 4.04860
# Velocity P-wave (km/s) = 5.91466 7.10252 6.53563
#
# Compressibility (1/GPa) = 0.02459109
#
# Stress axis : x y z
#
# Youngs Moduli (GPa) = 39.08207 85.59701 116.79236
#
# Poissons Ratio (x) = 0.42662 0.50937
# Poissons Ratio (y) = 0.19479 0.14892
# Poissons Ratio (z) = 0.17045 0.10914
#
# Static dielectric constant tensor:
#      x y z
#    x 2.124160 -0.084260 -0.039800 
#    y -0.084260 2.111890 -0.083660 
#    z -0.039800 -0.083660 2.176300 
# 
# From -- ./inp_files/139325.got.cif
#   From: 2010.05.17/outbox.cif.g08.bks.cpg/sg2_70_cif.got.tgz:139325.got - 2010.06.03 11:33:40.
