data_PCOD9051766
_publ_section_title
;
Structure prediction by ZEFSAII (Michael W. Deem and Ramdas Pophale) SiO2 
 PCOD9051766
Probable space group: P -1
;
_chemical_formula_sum "Si O2"
_cell_formula_units_Z 12
_cell_length_a 17.143727
_cell_length_b 9.517341
_cell_length_c 4.757765
_cell_angle_alpha 62.355170
_cell_angle_beta 96.006371
_cell_angle_gamma 133.823985
_cell_volume 466.757769
_symmetry_space_group_name_H-M "P -1"
_symmetry_group_IT_number 2
_symmetry_cell_setting 'triclinic'
loop_
_space_group_symop_operation_xyz
x,y,z
-x,-y,-z
loop_
_atom_site_type_symbol
_atom_site_label
_atom_site_fract_x
_atom_site_fract_y
_atom_site_fract_z
Si Si1 0.658158 0.849087 0.180306
Si Si2 0.563327 0.416298 0.278361
Si Si3 0.802865 0.342245 0.850061
Si Si4 0.603390 0.264749 0.902797
Si Si5 0.002857 0.815168 0.161590
Si Si6 0.130322 0.873566 0.655895
O O1 0.611598 0.664889 0.093959
O O2 0.722371 0.101529 0.863990
O O3 0.556034 0.751440 0.439515
O O4 0.750169 0.895921 0.371793
O O5 0.641778 0.422340 0.501631
O O6 0.439775 0.678183 0.928357
O O7 0.712446 0.323431 0.985400
O O8 0.891083 0.567653 0.482220
O O9 0.864474 0.306911 0.112891
O O10 0.500000 0.000000 0.000000
O O11 0.106684 0.894543 0.314250
O O12 0.029836 0.804179 0.866081
O O13 0.000000 0.000000 0.000000
#
# Coordination Sequence:
#
# PCOD9051766 Si02
#       6
#     2   2   2   2   2   2
#     4   9  24  47  76 109 149 206 248 307 378 446
#     4  11  25  47  71 112 154 199 249 305 370 458
#     4  10  25  47  75 112 147 201 251 311 381 440
#     4  12  25  45  72 111 156 194 248 310 375 443
#     4  12  26  48  74 110 148 192 254 319 382 443
#     4  10  25  48  74 105 147 196 252 310 379 447
#
# _framework density 25.709264999999998
#
# number of rings (size 3 to 8) (size 9 to 14) (size 15 to 20)
#    1.000    0.333    1.667    2.000    2.333    9.333 
#    0.000    0.000    0.000    0.000    0.000    0.000 
#    0.000    0.000    0.000    0.000    0.000    0.000 
#
# Total GULP energy -67204.941892 kJ/mol
# GULP energy per Si atom -5600.411824 kJ/mol
# Density = 2.565075 g / cm^3
# Si number density = 25.709265 Si / 1000 Ang^3
#
#
#
# Elastic Constant Matrix: (Units=GPa)
#
#
# Indices 1 2 3 4 5 6 
#
# 1 150.8822 55.3791 35.7680 -6.2462 6.7336 -16.8791
# 2 55.3791 136.9952 32.5954 -18.9567 -9.7261 -21.6654
# 3 35.7680 32.5954 114.8956 -13.0853 7.2897 -17.9318
# 4 -6.2462 -18.9567 -13.0853 40.8620 -10.0996 -5.3351
# 5 6.7336 -9.7261 7.2897 -10.0996 45.4116 3.8577
# 6 -16.8791 -21.6654 -17.9318 -5.3351 3.8577 47.2773
#
#
#
# Elastic Compliance Matrix: (Units=1/GPa)
#
#
# Indices 1 2 3 4 5 6 
#
# 1 0.008289 -0.003108 -0.001535 -0.001021 -0.001960 0.000998
# 2 -0.003108 0.010380 -0.001046 0.005396 0.003750 0.003553
# 3 -0.001535 -0.001046 0.010392 0.002710 -0.001345 0.003330
# 4 -0.001021 0.005396 0.002710 0.030218 0.007086 0.005968
# 5 -0.001960 0.003750 -0.001345 0.007086 0.024968 -0.000729
# 6 0.000998 0.003553 0.003330 0.005968 -0.000729 0.025132
#
#
# Mechanical properties :
#
#
# Convention : Reuss Voigt Hill
#
# Bulk Modulus (GPa) = 56.55267 72.25089 64.40178
# Shear Modulus (GPa) = 39.47827 45.31221 42.39524
#
# Velocity S-wave (km/s) = 3.92288 4.20275 4.06523
# Velocity P-wave (km/s) = 6.52406 7.19131 6.86580
#
# Compressibility (1/GPa) = 0.01768263
#
# Stress axis : x y z
#
# Youngs Moduli (GPa) = 120.63852 96.34166 96.23007
#
# Poissons Ratio (x) = 0.29946 0.14770
# Poissons Ratio (y) = 0.37498 0.10065
# Poissons Ratio (z) = 0.18516 0.10076
#
# Static dielectric constant tensor:
#      x y z
#    x 2.001400 0.055530 0.050440 
#    y 0.055530 2.088290 -0.002730 
#    z 0.050440 -0.002730 2.010320 
# 
# From -- ./inp_files/118447.got.cif
#   From: 2010.05.17/outbox.cif.g08.bks.cpg/sg2_60_cif.got.tgz:118447.got - 2010.06.03 11:33:40.
