data_PCOD9051971
_publ_section_title
;
Structure prediction by ZEFSAII (Michael W. Deem and Ramdas Pophale) SiO2 
 PCOD9051971
Probable space group: P -1
;
_chemical_formula_sum "Si O2"
_cell_formula_units_Z 16
_cell_length_a 10.495912
_cell_length_b 10.574290
_cell_length_c 9.011598
_cell_angle_alpha 121.549851
_cell_angle_beta 79.353918
_cell_angle_gamma 63.893042
_cell_volume 643.049847
_symmetry_space_group_name_H-M "P -1"
_symmetry_group_IT_number 2
_symmetry_cell_setting 'triclinic'
loop_
_space_group_symop_operation_xyz
x,y,z
-x,-y,-z
loop_
_atom_site_type_symbol
_atom_site_label
_atom_site_fract_x
_atom_site_fract_y
_atom_site_fract_z
Si Si1 0.150202 0.720301 0.976200
Si Si2 0.045429 0.058922 0.381412
Si Si3 0.207773 0.132244 0.835268
Si Si4 0.579594 0.600268 0.080707
Si Si5 0.518261 0.787252 0.698296
Si Si6 0.200556 0.622728 0.576208
Si Si7 0.259776 0.353832 0.183584
Si Si8 0.678992 0.933096 0.556931
O O1 0.975597 0.787629 0.120179
O O2 0.164634 0.874307 0.133556
O O3 0.306153 0.507159 0.865054
O O4 0.125486 0.725689 0.810463
O O5 0.870733 0.212350 0.426578
O O6 0.147929 0.130711 0.448569
O O7 0.000000 0.000000 0.500000
O O8 0.329724 0.923513 0.760625
O O9 0.291278 0.125054 0.658876
O O10 0.194650 0.266532 0.047878
O O11 0.448014 0.831854 0.265351
O O12 0.500000 0.500000 0.000000
O O13 0.703204 0.548461 0.886303
O O14 0.606000 0.561671 0.544414
O O15 0.560688 0.805920 0.869695
O O16 0.609569 0.843237 0.607914
O O17 0.152432 0.500443 0.431991
#
# Coordination Sequence:
#
# PCOD9051971 Si02
#       8
#     2   2   2   2   2   2   2   2
#     4  12  27  47  74 107 147 190 247 294 369 425
#     4  12  25  51  70 109 146 194 239 304 362 431
#     4  12  25  44  76 107 149 189 239 307 357 431
#     4  12  26  50  75 108 144 199 237 296 363 441
#     4  10  25  49  71 108 146 190 242 299 367 424
#     4  10  27  48  73 104 149 186 243 298 361 434
#     4  10  26  45  75 103 147 186 244 293 365 420
#     4  12  26  44  79 102 151 188 248 297 363 433
#
# _framework density 24.881430999999999
#
# number of rings (size 3 to 8) (size 9 to 14) (size 15 to 20)
#    0.750    0.000    3.750    2.625    3.500    2.500 
#    2.250    1.250    0.000    0.000    0.000    0.000 
#    0.000    0.000    0.000    0.000    0.000    0.000 
#
# Total GULP energy -89406.962067 kJ/mol
# GULP energy per Si atom -5587.935129 kJ/mol
# Density = 2.482480 g / cm^3
# Si number density = 24.881431 Si / 1000 Ang^3
#
#
#
# Elastic Constant Matrix: (Units=GPa)
#
#
# Indices 1 2 3 4 5 6 
#
# 1 102.6355 31.2450 3.9797 0.0005 11.4135 -21.2419
# 2 31.2450 171.6979 22.7392 -5.0683 14.2686 -10.8434
# 3 3.9797 22.7392 94.7747 -27.9104 56.9752 3.2503
# 4 0.0005 -5.0683 -27.9104 42.2991 3.7811 11.7671
# 5 11.4135 14.2686 56.9752 3.7811 -6.2666 -13.0755
# 6 -21.2419 -10.8434 3.2503 11.7671 -13.0755 16.1062
#
#
#
# Elastic Compliance Matrix: (Units=1/GPa)
#
#
# Indices 1 2 3 4 5 6 
#
# 1 0.013984 -0.001368 0.000963 -0.003594 -0.004713 0.016128
# 2 -0.001368 0.006414 -0.000968 -0.000335 -0.001134 0.002033
# 3 0.000963 -0.000968 0.003541 -0.001425 0.010732 0.009657
# 4 -0.003594 -0.000335 -0.001425 0.024090 0.015127 -0.009997
# 5 -0.004713 -0.001134 0.010732 0.015127 -0.008131 -0.026797
# 6 0.016128 0.002033 0.009657 -0.009997 -0.026797 0.068328
#
#
# Mechanical properties :
#
#
# Convention : Reuss Voigt Hill
#
# Bulk Modulus (GPa) = 47.18771 53.89287 50.54029
# Shear Modulus (GPa) = 42.35948 31.17069 36.76509
#
# Velocity S-wave (km/s) = 4.13056 3.54329 3.84814
# Velocity P-wave (km/s) = 6.46180 6.20054 6.33252
#
# Compressibility (1/GPa) = 0.02119196
#
# Stress axis : x y z
#
# Youngs Moduli (GPa) = 71.50795 155.90573 282.42484
#
# Poissons Ratio (x) = 0.21332 -0.27189
# Poissons Ratio (y) = 0.09784 0.27343
# Poissons Ratio (z) = -0.06884 0.15094
#
# Static dielectric constant tensor:
#      x y z
#    x 1.967710 -0.018830 -0.000820 
#    y -0.018830 1.960030 0.068180 
#    z -0.000820 0.068180 2.053500 
# 
# From -- ./inp_files/263060.got.cif
#   From: 2010.05.17/outbox.cif.g08.bks.cpg/sg2_132_cif.got.tgz:263060.got - 2010.06.03 11:33:40.
