data_PCOD9051565
_publ_section_title
;
Structure prediction by ZEFSAII (Michael W. Deem and Ramdas Pophale) SiO2 
 PCOD9051565
Probable space group: P -1
;
_chemical_formula_sum "Si O2"
_cell_formula_units_Z 12
_cell_length_a 13.947478
_cell_length_b 9.257306
_cell_length_c 8.647296
_cell_angle_alpha 74.354458
_cell_angle_beta 30.485903
_cell_angle_gamma 66.465592
_cell_volume 512.627776
_symmetry_space_group_name_H-M "P -1"
_symmetry_group_IT_number 2
_symmetry_cell_setting 'triclinic'
loop_
_space_group_symop_operation_xyz
x,y,z
-x,-y,-z
loop_
_atom_site_type_symbol
_atom_site_label
_atom_site_fract_x
_atom_site_fract_y
_atom_site_fract_z
Si Si1 0.810793 0.461559 0.707303
Si Si2 0.169795 0.894749 0.180833
Si Si3 0.262112 0.070862 0.764741
Si Si4 0.073029 0.622639 0.771406
Si Si5 0.464437 0.638058 0.372665
Si Si6 0.522581 0.008728 0.782398
O O1 0.829043 0.281174 0.764565
O O2 0.824393 0.463860 0.502753
O O3 0.000000 0.500000 0.500000
O O4 0.612699 0.564080 0.044179
O O5 0.000000 0.000000 0.500000
O O6 0.162751 0.944889 0.997376
O O7 0.363749 0.927533 0.968658
O O8 0.500000 0.000000 0.500000
O O9 0.270887 0.094369 0.562469
O O10 0.130533 0.224330 0.000973
O O11 0.237417 0.673507 0.620993
O O12 0.000000 0.500000 0.000000
O O13 0.500000 0.500000 0.500000
O O14 0.498741 0.809533 0.294957
O O15 0.500000 0.000000 0.000000
#
# Coordination Sequence:
#
# PCOD9051565 Si02
#       6
#     2   2   2   2   2   2
#     4  12  26  47  78 110 150 198 253 319 386 455
#     4  11  22  45  76 101 145 192 251 304 381 445
#     4  10  25  46  76 104 149 197 250 308 381 450
#     4  12  28  46  75 113 154 202 253 312 386 455
#     4  12  28  49  74 114 160 200 253 316 386 459
#     4  11  26  46  76 106 148 195 258 310 376 448
#
# _framework density 23.408797
#
# number of rings (size 3 to 8) (size 9 to 14) (size 15 to 20)
#    0.000    0.667    1.667    4.500   14.000    0.667 
#    3.000    0.000    0.000    0.000    0.000    0.000 
#    0.000    0.000    0.000    0.000    0.000    0.000 
#
# Total GULP energy -66947.927201 kJ/mol
# GULP energy per Si atom -5578.993933 kJ/mol
# Density = 2.335552 g / cm^3
# Si number density = 23.408797 Si / 1000 Ang^3
#
#
#
# Elastic Constant Matrix: (Units=GPa)
#
#
# Indices 1 2 3 4 5 6 
#
# 1 97.9930 26.2239 43.9557 -17.3989 -2.2949 16.2030
# 2 26.2239 135.9165 39.4351 -28.7000 -11.5884 31.0476
# 3 43.9557 39.4351 172.6416 -13.4319 22.9931 4.4976
# 4 -17.3989 -28.7000 -13.4319 56.4176 -2.7846 3.0666
# 5 -2.2949 -11.5884 22.9931 -2.7846 60.2187 -9.9274
# 6 16.2030 31.0476 4.4976 3.0666 -9.9274 36.5266
#
#
#
# Elastic Compliance Matrix: (Units=1/GPa)
#
#
# Indices 1 2 3 4 5 6 
#
# 1 0.013203 0.000729 -0.003190 0.004068 0.001037 -0.006143
# 2 0.000729 0.011638 -0.002341 0.006218 0.001807 -0.009958
# 3 -0.003190 -0.002341 0.007469 -0.000645 -0.003177 0.001676
# 4 0.004068 0.006218 -0.000645 0.022516 0.001226 -0.008568
# 5 0.001037 0.001807 -0.003177 0.001226 0.018825 0.003409
# 6 -0.006143 -0.009958 0.001676 -0.008568 0.003409 0.040006
#
#
# Mechanical properties :
#
#
# Convention : Reuss Voigt Hill
#
# Bulk Modulus (GPa) = 44.04284 69.53115 56.78700
# Shear Modulus (GPa) = 38.21774 50.42835 44.32304
#
# Velocity S-wave (km/s) = 4.04496 4.64642 4.35608
# Velocity P-wave (km/s) = 6.37739 7.65200 7.04359
#
# Compressibility (1/GPa) = 0.02270516
#
# Stress axis : x y z
#
# Youngs Moduli (GPa) = 75.74137 85.92484 133.89367
#
# Poissons Ratio (x) = -0.06262 0.42705
# Poissons Ratio (y) = -0.05520 0.31350
# Poissons Ratio (z) = 0.24158 0.20119
#
# Static dielectric constant tensor:
#      x y z
#    x 1.483140 -0.239710 -0.165220 
#    y -0.239710 1.891110 0.053860 
#    z -0.165220 0.053860 1.883060 
# 
# From -- ./inp_files/155860.got.cif
#   From: 2010.05.17/outbox.cif.g08.bks.cpg/sg2_78_cif.got.tgz:155860.got - 2010.06.03 11:33:40.
