data_PCOD9051577
_publ_section_title
;
Structure prediction by ZEFSAII (Michael W. Deem and Ramdas Pophale) SiO2 
 PCOD9051577
Probable space group: P -1
;
_chemical_formula_sum "Si O2"
_cell_formula_units_Z 12
_cell_length_a 11.633075
_cell_length_b 4.788801
_cell_length_c 8.676571
_cell_angle_alpha 94.795872
_cell_angle_beta 83.055680
_cell_angle_gamma 70.733505
_cell_volume 448.989429
_symmetry_space_group_name_H-M "P -1"
_symmetry_group_IT_number 2
_symmetry_cell_setting 'triclinic'
loop_
_space_group_symop_operation_xyz
x,y,z
-x,-y,-z
loop_
_atom_site_type_symbol
_atom_site_label
_atom_site_fract_x
_atom_site_fract_y
_atom_site_fract_z
Si Si1 0.841358 0.934474 0.261557
Si Si2 0.605725 0.838025 0.805789
Si Si3 0.595659 0.284389 0.358817
Si Si4 0.997513 0.342653 0.330435
Si Si5 0.232936 0.772478 0.209250
Si Si6 0.699895 0.600505 0.091411
O O1 0.770696 0.827594 0.130464
O O2 0.960673 0.637516 0.245714
O O3 0.719200 0.041742 0.399320
O O4 0.893364 0.201788 0.293644
O O5 0.486631 0.869431 0.728123
O O6 0.720352 0.538342 0.718460
O O7 0.650834 0.115644 0.804716
O O8 0.399859 0.257386 0.019706
O O9 0.500000 0.500000 0.500000
O O10 0.647141 0.470015 0.236697
O O11 0.000000 0.500000 0.500000
O O12 0.119556 0.055794 0.289470
O O13 0.209461 0.673972 0.036060
#
# Coordination Sequence:
#
# PCOD9051577 Si02
#       6
#     2   2   2   2   2   2
#     4  12  27  47  75 114 142 203 250 310 375 441
#     4  10  25  46  78 107 156 194 254 293 393 432
#     4  12  28  48  77 112 157 196 250 318 369 458
#     4  12  28  49  77 105 162 194 254 306 379 454
#     4  10  25  46  78 110 142 208 245 307 369 448
#     4  10  25  49  74 116 151 194 256 303 383 450
#
# _framework density 26.726685
#
# number of rings (size 3 to 8) (size 9 to 14) (size 15 to 20)
#    1.000    0.000    1.667    3.000    7.000    3.333 
#    0.000    0.000    0.000    0.000    0.000    0.000 
#    0.000    0.000    0.000    0.000    0.000    0.000 
#
# Total GULP energy -67012.949972 kJ/mol
# GULP energy per Si atom -5584.412498 kJ/mol
# Density = 2.666585 g / cm^3
# Si number density = 26.726685 Si / 1000 Ang^3
#
#
#
# Elastic Constant Matrix: (Units=GPa)
#
#
# Indices 1 2 3 4 5 6 
#
# 1 143.9588 34.9033 59.6206 13.3894 31.7615 21.0535
# 2 34.9033 121.5081 33.9012 38.6630 0.9881 3.9210
# 3 59.6206 33.9012 127.9709 40.3211 17.4079 15.0429
# 4 13.3894 38.6630 40.3211 44.7829 -0.2451 14.2737
# 5 31.7615 0.9881 17.4079 -0.2451 40.4975 25.0138
# 6 21.0535 3.9210 15.0429 14.2737 25.0138 52.5177
#
#
#
# Elastic Compliance Matrix: (Units=1/GPa)
#
#
# Indices 1 2 3 4 5 6 
#
# 1 0.010513 -0.002851 -0.004375 0.003554 -0.005638 -0.001029
# 2 -0.002851 0.012493 0.001746 -0.012702 -0.001203 0.003736
# 3 -0.004375 0.001746 0.014096 -0.014159 -0.005160 0.003892
# 4 0.003554 -0.012702 -0.014159 0.050482 0.014420 -0.017010
# 5 -0.005638 -0.001203 -0.005160 0.014420 0.044638 -0.021352
# 6 -0.001029 0.003736 0.003892 -0.017010 -0.021352 0.032853
#
#
# Mechanical properties :
#
#
# Convention : Reuss Voigt Hill
#
# Bulk Modulus (GPa) = 38.25403 72.25422 55.25412
# Shear Modulus (GPa) = 27.06364 45.22714 36.14539
#
# Velocity S-wave (km/s) = 3.18560 4.11811 3.68150
# Velocity P-wave (km/s) = 5.27966 7.05017 6.22815
#
# Compressibility (1/GPa) = 0.02614104
#
# Stress axis : x y z
#
# Youngs Moduli (GPa) = 95.11631 80.04564 70.94349
#
# Poissons Ratio (x) = 0.22824 0.31036
# Poissons Ratio (y) = 0.27121 -0.12384
# Poissons Ratio (z) = 0.41611 -0.13973
#
# Static dielectric constant tensor:
#      x y z
#    x 2.088500 -0.130860 -0.099280 
#    y -0.130860 2.265090 0.068020 
#    z -0.099280 0.068020 2.222730 
# 
# From -- ./inp_files/411282.got.cif
#   From: 2010.05.17/outbox.cif.g08.bks.cpg/sg2_206_cif.got.tgz:411282.got - 2010.06.03 11:33:40.
