data_PCOD9051280
_publ_section_title
;
Structure prediction by ZEFSAII (Michael W. Deem and Ramdas Pophale) SiO2 
 PCOD9051280
Probable space group: P -1
;
_chemical_formula_sum "Si O2"
_cell_formula_units_Z 10
_cell_length_a 9.332352
_cell_length_b 10.230630
_cell_length_c 10.394846
_cell_angle_alpha 84.149536
_cell_angle_beta 51.146474
_cell_angle_gamma 44.300767
_cell_volume 415.638626
_symmetry_space_group_name_H-M "P -1"
_symmetry_group_IT_number 2
_symmetry_cell_setting 'triclinic'
loop_
_space_group_symop_operation_xyz
x,y,z
-x,-y,-z
loop_
_atom_site_type_symbol
_atom_site_label
_atom_site_fract_x
_atom_site_fract_y
_atom_site_fract_z
Si Si1 0.689499 0.709072 0.908971
Si Si2 0.831182 0.962430 0.067890
Si Si3 0.256961 0.538809 0.696406
Si Si4 0.161532 0.288257 0.521647
Si Si5 0.289460 0.930661 0.376849
O O1 0.942635 0.682483 0.770331
O O2 0.937564 0.439255 0.760145
O O3 0.397777 0.887272 0.947840
O O4 0.521932 0.808238 0.132516
O O5 0.563612 0.079254 0.315858
O O6 0.110000 0.688213 0.896290
O O7 0.000000 0.000000 0.000000
O O8 0.500000 0.500000 0.500000
O O9 0.472990 0.279923 0.629986
O O10 0.000000 0.500000 0.500000
O O11 0.136902 0.159052 0.488471
O O12 0.000000 0.000000 0.500000
#
# Coordination Sequence:
#
# PCOD9051280 Si02
#       5
#     2   2   2   2   2
#     4  11  25  49  77 103 152 198 246 310 371 435
#     4  11  24  44  76 110 149 197 251 300 376 447
#     4  12  26  46  76 109 152 200 246 307 381 438
#     4  10  25  45  75 106 150 192 250 305 371 436
#     4  12  28  47  74 114 151 193 256 307 367 449
#
# _framework density 24.059362
#
# number of rings (size 3 to 8) (size 9 to 14) (size 15 to 20)
#    0.000    0.800    2.000    3.600   14.000    1.600 
#    3.600    0.000    0.000    0.000    0.000    0.000 
#    0.000    0.000    0.000    0.000    0.000    0.000 
#
# Total GULP energy -56009.826243 kJ/mol
# GULP energy per Si atom -5600.982624 kJ/mol
# Density = 2.400460 g / cm^3
# Si number density = 24.059362 Si / 1000 Ang^3
#
#
#
# Elastic Constant Matrix: (Units=GPa)
#
#
# Indices 1 2 3 4 5 6 
#
# 1 174.9344 54.2002 54.0519 7.2166 -12.2305 41.8296
# 2 54.2002 115.4226 36.5154 21.2623 6.8987 21.8328
# 3 54.0519 36.5154 156.5493 6.0037 21.1481 36.3937
# 4 7.2166 21.2623 6.0037 37.8948 15.3400 11.2695
# 5 -12.2305 6.8987 21.1481 15.3400 62.4637 9.3004
# 6 41.8296 21.8328 36.3937 11.2695 9.3004 52.0972
#
#
#
# Elastic Compliance Matrix: (Units=1/GPa)
#
#
# Indices 1 2 3 4 5 6 
#
# 1 0.008511 -0.002800 -0.001503 0.000482 0.003152 -0.005277
# 2 -0.002800 0.011538 -0.001433 -0.005642 0.000105 -0.000384
# 3 -0.001503 -0.001433 0.008502 0.002142 -0.002934 -0.004071
# 4 0.000482 -0.005642 0.002142 0.033787 -0.007488 -0.005491
# 5 0.003152 0.000105 -0.002934 -0.007488 0.019811 -0.002442
# 6 -0.005277 -0.000384 -0.004071 -0.005491 -0.002442 0.028061
#
#
# Mechanical properties :
#
#
# Convention : Reuss Voigt Hill
#
# Bulk Modulus (GPa) = 58.55377 81.82682 70.19029
# Shear Modulus (GPa) = 39.25493 50.63374 44.94433
#
# Velocity S-wave (km/s) = 4.04367 4.59250 4.32679
# Velocity P-wave (km/s) = 6.79645 7.88705 7.36197
#
# Compressibility (1/GPa) = 0.01707832
#
# Stress axis : x y z
#
# Youngs Moduli (GPa) = 117.50097 86.67288 117.62484
#
# Poissons Ratio (x) = 0.24268 0.17678
# Poissons Ratio (y) = 0.32899 0.16855
# Poissons Ratio (z) = 0.17659 0.12420
#
# Static dielectric constant tensor:
#      x y z
#    x 1.928090 -0.060630 0.022540 
#    y -0.060630 1.982350 0.020110 
#    z 0.022540 0.020110 1.962370 
# 
# From -- ./inp_files/143918.got.cif
#   From: 2010.05.17/outbox.cif.g08.bks.cpg/sg2_72_cif.got.tgz:143918.got - 2010.06.03 11:33:40.
