data_PCOD9051071
_publ_section_title
;
Structure prediction by ZEFSAII (Michael W. Deem and Ramdas Pophale) SiO2 
 PCOD9051071
Probable space group: P -1
;
_chemical_formula_sum "Si O2"
_cell_formula_units_Z 12
_cell_length_a 17.805771
_cell_length_b 11.607858
_cell_length_c 19.414393
_cell_angle_alpha 30.507299
_cell_angle_beta 159.070103
_cell_angle_gamma 158.894302
_cell_volume 514.666815
_symmetry_space_group_name_H-M "P -1"
_symmetry_group_IT_number 2
_symmetry_cell_setting 'triclinic'
loop_
_space_group_symop_operation_xyz
x,y,z
-x,-y,-z
loop_
_atom_site_type_symbol
_atom_site_label
_atom_site_fract_x
_atom_site_fract_y
_atom_site_fract_z
Si Si1 0.627957 0.595009 0.225819
Si Si2 0.331118 0.871912 0.494929
Si Si3 0.788993 0.745929 0.573945
Si Si4 0.549040 0.535746 0.698797
Si Si5 0.099484 0.647376 0.085790
Si Si6 0.377047 0.631164 0.865561
O O1 0.580640 0.303283 0.307977
O O2 0.544755 0.544167 0.261090
O O3 0.451017 0.635704 0.006581
O O4 0.974985 0.919859 0.356604
O O5 0.973922 0.604050 0.321780
O O6 0.500000 0.000000 0.500000
O O7 0.422565 0.180544 0.446593
O O8 0.500000 0.500000 0.500000
O O9 0.682414 0.750410 0.405796
O O10 0.926164 0.597770 0.764236
O O11 0.867546 0.661154 0.902462
O O12 0.426173 0.005127 0.176907
O O13 0.000000 0.500000 0.000000
O O14 0.500000 0.500000 0.000000
#
# Coordination Sequence:
#
# PCOD9051071 Si02
#       6
#     2   2   2   2   2   2
#     4  11  26  45  69 100 138 180 231 279 342 408
#     4  10  25  45  69 100 139 178 227 280 343 400
#     4  12  24  43  70  96 137 177 226 283 335 404
#     4  11  25  44  67 101 135 181 227 277 346 400
#     4  12  24  45  68 100 138 178 227 283 339 404
#     4  12  25  45  72 102 136 181 232 280 339 406
#
# _framework density 23.316056
#
# number of rings (size 3 to 8) (size 9 to 14) (size 15 to 20)
#    0.000    0.667    5.000    1.500    2.333    6.667 
#    0.000    0.000    0.000    0.000    0.000    0.000 
#    0.000    0.000    0.000    0.000    0.000    0.000 
#
# Total GULP energy -67171.632079 kJ/mol
# GULP energy per Si atom -5597.636007 kJ/mol
# Density = 2.326299 g / cm^3
# Si number density = 23.316056 Si / 1000 Ang^3
#
#
#
# Elastic Constant Matrix: (Units=GPa)
#
#
# Indices 1 2 3 4 5 6 
#
# 1 74.3207 -7.7345 8.6327 4.6511 -3.9802 7.8804
# 2 -7.7345 62.7652 -19.9575 -4.7437 9.2747 6.4082
# 3 8.6327 -19.9575 48.2457 -7.1941 5.6373 12.7353
# 4 4.6511 -4.7437 -7.1941 43.3881 1.4943 1.8475
# 5 -3.9802 9.2747 5.6373 1.4943 46.3904 1.1234
# 6 7.8804 6.4082 12.7353 1.8475 1.1234 26.3778
#
#
#
# Elastic Compliance Matrix: (Units=1/GPa)
#
#
# Indices 1 2 3 4 5 6 
#
# 1 0.014335 0.001480 -0.001263 -0.001457 0.001231 -0.003983
# 2 0.001480 0.023395 0.014458 0.005572 -0.006166 -0.013234
# 3 -0.001263 0.014458 0.034289 0.008492 -0.006955 -0.019989
# 4 -0.001457 0.005572 0.008492 0.025607 -0.002934 -0.006687
# 5 0.001231 -0.006166 -0.006955 -0.002934 0.023745 0.003682
# 6 -0.003983 -0.013234 -0.019989 -0.006687 0.003682 0.052278
#
#
# Mechanical properties :
#
#
# Convention : Reuss Voigt Hill
#
# Bulk Modulus (GPa) = 9.86494 16.35700 13.11097
# Shear Modulus (GPa) = 28.07569 36.85732 32.46650
#
# Velocity S-wave (km/s) = 3.47383 3.98020 3.73561
# Velocity P-wave (km/s) = 4.50890 5.30596 4.92359
#
# Compressibility (1/GPa) = 0.10136905
#
# Stress axis : x y z
#
# Youngs Moduli (GPa) = 69.75804 42.74357 29.16374
#
# Poissons Ratio (x) = -0.06325 0.03683
# Poissons Ratio (y) = -0.10322 -0.42164
# Poissons Ratio (z) = 0.08808 -0.61797
#
# Static dielectric constant tensor:
#      x y z
#    x 1.889820 -0.007290 0.004140 
#    y -0.007290 1.914230 -0.004270 
#    z 0.004140 -0.004270 1.901710 
# 
# From -- ./inp_files/29406.got.cif
#   From: 2010.05.17/outbox.cif.g08.bks.cpg/sg2_15_cif.got.tgz:29406.got - 2010.06.03 11:33:40.
