data_PCOD9051945
_publ_section_title
;
Structure prediction by ZEFSAII (Michael W. Deem and Ramdas Pophale) SiO2 
 PCOD9051945
Probable space group: P -1
;
_chemical_formula_sum "Si O2"
_cell_formula_units_Z 14
_cell_length_a 11.385674
_cell_length_b 11.857613
_cell_length_c 9.534533
_cell_angle_alpha 36.354818
_cell_angle_beta 56.090343
_cell_angle_gamma 47.606103
_cell_volume 563.205636
_symmetry_space_group_name_H-M "P -1"
_symmetry_group_IT_number 2
_symmetry_cell_setting 'triclinic'
loop_
_space_group_symop_operation_xyz
x,y,z
-x,-y,-z
loop_
_atom_site_type_symbol
_atom_site_label
_atom_site_fract_x
_atom_site_fract_y
_atom_site_fract_z
Si Si1 0.000000 0.000000 0.500000
Si Si2 0.718886 0.617949 0.080009
Si Si3 0.824982 0.197394 0.922306
Si Si4 0.357940 0.895475 0.374868
Si Si5 0.931264 0.312311 0.477349
Si Si6 0.804597 0.573336 0.759332
Si Si7 0.546385 0.247690 0.228736
Si Si8 0.500000 0.500000 0.500000
O O1 0.811932 0.086851 0.575153
O O2 0.022720 0.106803 0.525203
O O3 0.838609 0.508398 0.238149
O O4 0.582804 0.545587 0.260001
O O5 0.816101 0.514589 0.975486
O O6 0.657893 0.868558 0.865469
O O7 0.802836 0.291457 0.685282
O O8 0.830027 0.374110 0.846361
O O9 0.686837 0.145031 0.123525
O O10 0.000000 0.000000 0.000000
O O11 0.395723 0.829373 0.577179
O O12 0.485030 0.721830 0.361042
O O13 0.062215 0.351829 0.434511
O O14 0.621842 0.752751 0.684776
O O15 0.500000 0.500000 0.000000
#
# Coordination Sequence:
#
# PCOD9051945 Si02
#       8
#     1   2   2   2   2   2   2   1
#     4  12  26  48  82 108 160 214 262 326 406 478
#     4  12  28  47  82 114 161 207 275 327 408 475
#     4  11  26  48  77 117 156 208 267 328 402 474
#     4  12  27  50  80 117 155 219 264 328 407 484
#     4  12  27  48  80 118 158 208 271 334 398 475
#     4  11  26  50  77 111 156 210 262 329 394 486
#     4  10  25  48  81 106 157 210 263 322 404 475
#     4  12  26  50  72 118 160 198 268 342 394 468
#
# _framework density 24.857706
#
# number of rings (size 3 to 8) (size 9 to 14) (size 15 to 20)
#    0.000    0.571    2.857    3.857    8.000    0.571 
#    0.000    0.000    0.000    0.000    0.000    0.000 
#    0.000    0.000    0.000    0.000    0.000    0.000 
#
# Total GULP energy -78016.319535 kJ/mol
# GULP energy per Si atom -5572.594252 kJ/mol
# Density = 2.480113 g / cm^3
# Si number density = 24.857706 Si / 1000 Ang^3
#
#
#
# Elastic Constant Matrix: (Units=GPa)
#
#
# Indices 1 2 3 4 5 6 
#
# 1 113.8127 22.4144 21.1269 2.3405 -5.1867 -14.5652
# 2 22.4144 164.0153 43.4208 11.6876 0.8886 13.6216
# 3 21.1269 43.4208 136.1653 16.5778 12.0215 0.3407
# 4 2.3405 11.6876 16.5778 32.9690 -5.2003 -10.1278
# 5 -5.1867 0.8886 12.0215 -5.2003 31.6736 3.2103
# 6 -14.5652 13.6216 0.3407 -10.1278 3.2103 49.7112
#
#
#
# Elastic Compliance Matrix: (Units=1/GPa)
#
#
# Indices 1 2 3 4 5 6 
#
# 1 0.009858 -0.001390 -0.001533 0.002001 0.002204 0.003545
# 2 -0.001390 0.007167 -0.001783 -0.002400 0.000143 -0.002857
# 3 -0.001533 -0.001783 0.009116 -0.004750 -0.004369 -0.000709
# 4 0.002001 -0.002400 -0.004750 0.037175 0.007453 0.008369
# 5 0.002204 0.000143 -0.004369 0.007453 0.034820 -0.000094
# 6 0.003545 -0.002857 -0.000709 0.008369 -0.000094 0.023654
#
#
# Mechanical properties :
#
#
# Convention : Reuss Voigt Hill
#
# Bulk Modulus (GPa) = 59.78024 65.32418 62.55221
# Shear Modulus (GPa) = 36.55542 44.67284 40.61413
#
# Velocity S-wave (km/s) = 3.83898 4.24387 4.04649
# Velocity P-wave (km/s) = 6.61450 7.09579 6.85937
#
# Compressibility (1/GPa) = 0.01672794
#
# Stress axis : x y z
#
# Youngs Moduli (GPa) = 101.44310 139.53761 109.69451
#
# Poissons Ratio (x) = 0.19398 0.16819
# Poissons Ratio (y) = 0.14102 0.19557
# Poissons Ratio (z) = 0.15554 0.24877
#
# Static dielectric constant tensor:
#      x y z
#    x 1.868200 0.032230 -0.062190 
#    y 0.032230 1.859350 0.035450 
#    z -0.062190 0.035450 1.960770 
# 
# From -- ./inp_files/261301.got.cif
#   From: 2010.05.17/outbox.cif.g08.bks.cpg/sg2_131_cif.got.tgz:261301.got - 2010.06.03 11:33:40.
