data_PCOD9051982
_publ_section_title
;
Structure prediction by ZEFSAII (Michael W. Deem and Ramdas Pophale) SiO2 
 PCOD9051982
Probable space group: P -1
;
_chemical_formula_sum "Si O2"
_cell_formula_units_Z 14
_cell_length_a 23.739853
_cell_length_b 5.286936
_cell_length_c 15.951902
_cell_angle_alpha 106.048533
_cell_angle_beta 17.121971
_cell_angle_gamma 105.051934
_cell_volume 566.400129
_symmetry_space_group_name_H-M "P -1"
_symmetry_group_IT_number 2
_symmetry_cell_setting 'triclinic'
loop_
_space_group_symop_operation_xyz
x,y,z
-x,-y,-z
loop_
_atom_site_type_symbol
_atom_site_label
_atom_site_fract_x
_atom_site_fract_y
_atom_site_fract_z
Si Si1 0.551485 0.770270 0.839064
Si Si2 0.122968 0.648292 0.410126
Si Si3 0.517425 0.635590 0.395351
Si Si4 0.313907 0.391333 0.528340
Si Si5 0.910663 0.738940 0.431767
Si Si6 0.822998 0.000012 0.046313
Si Si7 0.024305 0.744572 0.886397
O O1 0.640981 0.836293 0.625417
O O2 0.723085 0.650113 0.639472
O O3 0.357360 0.617806 0.077252
O O4 0.500000 0.000000 0.000000
O O5 0.054396 0.487632 0.573212
O O6 0.000000 0.500000 0.500000
O O7 0.100240 0.968084 0.481908
O O8 0.500000 0.500000 0.500000
O O9 0.498959 0.440562 0.325885
O O10 0.709442 0.797139 0.132880
O O11 0.347663 0.855369 0.646787
O O12 0.225085 0.610381 0.611877
O O13 0.153477 0.403652 0.831325
O O14 0.070861 0.782237 0.137911
O O15 0.970546 0.840622 0.879697
O O16 0.000000 0.000000 0.000000
#
# Coordination Sequence:
#
# PCOD9051982 Si02
#       7
#     2   2   2   2   2   2   2
#     4  10  25  49  72 107 146 197 259 317 373 444
#     4  11  26  50  74 109 144 191 262 316 377 452
#     4  11  24  43  65 104 148 190 241 304 380 468
#     4  11  24  41  74 100 146 194 245 310 377 448
#     4  11  26  47  77 103 145 202 244 319 382 448
#     4  11  25  42  67 105 150 189 241 305 384 458
#     4  11  22  42  66 109 141 184 244 301 373 461
#
# _framework density 24.717509
#
# number of rings (size 3 to 8) (size 9 to 14) (size 15 to 20)
#    0.000    1.143    2.857    1.714    8.000    0.000 
#    5.143    0.000    0.000    0.000    0.000    0.000 
#    0.000    0.000    0.000    0.000    0.000    0.000 
#
# Total GULP energy -78069.922488 kJ/mol
# GULP energy per Si atom -5576.423035 kJ/mol
# Density = 2.466125 g / cm^3
# Si number density = 24.717509 Si / 1000 Ang^3
#
#
#
# Elastic Constant Matrix: (Units=GPa)
#
#
# Indices 1 2 3 4 5 6 
#
# 1 184.7155 41.9923 49.8372 -4.7393 -11.1498 25.5778
# 2 41.9923 81.3477 28.0173 -6.3781 -11.1913 5.8832
# 3 49.8372 28.0173 105.0331 -15.3634 -19.9285 1.9144
# 4 -4.7393 -6.3781 -15.3634 26.1626 12.2398 4.9238
# 5 -11.1498 -11.1913 -19.9285 12.2398 40.2117 -11.8061
# 6 25.5778 5.8832 1.9144 4.9238 -11.8061 50.4005
#
#
#
# Elastic Compliance Matrix: (Units=1/GPa)
#
#
# Indices 1 2 3 4 5 6 
#
# 1 0.007206 -0.002634 -0.002857 0.000253 -0.001274 -0.003564
# 2 -0.002634 0.014743 -0.002167 0.000860 0.002066 0.000098
# 3 -0.002857 -0.002167 0.012833 0.004178 0.004220 0.001796
# 4 0.000253 0.000860 0.004178 0.049790 -0.015375 -0.008853
# 5 -0.001274 0.002066 0.004220 -0.015375 0.034765 0.009891
# 6 -0.003564 0.000098 0.001796 -0.008853 0.009891 0.024752
#
#
# Mechanical properties :
#
#
# Convention : Reuss Voigt Hill
#
# Bulk Modulus (GPa) = 51.36565 67.86554 59.61559
# Shear Modulus (GPa) = 30.13950 40.10491 35.12220
#
# Velocity S-wave (km/s) = 3.49572 4.03243 3.77363
# Velocity P-wave (km/s) = 6.09259 7.01404 6.56949
#
# Compressibility (1/GPa) = 0.01946826
#
# Stress axis : x y z
#
# Youngs Moduli (GPa) = 138.76669 67.82681 77.92135
#
# Poissons Ratio (x) = 0.17864 0.22259
# Poissons Ratio (y) = 0.36548 0.16886
# Poissons Ratio (z) = 0.39640 0.14699
#
# Static dielectric constant tensor:
#      x y z
#    x 2.027680 0.260920 -0.279180 
#    y 0.260920 2.007180 0.007940 
#    z -0.279180 0.007940 2.118990 
# 
# From -- ./inp_files/539798.got.cif
#   From: 2010.05.17/outbox.cif.g08.bks.cpg/sg2_270_cif.got.tgz:539798.got - 2010.06.03 11:33:40.
