data_PCOD9051831
_publ_section_title
;
Structure prediction by ZEFSAII (Michael W. Deem and Ramdas Pophale) SiO2 
 PCOD9051831
Probable space group: P -1
;
_chemical_formula_sum "Si O2"
_cell_formula_units_Z 10
_cell_length_a 12.122985
_cell_length_b 9.201393
_cell_length_c 8.080448
_cell_angle_alpha 101.144980
_cell_angle_beta 119.123276
_cell_angle_gamma 129.919603
_cell_volume 396.229872
_symmetry_space_group_name_H-M "P -1"
_symmetry_group_IT_number 2
_symmetry_cell_setting 'triclinic'
loop_
_space_group_symop_operation_xyz
x,y,z
-x,-y,-z
loop_
_atom_site_type_symbol
_atom_site_label
_atom_site_fract_x
_atom_site_fract_y
_atom_site_fract_z
Si Si1 0.194550 0.637597 0.306293
Si Si2 0.796610 0.149950 0.140464
Si Si3 0.254563 0.342328 0.737556
Si Si4 0.498809 0.142118 0.831135
Si Si5 0.446159 0.600145 0.572147
O O1 0.312222 0.592270 0.363500
O O2 0.059362 0.474116 0.349473
O O3 0.373619 0.957993 0.532810
O O4 0.000000 0.500000 0.000000
O O5 0.720873 0.028697 0.242842
O O6 0.621798 0.112629 0.968415
O O7 0.702280 0.927452 0.899085
O O8 0.287214 0.414393 0.583048
O O9 0.500000 0.500000 0.000000
O O10 0.290131 0.523378 0.918373
O O11 0.000000 0.000000 0.500000
O O12 0.500000 0.500000 0.500000
#
# Coordination Sequence:
#
# PCOD9051831 Si02
#       5
#     2   2   2   2   2
#     4  11  24  41  76 106 145 194 252 306 378 449
#     4   9  20  41  69 100 135 191 244 309 374 439
#     4  11  27  47  77 113 148 201 259 313 384 457
#     4   9  21  42  69 102 142 187 248 312 369 443
#     4  10  25  48  70 106 155 195 248 315 386 450
#
# _framework density 25.237876
#
# number of rings (size 3 to 8) (size 9 to 14) (size 15 to 20)
#    0.000    2.000    0.000    1.800    8.400    7.200 
#    0.000    0.000    0.000    0.000    0.000    0.000 
#    0.000    0.000    0.000    0.000    0.000    0.000 
#
# Total GULP energy -55867.972646 kJ/mol
# GULP energy per Si atom -5586.797265 kJ/mol
# Density = 2.518043 g / cm^3
# Si number density = 25.237876 Si / 1000 Ang^3
#
#
#
# Elastic Constant Matrix: (Units=GPa)
#
#
# Indices 1 2 3 4 5 6 
#
# 1 125.3530 57.1986 77.1101 4.2131 -29.7884 -25.9421
# 2 57.1986 156.0159 89.6099 22.8306 0.1400 4.9454
# 3 77.1101 89.6099 173.7301 19.6181 -19.9616 -42.2117
# 4 4.2131 22.8306 19.6181 60.6793 -15.8787 4.9369
# 5 -29.7884 0.1400 -19.9616 -15.8787 46.2550 17.8463
# 6 -25.9421 4.9454 -42.2117 4.9369 17.8463 45.5125
#
#
#
# Elastic Compliance Matrix: (Units=1/GPa)
#
#
# Indices 1 2 3 4 5 6 
#
# 1 0.013862 -0.003803 -0.003222 0.003470 0.008047 0.001794
# 2 -0.003803 0.012294 -0.006774 -0.002262 -0.002952 -0.008384
# 3 -0.003222 -0.006774 0.013998 -0.003412 -0.002253 0.013136
# 4 0.003470 -0.002262 -0.003412 0.021751 0.011204 -0.007693
# 5 0.008047 -0.002952 -0.002253 0.011204 0.034248 -0.011826
# 6 0.001794 -0.008384 0.013136 -0.007693 -0.011826 0.041561
#
#
# Mechanical properties :
#
#
# Convention : Reuss Voigt Hill
#
# Bulk Modulus (GPa) = 79.64602 100.32623 89.98612
# Shear Modulus (GPa) = 29.49896 45.90139 37.70018
#
# Velocity S-wave (km/s) = 3.42253 4.26931 3.86916
# Velocity P-wave (km/s) = 6.87350 8.00882 7.46278
#
# Compressibility (1/GPa) = 0.01255556
#
# Stress axis : x y z
#
# Youngs Moduli (GPa) = 72.13962 81.34052 71.43752
#
# Poissons Ratio (x) = 0.30936 0.23019
# Poissons Ratio (y) = 0.27437 0.48391
# Poissons Ratio (z) = 0.23245 0.55099
#
# Static dielectric constant tensor:
#      x y z
#    x 2.044760 0.053200 0.010950 
#    y 0.053200 2.050160 -0.049190 
#    z 0.010950 -0.049190 2.324750 
# 
# From -- ./inp_files/20667.got.cif
#   From: 2010.05.17/outbox.cif.g08.bks.cpg/sg2_11_cif.got.tgz:20667.got - 2010.06.03 11:33:40.
