data_PCOD9051505
_publ_section_title
;
Structure prediction by ZEFSAII (Michael W. Deem and Ramdas Pophale) SiO2 
 PCOD9051505
Probable space group: P -1
;
_chemical_formula_sum "Si O2"
_cell_formula_units_Z 14
_cell_length_a 5.675405
_cell_length_b 18.938490
_cell_length_c 8.455667
_cell_angle_alpha 135.257281
_cell_angle_beta 71.872651
_cell_angle_gamma 112.027710
_cell_volume 591.662421
_symmetry_space_group_name_H-M "P -1"
_symmetry_group_IT_number 2
_symmetry_cell_setting 'triclinic'
loop_
_space_group_symop_operation_xyz
x,y,z
-x,-y,-z
loop_
_atom_site_type_symbol
_atom_site_label
_atom_site_fract_x
_atom_site_fract_y
_atom_site_fract_z
Si Si1 0.869994 0.016317 0.303646
Si Si2 0.406176 0.626840 0.400112
Si Si3 0.712477 0.090486 0.794362
Si Si4 0.487362 0.435498 0.240220
Si Si5 0.892623 0.777867 0.593159
Si Si6 0.859256 0.382827 0.878462
Si Si7 0.966720 0.297183 0.216049
O O1 0.788245 0.066382 0.561701
O O2 0.995341 0.107091 0.302171
O O3 0.595321 0.951243 0.191995
O O4 0.095554 0.960196 0.218272
O O5 0.498648 0.523165 0.244669
O O6 0.592012 0.732217 0.585726
O O7 0.352079 0.642901 0.255529
O O8 0.161712 0.615122 0.545985
O O9 0.794321 0.210631 0.007541
O O10 0.500000 0.500000 0.500000
O O11 0.229380 0.348866 0.158953
O O12 0.724188 0.384881 0.077069
O O13 0.977173 0.700151 0.323968
O O14 0.983393 0.757015 0.715392
O O15 0.000000 0.500000 0.000000
#
# Coordination Sequence:
#
# PCOD9051505 Si02
#       7
#     2   2   2   2   2   2   2
#     4  10  25  46  73 101 141 181 232 298 351 422
#     4  11  24  44  63  98 140 178 230 276 345 423
#     4  10  25  47  71 105 136 180 241 290 356 415
#     4  12  23  43  67  98 142 177 225 287 338 413
#     4  11  25  44  68 100 136 181 229 282 351 416
#     4  11  24  42  66  97 135 181 231 277 344 416
#     4  11  26  42  68 102 135 184 228 287 349 412
#
# _framework density 23.662141999999999
#
# number of rings (size 3 to 8) (size 9 to 14) (size 15 to 20)
#    0.000    1.143    2.857    1.714    8.000    4.571 
#    0.000    0.000    0.000    0.000    0.000    0.000 
#    0.000    0.000    0.000    0.000    0.000    0.000 
#
# Total GULP energy -78281.581977 kJ/mol
# GULP energy per Si atom -5591.541570 kJ/mol
# Density = 2.360829 g / cm^3
# Si number density = 23.662142 Si / 1000 Ang^3
#
#
#
# Elastic Constant Matrix: (Units=GPa)
#
#
# Indices 1 2 3 4 5 6 
#
# 1 96.1693 44.0954 21.4964 6.8896 13.0510 12.2684
# 2 44.0954 119.2051 9.7554 25.0525 7.8718 23.6695
# 3 21.4964 9.7554 100.6639 8.9677 13.3565 22.1298
# 4 6.8896 25.0525 8.9677 30.0506 13.4853 -1.7839
# 5 13.0510 7.8718 13.3565 13.4853 27.0204 0.4373
# 6 12.2684 23.6695 22.1298 -1.7839 0.4373 38.3806
#
#
#
# Elastic Compliance Matrix: (Units=1/GPa)
#
#
# Indices 1 2 3 4 5 6 
#
# 1 0.013979 -0.005805 -0.002162 0.005304 -0.006650 0.000681
# 2 -0.005805 0.014992 0.002590 -0.014567 0.004582 -0.009612
# 3 -0.002162 0.002590 0.012902 -0.004314 -0.003797 -0.008502
# 4 0.005304 -0.014567 -0.004314 0.057510 -0.025094 0.012734
# 5 -0.006650 0.004582 -0.003797 -0.025094 0.053291 -0.000284
# 6 0.000681 -0.009612 -0.008502 0.012734 -0.000284 0.037263
#
#
# Mechanical properties :
#
#
# Convention : Reuss Voigt Hill
#
# Bulk Modulus (GPa) = 32.13583 51.85920 41.99751
# Shear Modulus (GPa) = 23.68946 35.13638 29.41292
#
# Velocity S-wave (km/s) = 3.16754 3.85765 3.52950
# Velocity P-wave (km/s) = 5.19503 6.46576 5.86491
#
# Compressibility (1/GPa) = 0.03111791
#
# Stress axis : x y z
#
# Youngs Moduli (GPa) = 71.53622 66.70328 77.50654
#
# Poissons Ratio (x) = 0.38720 0.16760
# Poissons Ratio (y) = 0.41525 -0.20072
# Poissons Ratio (z) = 0.15469 -0.17274
#
# Static dielectric constant tensor:
#      x y z
#    x 1.975790 -0.026680 0.029140 
#    y -0.026680 1.868060 -0.054530 
#    z 0.029140 -0.054530 1.995500 
# 
# From -- ./inp_files/33232.got.cif
#   From: 2010.05.17/outbox.cif.g08.bks.cpg/sg2_17_cif.got.tgz:33232.got - 2010.06.03 11:33:40.
