data_PCOD9051536
_publ_section_title
;
Structure prediction by ZEFSAII (Michael W. Deem and Ramdas Pophale) SiO2 
 PCOD9051536
Probable space group: P -1
;
_chemical_formula_sum "Si O2"
_cell_formula_units_Z 16
_cell_length_a 5.781974
_cell_length_b 18.984199
_cell_length_c 8.286101
_cell_angle_alpha 126.351717
_cell_angle_beta 71.587205
_cell_angle_gamma 114.842981
_cell_volume 661.960704
_symmetry_space_group_name_H-M "P -1"
_symmetry_group_IT_number 2
_symmetry_cell_setting 'triclinic'
loop_
_space_group_symop_operation_xyz
x,y,z
-x,-y,-z
loop_
_atom_site_type_symbol
_atom_site_label
_atom_site_fract_x
_atom_site_fract_y
_atom_site_fract_z
Si Si1 0.216971 0.957325 0.072793
Si Si2 0.448966 0.734330 0.960991
Si Si3 0.421917 0.724064 0.570206
Si Si4 0.672883 0.093932 0.666463
Si Si5 0.426347 0.522570 0.228359
Si Si6 0.064358 0.243069 0.270669
Si Si7 0.846285 0.858821 0.594083
Si Si8 0.877466 0.457832 0.140057
O O1 0.232674 0.934760 0.225022
O O2 0.095144 0.040475 0.207536
O O3 0.083784 0.861685 0.887833
O O4 0.500000 0.000000 0.000000
O O5 0.370371 0.738352 0.795482
O O6 0.724622 0.717804 0.858876
O O7 0.245906 0.652360 0.983914
O O8 0.475365 0.832647 0.165642
O O9 0.480667 0.630544 0.386719
O O10 0.551417 0.815329 0.547800
O O11 0.118532 0.701334 0.558457
O O12 0.926229 0.139754 0.569545
O O13 0.500000 0.000000 0.500000
O O14 0.623991 0.491879 0.260470
O O15 0.115119 0.479997 0.244186
O O16 0.500000 0.500000 0.000000
O O17 0.205595 0.222125 0.371430
O O18 0.000000 0.500000 0.000000
#
# Coordination Sequence:
#
# PCOD9051536 Si02
#       8
#     2   2   2   2   2   2   2   2
#     4  12  21  45  68 100 149 193 242 302 363 441
#     4  11  26  46  74 102 147 190 245 304 369 453
#     4  11  25  46  73 104 139 196 242 304 369 451
#     4  12  26  44  68 110 146 193 245 300 368 441
#     4  10  25  46  74 105 147 182 249 305 382 441
#     4  11  23  46  70 103 139 197 247 297 372 442
#     4  11  25  40  71 102 143 190 245 302 368 437
#     4  10  25  48  74 109 144 194 242 313 385 447
#
# _framework density 24.170621000000001
#
# number of rings (size 3 to 8) (size 9 to 14) (size 15 to 20)
#    0.000    1.000    2.500    3.000    8.750    2.000 
#    2.250    0.000    0.000    0.000    0.000    0.000 
#    0.000    0.000    0.000    0.000    0.000    0.000 
#
# Total GULP energy -89284.882912 kJ/mol
# GULP energy per Si atom -5580.305182 kJ/mol
# Density = 2.411561 g / cm^3
# Si number density = 24.170621 Si / 1000 Ang^3
#
#
#
# Elastic Constant Matrix: (Units=GPa)
#
#
# Indices 1 2 3 4 5 6 
#
# 1 79.7701 19.3822 14.9606 12.0854 -17.7944 13.0233
# 2 19.3822 134.0202 45.4714 11.6973 -5.1764 25.6760
# 3 14.9606 45.4714 109.9187 22.5086 -14.5063 2.4327
# 4 12.0854 11.6973 22.5086 53.4626 6.2947 -4.3306
# 5 -17.7944 -5.1764 -14.5063 6.2947 34.7582 6.4497
# 6 13.0233 25.6760 2.4327 -4.3306 6.4497 40.4643
#
#
#
# Elastic Compliance Matrix: (Units=1/GPa)
#
#
# Indices 1 2 3 4 5 6 
#
# 1 0.017324 -0.000223 0.000735 -0.006210 0.011755 -0.008017
# 2 -0.000223 0.010114 -0.003554 -0.001352 0.001359 -0.006494
# 3 0.000735 -0.003554 0.012356 -0.005319 0.006014 -0.000252
# 4 -0.006210 -0.001352 -0.005319 0.024614 -0.011476 0.007640
# 5 0.011755 0.001359 0.006014 -0.011476 0.041977 -0.012926
# 6 -0.008017 -0.006494 -0.000252 0.007640 -0.012926 0.034307
#
#
# Mechanical properties :
#
#
# Convention : Reuss Voigt Hill
#
# Bulk Modulus (GPa) = 29.66403 53.70417 41.68410
# Shear Modulus (GPa) = 31.64293 41.99666 36.81980
#
# Velocity S-wave (km/s) = 3.62214 4.17287 3.90722
# Velocity P-wave (km/s) = 5.45826 6.74419 6.13501
#
# Compressibility (1/GPa) = 0.03371086
#
# Stress axis : x y z
#
# Youngs Moduli (GPa) = 57.72271 98.87163 80.93085
#
# Poissons Ratio (x) = 0.02203 -0.05946
# Poissons Ratio (y) = 0.01286 0.28760
# Poissons Ratio (z) = -0.04241 0.35136
#
# Static dielectric constant tensor:
#      x y z
#    x 2.176700 -0.023820 -0.020540 
#    y -0.023820 1.864890 -0.023070 
#    z -0.020540 -0.023070 1.850060 
# 
# From -- ./inp_files/55722.got.cif
#   From: 2010.05.17/outbox.cif.g08.bks.cpg/sg2_28_cif.got.tgz:55722.got - 2010.06.03 11:33:40.
