data_PCOD9051238
_publ_section_title
;
Structure prediction by ZEFSAII (Michael W. Deem and Ramdas Pophale) SiO2 
 PCOD9051238
Probable space group: P -1
;
_chemical_formula_sum "Si O2"
_cell_formula_units_Z 16
_cell_length_a 8.499864
_cell_length_b 7.493163
_cell_length_c 12.483333
_cell_angle_alpha 125.309557
_cell_angle_beta 94.546356
_cell_angle_gamma 72.681255
_cell_volume 614.988610
_symmetry_space_group_name_H-M "P -1"
_symmetry_group_IT_number 2
_symmetry_cell_setting 'triclinic'
loop_
_space_group_symop_operation_xyz
x,y,z
-x,-y,-z
loop_
_atom_site_type_symbol
_atom_site_label
_atom_site_fract_x
_atom_site_fract_y
_atom_site_fract_z
Si Si1 0.061501 0.336171 0.309547
Si Si2 0.956854 0.763100 0.126967
Si Si3 0.820210 0.978343 0.989782
Si Si4 0.493795 0.800583 0.018414
Si Si5 0.400091 0.751672 0.438668
Si Si6 0.252860 0.522269 0.543423
Si Si7 0.885087 0.849578 0.397499
Si Si8 0.676562 0.279792 0.824313
O O1 0.895469 0.294212 0.335236
O O2 0.973068 0.598974 0.361976
O O3 0.166530 0.208128 0.168680
O O4 0.180440 0.337813 0.416028
O O5 0.131829 0.822721 0.163563
O O6 0.892266 0.807268 0.257391
O O7 0.000000 0.500000 0.000000
O O8 0.815452 0.892371 0.079740
O O9 0.681996 0.217590 0.042968
O O10 0.000000 0.000000 0.000000
O O11 0.625840 0.553563 0.937027
O O12 0.440263 0.836133 0.153444
O O13 0.500000 0.000000 0.000000
O O14 0.310634 0.645952 0.489936
O O15 0.590557 0.609889 0.422415
O O16 0.348943 0.725503 0.305230
O O17 0.308350 0.022898 0.544025
O O18 0.000000 0.000000 0.500000
#
# Coordination Sequence:
#
# PCOD9051238 Si02
#       8
#     2   2   2   2   2   2   2   2
#     4  11  25  47  72 107 150 193 259 310 374 461
#     4  12  24  45  75 110 153 200 253 318 376 459
#     4  12  27  46  75 109 144 199 254 312 385 458
#     4  11  27  47  73 109 150 199 247 314 392 452
#     4  11  25  46  76 108 148 197 248 316 384 448
#     4  10  25  45  73 103 151 196 248 311 374 451
#     4  12  24  45  75 109 150 199 247 310 382 448
#     4  11  25  49  75 108 156 197 259 321 379 460
#
# _framework density 26.016743999999999
#
# number of rings (size 3 to 8) (size 9 to 14) (size 15 to 20)
#    0.000    0.750    5.000    0.750    5.250    3.500 
#    4.500    0.000    0.000    0.000    0.000    0.000 
#    0.000    0.000    0.000    0.000    0.000    0.000 
#
# Total GULP energy -89387.822723 kJ/mol
# GULP energy per Si atom -5586.738920 kJ/mol
# Density = 2.595753 g / cm^3
# Si number density = 26.016744 Si / 1000 Ang^3
#
#
#
# Elastic Constant Matrix: (Units=GPa)
#
#
# Indices 1 2 3 4 5 6 
#
# 1 55.4241 33.4296 15.0671 -5.1504 -15.8526 -10.0586
# 2 33.4296 143.8419 48.2956 -24.8561 -7.6007 -20.4655
# 3 15.0671 48.2956 167.8500 -24.5454 -13.8174 -5.7206
# 4 -5.1504 -24.8561 -24.5454 45.8675 -3.5091 -5.8181
# 5 -15.8526 -7.6007 -13.8174 -3.5091 32.4314 -9.6025
# 6 -10.0586 -20.4655 -5.7206 -5.8181 -9.6025 69.0744
#
#
#
# Elastic Compliance Matrix: (Units=1/GPa)
#
#
# Indices 1 2 3 4 5 6 
#
# 1 0.025301 -0.004323 0.000557 0.002372 0.013175 0.004481
# 2 -0.004323 0.009630 -0.001622 0.004238 0.000663 0.002538
# 3 0.000557 -0.001622 0.007211 0.003446 0.003631 0.000993
# 4 0.002372 0.004238 0.003446 0.027512 0.008179 0.005341
# 5 0.013175 0.000663 0.003631 0.008179 0.042531 0.009017
# 6 0.004481 0.002538 0.000993 0.005341 0.009017 0.017667
#
#
# Mechanical properties :
#
#
# Convention : Reuss Voigt Hill
#
# Bulk Modulus (GPa) = 31.88246 62.30009 47.09127
# Shear Modulus (GPa) = 33.09399 47.49624 40.29512
#
# Velocity S-wave (km/s) = 3.57042 4.27734 3.93977
# Velocity P-wave (km/s) = 5.41095 6.95646 6.23180
#
# Compressibility (1/GPa) = 0.03136520
#
# Stress axis : x y z
#
# Youngs Moduli (GPa) = 39.52424 103.84315 138.67473
#
# Poissons Ratio (x) = 0.44896 -0.07725
# Poissons Ratio (y) = 0.17088 0.22493
# Poissons Ratio (z) = -0.02202 0.16843
#
# Static dielectric constant tensor:
#      x y z
#    x 2.606820 0.525590 -0.527300 
#    y 0.525590 2.867120 -0.623800 
#    z -0.527300 -0.623800 3.051170 
# 
# From -- ./inp_files/383290.got.cif
#   From: 2010.05.17/outbox.cif.g08.bks.cpg/sg2_192_cif.got.tgz:383290.got - 2010.06.03 11:33:40.
