data_PCOD9051745
_publ_section_title
;
Structure prediction by ZEFSAII (Michael W. Deem and Ramdas Pophale) SiO2 
 PCOD9051745
Probable space group: P -1
;
_chemical_formula_sum "Si O2"
_cell_formula_units_Z 12
_cell_length_a 8.081974
_cell_length_b 16.504158
_cell_length_c 13.416338
_cell_angle_alpha 16.766733
_cell_angle_beta 69.169611
_cell_angle_gamma 67.540144
_cell_volume 476.736089
_symmetry_space_group_name_H-M "P -1"
_symmetry_group_IT_number 2
_symmetry_cell_setting 'triclinic'
loop_
_space_group_symop_operation_xyz
x,y,z
-x,-y,-z
loop_
_atom_site_type_symbol
_atom_site_label
_atom_site_fract_x
_atom_site_fract_y
_atom_site_fract_z
Si Si1 0.113867 0.717111 0.265114
Si Si2 0.590280 0.171247 0.362884
Si Si3 0.265328 0.342242 0.860105
Si Si4 0.306072 0.096477 0.654419
Si Si5 0.940324 0.430006 0.981198
Si Si6 0.469789 0.822922 0.314417
O O1 0.212910 0.555740 0.526678
O O2 0.000000 0.500000 0.500000
O O3 0.227915 0.822003 0.027920
O O4 0.000000 0.000000 0.000000
O O5 0.502941 0.041696 0.628227
O O6 0.500000 0.000000 0.500000
O O7 0.500000 0.500000 0.000000
O O8 0.800081 0.199253 0.282068
O O9 0.406736 0.523273 0.665229
O O10 0.108219 0.340013 0.977901
O O11 0.318608 0.041113 0.147894
O O12 0.172820 0.293118 0.376938
O O13 0.352114 0.227647 0.595998
O O14 0.000000 0.500000 0.000000
O O15 0.500000 0.000000 0.000000
#
# Coordination Sequence:
#
# PCOD9051745 Si02
#       6
#     2   2   2   2   2   2
#     4  12  26  44  77 117 153 196 253 320 392 454
#     4  10  25  47  74 108 147 201 256 313 379 452
#     4  12  27  48  77 114 156 198 257 321 383 464
#     4  11  26  48  79 109 158 202 255 320 390 460
#     4  11  26  51  81 116 156 208 269 323 385 466
#     4  12  27  48  73 116 155 199 250 314 391 464
#
# _framework density 25.17116
#
# number of rings (size 3 to 8) (size 9 to 14) (size 15 to 20)
#    0.000    0.667    3.333    2.500    2.333    6.667 
#    0.000    5.000    0.000    0.000    0.000    0.000 
#    0.000    0.000    0.000    0.000    0.000    0.000 
#
# Total GULP energy -67104.802380 kJ/mol
# GULP energy per Si atom -5592.066865 kJ/mol
# Density = 2.511387 g / cm^3
# Si number density = 25.171160 Si / 1000 Ang^3
#
#
#
# Elastic Constant Matrix: (Units=GPa)
#
#
# Indices 1 2 3 4 5 6 
#
# 1 158.1347 73.0005 80.3379 11.5600 -39.0500 12.8520
# 2 73.0005 154.6879 79.6683 17.9662 -16.5832 -11.3685
# 3 80.3379 79.6683 188.0815 10.5692 -32.2767 9.1406
# 4 11.5600 17.9662 10.5692 66.7752 -2.6053 -4.6892
# 5 -39.0500 -16.5832 -32.2767 -2.6053 72.8330 11.3627
# 6 12.8520 -11.3685 9.1406 -4.6892 11.3627 62.6453
#
#
#
# Elastic Compliance Matrix: (Units=1/GPa)
#
#
# Indices 1 2 3 4 5 6 
#
# 1 0.010372 -0.003592 -0.001964 -0.000582 0.004372 -0.003330
# 2 -0.003592 0.009944 -0.003016 -0.001415 -0.001541 0.003155
# 3 -0.001964 -0.003016 0.007865 -0.000132 0.002001 -0.001665
# 4 -0.000582 -0.001415 -0.000132 0.015543 -0.000308 0.001101
# 5 0.004372 -0.001541 0.002001 -0.000308 0.017321 -0.004633
# 6 -0.003330 0.003155 -0.001665 0.001101 -0.004633 0.018384
#
#
# Mechanical properties :
#
#
# Convention : Reuss Voigt Hill
#
# Bulk Modulus (GPa) = 90.60528 107.43527 99.02028
# Shear Modulus (GPa) = 49.87313 58.31055 54.09184
#
# Velocity S-wave (km/s) = 4.45608 4.81829 4.64072
# Velocity P-wave (km/s) = 7.90881 8.58656 8.25465
#
# Compressibility (1/GPa) = 0.01103688
#
# Stress axis : x y z
#
# Youngs Moduli (GPa) = 96.40951 100.56207 127.14198
#
# Poissons Ratio (x) = 0.36119 0.24976
# Poissons Ratio (y) = 0.34628 0.38350
# Poissons Ratio (z) = 0.18939 0.30332
#
# Static dielectric constant tensor:
#      x y z
#    x 1.945390 0.006470 0.173930 
#    y 0.006470 1.996250 0.025780 
#    z 0.173930 0.025780 1.880790 
# 
# From -- ./inp_files/395017.got.cif
#   From: 2010.05.17/outbox.cif.g08.bks.cpg/sg2_198_cif.got.tgz:395017.got - 2010.06.03 11:33:40.
