data_PCOD9051472
_publ_section_title
;
Structure prediction by ZEFSAII (Michael W. Deem and Ramdas Pophale) SiO2 
 PCOD9051472
Probable space group: P -1
;
_chemical_formula_sum "Si O2"
_cell_formula_units_Z 14
_cell_length_a 9.701059
_cell_length_b 14.412418
_cell_length_c 8.948199
_cell_angle_alpha 44.835244
_cell_angle_beta 85.565510
_cell_angle_gamma 119.511600
_cell_volume 551.723655
_symmetry_space_group_name_H-M "P -1"
_symmetry_group_IT_number 2
_symmetry_cell_setting 'triclinic'
loop_
_space_group_symop_operation_xyz
x,y,z
-x,-y,-z
loop_
_atom_site_type_symbol
_atom_site_label
_atom_site_fract_x
_atom_site_fract_y
_atom_site_fract_z
Si Si1 0.383765 0.205388 0.549295
Si Si2 0.548347 0.031279 0.143118
Si Si3 0.895356 0.246634 0.377391
Si Si4 0.747672 0.415106 0.511167
Si Si5 0.384592 0.464233 0.399156
Si Si6 0.247729 0.130518 0.302165
Si Si7 0.845145 0.370695 0.942744
O O1 0.621626 0.385547 0.411115
O O2 0.269465 0.251573 0.574471
O O3 0.356891 0.188377 0.391557
O O4 0.317281 0.006338 0.825892
O O5 0.290719 0.817315 0.438037
O O6 0.602489 0.182097 0.844404
O O7 0.611169 0.154490 0.150917
O O8 0.120449 0.455317 0.201554
O O9 0.817394 0.042461 0.596630
O O10 0.903279 0.319428 0.133210
O O11 0.752229 0.517219 0.536170
O O12 0.988894 0.547710 0.294971
O O13 0.500000 0.500000 0.500000
O O14 0.575754 0.654482 0.052414
O O15 0.000000 0.000000 0.500000
#
# Coordination Sequence:
#
# PCOD9051472 Si02
#       7
#     2   2   2   2   2   2   2
#     4  11  25  44  76 103 146 196 237 303 365 426
#     4  12  23  45  75 110 146 191 240 305 368 428
#     4  11  25  44  71 107 149 186 247 303 362 428
#     4  11  24  47  71 107 155 185 246 298 372 432
#     4  10  25  46  72 102 142 196 236 299 365 427
#     4  12  27  47  72 104 144 196 253 294 359 446
#     4  11  25  41  73 109 144 190 239 303 356 442
#
# _framework density 25.375022000000001
#
# number of rings (size 3 to 8) (size 9 to 14) (size 15 to 20)
#    0.000    0.857    4.286    1.714    4.000    1.143 
#    0.000    6.429    0.000    0.000    0.000    0.000 
#    0.000    0.000    0.000    0.000    0.000    0.000 
#
# Total GULP energy -78172.002965 kJ/mol
# GULP energy per Si atom -5583.714497 kJ/mol
# Density = 2.531727 g / cm^3
# Si number density = 25.375022 Si / 1000 Ang^3
#
#
#
# Elastic Constant Matrix: (Units=GPa)
#
#
# Indices 1 2 3 4 5 6 
#
# 1 95.8731 36.1772 45.0336 3.6590 2.6005 -26.2924
# 2 36.1772 132.1027 36.4980 5.1835 17.6751 -6.9896
# 3 45.0336 36.4980 104.7600 21.5658 12.0458 -7.6528
# 4 3.6590 5.1835 21.5658 56.8793 -0.5538 18.9835
# 5 2.6005 17.6751 12.0458 -0.5538 41.3277 -0.0477
# 6 -26.2924 -6.9896 -7.6528 18.9835 -0.0477 66.4747
#
#
#
# Elastic Compliance Matrix: (Units=1/GPa)
#
#
# Indices 1 2 3 4 5 6 
#
# 1 0.015406 -0.002657 -0.005415 -0.000455 0.001745 0.005322
# 2 -0.002657 0.009191 -0.001717 0.000053 -0.003263 -0.000300
# 3 -0.005415 -0.001717 0.013912 -0.005038 -0.003046 0.000716
# 4 -0.000455 0.000053 -0.005038 0.021869 0.001760 -0.006998
# 5 0.001745 -0.003263 -0.003046 0.001760 0.026393 -0.000487
# 6 0.005322 -0.000300 0.000716 -0.006998 -0.000487 0.019197
#
#
# Mechanical properties :
#
#
# Convention : Reuss Voigt Hill
#
# Bulk Modulus (GPa) = 52.82915 63.12817 57.97866
# Shear Modulus (GPa) = 37.91993 47.27147 42.59570
#
# Velocity S-wave (km/s) = 3.86991 4.32083 4.10157
# Velocity P-wave (km/s) = 6.39006 7.05867 6.73267
#
# Compressibility (1/GPa) = 0.01892894
#
# Stress axis : x y z
#
# Youngs Moduli (GPa) = 64.90862 108.80689 71.88252
#
# Poissons Ratio (x) = 0.28910 0.38927
# Poissons Ratio (y) = 0.17246 0.12345
# Poissons Ratio (z) = 0.35150 0.18686
#
# Static dielectric constant tensor:
#      x y z
#    x 2.110590 -0.027460 0.016620 
#    y -0.027460 2.169630 -0.015940 
#    z 0.016620 -0.015940 1.952960 
# 
# From -- ./inp_files/269590.got.cif
#   From: 2010.05.17/outbox.cif.g08.bks.cpg/sg2_135_cif.got.tgz:269590.got - 2010.06.03 11:33:40.
