data_PCOD9051862
_publ_section_title
;
Structure prediction by ZEFSAII (Michael W. Deem and Ramdas Pophale) SiO2 
 PCOD9051862
Probable space group: P -1
;
_chemical_formula_sum "Si O2"
_cell_formula_units_Z 10
_cell_length_a 11.520482
_cell_length_b 9.579833
_cell_length_c 12.106483
_cell_angle_alpha 31.143239
_cell_angle_beta 143.254182
_cell_angle_gamma 142.355830
_cell_volume 388.390731
_symmetry_space_group_name_H-M "P -1"
_symmetry_group_IT_number 2
_symmetry_cell_setting 'triclinic'
loop_
_space_group_symop_operation_xyz
x,y,z
-x,-y,-z
loop_
_atom_site_type_symbol
_atom_site_label
_atom_site_fract_x
_atom_site_fract_y
_atom_site_fract_z
Si Si1 0.205306 0.468226 0.728304
Si Si2 0.722380 0.115623 0.874302
Si Si3 0.601958 0.797856 0.302816
Si Si4 0.164522 0.569538 0.885750
Si Si5 0.520415 0.354476 0.378058
O O1 0.212316 0.536293 0.816229
O O2 0.392926 0.664889 0.663235
O O3 0.000000 0.500000 0.500000
O O4 0.208531 0.149516 0.926609
O O5 0.597371 0.100733 0.902856
O O6 0.562349 0.131475 0.644965
O O7 0.927391 0.392148 0.847926
O O8 0.500000 0.500000 0.500000
O O9 0.663767 0.653220 0.342048
O O10 0.777602 0.091445 0.275155
O O11 0.303900 0.411458 0.164520
#
# Coordination Sequence:
#
# PCOD9051862 Si02
#       5
#     2   2   2   2   2
#     4  12  26  48  73 108 147 187 242 296 351 433
#     4  11  26  48  74 107 147 183 245 295 349 431
#     4  10  25  48  72 109 143 186 242 296 350 433
#     4  12  25  46  77 104 144 197 232 290 375 408
#     4  11  25  48  73 104 150 181 243 298 346 432
#
# _framework density 25.747268999999999
#
# number of rings (size 3 to 8) (size 9 to 14) (size 15 to 20)
#    0.000    0.800    4.000    1.800    0.000    8.000 
#    0.000    0.000    0.000    0.000    0.000    0.000 
#    0.000    0.000    0.000    0.000    0.000    0.000 
#
# Total GULP energy -55859.981564 kJ/mol
# GULP energy per Si atom -5585.998156 kJ/mol
# Density = 2.568867 g / cm^3
# Si number density = 25.747269 Si / 1000 Ang^3
#
#
#
# Elastic Constant Matrix: (Units=GPa)
#
#
# Indices 1 2 3 4 5 6 
#
# 1 115.7431 59.3831 -11.0208 5.1500 4.5269 -16.4135
# 2 59.3831 160.7587 30.8440 -9.3902 7.2844 -7.3774
# 3 -11.0208 30.8440 172.7553 3.8370 28.8125 -6.2405
# 4 5.1500 -9.3902 3.8370 38.2631 -3.7157 -0.4868
# 5 4.5269 7.2844 28.8125 -3.7157 31.4793 -1.6521
# 6 -16.4135 -7.3774 -6.2405 -0.4868 -1.6521 58.4102
#
#
#
# Elastic Compliance Matrix: (Units=1/GPa)
#
#
# Indices 1 2 3 4 5 6 
#
# 1 0.011988 -0.004792 0.002288 -0.003268 -0.002943 0.002897
# 2 -0.004792 0.008500 -0.002064 0.003024 0.000945 -0.000441
# 3 0.002288 -0.002064 0.007551 -0.002237 -0.006976 0.000973
# 4 -0.003268 0.003024 -0.002237 0.028032 0.005105 -0.000397
# 5 -0.002943 0.000945 -0.006976 0.005105 0.038943 -0.000309
# 6 0.002897 -0.000441 0.000973 -0.000397 -0.000309 0.017971
#
#
# Mechanical properties :
#
#
# Convention : Reuss Voigt Hill
#
# Bulk Modulus (GPa) = 52.89822 67.51885 60.20853
# Shear Modulus (GPa) = 38.93451 50.30055 44.61753
#
# Velocity S-wave (km/s) = 3.89289 4.42478 4.16733
# Velocity P-wave (km/s) = 6.38717 7.23778 6.82574
#
# Compressibility (1/GPa) = 0.01890423
#
# Stress axis : x y z
#
# Youngs Moduli (GPa) = 83.41984 117.64546 132.42649
#
# Poissons Ratio (x) = 0.56373 -0.30304
# Poissons Ratio (y) = 0.39973 0.27333
# Poissons Ratio (z) = -0.19090 0.24283
#
# Static dielectric constant tensor:
#      x y z
#    x 2.008520 -0.017730 -0.115750 
#    y -0.017730 2.045000 -0.030270 
#    z -0.115750 -0.030270 2.294850 
# 
# From -- ./inp_files/289504.got.cif
#   From: 2010.05.17/outbox.cif.g08.bks.cpg/sg2_145_cif.got.tgz:289504.got - 2010.06.03 11:33:40.
