data_PCOD9051517
_publ_section_title
;
Structure prediction by ZEFSAII (Michael W. Deem and Ramdas Pophale) SiO2 
 PCOD9051517
Probable space group: P -1
;
_chemical_formula_sum "Si O2"
_cell_formula_units_Z 16
_cell_length_a 6.760921
_cell_length_b 7.769958
_cell_length_c 19.541527
_cell_angle_alpha 42.052493
_cell_angle_beta 71.175669
_cell_angle_gamma 84.205711
_cell_volume 635.070507
_symmetry_space_group_name_H-M "P -1"
_symmetry_group_IT_number 2
_symmetry_cell_setting 'triclinic'
loop_
_space_group_symop_operation_xyz
x,y,z
-x,-y,-z
loop_
_atom_site_type_symbol
_atom_site_label
_atom_site_fract_x
_atom_site_fract_y
_atom_site_fract_z
Si Si1 0.948631 0.359211 0.404598
Si Si2 0.547665 0.949244 0.909668
Si Si3 0.013279 0.029375 0.371787
Si Si4 0.462263 0.182580 0.203781
Si Si5 0.585009 0.627151 0.382832
Si Si6 0.562511 0.515768 0.697524
Si Si7 0.133587 0.815530 0.078125
Si Si8 0.225940 0.692799 0.764065
O O1 0.888194 0.143090 0.414797
O O2 0.190727 0.459339 0.325544
O O3 0.823146 0.590194 0.352225
O O4 0.940099 0.227004 0.519614
O O5 0.466291 0.217070 0.820681
O O6 0.756860 0.041063 0.907226
O O7 0.579814 0.816271 0.872952
O O8 0.347629 0.780569 0.023822
O O9 0.245780 0.177430 0.271975
O O10 0.861550 0.044278 0.318928
O O11 0.682201 0.368698 0.153785
O O12 0.525175 0.904042 0.295277
O O13 0.500000 0.500000 0.500000
O O14 0.457541 0.445458 0.391370
O O15 0.439938 0.705928 0.692834
O O16 0.960487 0.537972 0.178391
O O17 0.000000 0.000000 0.000000
#
# Coordination Sequence:
#
# PCOD9051517 Si02
#       8
#     2   2   2   2   2   2   2   2
#     4  11  23  40  69  97 143 203 246 281 357 425
#     4  10  25  46  73 107 138 181 243 297 363 441
#     4  11  24  41  65 104 147 195 237 298 356 425
#     4  11  26  45  69 112 151 182 239 310 360 411
#     4  11  24  43  65 102 145 196 247 295 344 421
#     4  11  23  41  70  99 139 193 242 288 347 432
#     4  11  24  47  80 105 136 189 239 293 373 454
#     4  12  25  43  73 105 145 188 241 301 364 430
#
# _framework density 25.194053
#
# number of rings (size 3 to 8) (size 9 to 14) (size 15 to 20)
#    0.000    1.000    5.000    0.750    1.750    4.500 
#    0.000    1.250    0.000    0.000    0.000    0.000 
#    0.000    0.000    0.000    0.000    0.000    0.000 
#
# Total GULP energy -89312.891858 kJ/mol
# GULP energy per Si atom -5582.055741 kJ/mol
# Density = 2.513671 g / cm^3
# Si number density = 25.194053 Si / 1000 Ang^3
#
#
#
# Elastic Constant Matrix: (Units=GPa)
#
#
# Indices 1 2 3 4 5 6 
#
# 1 171.6789 59.7870 32.7314 22.1309 6.7306 1.2736
# 2 59.7870 87.1719 25.3712 24.4361 9.4109 1.3292
# 3 32.7314 25.3712 72.5547 12.9678 8.1644 15.1535
# 4 22.1309 24.4361 12.9678 37.6893 5.9266 17.0776
# 5 6.7306 9.4109 8.1644 5.9266 43.6133 3.5136
# 6 1.2736 1.3292 15.1535 17.0776 3.5136 48.7986
#
#
#
# Elastic Compliance Matrix: (Units=1/GPa)
#
#
# Indices 1 2 3 4 5 6 
#
# 1 0.007949 -0.004462 -0.001990 -0.001618 0.000241 0.001081
# 2 -0.004462 0.018361 -0.003351 -0.009773 -0.001656 0.004196
# 3 -0.001990 -0.003351 0.017101 0.000022 -0.001768 -0.005048
# 4 -0.001618 -0.009773 0.000022 0.040321 -0.002024 -0.013663
# 5 0.000241 -0.001656 -0.001768 -0.002024 0.023889 -0.000424
# 6 0.001081 0.004196 -0.005048 -0.013663 -0.000424 0.026730
#
#
# Mechanical properties :
#
#
# Convention : Reuss Voigt Hill
#
# Bulk Modulus (GPa) = 42.00504 63.02051 52.51278
# Shear Modulus (GPa) = 30.88486 40.25463 35.56974
#
# Velocity S-wave (km/s) = 3.50505 4.00156 3.76151
# Velocity P-wave (km/s) = 5.75233 6.81310 6.30507
#
# Compressibility (1/GPa) = 0.02380667
#
# Stress axis : x y z
#
# Youngs Moduli (GPa) = 125.80127 54.46211 58.47512
#
# Poissons Ratio (x) = 0.24300 0.11634
# Poissons Ratio (y) = 0.56130 0.19596
# Poissons Ratio (z) = 0.25028 0.18251
#
# Static dielectric constant tensor:
#      x y z
#    x 2.009860 0.107700 0.031660 
#    y 0.107700 2.127280 -0.064630 
#    z 0.031660 -0.064630 2.037540 
# 
# From -- ./inp_files/504482.got.cif
#   From: 2010.05.17/outbox.cif.g08.bks.cpg/sg2_253_cif.got.tgz:504482.got - 2010.06.03 11:33:40.
