data_PCOD9051540
_publ_section_title
;
Structure prediction by ZEFSAII (Michael W. Deem and Ramdas Pophale) SiO2 
 PCOD9051540
Probable space group: P -1
;
_chemical_formula_sum "Si O2"
_cell_formula_units_Z 16
_cell_length_a 9.155910
_cell_length_b 21.642164
_cell_length_c 5.522383
_cell_angle_alpha 49.099867
_cell_angle_beta 101.762692
_cell_angle_gamma 124.623246
_cell_volume 655.293149
_symmetry_space_group_name_H-M "P -1"
_symmetry_group_IT_number 2
_symmetry_cell_setting 'triclinic'
loop_
_space_group_symop_operation_xyz
x,y,z
-x,-y,-z
loop_
_atom_site_type_symbol
_atom_site_label
_atom_site_fract_x
_atom_site_fract_y
_atom_site_fract_z
Si Si1 0.594579 0.442699 0.652743
Si Si2 0.332207 0.243620 0.331114
Si Si3 0.021483 0.275180 0.238930
Si Si4 0.103630 0.017232 0.740891
Si Si5 0.672082 0.345872 0.548667
Si Si6 0.946738 0.611739 0.549671
Si Si7 0.634662 0.161418 0.212711
Si Si8 0.657502 0.043271 0.137104
O O1 0.500000 0.500000 0.500000
O O2 0.681095 0.436185 0.451805
O O3 0.762774 0.497808 0.757070
O O4 0.428906 0.327275 0.942048
O O5 0.271806 0.134792 0.509981
O O6 0.492899 0.287723 0.469474
O O7 0.154454 0.239201 0.364145
O O8 0.800947 0.188590 0.375644
O O9 0.061871 0.337231 0.340708
O O10 0.055642 0.337148 0.838272
O O11 0.165398 0.943874 0.937006
O O12 0.000000 0.000000 0.500000
O O13 0.000000 0.000000 0.000000
O O14 0.866346 0.381130 0.408501
O O15 0.636297 0.259063 0.947625
O O16 0.693206 0.139557 0.033499
O O17 0.438055 0.054828 0.463483
O O18 0.500000 0.000000 0.000000
#
# Coordination Sequence:
#
# PCOD9051540 Si02
#       8
#     2   2   2   2   2   2   2   2
#     4  12  26  49  76 111 156 200 257 311 382 454
#     4  12  28  46  81 107 154 205 252 315 383 457
#     4  11  26  47  75 107 150 199 251 304 379 447
#     4  12  31  50  77 115 158 197 255 316 386 455
#     4  11  27  46  77 109 150 198 256 310 380 448
#     4  11  27  48  76 109 151 198 250 317 368 446
#     4  10  25  46  74 107 145 194 257 315 374 457
#     4  11  25  45  77 104 146 197 252 318 386 443
#
# _framework density 24.416553
#
# number of rings (size 3 to 8) (size 9 to 14) (size 15 to 20)
#    0.000    0.750    1.250    3.375   19.250    1.500 
#    0.000    0.000    0.000    0.000    0.000    0.000 
#    0.000    0.000    0.000    0.000    0.000    0.000 
#
# Total GULP energy -89541.889184 kJ/mol
# GULP energy per Si atom -5596.368074 kJ/mol
# Density = 2.436098 g / cm^3
# Si number density = 24.416553 Si / 1000 Ang^3
#
#
#
# Elastic Constant Matrix: (Units=GPa)
#
#
# Indices 1 2 3 4 5 6 
#
# 1 161.1089 39.2649 21.1280 14.4506 23.0599 -19.7670
# 2 39.2649 165.0368 4.7121 19.6577 6.5861 -12.2156
# 3 21.1280 4.7121 74.4162 4.0674 0.6093 -7.0649
# 4 14.4506 19.6577 4.0674 45.0487 7.4546 -2.6843
# 5 23.0599 6.5861 0.6093 7.4546 44.4693 0.8994
# 6 -19.7670 -12.2156 -7.0649 -2.6843 0.8994 54.0824
#
#
#
# Elastic Compliance Matrix: (Units=1/GPa)
#
#
# Indices 1 2 3 4 5 6 
#
# 1 0.007654 -0.001341 -0.001790 -0.000973 -0.003629 0.002273
# 2 -0.001341 0.006734 0.000178 -0.002485 0.000093 0.000929
# 3 -0.001790 0.000178 0.014085 -0.000842 0.000826 0.001170
# 4 -0.000973 -0.002485 -0.000842 0.024210 -0.003179 0.000228
# 5 -0.003629 0.000093 0.000826 -0.003179 0.024913 -0.001769
# 6 0.002273 0.000929 0.001170 0.000228 -0.001769 0.019725
#
#
# Mechanical properties :
#
#
# Convention : Reuss Voigt Hill
#
# Bulk Modulus (GPa) = 44.31164 58.97468 51.64316
# Shear Modulus (GPa) = 45.14705 51.08388 48.11547
#
# Velocity S-wave (km/s) = 4.30471 4.57900 4.44397
# Velocity P-wave (km/s) = 6.54942 7.22235 6.89410
#
# Compressibility (1/GPa) = 0.02256743
#
# Stress axis : x y z
#
# Youngs Moduli (GPa) = 130.65057 148.49515 70.99671
#
# Poissons Ratio (x) = 0.19914 0.12705
# Poissons Ratio (y) = 0.17521 -0.01261
# Poissons Ratio (z) = 0.23380 -0.02637
#
# Static dielectric constant tensor:
#      x y z
#    x 1.924630 0.006670 -0.070250 
#    y 0.006670 1.839400 0.001470 
#    z -0.070250 0.001470 2.082680 
# 
# From -- ./inp_files/52245.got.cif
#   From: 2010.05.17/outbox.cif.g08.bks.cpg/sg2_27_cif.got.tgz:52245.got - 2010.06.03 11:33:40.
