data_PCOD9051552
_publ_section_title
;
Structure prediction by ZEFSAII (Michael W. Deem and Ramdas Pophale) SiO2 
 PCOD9051552
Probable space group: P -1
;
_chemical_formula_sum "Si O2"
_cell_formula_units_Z 14
_cell_length_a 17.715294
_cell_length_b 7.819502
_cell_length_c 9.535340
_cell_angle_alpha 83.467267
_cell_angle_beta 129.298480
_cell_angle_gamma 57.263468
_cell_volume 613.231457
_symmetry_space_group_name_H-M "P -1"
_symmetry_group_IT_number 2
_symmetry_cell_setting 'triclinic'
loop_
_space_group_symop_operation_xyz
x,y,z
-x,-y,-z
loop_
_atom_site_type_symbol
_atom_site_label
_atom_site_fract_x
_atom_site_fract_y
_atom_site_fract_z
Si Si1 0.455328 0.257483 0.109190
Si Si2 0.321958 0.079574 0.061750
Si Si3 0.942971 0.629945 0.078043
Si Si4 0.555954 0.718077 0.592287
Si Si5 0.126456 0.864193 0.540952
Si Si6 0.218756 0.124680 0.634769
Si Si7 0.903305 0.072157 0.011841
O O1 0.485139 0.288132 0.298698
O O2 0.608273 0.079500 0.210119
O O3 0.409721 0.122488 0.095346
O O4 0.299188 0.553062 0.822157
O O5 0.185863 0.310325 0.998403
O O6 0.234637 0.116065 0.822521
O O7 0.457237 0.785814 0.335980
O O8 0.094972 0.423043 0.381248
O O9 0.861002 0.932237 0.952616
O O10 0.000000 0.500000 0.000000
O O11 0.500000 0.000000 0.500000
O O12 0.743892 0.409269 0.821684
O O13 0.153265 0.027854 0.531059
O O14 0.000000 0.000000 0.500000
O O15 0.038503 0.900430 0.305304
O O16 0.000000 0.000000 0.000000
#
# Coordination Sequence:
#
# PCOD9051552 Si02
#       7
#     2   2   2   2   2   2   2
#     4  11  24  45  74 104 149 196 244 303 378 435
#     4  11  25  46  75 103 152 191 247 303 377 435
#     4  12  27  48  74 110 150 195 252 307 370 444
#     4  10  25  46  75 104 149 196 245 302 378 437
#     4  12  24  47  73 104 150 189 247 306 366 440
#     4  12  26  44  75 111 145 195 245 305 376 444
#     4  12  28  45  76 111 147 197 250 305 373 441
#
# _framework density 22.829878000000001
#
# number of rings (size 3 to 8) (size 9 to 14) (size 15 to 20)
#    0.000    0.571    1.429    5.571   12.000    0.571 
#    2.571    0.000    0.000    0.000    0.000    0.000 
#    0.000    0.000    0.000    0.000    0.000    0.000 
#
# Total GULP energy -78261.819620 kJ/mol
# GULP energy per Si atom -5590.129973 kJ/mol
# Density = 2.277792 g / cm^3
# Si number density = 22.829878 Si / 1000 Ang^3
#
#
#
# Elastic Constant Matrix: (Units=GPa)
#
#
# Indices 1 2 3 4 5 6 
#
# 1 126.9771 56.6326 32.3428 -11.8291 18.4682 -26.5593
# 2 56.6326 102.1393 49.8003 3.0102 -5.8615 -9.4796
# 3 32.3428 49.8003 153.5748 -11.7873 -18.3849 -13.1088
# 4 -11.8291 3.0102 -11.7873 49.5927 -13.5992 -2.8859
# 5 18.4682 -5.8615 -18.3849 -13.5992 37.7948 6.9906
# 6 -26.5593 -9.4796 -13.1088 -2.8859 6.9906 45.5429
#
#
#
# Elastic Compliance Matrix: (Units=1/GPa)
#
#
# Indices 1 2 3 4 5 6 
#
# 1 0.014867 -0.007575 -0.001030 0.001523 -0.009950 0.008420
# 2 -0.007575 0.015722 -0.003473 -0.002650 0.004040 -0.002933
# 3 -0.001030 -0.003473 0.008834 0.003592 0.005441 0.000612
# 4 0.001523 -0.002650 0.003592 0.024093 0.008981 0.001519
# 5 -0.009950 0.004040 0.005441 0.008981 0.039469 -0.008885
# 6 0.008420 -0.002933 0.000612 0.001519 -0.008885 0.027893
#
#
# Mechanical properties :
#
#
# Convention : Reuss Voigt Hill
#
# Bulk Modulus (GPa) = 65.50483 73.36027 69.43255
# Shear Modulus (GPa) = 31.22610 42.84713 37.03662
#
# Velocity S-wave (km/s) = 3.70235 4.33691 4.03213
# Velocity P-wave (km/s) = 6.85795 7.56846 7.22195
#
# Compressibility (1/GPa) = 0.01526605
#
# Stress axis : x y z
#
# Youngs Moduli (GPa) = 67.26477 63.60616 113.20003
#
# Poissons Ratio (x) = 0.48183 0.11660
# Poissons Ratio (y) = 0.50954 0.39314
# Poissons Ratio (z) = 0.06928 0.22090
#
# Static dielectric constant tensor:
#      x y z
#    x 2.265410 0.684660 -0.186290 
#    y 0.684660 2.954810 -0.350260 
#    z -0.186290 -0.350260 2.092270 
# 
# From -- ./inp_files/328901.got.cif
#   From: 2010.05.17/outbox.cif.g08.bks.cpg/sg2_165_cif.got.tgz:328901.got - 2010.06.03 11:33:40.
