data_PCOD9051628
_publ_section_title
;
Structure prediction by ZEFSAII (Michael W. Deem and Ramdas Pophale) SiO2 
 PCOD9051628
Probable space group: P -1
;
_chemical_formula_sum "Si O2"
_cell_formula_units_Z 14
_cell_length_a 14.074539
_cell_length_b 7.652785
_cell_length_c 11.378308
_cell_angle_alpha 113.292060
_cell_angle_beta 127.920264
_cell_angle_gamma 108.342366
_cell_volume 566.908338
_symmetry_space_group_name_H-M "P -1"
_symmetry_group_IT_number 2
_symmetry_cell_setting 'triclinic'
loop_
_space_group_symop_operation_xyz
x,y,z
-x,-y,-z
loop_
_atom_site_type_symbol
_atom_site_label
_atom_site_fract_x
_atom_site_fract_y
_atom_site_fract_z
Si Si1 0.415491 0.232533 0.725353
Si Si2 0.065019 0.039088 0.427386
Si Si3 0.724860 0.778236 0.764639
Si Si4 0.790567 0.168287 0.748658
Si Si5 0.752124 0.503179 0.906629
Si Si6 0.676097 0.095239 0.209200
Si Si7 0.055681 0.736208 0.742924
O O1 0.613101 0.469092 0.869626
O O2 0.283368 0.256240 0.635716
O O3 0.303241 0.949315 0.480665
O O4 0.419879 0.170286 0.845829
O O5 0.000000 0.000000 0.500000
O O6 0.009861 0.152612 0.341020
O O7 0.937553 0.720352 0.186927
O O8 0.500000 0.500000 0.500000
O O9 0.772837 0.638413 0.832066
O O10 0.786601 0.944588 0.731408
O O11 0.827586 0.059272 0.000168
O O12 0.687196 0.207163 0.757638
O O13 0.000000 0.500000 0.000000
O O14 0.793427 0.177179 0.205409
O O15 0.854773 0.385506 0.502080
O O16 0.500000 0.000000 0.000000
#
# Coordination Sequence:
#
# PCOD9051628 Si02
#       7
#     2   2   2   2   2   2   2
#     4  12  25  45  72 107 138 192 245 299 375 438
#     4  11  24  46  70 100 146 188 243 307 367 440
#     4  11  25  47  73 110 151 193 249 307 382 446
#     4  12  25  48  77 103 148 196 247 310 369 451
#     4  11  27  46  72 110 145 196 247 309 373 446
#     4  11  26  44  73 109 145 196 250 306 379 443
#     4  10  25  47  69 105 149 195 244 313 369 448
#
# _framework density 24.695350999999999
#
# number of rings (size 3 to 8) (size 9 to 14) (size 15 to 20)
#    0.000    0.857    4.286    1.286    4.000    3.429 
#    2.571    0.000    0.000    0.000    0.000    0.000 
#    0.000    0.000    0.000    0.000    0.000    0.000 
#
# Total GULP energy -78103.881827 kJ/mol
# GULP energy per Si atom -5578.848702 kJ/mol
# Density = 2.463914 g / cm^3
# Si number density = 24.695351 Si / 1000 Ang^3
#
#
#
# Elastic Constant Matrix: (Units=GPa)
#
#
# Indices 1 2 3 4 5 6 
#
# 1 97.1719 18.3395 54.5148 -2.0059 27.3738 7.6161
# 2 18.3395 82.9994 26.6717 -16.7280 13.0040 12.5292
# 3 54.5148 26.6717 161.0717 -10.2598 10.1276 -1.5658
# 4 -2.0059 -16.7280 -10.2598 40.7118 0.3773 -0.4405
# 5 27.3738 13.0040 10.1276 0.3773 54.8912 -5.4440
# 6 7.6161 12.5292 -1.5658 -0.4405 -5.4440 25.9810
#
#
#
# Elastic Compliance Matrix: (Units=1/GPa)
#
#
# Indices 1 2 3 4 5 6 
#
# 1 0.015683 0.000244 -0.004958 -0.000377 -0.007618 -0.006617
# 2 0.000244 0.015878 -0.002142 0.005943 -0.004390 -0.008677
# 3 -0.004958 -0.002142 0.008223 0.000968 0.001791 0.003373
# 4 -0.000377 0.005943 0.000968 0.027219 -0.001845 -0.002622
# 5 -0.007618 -0.004390 0.001791 -0.001845 0.023670 0.009386
# 6 -0.006617 -0.008677 0.003373 -0.002622 0.009386 0.046739
#
#
# Mechanical properties :
#
#
# Convention : Reuss Voigt Hill
#
# Bulk Modulus (GPa) = 38.35339 60.03276 49.19308
# Shear Modulus (GPa) = 31.28648 40.43127 35.85887
#
# Velocity S-wave (km/s) = 3.56321 4.05062 3.81471
# Velocity P-wave (km/s) = 5.70026 6.79992 6.27423
#
# Compressibility (1/GPa) = 0.02607331
#
# Stress axis : x y z
#
# Youngs Moduli (GPa) = 63.76286 62.98076 121.61213
#
# Poissons Ratio (x) = -0.01537 0.60292
# Poissons Ratio (y) = -0.01556 0.26045
# Poissons Ratio (z) = 0.31612 0.13488
#
# Static dielectric constant tensor:
#      x y z
#    x 2.033330 -0.071330 -0.033950 
#    y -0.071330 1.938250 0.073310 
#    z -0.033950 0.073310 2.188010 
# 
# From -- ./inp_files/446228.got.cif
#   From: 2010.05.17/outbox.cif.g08.bks.cpg/sg2_224_cif.got.tgz:446228.got - 2010.06.03 11:33:40.
