data_PCOD9051676
_publ_section_title
;
Structure prediction by ZEFSAII (Michael W. Deem and Ramdas Pophale) SiO2 
 PCOD9051676
Probable space group: P -1
;
_chemical_formula_sum "Si O2"
_cell_formula_units_Z 14
_cell_length_a 11.066119
_cell_length_b 7.714469
_cell_length_c 18.712058
_cell_angle_alpha 138.684580
_cell_angle_beta 144.661931
_cell_angle_gamma 63.244890
_cell_volume 551.992764
_symmetry_space_group_name_H-M "P -1"
_symmetry_group_IT_number 2
_symmetry_cell_setting 'triclinic'
loop_
_space_group_symop_operation_xyz
x,y,z
-x,-y,-z
loop_
_atom_site_type_symbol
_atom_site_label
_atom_site_fract_x
_atom_site_fract_y
_atom_site_fract_z
Si Si1 0.810350 0.104775 0.965441
Si Si2 0.492490 0.662538 0.293888
Si Si3 0.553981 0.744021 0.981086
Si Si4 0.034121 0.133521 0.351947
Si Si5 0.909108 0.390169 0.842834
Si Si6 0.569200 0.238241 0.430190
Si Si7 0.914519 0.424604 0.254007
O O1 0.825057 0.154186 0.071931
O O2 0.915480 0.415047 0.072266
O O3 0.564637 0.901411 0.750931
O O4 0.000000 0.000000 0.000000
O O5 0.392738 0.423694 0.109941
O O6 0.753294 0.703239 0.443375
O O7 0.334364 0.582922 0.263923
O O8 0.492376 0.965882 0.362365
O O9 0.314811 0.522402 0.832655
O O10 0.500000 0.000000 0.000000
O O11 0.782019 0.913759 0.191047
O O12 0.987007 0.344240 0.340210
O O13 0.122743 0.932776 0.286283
O O14 0.000000 0.500000 0.000000
O O15 0.500000 0.500000 0.500000
O O16 0.844074 0.349839 0.591189
#
# Coordination Sequence:
#
# PCOD9051676 Si02
#       7
#     2   2   2   2   2   2   2
#     4  12  25  41  69  99 141 180 221 291 360 404
#     4  12  26  45  73 105 137 185 241 287 350 414
#     4  10  25  47  71  98 141 188 240 285 342 425
#     4  11  24  44  73 104 136 183 239 290 345 421
#     4  12  22  44  72  99 138 180 233 292 348 411
#     4  12  25  44  69 105 143 177 230 291 357 416
#     4  11  26  44  68 105 140 183 232 286 355 420
#
# _framework density 25.362649999999999
#
# number of rings (size 3 to 8) (size 9 to 14) (size 15 to 20)
#    0.000    0.571    4.286    3.000    4.000    4.000 
#    0.000    5.000    0.000    0.000    0.000    0.000 
#    0.000    0.000    0.000    0.000    0.000    0.000 
#
# Total GULP energy -78331.366818 kJ/mol
# GULP energy per Si atom -5595.097630 kJ/mol
# Density = 2.530492 g / cm^3
# Si number density = 25.362650 Si / 1000 Ang^3
#
#
#
# Elastic Constant Matrix: (Units=GPa)
#
#
# Indices 1 2 3 4 5 6 
#
# 1 64.9594 8.0537 16.7880 4.3214 24.1599 -15.1025
# 2 8.0537 72.7847 2.7270 2.1626 -0.1850 5.3206
# 3 16.7880 2.7270 152.5688 -26.8690 19.0823 4.9431
# 4 4.3214 2.1626 -26.8690 43.7735 -1.1132 1.1477
# 5 24.1599 -0.1850 19.0823 -1.1132 45.3348 -6.3635
# 6 -15.1025 5.3206 4.9431 1.1477 -6.3635 33.4253
#
#
#
# Elastic Compliance Matrix: (Units=1/GPa)
#
#
# Indices 1 2 3 4 5 6 
#
# 1 0.022364 -0.002973 -0.002157 -0.003875 -0.009832 0.009158
# 2 -0.002973 0.014329 -0.000019 -0.000308 0.001168 -0.003388
# 3 -0.002157 -0.000019 0.008118 0.005207 -0.002538 -0.002834
# 4 -0.003875 -0.000308 0.005207 0.026528 0.000050 -0.003373
# 5 -0.009832 0.001168 -0.002538 0.000050 0.028537 0.001178
# 6 0.009158 -0.003388 -0.002834 -0.003373 0.001178 0.035354
#
#
# Mechanical properties :
#
#
# Convention : Reuss Voigt Hill
#
# Bulk Modulus (GPa) = 28.97569 38.38334 33.67952
# Shear Modulus (GPa) = 31.84022 42.02302 36.93162
#
# Velocity S-wave (km/s) = 3.54700 4.07490 3.82008
# Velocity P-wave (km/s) = 5.31266 6.10790 5.72411
#
# Compressibility (1/GPa) = 0.03451169
#
# Stress axis : x y z
#
# Youngs Moduli (GPa) = 44.71447 69.79025 123.17815
#
# Poissons Ratio (x) = 0.20749 0.26571
# Poissons Ratio (y) = 0.13294 0.00240
# Poissons Ratio (z) = 0.09646 0.00136
#
# Static dielectric constant tensor:
#      x y z
#    x 2.042060 0.042900 0.111250 
#    y 0.042900 2.064610 -0.008560 
#    z 0.111250 -0.008560 2.073950 
# 
# From -- ./inp_files/269856.got.cif
#   From: 2010.05.17/outbox.cif.g08.bks.cpg/sg2_135_cif.got.tgz:269856.got - 2010.06.03 11:33:40.
