data_PCOD9051970
_publ_section_title
;
Structure prediction by ZEFSAII (Michael W. Deem and Ramdas Pophale) SiO2 
 PCOD9051970
Probable space group: P -1
;
_chemical_formula_sum "Si O2"
_cell_formula_units_Z 12
_cell_length_a 8.848021
_cell_length_b 8.483858
_cell_length_c 10.717004
_cell_angle_alpha 45.018328
_cell_angle_beta 121.401874
_cell_angle_gamma 97.236439
_cell_volume 444.840031
_symmetry_space_group_name_H-M "P -1"
_symmetry_group_IT_number 2
_symmetry_cell_setting 'triclinic'
loop_
_space_group_symop_operation_xyz
x,y,z
-x,-y,-z
loop_
_atom_site_type_symbol
_atom_site_label
_atom_site_fract_x
_atom_site_fract_y
_atom_site_fract_z
Si Si1 0.797250 0.920594 0.415492
Si Si2 0.453127 0.774879 0.071054
Si Si3 0.754326 0.491618 0.790582
Si Si4 0.867712 0.379093 0.434282
Si Si5 0.118084 0.043757 0.140001
Si Si6 0.441377 0.183686 0.257320
O O1 0.741584 0.703245 0.570326
O O2 0.020354 0.757307 0.567041
O O3 0.645543 0.140884 0.310267
O O4 0.736085 0.070467 0.177151
O O5 0.386271 0.644077 0.225944
O O6 0.652809 0.582323 0.206906
O O7 0.500000 0.000000 0.000000
O O8 0.681934 0.574915 0.854548
O O9 0.971848 0.294818 0.997961
O O10 0.000000 0.500000 0.500000
O O11 0.841335 0.180039 0.624709
O O12 0.307260 0.094469 0.163732
O O13 0.000000 0.000000 0.000000
O O14 0.500000 0.000000 0.500000
#
# Coordination Sequence:
#
# PCOD9051970 Si02
#       6
#     2   2   2   2   2   2
#     4  11  25  45  75 105 147 200 250 299 376 442
#     4  12  26  46  73 109 152 193 250 314 370 442
#     4  11  25  50  73 105 153 197 246 308 376 446
#     4  12  24  45  67 114 152 186 251 313 368 440
#     4  12  26  45  81 112 148 200 253 309 373 444
#     4  10  25  49  71 107 154 200 246 303 380 448
#
# _framework density 26.975992999999999
#
# number of rings (size 3 to 8) (size 9 to 14) (size 15 to 20)
#    0.000    0.667    3.333    3.500    7.000    1.333 
#    0.000    4.167    0.000    0.000    0.000    0.000 
#    0.000    0.000    0.000    0.000    0.000    0.000 
#
# Total GULP energy -66953.024582 kJ/mol
# GULP energy per Si atom -5579.418715 kJ/mol
# Density = 2.691459 g / cm^3
# Si number density = 26.975993 Si / 1000 Ang^3
#
#
#
# Elastic Constant Matrix: (Units=GPa)
#
#
# Indices 1 2 3 4 5 6 
#
# 1 202.0680 49.6574 70.0649 -12.3352 28.4741 11.0034
# 2 49.6574 85.4211 26.2354 -15.0639 21.0518 12.6628
# 3 70.0649 26.2354 154.7476 -39.9687 1.1080 16.5459
# 4 -12.3352 -15.0639 -39.9687 41.1720 -8.2113 10.2093
# 5 28.4741 21.0518 1.1080 -8.2113 65.3579 -14.4130
# 6 11.0034 12.6628 16.5459 10.2093 -14.4130 46.6281
#
#
#
# Elastic Compliance Matrix: (Units=1/GPa)
#
#
# Indices 1 2 3 4 5 6 
#
# 1 0.007007 -0.002993 -0.003410 -0.002838 -0.002327 0.000271
# 2 -0.002993 0.016599 0.001218 0.007215 -0.004763 -0.007286
# 3 -0.003410 0.001218 0.011657 0.012463 0.001129 -0.006042
# 4 -0.002838 0.007215 0.012463 0.041962 0.000738 -0.014672
# 5 -0.002327 -0.004763 0.001129 0.000738 0.019536 0.007319
# 6 0.000271 -0.007286 -0.006042 -0.014672 0.007319 0.030980
#
#
# Mechanical properties :
#
#
# Convention : Reuss Voigt Hill
#
# Bulk Modulus (GPa) = 40.17474 81.57245 60.87360
# Shear Modulus (GPa) = 34.15075 50.38354 42.26714
#
# Velocity S-wave (km/s) = 3.56190 4.32640 3.96263
# Velocity P-wave (km/s) = 5.64281 7.43381 6.59935
#
# Compressibility (1/GPa) = 0.02489126
#
# Stress axis : x y z
#
# Youngs Moduli (GPa) = 142.71862 60.24468 85.78629
#
# Poissons Ratio (x) = 0.18031 0.29257
# Poissons Ratio (y) = 0.42714 -0.10446
# Poissons Ratio (z) = 0.48673 -0.07336
#
# Static dielectric constant tensor:
#      x y z
#    x 2.214420 -0.155670 0.133110 
#    y -0.155670 2.705440 -0.153470 
#    z 0.133110 -0.153470 2.075180 
# 
# From -- ./inp_files/380907.got.cif
#   From: 2010.05.17/outbox.cif.g08.bks.cpg/sg2_191_cif.got.tgz:380907.got - 2010.06.03 11:33:40.
