data_PCOD9051039
_publ_section_title
;
Structure prediction by ZEFSAII (Michael W. Deem and Ramdas Pophale) SiO2 
 PCOD9051039
Probable space group: P -1
;
_chemical_formula_sum "Si O2"
_cell_formula_units_Z 16
_cell_length_a 8.620943
_cell_length_b 14.418331
_cell_length_c 16.602319
_cell_angle_alpha 32.377370
_cell_angle_beta 42.526930
_cell_angle_gamma 42.509695
_cell_volume 708.417022
_symmetry_space_group_name_H-M "P -1"
_symmetry_group_IT_number 2
_symmetry_cell_setting 'triclinic'
loop_
_space_group_symop_operation_xyz
x,y,z
-x,-y,-z
loop_
_atom_site_type_symbol
_atom_site_label
_atom_site_fract_x
_atom_site_fract_y
_atom_site_fract_z
Si Si1 0.731527 0.066782 0.874533
Si Si2 0.962470 0.844079 0.816526
Si Si3 0.295956 0.239798 0.606714
Si Si4 0.252774 0.344863 0.260949
Si Si5 0.104470 0.626871 0.477432
Si Si6 0.223759 0.974076 0.492885
Si Si7 0.431856 0.886351 0.922840
Si Si8 0.658657 0.489508 0.054672
O O1 0.726145 0.244363 0.693323
O O2 0.942772 0.901167 0.875664
O O3 0.729699 0.105333 0.941678
O O4 0.500000 0.000000 0.000000
O O5 0.695062 0.897277 0.842303
O O6 0.118210 0.953395 0.634681
O O7 0.109483 0.635143 0.895059
O O8 0.237390 0.418330 0.554055
O O9 0.556867 0.194047 0.498482
O O10 0.099906 0.286066 0.576324
O O11 0.311773 0.058916 0.784977
O O12 0.478168 0.369871 0.204516
O O13 0.027328 0.371344 0.387903
O O14 0.308829 0.150313 0.338794
O O15 0.231197 0.482910 0.094074
O O16 0.000000 0.000000 0.500000
O O17 0.501936 0.685566 0.004589
#
# Coordination Sequence:
#
# PCOD9051039 Si02
#       8
#     2   2   2   2   2   2   2   2
#     4  10  25  45  68 101 141 184 229 289 354 416
#     4  11  23  43  71 101 137 188 233 289 354 415
#     4  11  26  44  73 104 138 190 237 290 356 413
#     4  11  25  46  68 106 140 183 237 292 351 414
#     4  11  26  47  71 103 141 187 238 290 350 422
#     4  12  23  46  73 102 140 185 235 293 353 419
#     4  11  24  47  66 100 145 183 237 289 350 421
#     4  11  25  43  71 106 140 184 234 290 354 414
#
# _framework density 22.585566
#
# number of rings (size 3 to 8) (size 9 to 14) (size 15 to 20)
#    0.000    1.000    3.750    1.125    8.750    1.500 
#    2.250    3.125    0.000    0.000    0.000    0.000 
#    0.000    0.000    0.000    0.000    0.000    0.000 
#
# Total GULP energy -89384.013253 kJ/mol
# GULP energy per Si atom -5586.500828 kJ/mol
# Density = 2.253416 g / cm^3
# Si number density = 22.585566 Si / 1000 Ang^3
#
#
#
# Elastic Constant Matrix: (Units=GPa)
#
#
# Indices 1 2 3 4 5 6 
#
# 1 34.5893 44.8222 28.4956 -9.1898 -6.7727 5.6658
# 2 44.8222 160.1126 60.8637 -4.1755 -0.9776 11.2031
# 3 28.4956 60.8637 119.0330 14.1030 -11.5421 4.3225
# 4 -9.1898 -4.1755 14.1030 50.4363 9.6884 5.7568
# 5 -6.7727 -0.9776 -11.5421 9.6884 27.0100 -2.7391
# 6 5.6658 11.2031 4.3225 5.7568 -2.7391 33.1859
#
#
#
# Elastic Compliance Matrix: (Units=1/GPa)
#
#
# Indices 1 2 3 4 5 6 
#
# 1 0.055748 -0.011916 -0.007779 0.010924 0.005706 -0.005906
# 2 -0.011916 0.010888 -0.003149 0.000639 -0.004341 -0.001700
# 3 -0.007779 -0.003149 0.013207 -0.006848 0.006277 0.002377
# 4 0.010924 0.000639 -0.006848 0.026533 -0.010355 -0.006646
# 5 0.005706 -0.004341 0.006277 -0.010355 0.045221 0.005203
# 6 -0.005906 -0.001700 0.002377 -0.006646 0.005203 0.032988
#
#
# Mechanical properties :
#
#
# Convention : Reuss Voigt Hill
#
# Bulk Modulus (GPa) = 29.27964 64.67754 46.97859
# Shear Modulus (GPa) = 20.69029 34.09665 27.39347
#
# Velocity S-wave (km/s) = 3.02997 3.88966 3.48641
# Velocity P-wave (km/s) = 5.02325 6.99081 6.08705
#
# Compressibility (1/GPa) = 0.03415342
#
# Stress axis : x y z
#
# Youngs Moduli (GPa) = 17.93791 91.84708 75.71544
#
# Poissons Ratio (x) = 1.09445 0.58902
# Poissons Ratio (y) = 0.21375 0.23845
# Poissons Ratio (z) = 0.13955 0.28926
#
# Static dielectric constant tensor:
#      x y z
#    x 1.876380 0.027080 0.005800 
#    y 0.027080 1.834950 -0.002830 
#    z 0.005800 -0.002830 1.851970 
# 
# From -- ./inp_files/561323.got.cif
#   From: 2010.05.17/outbox.cif.g08.bks.cpg/sg2_281_cif.got.tgz:561323.got - 2010.06.03 11:33:40.
