data_PCOD9051803
_publ_section_title
;
Structure prediction by ZEFSAII (Michael W. Deem and Ramdas Pophale) SiO2 
 PCOD9051803
Probable space group: P -1
;
_chemical_formula_sum "Si O2"
_cell_formula_units_Z 16
_cell_length_a 15.677512
_cell_length_b 10.124419
_cell_length_c 14.342904
_cell_angle_alpha 40.365079
_cell_angle_beta 150.725842
_cell_angle_gamma 121.893822
_cell_volume 650.819371
_symmetry_space_group_name_H-M "P -1"
_symmetry_group_IT_number 2
_symmetry_cell_setting 'triclinic'
loop_
_space_group_symop_operation_xyz
x,y,z
-x,-y,-z
loop_
_atom_site_type_symbol
_atom_site_label
_atom_site_fract_x
_atom_site_fract_y
_atom_site_fract_z
Si Si1 0.786749 0.449725 0.190844
Si Si2 0.377795 0.499847 0.508503
Si Si3 0.773928 0.215617 0.963934
Si Si4 0.386565 0.128964 0.055807
Si Si5 0.897489 0.120123 0.742425
Si Si6 0.178135 0.410920 0.543342
Si Si7 0.503871 0.239115 0.384764
Si Si8 0.183258 0.006473 0.455418
O O1 0.747141 0.252050 0.306215
O O2 0.012542 0.329818 0.444161
O O3 0.698793 0.667279 0.059811
O O4 0.688313 0.557253 0.941469
O O5 0.591110 0.298469 0.814967
O O6 0.284340 0.577520 0.276769
O O7 0.245857 0.447945 0.485864
O O8 0.419157 0.707873 0.474623
O O9 0.745057 0.007892 0.998912
O O10 0.984858 0.157491 0.239745
O O11 0.616782 0.969933 0.372620
O O12 0.357558 0.250943 0.862111
O O13 0.931731 0.341125 0.646565
O O14 0.667242 0.231733 0.474118
O O15 0.919722 0.963089 0.760800
O O16 0.000000 0.000000 0.000000
O O17 0.500000 0.000000 0.500000
#
# Coordination Sequence:
#
# PCOD9051803 Si02
#       8
#     2   2   2   2   2   2   2   2
#     4  12  22  40  66 104 137 169 219 285 344 393
#     4  10  25  48  66  93 135 179 225 282 330 403
#     4  11  25  48  68  93 135 184 228 272 337 401
#     4  12  23  42  70 101 137 176 222 279 336 408
#     4  11  21  36  60  94 135 169 213 277 337 394
#     4  11  22  41  65  96 134 177 219 276 343 389
#     4  11  22  39  64  98 130 166 218 278 337 397
#     4  12  22  40  68 101 133 178 224 274 342 396
#
# _framework density 24.584395000000001
#
# number of rings (size 3 to 8) (size 9 to 14) (size 15 to 20)
#    0.000    0.750    3.750    6.000    0.000    0.500 
#    2.250    2.500    0.000    0.000    0.000    0.000 
#    0.000    0.000    0.000    0.000    0.000    0.000 
#
# Total GULP energy -89291.476412 kJ/mol
# GULP energy per Si atom -5580.717276 kJ/mol
# Density = 2.452844 g / cm^3
# Si number density = 24.584395 Si / 1000 Ang^3
#
#
#
# Elastic Constant Matrix: (Units=GPa)
#
#
# Indices 1 2 3 4 5 6 
#
# 1 64.9725 12.1336 30.6220 11.3038 6.1659 16.2278
# 2 12.1336 37.3205 13.5722 9.6334 -0.7264 12.5951
# 3 30.6220 13.5722 134.6000 18.9414 11.9407 16.0255
# 4 11.3038 9.6334 18.9414 31.0800 7.6235 13.9599
# 5 6.1659 -0.7264 11.9407 7.6235 56.6904 -0.4126
# 6 16.2278 12.5951 16.0255 13.9599 -0.4126 21.6612
#
#
#
# Elastic Compliance Matrix: (Units=1/GPa)
#
#
# Indices 1 2 3 4 5 6 
#
# 1 0.020246 -0.001495 -0.002913 0.001126 -0.001853 -0.012904
# 2 -0.001495 0.033726 -0.000880 -0.002260 0.000965 -0.016365
# 3 -0.002913 -0.000880 0.008942 -0.002885 -0.001205 -0.002085
# 4 0.001126 -0.002260 -0.002885 0.048776 -0.006314 -0.028949
# 5 -0.001853 0.000965 -0.001205 -0.006314 0.019001 0.006149
# 6 -0.012904 -0.016365 -0.002085 -0.028949 0.006149 0.085665
#
#
# Mechanical properties :
#
#
# Convention : Reuss Voigt Hill
#
# Bulk Modulus (GPa) = 19.10619 38.83872 28.97245
# Shear Modulus (GPa) = 20.46011 33.92400 27.19205
#
# Velocity S-wave (km/s) = 2.88799 3.71873 3.32937
# Velocity P-wave (km/s) = 4.34847 5.85415 5.15656
#
# Compressibility (1/GPa) = 0.05233906
#
# Stress axis : x y z
#
# Youngs Moduli (GPa) = 49.39196 29.65087 111.83114
#
# Poissons Ratio (x) = 0.04432 0.32577
# Poissons Ratio (y) = 0.07383 0.09839
# Poissons Ratio (z) = 0.14388 0.02609
#
# Static dielectric constant tensor:
#      x y z
#    x 2.044310 -0.118590 0.051140 
#    y -0.118590 1.067860 0.452810 
#    z 0.051140 0.452810 1.792960 
# 
# From -- ./inp_files/532360.got.cif
#   From: 2010.05.17/outbox.cif.g08.bks.cpg/sg2_267_cif.got.tgz:532360.got - 2010.06.03 11:33:40.
