data_PCOD9051569
_publ_section_title
;
Structure prediction by ZEFSAII (Michael W. Deem and Ramdas Pophale) SiO2 
 PCOD9051569
Probable space group: P -1
;
_chemical_formula_sum "Si O2"
_cell_formula_units_Z 16
_cell_length_a 13.770098
_cell_length_b 10.505427
_cell_length_c 8.810960
_cell_angle_alpha 82.520424
_cell_angle_beta 73.258878
_cell_angle_gamma 31.728957
_cell_volume 624.996162
_symmetry_space_group_name_H-M "P -1"
_symmetry_group_IT_number 2
_symmetry_cell_setting 'triclinic'
loop_
_space_group_symop_operation_xyz
x,y,z
-x,-y,-z
loop_
_atom_site_type_symbol
_atom_site_label
_atom_site_fract_x
_atom_site_fract_y
_atom_site_fract_z
Si Si1 0.855235 0.883680 0.949735
Si Si2 0.470389 0.665965 0.181242
Si Si3 0.869514 0.295495 0.928154
Si Si4 0.180147 0.749191 0.367981
Si Si5 0.496063 0.661382 0.505214
Si Si6 0.046358 0.564599 0.635072
Si Si7 0.334062 0.054316 0.723719
Si Si8 0.767164 0.636454 0.723741
O O1 0.003322 0.705458 0.771022
O O2 0.645668 0.140639 0.931662
O O3 0.948350 0.890358 0.014093
O O4 0.814498 0.809789 0.091646
O O5 0.349566 0.666034 0.255715
O O6 0.467578 0.739657 0.334010
O O7 0.693612 0.412813 0.071176
O O8 0.905411 0.202189 0.760684
O O9 0.792691 0.522000 0.879972
O O10 0.299888 0.534888 0.469627
O O11 0.000000 0.000000 0.500000
O O12 0.500000 0.500000 0.500000
O O13 0.353277 0.900390 0.641141
O O14 0.083049 0.571666 0.446485
O O15 0.851827 0.685678 0.706622
O O16 0.235013 0.272089 0.634459
O O17 0.545851 0.863060 0.726461
#
# Coordination Sequence:
#
# PCOD9051569 Si02
#       8
#     2   2   2   2   2   2   2   2
#     4  12  28  44  74 111 150 188 245 300 367 437
#     4  11  27  47  73 108 151 192 238 298 367 434
#     4  12  26  47  74 105 152 193 239 304 368 437
#     4  11  26  48  78 109 142 194 248 300 361 439
#     4  10  25  46  77 106 145 187 241 297 365 435
#     4  11  28  46  70 108 146 193 251 300 357 438
#     4  12  24  48  73 106 146 193 240 302 365 434
#     4  11  25  46  73  98 146 195 249 294 363 423
#
# _framework density 25.600159999999999
#
# number of rings (size 3 to 8) (size 9 to 14) (size 15 to 20)
#    0.000    0.750    3.750    1.125   12.250    3.000 
#    0.000    0.000    0.000    0.000    0.000    0.000 
#    0.000    0.000    0.000    0.000    0.000    0.000 
#
# Total GULP energy -89482.883262 kJ/mol
# GULP energy per Si atom -5592.680204 kJ/mol
# Density = 2.554189 g / cm^3
# Si number density = 25.600160 Si / 1000 Ang^3
#
#
#
# Elastic Constant Matrix: (Units=GPa)
#
#
# Indices 1 2 3 4 5 6 
#
# 1 88.1654 20.8536 37.3161 -0.7511 9.3170 -26.3334
# 2 20.8536 90.2107 18.1043 -6.4760 4.8581 -19.8994
# 3 37.3161 18.1043 121.7120 -4.5597 8.1788 -18.6571
# 4 -0.7511 -6.4760 -4.5597 40.1201 -8.3549 2.5190
# 5 9.3170 4.8581 8.1788 -8.3549 56.1609 -4.5950
# 6 -26.3334 -19.8994 -18.6571 2.5190 -4.5950 26.8468
#
#
#
# Elastic Compliance Matrix: (Units=1/GPa)
#
#
# Indices 1 2 3 4 5 6 
#
# 1 0.017087 -0.000184 -0.002949 -0.001242 -0.001392 0.014453
# 2 -0.000184 0.013374 -0.000451 0.001506 -0.000079 0.009264
# 3 -0.002949 -0.000451 0.009770 0.000660 -0.000517 0.003412
# 4 -0.001242 0.001506 0.000660 0.026090 0.003742 -0.001451
# 5 -0.001392 -0.000079 -0.000517 0.003742 0.018764 0.001078
# 6 0.014453 0.009264 0.003412 -0.001451 0.001078 0.060984
#
#
# Mechanical properties :
#
#
# Convention : Reuss Voigt Hill
#
# Bulk Modulus (GPa) = 30.24540 50.29290 40.26915
# Shear Modulus (GPa) = 30.43967 39.54650 34.99309
#
# Velocity S-wave (km/s) = 3.45199 3.93463 3.70118
# Velocity P-wave (km/s) = 5.26579 6.35058 5.83346
#
# Compressibility (1/GPa) = 0.03306288
#
# Stress axis : x y z
#
# Youngs Moduli (GPa) = 58.52257 74.77074 102.35530
#
# Poissons Ratio (x) = 0.01378 0.30185
# Poissons Ratio (y) = 0.01078 0.04617
# Poissons Ratio (z) = 0.17258 0.03373
#
# Static dielectric constant tensor:
#      x y z
#    x 1.944210 -0.008930 0.138410 
#    y -0.008930 1.948950 0.038380 
#    z 0.138410 0.038380 1.852290 
# 
# From -- ./inp_files/307522.got.cif
#   From: 2010.05.17/outbox.cif.g08.bks.cpg/sg2_154_cif.got.tgz:307522.got - 2010.06.03 11:33:40.
