data_PCOD9051535
_publ_section_title
;
Structure prediction by ZEFSAII (Michael W. Deem and Ramdas Pophale) SiO2 
 PCOD9051535
Probable space group: P -1
;
_chemical_formula_sum "Si O2"
_cell_formula_units_Z 12
_cell_length_a 21.423118
_cell_length_b 4.946474
_cell_length_c 18.488078
_cell_angle_alpha 69.577704
_cell_angle_beta 161.008672
_cell_angle_gamma 121.787710
_cell_volume 456.384231
_symmetry_space_group_name_H-M "P -1"
_symmetry_group_IT_number 2
_symmetry_cell_setting 'triclinic'
loop_
_space_group_symop_operation_xyz
x,y,z
-x,-y,-z
loop_
_atom_site_type_symbol
_atom_site_label
_atom_site_fract_x
_atom_site_fract_y
_atom_site_fract_z
Si Si1 0.597565 0.278943 0.647654
Si Si2 0.965497 0.231087 0.102788
Si Si3 0.094980 0.646553 0.508920
Si Si4 0.743033 0.764186 0.036838
Si Si5 0.522356 0.603891 0.360380
Si Si6 0.593477 0.548425 0.179127
O O1 0.500000 0.500000 0.500000
O O2 0.472930 0.117056 0.606953
O O3 0.500000 0.000000 0.500000
O O4 0.886877 0.463058 0.961746
O O5 0.225867 0.335394 0.359358
O O6 0.913230 0.148449 0.139464
O O7 0.737865 0.807536 0.864113
O O8 0.164943 0.420135 0.566870
O O9 0.000000 0.500000 0.500000
O O10 0.911367 0.669749 0.260340
O O11 0.342535 0.077766 0.753541
O O12 0.535191 0.432201 0.784240
O O13 0.604365 0.773357 0.951672
O O14 0.500000 0.500000 0.000000
#
# Coordination Sequence:
#
# PCOD9051535 Si02
#       6
#     2   2   2   2   2   2
#     4  12  25  52  82 120 156 202 254 320 384 470
#     4  10  25  49  74 112 155 203 255 310 390 454
#     4  12  26  45  72 107 149 198 262 326 391 450
#     4  10  25  46  74 104 154 202 262 318 382 462
#     4  10  25  49  74 112 155 203 255 310 390 454
#     4  12  26  45  72 107 149 198 262 326 391 450
#
# _framework density 26.293631999999999
#
# number of rings (size 3 to 8) (size 9 to 14) (size 15 to 20)
#    1.000    0.000    3.333    2.000    0.000    8.000 
#    0.000    0.000    0.000    0.000    0.000    0.000 
#    0.000    0.000    0.000    0.000    0.000    0.000 
#
# Total GULP energy -67088.814114 kJ/mol
# GULP energy per Si atom -5590.734510 kJ/mol
# Density = 2.623379 g / cm^3
# Si number density = 26.293632 Si / 1000 Ang^3
#
#
#
# Elastic Constant Matrix: (Units=GPa)
#
#
# Indices 1 2 3 4 5 6 
#
# 1 165.9942 22.5234 57.8439 -8.3410 -3.9563 -16.9708
# 2 22.5234 76.3322 30.5251 -12.3154 -2.2888 -11.2045
# 3 57.8439 30.5251 199.8143 -36.3101 -8.6110 -8.0075
# 4 -8.3410 -12.3154 -36.3101 49.8574 3.2738 0.5721
# 5 -3.9563 -2.2888 -8.6110 3.2738 51.1830 -2.7593
# 6 -16.9708 -11.2045 -8.0075 0.5721 -2.7593 37.1696
#
#
#
# Elastic Compliance Matrix: (Units=1/GPa)
#
#
# Indices 1 2 3 4 5 6 
#
# 1 0.007055 -0.001033 -0.001854 -0.000478 0.000355 0.002544
# 2 -0.001033 0.014905 -0.001367 0.002444 0.000401 0.003719
# 3 -0.001854 -0.001367 0.006520 0.004057 0.000640 0.000131
# 4 -0.000478 0.002444 0.004057 0.023570 -0.000700 0.000978
# 5 0.000355 0.000401 0.000640 -0.000700 0.019838 0.001904
# 6 0.002544 0.003719 0.000131 0.000978 0.001904 0.029341
#
#
# Mechanical properties :
#
#
# Convention : Reuss Voigt Hill
#
# Bulk Modulus (GPa) = 50.07405 73.76950 61.92178
# Shear Modulus (GPa) = 42.95683 49.72521 46.34102
#
# Velocity S-wave (km/s) = 4.04633 4.35345 4.20270
# Velocity P-wave (km/s) = 6.39656 7.30664 6.86669
#
# Compressibility (1/GPa) = 0.01997042
#
# Stress axis : x y z
#
# Youngs Moduli (GPa) = 141.74027 67.09375 153.36535
#
# Poissons Ratio (x) = 0.06933 0.28435
# Poissons Ratio (y) = 0.14647 0.20971
# Poissons Ratio (z) = 0.26280 0.09174
#
# Static dielectric constant tensor:
#      x y z
#    x 2.096030 0.026460 -0.005910 
#    y 0.026460 2.166400 0.052310 
#    z -0.005910 0.052310 2.036030 
# 
# From -- ./inp_files/576615.got.cif
#   From: 2010.05.17/outbox.cif.g08.bks.cpg/sg2_289_cif.got.tgz:576615.got - 2010.06.03 11:33:40.
