data_PCOD9051809
_publ_section_title
;
Structure prediction by ZEFSAII (Michael W. Deem and Ramdas Pophale) SiO2 
 PCOD9051809
Probable space group: P -1
;
_chemical_formula_sum "Si O2"
_cell_formula_units_Z 14
_cell_length_a 11.937261
_cell_length_b 6.841835
_cell_length_c 7.867883
_cell_angle_alpha 103.547283
_cell_angle_beta 84.827156
_cell_angle_gamma 96.615259
_cell_volume 619.224392
_symmetry_space_group_name_H-M "P -1"
_symmetry_group_IT_number 2
_symmetry_cell_setting 'triclinic'
loop_
_space_group_symop_operation_xyz
x,y,z
-x,-y,-z
loop_
_atom_site_type_symbol
_atom_site_label
_atom_site_fract_x
_atom_site_fract_y
_atom_site_fract_z
Si Si1 0.628424 0.546130 0.656745
Si Si2 0.522100 0.189989 0.417524
Si Si3 0.152665 0.412470 0.592393
Si Si4 0.349068 0.975503 0.881926
Si Si5 0.567526 0.307229 0.909523
Si Si6 0.003340 0.231877 0.270619
Si Si7 0.127865 0.187738 0.903811
O O1 0.527981 0.375794 0.583544
O O2 0.568373 0.754613 0.701813
O O3 0.726063 0.568689 0.510872
O O4 0.660601 0.428446 0.796075
O O5 0.642564 0.166010 0.312915
O O6 0.500000 0.000000 0.500000
O O7 0.078490 0.268207 0.437981
O O8 0.157115 0.326549 0.764571
O O9 0.094291 0.619832 0.659520
O O10 0.460755 0.133175 0.866754
O O11 0.240754 0.094466 0.932758
O O12 0.360823 0.816855 0.997531
O O13 0.500000 0.500000 0.000000
O O14 0.072276 0.284420 0.095710
O O15 0.954069 0.001569 0.197320
#
# Coordination Sequence:
#
# PCOD9051809 Si02
#       7
#     2   2   2   2   2   2   2
#     4  11  24  39  66  95 133 173 213 269 331 392
#     4  11  21  39  60  94 132 170 215 259 318 404
#     4  11  24  45  71 101 132 175 223 282 338 398
#     4  11  24  41  66  94 132 175 217 265 330 394
#     4  11  24  42  60  96 139 170 217 265 316 408
#     4  10  25  48  68 100 130 172 231 281 339 392
#     4  11  24  46  72  98 133 177 222 282 338 396
#
# _framework density 22.608927999999999
#
# number of rings (size 3 to 8) (size 9 to 14) (size 15 to 20)
#    0.000    1.143    2.857    2.571    4.000    1.143 
#   15.429    0.000    0.000    0.000    0.000    0.000 
#    0.000    0.000    0.000    0.000    0.000    0.000 
#
# Total GULP energy -77960.789024 kJ/mol
# GULP energy per Si atom -5568.627787 kJ/mol
# Density = 2.255747 g / cm^3
# Si number density = 22.608928 Si / 1000 Ang^3
#
#
#
# Elastic Constant Matrix: (Units=GPa)
#
#
# Indices 1 2 3 4 5 6 
#
# 1 73.5166 29.1026 22.5543 -11.6948 -16.7180 -13.6766
# 2 29.1026 126.3244 31.9850 -25.9539 -3.5986 -13.4916
# 3 22.5543 31.9850 89.5082 -16.9939 -22.8403 -7.5314
# 4 -11.6948 -25.9539 -16.9939 51.5700 2.7444 -2.4346
# 5 -16.7180 -3.5986 -22.8403 2.7444 36.5989 -0.1019
# 6 -13.6766 -13.4916 -7.5314 -2.4346 -0.1019 27.0959
#
#
#
# Elastic Compliance Matrix: (Units=1/GPa)
#
#
# Indices 1 2 3 4 5 6 
#
# 1 0.018452 -0.002438 -0.000626 0.002733 0.007616 0.008200
# 2 -0.002438 0.010265 -0.002480 0.004067 -0.001947 0.003549
# 3 -0.000626 -0.002480 0.015356 0.003346 0.008811 0.003051
# 4 0.002733 0.004067 0.003346 0.023358 0.002002 0.006441
# 5 0.007616 -0.001947 0.008811 0.002002 0.035975 0.005639
# 6 0.008200 0.003549 0.003051 0.006441 0.005639 0.044260
#
#
# Mechanical properties :
#
#
# Convention : Reuss Voigt Hill
#
# Bulk Modulus (GPa) = 30.31676 50.73701 40.52689
# Shear Modulus (GPa) = 29.45531 36.76678 33.11105
#
# Velocity S-wave (km/s) = 3.61337 4.03700 3.83105
# Velocity P-wave (km/s) = 5.55400 6.64979 6.12644
#
# Compressibility (1/GPa) = 0.03298506
#
# Stress axis : x y z
#
# Youngs Moduli (GPa) = 54.19569 97.41901 65.11961
#
# Poissons Ratio (x) = 0.23753 0.04076
# Poissons Ratio (y) = 0.13214 0.16148
# Poissons Ratio (z) = 0.03392 0.24157
#
# Static dielectric constant tensor:
#      x y z
#    x 1.982100 -0.041980 0.199340 
#    y -0.041980 2.049440 -0.069210 
#    z 0.199340 -0.069210 2.156260 
# 
# From -- ./inp_files/229853.got.cif
#   From: 2010.05.17/outbox.cif.g08.bks.cpg/sg2_115_cif.got.tgz:229853.got - 2010.06.03 11:33:40.
