data_PCOD9051291
_publ_section_title
;
Structure prediction by ZEFSAII (Michael W. Deem and Ramdas Pophale) SiO2 
 PCOD9051291
Probable space group: P -1
;
_chemical_formula_sum "Si O2"
_cell_formula_units_Z 14
_cell_length_a 13.179338
_cell_length_b 8.582463
_cell_length_c 4.870707
_cell_angle_alpha 84.832973
_cell_angle_beta 85.906671
_cell_angle_gamma 102.314844
_cell_volume 533.739089
_symmetry_space_group_name_H-M "P -1"
_symmetry_group_IT_number 2
_symmetry_cell_setting 'triclinic'
loop_
_space_group_symop_operation_xyz
x,y,z
-x,-y,-z
loop_
_atom_site_type_symbol
_atom_site_label
_atom_site_fract_x
_atom_site_fract_y
_atom_site_fract_z
Si Si1 0.668569 0.571980 0.396920
Si Si2 0.434199 0.194546 0.955652
Si Si3 0.202070 0.843091 0.706317
Si Si4 0.425759 0.783299 0.543351
Si Si5 0.121451 0.358395 0.981483
Si Si6 0.091980 0.663227 0.258173
Si Si7 0.229739 0.137577 0.287818
O O1 0.617865 0.396126 0.536371
O O2 0.707243 0.699441 0.606763
O O3 0.593529 0.649827 0.207595
O O4 0.770397 0.566445 0.201449
O O5 0.506686 0.232253 0.199783
O O6 0.320048 0.093251 0.084684
O O7 0.498473 0.122734 0.721172
O O8 0.322227 0.841110 0.631011
O O9 0.127829 0.708995 0.551080
O O10 0.189863 0.010555 0.552761
O O11 0.165591 0.794155 0.027296
O O12 0.105357 0.488398 0.189653
O O13 0.138448 0.192509 0.132688
O O14 0.025021 0.328920 0.797778
#
# Coordination Sequence:
#
# PCOD9051291 Si02
#       7
#     2   2   2   2   2   2   2
#     4  11  23  44  69 105 134 179 226 290 333 408
#     4  11  25  42  68 100 134 181 231 280 336 397
#     4  12  28  46  69 103 144 181 226 281 343 410
#     4  12  24  43  70  97 136 180 235 279 332 398
#     4  10  25  45  77 101 136 177 232 288 339 403
#     4  11  26  49  73 103 133 182 232 282 342 405
#     4  11  27  45  69 104 146 178 225 282 347 409
#
# _framework density 26.230041
#
# number of rings (size 3 to 8) (size 9 to 14) (size 15 to 20)
#    0.000    0.857    2.857    2.571   10.000    3.429 
#    0.000    0.000    0.000    0.000    0.000    0.000 
#    0.000    0.000    0.000    0.000    0.000    0.000 
#
# Total GULP energy -78630.129876 kJ/mol
# GULP energy per Si atom -5616.437848 kJ/mol
# Density = 2.617034 g / cm^3
# Si number density = 26.230041 Si / 1000 Ang^3
#
#
#
# Elastic Constant Matrix: (Units=GPa)
#
#
# Indices 1 2 3 4 5 6 
#
# 1 148.9420 34.3863 16.1213 -2.6132 10.3621 -10.8183
# 2 34.3863 78.9583 9.9970 -11.3921 -1.9222 8.0426
# 3 16.1213 9.9970 91.2665 -0.8263 -8.8374 -0.3694
# 4 -2.6132 -11.3921 -0.8263 47.2396 13.6290 4.9857
# 5 10.3621 -1.9222 -8.8374 13.6290 35.4591 -4.1966
# 6 -10.8183 8.0426 -0.3694 4.9857 -4.1966 31.4918
#
#
#
# Elastic Compliance Matrix: (Units=1/GPa)
#
#
# Indices 1 2 3 4 5 6 
#
# 1 0.008150 -0.003827 -0.001243 -0.000159 -0.002428 0.003464
# 2 -0.003827 0.015715 -0.001101 0.004417 -0.000728 -0.006137
# 3 -0.001243 -0.001101 0.011655 -0.001298 0.003790 0.000701
# 4 -0.000159 0.004417 -0.001298 0.026047 -0.010850 -0.006767
# 5 -0.002428 -0.000728 0.003790 -0.010850 0.034665 0.005734
# 6 0.003464 -0.006137 0.000701 -0.006767 0.005734 0.036355
#
#
# Mechanical properties :
#
#
# Convention : Reuss Voigt Hill
#
# Bulk Modulus (GPa) = 43.14160 48.90846 46.02503
# Shear Modulus (GPa) = 32.75365 40.08223 36.41794
#
# Velocity S-wave (km/s) = 3.53754 3.91334 3.73017
# Velocity P-wave (km/s) = 5.75923 6.25343 6.01141
#
# Compressibility (1/GPa) = 0.02317948
#
# Stress axis : x y z
#
# Youngs Moduli (GPa) = 122.70319 63.63157 85.79904
#
# Poissons Ratio (x) = 0.24350 0.10664
# Poissons Ratio (y) = 0.46955 0.09445
# Poissons Ratio (z) = 0.15251 0.07005
#
# Static dielectric constant tensor:
#      x y z
#    x 2.010260 -0.039780 -0.037210 
#    y -0.039780 2.077100 0.036670 
#    z -0.037210 0.036670 2.031940 
# 
# From -- ./inp_files/53295.got.cif
#   From: 2010.05.17/outbox.cif.g08.bks.cpg/sg2_27_cif.got.tgz:53295.got - 2010.06.03 11:33:40.
