data_PCOD9051463
_publ_section_title
;
Structure prediction by ZEFSAII (Michael W. Deem and Ramdas Pophale) SiO2 
 PCOD9051463
Probable space group: P -1
;
_chemical_formula_sum "Si O2"
_cell_formula_units_Z 16
_cell_length_a 9.129792
_cell_length_b 8.991627
_cell_length_c 12.135569
_cell_angle_alpha 65.247939
_cell_angle_beta 123.634543
_cell_angle_gamma 106.094693
_cell_volume 751.891061
_symmetry_space_group_name_H-M "P -1"
_symmetry_group_IT_number 2
_symmetry_cell_setting 'triclinic'
loop_
_space_group_symop_operation_xyz
x,y,z
-x,-y,-z
loop_
_atom_site_type_symbol
_atom_site_label
_atom_site_fract_x
_atom_site_fract_y
_atom_site_fract_z
Si Si1 0.926863 0.929606 0.817717
Si Si2 0.540133 0.343183 0.759279
Si Si3 0.178726 0.409350 0.631000
Si Si4 0.162875 0.636962 0.738213
Si Si5 0.721516 0.019609 0.917023
Si Si6 0.034532 0.886628 0.445342
Si Si7 0.502038 0.312454 0.013465
Si Si8 0.116757 0.423310 0.168361
O O1 0.843627 0.747813 0.817901
O O2 0.830344 0.012692 0.851673
O O3 0.897302 0.017578 0.662409
O O4 0.132897 0.929770 0.942611
O O5 0.360605 0.435543 0.630114
O O6 0.581096 0.158836 0.797786
O O7 0.712123 0.460363 0.771122
O O8 0.520322 0.320792 0.888694
O O9 0.201415 0.462373 0.752013
O O10 0.131691 0.220178 0.641216
O O11 0.000000 0.500000 0.500000
O O12 0.308975 0.727157 0.846409
O O13 0.152917 0.754098 0.591918
O O14 0.993295 0.610001 0.754343
O O15 0.634287 0.837418 0.961966
O O16 0.000000 0.000000 0.500000
O O17 0.500000 0.500000 0.000000
O O18 0.000000 0.500000 0.000000
#
# Coordination Sequence:
#
# PCOD9051463 Si02
#       8
#     2   2   2   2   2   2   2   2
#     4  11  24  45  68 106 149 195 229 301 365 425
#     4  12  24  42  72 107 143 183 240 310 353 431
#     4  10  25  46  71  97 133 189 241 291 359 428
#     4  11  24  43  70 100 142 190 234 296 358 435
#     4  11  26  40  71 110 146 183 243 300 364 418
#     4  11  24  45  71  94 138 198 241 283 357 437
#     4  12  23  40  70 107 141 184 238 298 361 430
#     4  12  23  41  68 108 145 183 239 293 368 417
#
# _framework density 21.279679999999999
#
# number of rings (size 3 to 8) (size 9 to 14) (size 15 to 20)
#    0.000    0.750    5.000    1.875    3.500    0.000 
#    0.000    3.125    0.000    0.000    0.000    0.000 
#    0.000    0.000    0.000    0.000    0.000    0.000 
#
# Total GULP energy -89124.971480 kJ/mol
# GULP energy per Si atom -5570.310717 kJ/mol
# Density = 2.123125 g / cm^3
# Si number density = 21.279680 Si / 1000 Ang^3
#
#
#
# Elastic Constant Matrix: (Units=GPa)
#
#
# Indices 1 2 3 4 5 6 
#
# 1 76.7979 23.1694 29.0052 -11.3845 5.8845 -11.6751
# 2 23.1694 112.5312 10.6638 -2.9890 2.1971 -10.7231
# 3 29.0052 10.6638 78.3326 -10.9244 -12.8697 0.4822
# 4 -11.3845 -2.9890 -10.9244 26.1791 -2.6096 -7.3444
# 5 5.8845 2.1971 -12.8697 -2.6096 32.1560 6.0053
# 6 -11.6751 -10.7231 0.4822 -7.3444 6.0053 40.9713
#
#
#
# Elastic Compliance Matrix: (Units=1/GPa)
#
#
# Indices 1 2 3 4 5 6 
#
# 1 0.018863 -0.002253 -0.006971 0.006317 -0.006884 0.007009
# 2 -0.002253 0.009629 -0.000573 0.000380 -0.000832 0.002075
# 3 -0.006971 -0.000573 0.017567 0.004335 0.009243 -0.002921
# 4 0.006317 0.000380 0.004335 0.045762 0.002457 0.009691
# 5 -0.006884 -0.000832 0.009243 0.002457 0.037690 -0.007372
# 6 0.007009 0.002075 -0.002921 0.009691 -0.007372 0.029800
#
#
# Mechanical properties :
#
#
# Convention : Reuss Voigt Hill
#
# Bulk Modulus (GPa) = 37.78751 43.70428 40.74589
# Shear Modulus (GPa) = 26.63451 33.51617 30.07534
#
# Velocity S-wave (km/s) = 3.54169 3.97297 3.76351
# Velocity P-wave (km/s) = 5.87545 6.45203 6.17047
#
# Compressibility (1/GPa) = 0.02646377
#
# Stress axis : x y z
#
# Youngs Moduli (GPa) = 53.01292 103.85694 56.92632
#
# Poissons Ratio (x) = 0.23400 0.39685
# Poissons Ratio (y) = 0.11944 0.03262
# Poissons Ratio (z) = 0.36957 0.05951
#
# Static dielectric constant tensor:
#      x y z
#    x 1.780380 0.031020 0.037930 
#    y 0.031020 1.818650 0.063820 
#    z 0.037930 0.063820 1.746050 
# 
# From -- ./inp_files/381496.got.cif
#   From: 2010.05.17/outbox.cif.g08.bks.cpg/sg2_191_cif.got.tgz:381496.got - 2010.06.03 11:33:40.
