data_PCOD9051784
_publ_section_title
;
Structure prediction by ZEFSAII (Michael W. Deem and Ramdas Pophale) SiO2 
 PCOD9051784
Probable space group: P -1
;
_chemical_formula_sum "Si O2"
_cell_formula_units_Z 10
_cell_length_a 13.919123
_cell_length_b 5.727406
_cell_length_c 11.475955
_cell_angle_alpha 54.157025
_cell_angle_beta 146.596577
_cell_angle_gamma 131.768322
_cell_volume 374.684979
_symmetry_space_group_name_H-M "P -1"
_symmetry_group_IT_number 2
_symmetry_cell_setting 'triclinic'
loop_
_space_group_symop_operation_xyz
x,y,z
-x,-y,-z
loop_
_atom_site_type_symbol
_atom_site_label
_atom_site_fract_x
_atom_site_fract_y
_atom_site_fract_z
Si Si1 0.231483 0.999447 0.430052
Si Si2 0.865451 0.085694 0.117039
Si Si3 0.435016 0.775389 0.110867
Si Si4 0.893762 0.657613 0.431487
Si Si5 0.343418 0.112419 0.262084
O O1 0.176637 0.625772 0.465578
O O2 0.419220 0.092068 0.672506
O O3 0.252563 0.151905 0.280165
O O4 0.077798 0.098136 0.312732
O O5 0.764863 0.747402 0.182390
O O6 0.780144 0.284318 0.051455
O O7 0.799137 0.106863 0.912755
O O8 0.437137 0.437844 0.194166
O O9 0.500000 0.000000 0.000000
O O10 0.000000 0.500000 0.500000
O O11 0.000000 0.000000 0.500000
O O12 0.500000 0.000000 0.500000
#
# Coordination Sequence:
#
# PCOD9051784 Si02
#       5
#     2   2   2   2   2
#     4  11  26  50  79 112 154 207 259 331 395 471
#     4  11  27  48  77 109 151 207 265 315 399 471
#     4  12  29  49  78 114 155 206 264 324 396 482
#     4  10  25  47  76 119 153 204 272 325 392 484
#     4  12  27  50  74 116 159 198 263 328 404 471
#
# _framework density 26.689087000000001
#
# number of rings (size 3 to 8) (size 9 to 14) (size 15 to 20)
#    0.000    0.800    2.000    2.400   14.000    2.400 
#    0.000    0.000    0.000    0.000    0.000    0.000 
#    0.000    0.000    0.000    0.000    0.000    0.000 
#
# Total GULP energy -55829.428545 kJ/mol
# GULP energy per Si atom -5582.942854 kJ/mol
# Density = 2.662834 g / cm^3
# Si number density = 26.689087 Si / 1000 Ang^3
#
#
#
# Elastic Constant Matrix: (Units=GPa)
#
#
# Indices 1 2 3 4 5 6 
#
# 1 154.1234 13.1855 41.6762 -4.2720 -3.2863 -2.1493
# 2 13.1855 105.2508 31.6021 -13.0466 -5.8177 -10.5537
# 3 41.6762 31.6021 148.7984 -15.3845 -11.1236 -3.9658
# 4 -4.2720 -13.0466 -15.3845 50.5647 -2.0003 -9.1487
# 5 -3.2863 -5.8177 -11.1236 -2.0003 69.6690 -11.4040
# 6 -2.1493 -10.5537 -3.9658 -9.1487 -11.4040 33.8309
#
#
#
# Elastic Compliance Matrix: (Units=1/GPa)
#
#
# Indices 1 2 3 4 5 6 
#
# 1 0.007030 -0.000300 -0.001904 -0.000039 0.000022 0.000127
# 2 -0.000300 0.010978 -0.001687 0.003178 0.001471 0.004563
# 3 -0.001904 -0.001687 0.007964 0.002114 0.001314 0.001301
# 4 -0.000039 0.003178 0.002114 0.022841 0.002615 0.008295
# 5 0.000022 0.001471 0.001314 0.002615 0.015853 0.006665
# 6 0.000127 0.004563 0.001301 0.008295 0.006665 0.035633
#
#
# Mechanical properties :
#
#
# Convention : Reuss Voigt Hill
#
# Bulk Modulus (GPa) = 54.97903 64.56670 59.77287
# Shear Modulus (GPa) = 43.80402 52.26018 48.03210
#
# Velocity S-wave (km/s) = 4.05566 4.42985 4.24688
# Velocity P-wave (km/s) = 6.52500 7.09997 6.81855
#
# Compressibility (1/GPa) = 0.01818875
#
# Stress axis : x y z
#
# Youngs Moduli (GPa) = 142.24614 91.09045 125.56858
#
# Poissons Ratio (x) = 0.02731 0.23913
# Poissons Ratio (y) = 0.04265 0.21189
# Poissons Ratio (z) = 0.27089 0.15371
#
# Static dielectric constant tensor:
#      x y z
#    x 2.402290 0.061330 -0.022210 
#    y 0.061330 2.294720 0.082610 
#    z -0.022210 0.082610 2.119860 
# 
# From -- ./inp_files/16321.got.cif
#   From: 2010.05.17/outbox.cif.g08.bks.cpg/sg2_9_cif.got.tgz:16321.got - 2010.06.03 11:33:40.
