data_PCOD9051421
_publ_section_title
;
Structure prediction by ZEFSAII (Michael W. Deem and Ramdas Pophale) SiO2 
 PCOD9051421
Probable space group: P -1
;
_chemical_formula_sum "Si O2"
_cell_formula_units_Z 12
_cell_length_a 9.171505
_cell_length_b 11.926956
_cell_length_c 5.131044
_cell_angle_alpha 96.013342
_cell_angle_beta 122.078358
_cell_angle_gamma 101.276925
_cell_volume 451.462658
_symmetry_space_group_name_H-M "P -1"
_symmetry_group_IT_number 2
_symmetry_cell_setting 'triclinic'
loop_
_space_group_symop_operation_xyz
x,y,z
-x,-y,-z
loop_
_atom_site_type_symbol
_atom_site_label
_atom_site_fract_x
_atom_site_fract_y
_atom_site_fract_z
Si Si1 0.137588 0.654233 0.713626
Si Si2 0.481699 0.262605 0.755911
Si Si3 0.000029 0.079789 0.771435
Si Si4 0.220201 0.327957 0.895697
Si Si5 0.616246 0.996301 0.361114
Si Si6 0.745765 0.437276 0.707600
O O1 0.195847 0.571428 0.534505
O O2 0.959845 0.679156 0.448599
O O3 0.331467 0.752336 0.950951
O O4 0.117921 0.600736 0.972878
O O5 0.386197 0.337071 0.862206
O O6 0.349760 0.131008 0.607541
O O7 0.558544 0.335608 0.583799
O O8 0.158784 0.201684 0.951387
O O9 0.803706 0.099555 0.579749
O O10 0.000000 0.000000 0.500000
O O11 0.000000 0.000000 0.000000
O O12 0.260738 0.438324 0.156074
O O13 0.500000 0.000000 0.500000
O O14 0.500000 0.000000 0.000000
#
# Coordination Sequence:
#
# PCOD9051421 Si02
#       6
#     2   2   2   2   2   2
#     4  10  25  46  70 109 145 187 240 292 364 430
#     4  10  26  46  76 105 146 183 247 288 366 428
#     4  12  28  48  71 108 143 188 248 299 361 433
#     4  12  24  49  75 105 148 192 238 304 358 433
#     4  12  27  49  76 102 147 194 241 305 366 429
#     4  10  25  47  71 109 146 189 238 299 364 427
#
# _framework density 26.580272000000001
#
# number of rings (size 3 to 8) (size 9 to 14) (size 15 to 20)
#    1.000    0.000    1.667    3.500    4.667    3.333 
#    3.000    0.000    0.000    0.000    0.000    0.000 
#    0.000    0.000    0.000    0.000    0.000    0.000 
#
# Total GULP energy -67191.061036 kJ/mol
# GULP energy per Si atom -5599.255086 kJ/mol
# Density = 2.651977 g / cm^3
# Si number density = 26.580272 Si / 1000 Ang^3
#
#
#
# Elastic Constant Matrix: (Units=GPa)
#
#
# Indices 1 2 3 4 5 6 
#
# 1 117.8978 -5.2095 19.7110 -11.8846 -5.7141 6.6785
# 2 -5.2095 101.8741 20.4595 1.1080 -3.8943 14.0904
# 3 19.7110 20.4595 107.0604 -26.6257 0.2400 11.5017
# 4 -11.8846 1.1080 -26.6257 51.7547 2.7146 7.0532
# 5 -5.7141 -3.8943 0.2400 2.7146 60.9580 9.4262
# 6 6.6785 14.0904 11.5017 7.0532 9.4262 41.7234
#
#
#
# Elastic Compliance Matrix: (Units=1/GPa)
#
#
# Indices 1 2 3 4 5 6 
#
# 1 0.009068 0.001015 -0.001248 0.001629 0.001154 -0.001987
# 2 0.001015 0.010815 -0.002049 -0.000654 0.001356 -0.003446
# 3 -0.001248 -0.002049 0.011915 0.006361 -0.000043 -0.003458
# 4 0.001629 -0.000654 0.006361 0.023776 -0.000077 -0.005795
# 5 0.001154 0.001356 -0.000043 -0.000077 0.017303 -0.004527
# 6 -0.001987 -0.003446 -0.003458 -0.005795 -0.004527 0.028405
#
#
# Mechanical properties :
#
#
# Convention : Reuss Voigt Hill
#
# Bulk Modulus (GPa) = 36.71650 44.08380 40.40015
# Shear Modulus (GPa) = 43.50685 50.34530 46.92607
#
# Velocity S-wave (km/s) = 4.05014 4.35683 4.20628
# Velocity P-wave (km/s) = 5.97620 6.47537 6.23079
#
# Compressibility (1/GPa) = 0.02723571
#
# Stress axis : x y z
#
# Youngs Moduli (GPa) = 110.27704 92.46354 83.92457
#
# Poissons Ratio (x) = -0.09389 0.10471
# Poissons Ratio (y) = -0.11198 0.17199
# Poissons Ratio (z) = 0.13759 0.18948
#
# Static dielectric constant tensor:
#      x y z
#    x 2.060840 -0.037420 0.056840 
#    y -0.037420 2.111730 0.027240 
#    z 0.056840 0.027240 2.104010 
# 
# From -- ./inp_files/28594.got.cif
#   From: 2010.05.17/outbox.cif.g08.bks.cpg/sg2_15_cif.got.tgz:28594.got - 2010.06.03 11:33:40.
