data_PCOD9051326
_publ_section_title
;
Structure prediction by ZEFSAII (Michael W. Deem and Ramdas Pophale) SiO2 
 PCOD9051326
Probable space group: P -1
;
_chemical_formula_sum "Si O2"
_cell_formula_units_Z 15
_cell_length_a 17.268069
_cell_length_b 11.671575
_cell_length_c 9.457108
_cell_angle_alpha 97.610576
_cell_angle_beta 47.129719
_cell_angle_gamma 134.573821
_cell_volume 746.789936
_symmetry_space_group_name_H-M "P -1"
_symmetry_group_IT_number 2
_symmetry_cell_setting 'triclinic'
loop_
_space_group_symop_operation_xyz
x,y,z
-x,-y,-z
loop_
_atom_site_type_symbol
_atom_site_label
_atom_site_fract_x
_atom_site_fract_y
_atom_site_fract_z
Si Si1 0.500000 0.500000 0.000000
Si Si2 0.300484 0.444326 0.972607
Si Si3 0.247430 0.435014 0.501035
Si Si4 0.070409 0.040530 0.077488
Si Si5 0.404214 0.971439 0.478087
Si Si6 0.860694 0.415357 0.448233
Si Si7 0.736808 0.318031 0.895253
Si Si8 0.535123 0.720651 0.448356
O O1 0.421887 0.492194 0.950433
O O2 0.601942 0.489034 0.777994
O O3 0.431561 0.568143 0.687600
O O4 0.250861 0.531194 0.084689
O O5 0.102767 0.189116 0.146764
O O6 0.152885 0.463043 0.557631
O O7 0.366708 0.580580 0.517469
O O8 0.080508 0.186929 0.702291
O O9 0.286628 0.186219 0.822491
O O10 0.000000 0.000000 0.000000
O O11 0.372450 0.073890 0.580217
O O12 0.500000 0.000000 0.500000
O O13 0.219102 0.733413 0.607476
O O14 0.555972 0.113941 0.182735
O O15 0.733408 0.283201 0.728463
O O16 0.074273 0.568599 0.252037
#
# Coordination Sequence:
#
# PCOD9051326 Si02
#       8
#     1   2   2   2   2   2   2   2
#     4  12  24  46  68  96 138 176 216 282 326 398
#     4  11  23  46  68 100 136 175 223 272 340 390
#     4  12  25  44  69  99 137 176 222 276 330 399
#     4  12  25  41  70 100 130 180 223 271 340 392
#     4  11  24  40  70 100 128 176 222 268 335 387
#     4  11  24  46  66  98 136 175 223 272 330 396
#     4  10  25  46  66  96 138 176 217 278 329 398
#     4  11  24  45  65  99 138 173 221 277 329 396
#
# _framework density 20.08597
#
# number of rings (size 3 to 8) (size 9 to 14) (size 15 to 20)
#    0.000    0.800    5.333    1.600    3.733    1.067 
#    0.000    0.000    0.000    0.000    0.000    0.000 
#    0.000    0.000    0.000    0.000    0.000    0.000 
#
# Total GULP energy -83575.058612 kJ/mol
# GULP energy per Si atom -5571.670574 kJ/mol
# Density = 2.004025 g / cm^3
# Si number density = 20.085970 Si / 1000 Ang^3
#
#
#
# Elastic Constant Matrix: (Units=GPa)
#
#
# Indices 1 2 3 4 5 6 
#
# 1 123.5458 35.3955 13.3487 -9.0109 -3.0767 -2.2121
# 2 35.3955 109.5828 25.5554 -3.7052 1.9875 -7.5821
# 3 13.3487 25.5554 13.7387 11.8025 0.5247 1.5266
# 4 -9.0109 -3.7052 11.8025 22.8601 -3.2768 4.5848
# 5 -3.0767 1.9875 0.5247 -3.2768 29.4285 8.4830
# 6 -2.2121 -7.5821 1.5266 4.5848 8.4830 28.3942
#
#
#
# Elastic Compliance Matrix: (Units=1/GPa)
#
#
# Indices 1 2 3 4 5 6 
#
# 1 -0.020350 -0.076470 0.329502 -0.193731 -0.024048 -0.001255
# 2 -0.076470 -0.172150 0.818208 -0.490651 -0.066505 0.003176
# 3 0.329502 0.818208 -3.668695 2.198092 0.289343 0.000037
# 4 -0.193731 -0.490651 2.198092 -1.268536 -0.164591 -0.010290
# 5 -0.024048 -0.066505 0.289343 -0.164591 0.016364 -0.013501
# 6 -0.001255 0.003176 0.000037 -0.010290 -0.013501 0.041662
#
#
# Mechanical properties :
#
#
# Convention : Reuss Voigt Hill
#
# Bulk Modulus (GPa) = -0.58183 43.94071 21.67944
# Shear Modulus (GPa) = -0.64209 27.64107 13.49949
#
# Velocity S-wave (km/s) = -0.56601 3.71366 2.59527
# Velocity P-wave (km/s) = 0.84702 6.34919 4.44942
#
# Compressibility (1/GPa) = -1.71871438
#
# Stress axis : x y z
#
# Youngs Moduli (GPa) = -49.13932 -5.80890 -0.27258
#
# Poissons Ratio (x) = -0.44420 0.08981
# Poissons Ratio (y) = -3.75766 0.22302
# Poissons Ratio (z) = 16.19148 4.75289
#
# Static dielectric constant tensor:
#      x y z
#    x 1.684650 -0.014580 0.012570 
#    y -0.014580 1.737810 -0.000520 
#    z 0.012570 -0.000520 1.698890 
# 
# From -- ./inp_files/27706.got.cif
#   From: 2010.05.17/outbox.cif.g08.bks.cpg/sg2_14_cif.got.tgz:27706.got - 2010.06.03 11:33:40.
