data_PCOD9051062
_publ_section_title
;
Structure prediction by ZEFSAII (Michael W. Deem and Ramdas Pophale) SiO2 
 PCOD9051062
Probable space group: P -1
;
_chemical_formula_sum "Si O2"
_cell_formula_units_Z 16
_cell_length_a 14.500962
_cell_length_b 11.175397
_cell_length_c 8.805660
_cell_angle_alpha 84.718072
_cell_angle_beta 33.716710
_cell_angle_gamma 97.009661
_cell_volume 736.064109
_symmetry_space_group_name_H-M "P -1"
_symmetry_group_IT_number 2
_symmetry_cell_setting 'triclinic'
loop_
_space_group_symop_operation_xyz
x,y,z
-x,-y,-z
loop_
_atom_site_type_symbol
_atom_site_label
_atom_site_fract_x
_atom_site_fract_y
_atom_site_fract_z
Si Si1 0.671317 0.117036 0.310040
Si Si2 0.509398 0.309554 0.636518
Si Si3 0.874134 0.029789 0.291810
Si Si4 0.148759 0.289751 0.974036
Si Si5 0.833050 0.526086 0.300991
Si Si6 0.125762 0.850872 0.278232
Si Si7 0.249560 0.126182 0.235342
Si Si8 0.072601 0.593938 0.530942
O O1 0.617997 0.238569 0.403667
O O2 0.741339 0.078476 0.374213
O O3 0.500000 0.000000 0.500000
O O4 0.816929 0.146364 0.975251
O O5 0.342658 0.304365 0.763026
O O6 0.648804 0.445025 0.480913
O O7 0.425275 0.230028 0.913560
O O8 0.765941 0.913170 0.562980
O O9 0.008360 0.144602 0.196300
O O10 0.000000 0.000000 0.000000
O O11 0.138773 0.329441 0.806712
O O12 0.080837 0.381735 0.160993
O O13 0.829727 0.474403 0.482277
O O14 0.000000 0.500000 0.000000
O O15 0.172688 0.738348 0.311897
O O16 0.915677 0.826865 0.574982
O O17 0.220410 0.993322 0.200281
O O18 0.000000 0.500000 0.500000
#
# Coordination Sequence:
#
# PCOD9051062 Si02
#       8
#     2   2   2   2   2   2   2   2
#     4  12  25  39  63 106 141 179 233 282 343 424
#     4  12  24  44  73 101 139 182 236 295 353 415
#     4  12  24  42  74 104 142 188 231 286 355 423
#     4  11  23  47  70 100 137 185 237 287 348 418
#     4  10  25  45  68  97 132 184 233 282 350 416
#     4  11  22  43  68  99 143 181 231 286 352 421
#     4  11  22  43  73  99 140 186 227 290 358 410
#     4  11  24  42  73  98 134 187 236 283 348 415
#
# _framework density 21.737237
#
# number of rings (size 3 to 8) (size 9 to 14) (size 15 to 20)
#    0.000    0.750    5.000    3.375    5.250    1.500 
#    0.000    0.625    0.000    0.000    0.000    0.000 
#    0.000    0.000    0.000    0.000    0.000    0.000 
#
# Total GULP energy -89432.621544 kJ/mol
# GULP energy per Si atom -5589.538846 kJ/mol
# Density = 2.168776 g / cm^3
# Si number density = 21.737237 Si / 1000 Ang^3
#
#
#
# Elastic Constant Matrix: (Units=GPa)
#
#
# Indices 1 2 3 4 5 6 
#
# 1 121.8364 13.7961 13.7615 0.7360 9.2946 -22.5955
# 2 13.7961 56.0921 16.7104 1.2213 11.4766 -6.5155
# 3 13.7615 16.7104 77.5727 -3.9387 16.5572 2.4861
# 4 0.7360 1.2213 -3.9387 41.7186 -0.8007 8.1470
# 5 9.2946 11.4766 16.5572 -0.8007 41.0673 -8.2583
# 6 -22.5955 -6.5155 2.4861 8.1470 -8.2583 38.0054
#
#
#
# Elastic Compliance Matrix: (Units=1/GPa)
#
#
# Indices 1 2 3 4 5 6 
#
# 1 0.009648 -0.001132 -0.001734 -0.001467 0.000004 0.005971
# 2 -0.001132 0.020212 -0.003573 -0.001482 -0.003459 0.002592
# 3 -0.001734 -0.003573 0.015438 0.002341 -0.005670 -0.004387
# 4 -0.001467 -0.001482 0.002341 0.025608 -0.001108 -0.007009
# 5 0.000004 -0.003459 -0.005670 -0.001108 0.028844 0.006285
# 6 0.005971 0.002592 -0.004387 -0.007009 0.006285 0.033461
#
#
# Mechanical properties :
#
#
# Convention : Reuss Voigt Hill
#
# Bulk Modulus (GPa) = 30.84579 38.22634 34.53607
# Shear Modulus (GPa) = 31.86830 38.24046 35.05438
#
# Velocity S-wave (km/s) = 3.83308 4.19885 4.02013
# Velocity P-wave (km/s) = 5.81473 6.41334 6.12136
#
# Compressibility (1/GPa) = 0.03241933
#
# Stress axis : x y z
#
# Youngs Moduli (GPa) = 103.65270 49.47623 64.77462
#
# Poissons Ratio (x) = 0.05598 0.11235
# Poissons Ratio (y) = 0.11729 0.23145
# Poissons Ratio (z) = 0.17978 0.17678
#
# Static dielectric constant tensor:
#      x y z
#    x 1.841990 -0.030630 0.043850 
#    y -0.030630 1.804680 -0.034610 
#    z 0.043850 -0.034610 1.788490 
# 
# From -- ./inp_files/294996.got.cif
#   From: 2010.05.17/outbox.cif.g08.bks.cpg/sg2_148_cif.got.tgz:294996.got - 2010.06.03 11:33:40.
