data_PCOD9051231
_publ_section_title
;
Structure prediction by ZEFSAII (Michael W. Deem and Ramdas Pophale) SiO2 
 PCOD9051231
Probable space group: P -1
;
_chemical_formula_sum "Si O2"
_cell_formula_units_Z 13
_cell_length_a 9.224770
_cell_length_b 13.704923
_cell_length_c 9.060317
_cell_angle_alpha 86.456261
_cell_angle_beta 127.206030
_cell_angle_gamma 129.552296
_cell_volume 598.102672
_symmetry_space_group_name_H-M "P -1"
_symmetry_group_IT_number 2
_symmetry_cell_setting 'triclinic'
loop_
_space_group_symop_operation_xyz
x,y,z
-x,-y,-z
loop_
_atom_site_type_symbol
_atom_site_label
_atom_site_fract_x
_atom_site_fract_y
_atom_site_fract_z
Si Si1 0.507380 0.635986 0.862334
Si Si2 0.761590 0.545894 0.588810
Si Si3 0.634269 0.088342 0.423142
Si Si4 0.000000 0.500000 0.000000
Si Si5 0.811276 0.103893 0.239778
Si Si6 0.206828 0.046768 0.998437
Si Si7 0.912079 0.629162 0.153946
O O1 0.338192 0.545917 0.616709
O O2 0.335694 0.531663 0.908757
O O3 0.596112 0.782371 0.930673
O O4 0.780943 0.678851 0.018375
O O5 0.500000 0.500000 0.500000
O O6 0.996135 0.723119 0.682625
O O7 0.870650 0.508342 0.773082
O O8 0.779211 0.073051 0.398733
O O9 0.864372 0.259492 0.594469
O O10 0.500000 0.000000 0.500000
O O11 0.389160 0.039156 0.189631
O O12 0.031960 0.616971 0.095095
O O13 0.917895 0.055382 0.213925
O O14 0.500000 0.000000 0.000000
O O15 0.000000 0.000000 0.000000
#
# Coordination Sequence:
#
# PCOD9051231 Si02
#       7
#     2   2   2   1   2   2   2
#     4  11  24  46  71  98 148 183 242 299 368 424
#     4  12  24  48  75 110 146 189 246 308 363 438
#     4  11  24  43  70  99 142 189 249 298 359 443
#     4  12  28  38  78 104 140 184 248 292 374 422
#     4  10  25  45  73 100 148 196 238 301 373 439
#     4  11  24  44  69 102 141 196 234 299 376 436
#     4  11  25  44  68 107 137 188 241 307 353 439
#
# _framework density 21.735399999999998
#
# number of rings (size 3 to 8) (size 9 to 14) (size 15 to 20)
#    0.000    0.923    3.077    2.769    8.615    1.231 
#    0.000    3.077    0.000    0.000    0.000    0.000 
#    0.000    0.000    0.000    0.000    0.000    0.000 
#
# Total GULP energy -72374.044235 kJ/mol
# GULP energy per Si atom -5567.234172 kJ/mol
# Density = 2.168593 g / cm^3
# Si number density = 21.735400 Si / 1000 Ang^3
#
#
#
# Elastic Constant Matrix: (Units=GPa)
#
#
# Indices 1 2 3 4 5 6 
#
# 1 88.6774 10.2818 22.7387 1.9127 -22.4065 -11.3973
# 2 10.2818 76.8748 -9.8193 -9.4313 0.3001 8.0218
# 3 22.7387 -9.8193 47.1657 -8.7446 -19.7964 4.2801
# 4 1.9127 -9.4313 -8.7446 39.5311 -2.6440 1.4019
# 5 -22.4065 0.3001 -19.7964 -2.6440 39.5248 12.5169
# 6 -11.3973 8.0218 4.2801 1.4019 12.5169 24.0472
#
#
#
# Elastic Compliance Matrix: (Units=1/GPa)
#
#
# Indices 1 2 3 4 5 6 
#
# 1 0.016357 -0.005528 -0.011321 -0.005085 -0.000559 0.012199
# 2 -0.005528 0.018227 0.013474 0.008800 0.009270 -0.016437
# 3 -0.011321 0.013474 0.048643 0.017794 0.030206 -0.035278
# 4 -0.005085 0.008800 0.017794 0.033122 0.013753 -0.017602
# 5 -0.000559 0.009270 0.030206 0.013753 0.052663 -0.036947
# 6 0.012199 -0.016437 -0.035278 -0.017602 -0.036947 0.079386
#
#
# Mechanical properties :
#
#
# Convention : Reuss Voigt Hill
#
# Bulk Modulus (GPa) = 13.07601 28.79115 20.93358
# Shear Modulus (GPa) = 17.81631 33.25507 25.53569
#
# Velocity S-wave (km/s) = 2.86613 3.91576 3.43132
# Velocity P-wave (km/s) = 4.12092 5.80682 5.03494
#
# Compressibility (1/GPa) = 0.07647594
#
# Stress axis : x y z
#
# Youngs Moduli (GPa) = 61.13548 54.86332 20.55790
#
# Poissons Ratio (x) = 0.30330 0.23274
# Poissons Ratio (y) = 0.33798 -0.27699
# Poissons Ratio (z) = 0.69212 -0.73921
#
# Static dielectric constant tensor:
#      x y z
#    x 1.726260 0.064610 0.012850 
#    y 0.064610 1.813540 0.011410 
#    z 0.012850 0.011410 1.810620 
# 
# From -- ./inp_files/154537.got.cif
#   From: 2010.05.17/outbox.cif.g08.bks.cpg/sg2_78_cif.got.tgz:154537.got - 2010.06.03 11:33:40.
