data_PCOD9051938
_publ_section_title
;
Structure prediction by ZEFSAII (Michael W. Deem and Ramdas Pophale) SiO2 
 PCOD9051938
Probable space group: P -1
;
_chemical_formula_sum "Si O2"
_cell_formula_units_Z 16
_cell_length_a 5.171231
_cell_length_b 8.587745
_cell_length_c 20.480892
_cell_angle_alpha 127.635999
_cell_angle_beta 114.454992
_cell_angle_gamma 76.966016
_cell_volume 655.183619
_symmetry_space_group_name_H-M "P -1"
_symmetry_group_IT_number 2
_symmetry_cell_setting 'triclinic'
loop_
_space_group_symop_operation_xyz
x,y,z
-x,-y,-z
loop_
_atom_site_type_symbol
_atom_site_label
_atom_site_fract_x
_atom_site_fract_y
_atom_site_fract_z
Si Si1 0.932309 0.585904 0.682708
Si Si2 0.914085 0.124242 0.333087
Si Si3 0.535864 0.083800 0.853067
Si Si4 0.138963 0.288580 0.953042
Si Si5 0.251437 0.168555 0.074264
Si Si6 0.430786 0.951752 0.404712
Si Si7 0.448853 0.499166 0.259278
Si Si8 0.738956 0.339469 0.485856
O O1 0.933504 0.785002 0.692064
O O2 0.238087 0.570300 0.744225
O O3 0.668171 0.568059 0.699007
O O4 0.921906 0.404257 0.584108
O O5 0.873552 0.313436 0.422779
O O6 0.106287 0.987612 0.361128
O O7 0.633349 0.014385 0.249410
O O8 0.347914 0.259666 0.906586
O O9 0.856092 0.146212 0.883322
O O10 0.549848 0.933145 0.877328
O O11 0.311589 0.224473 0.019687
O O12 0.000000 0.500000 0.000000
O O13 0.223708 0.386130 0.158880
O O14 0.000000 0.000000 0.000000
O O15 0.607402 0.122579 0.429724
O O16 0.500000 0.000000 0.500000
O O17 0.476068 0.733451 0.328203
O O18 0.500000 0.500000 0.500000
#
# Coordination Sequence:
#
# PCOD9051938 Si02
#       8
#     2   2   2   2   2   2   2   2
#     4  12  26  48  75 105 151 195 256 300 372 447
#     4  12  28  44  77 106 150 201 258 312 368 456
#     4  11  26  46  77 107 146 194 255 302 377 451
#     4  11  26  48  74 111 151 191 240 318 386 447
#     4  10  25  48  79 106 150 193 255 303 383 447
#     4  12  28  47  72 108 158 198 250 311 383 439
#     4  12  28  47  75 114 147 198 249 319 376 452
#     4  12  26  46  75 107 150 202 256 302 379 446
#
# _framework density 24.420636999999999
#
# number of rings (size 3 to 8) (size 9 to 14) (size 15 to 20)
#    0.000    0.500    3.750    2.625    8.750    3.000 
#    0.000    0.000    0.000    0.000    0.000    0.000 
#    0.000    0.000    0.000    0.000    0.000    0.000 
#
# Total GULP energy -89453.100622 kJ/mol
# GULP energy per Si atom -5590.818789 kJ/mol
# Density = 2.436505 g / cm^3
# Si number density = 24.420637 Si / 1000 Ang^3
#
#
#
# Elastic Constant Matrix: (Units=GPa)
#
#
# Indices 1 2 3 4 5 6 
#
# 1 58.7396 4.5426 3.9888 -2.8813 -0.0767 -5.9569
# 2 4.5426 78.2217 23.6532 8.5878 11.8388 -10.7637
# 3 3.9888 23.6532 160.6474 8.3178 19.2792 -4.5308
# 4 -2.8813 8.5878 8.3178 44.2578 -2.4379 5.5762
# 5 -0.0767 11.8388 19.2792 -2.4379 40.1905 -0.2602
# 6 -5.9569 -10.7637 -4.5308 5.5762 -0.2602 37.0301
#
#
#
# Elastic Compliance Matrix: (Units=1/GPa)
#
#
# Indices 1 2 3 4 5 6 
#
# 1 0.017403 -0.000770 -0.000370 0.001082 0.000518 0.002371
# 2 -0.000770 0.014837 -0.001394 -0.003449 -0.003884 0.004511
# 3 -0.000370 -0.001394 0.006876 -0.001278 -0.002963 0.000548
# 4 0.001082 -0.003449 -0.001278 0.024327 0.003077 -0.004627
# 5 0.000518 -0.003884 -0.002963 0.003077 0.027624 -0.001677
# 6 0.002371 0.004511 0.000548 -0.004627 -0.001677 0.029450
#
#
# Mechanical properties :
#
#
# Convention : Reuss Voigt Hill
#
# Bulk Modulus (GPa) = 29.36839 40.21977 34.79408
# Shear Modulus (GPa) = 36.51383 41.99063 39.25223
#
# Velocity S-wave (km/s) = 3.87098 4.15115 4.01351
# Velocity P-wave (km/s) = 5.65964 6.28342 5.97967
#
# Compressibility (1/GPa) = 0.03405022
#
# Stress axis : x y z
#
# Youngs Moduli (GPa) = 57.46088 67.39696 145.42479
#
# Poissons Ratio (x) = 0.05187 0.05383
# Poissons Ratio (y) = 0.04423 0.20267
# Poissons Ratio (z) = 0.02127 0.09393
#
# Static dielectric constant tensor:
#      x y z
#    x 2.012720 0.009460 0.019330 
#    y 0.009460 2.028870 0.032300 
#    z 0.019330 0.032300 2.020490 
# 
# From -- ./inp_files/582625.got.cif
#   From: 2010.05.17/outbox.cif.g08.bks.cpg/sg2_292_cif.got.tgz:582625.got - 2010.06.03 11:33:40.
