data_PCOD9051012
_publ_section_title
;
Structure prediction by ZEFSAII (Michael W. Deem and Ramdas Pophale) SiO2 
 PCOD9051012
Probable space group: P -1
;
_chemical_formula_sum "Si O2"
_cell_formula_units_Z 14
_cell_length_a 11.846889
_cell_length_b 14.087723
_cell_length_c 20.190868
_cell_angle_alpha 157.510081
_cell_angle_beta 146.119550
_cell_angle_gamma 46.626170
_cell_volume 665.666700
_symmetry_space_group_name_H-M "P -1"
_symmetry_group_IT_number 2
_symmetry_cell_setting 'triclinic'
loop_
_space_group_symop_operation_xyz
x,y,z
-x,-y,-z
loop_
_atom_site_type_symbol
_atom_site_label
_atom_site_fract_x
_atom_site_fract_y
_atom_site_fract_z
Si Si1 0.892571 0.197662 0.106982
Si Si2 0.484912 0.018530 0.111587
Si Si3 0.358728 0.082076 0.407352
Si Si4 0.709368 0.440066 0.390527
Si Si5 0.203649 0.099646 0.714024
Si Si6 0.431345 0.745834 0.110936
Si Si7 0.182675 0.614644 0.105921
O O1 0.050070 0.449023 0.388628
O O2 0.696451 0.023026 0.947319
O O3 0.798189 0.316804 0.077208
O O4 0.000000 0.000000 0.000000
O O5 0.708741 0.003805 0.243177
O O6 0.550559 0.292709 0.278853
O O7 0.368837 0.776116 0.846291
O O8 0.295744 0.285340 0.463459
O O9 0.571211 0.263093 0.667570
O O10 0.437333 0.902795 0.281369
O O11 0.171465 0.869861 0.224613
O O12 0.391649 0.091846 0.751416
O O13 0.185899 0.376214 0.907349
O O14 0.000000 0.000000 0.500000
O O15 0.500000 0.500000 0.000000
O O16 0.000000 0.500000 0.000000
#
# Coordination Sequence:
#
# PCOD9051012 Si02
#       7
#     2   2   2   2   2   2   2
#     4  11  24  43  69 103 135 182 231 283 352 406
#     4  10  25  45  67 101 138 183 237 284 341 421
#     4  11  23  44  68  98 138 177 230 290 341 409
#     4  11  23  46  70  97 139 183 230 288 342 411
#     4  11  23  43  67  97 137 183 229 282 352 408
#     4  11  23  43  67  98 138 178 228 285 344 415
#     4  11  24  42  66  99 134 181 229 282 347 413
#
# _framework density 21.031545999999999
#
# number of rings (size 3 to 8) (size 9 to 14) (size 15 to 20)
#    0.000    1.143    4.286    1.286    2.000    1.714 
#    2.571    0.000    0.000    0.000    0.000    0.000 
#    0.000    0.000    0.000    0.000    0.000    0.000 
#
# Total GULP energy -77967.482970 kJ/mol
# GULP energy per Si atom -5569.105926 kJ/mol
# Density = 2.098368 g / cm^3
# Si number density = 21.031546 Si / 1000 Ang^3
#
#
#
# Elastic Constant Matrix: (Units=GPa)
#
#
# Indices 1 2 3 4 5 6 
#
# 1 115.5581 27.3689 58.8231 9.5822 9.9616 11.0101
# 2 27.3689 110.8441 61.8607 -4.1676 -6.3289 13.6308
# 3 58.8231 61.8607 123.0104 -13.9541 -14.9991 13.9888
# 4 9.5822 -4.1676 -13.9541 37.7572 15.9311 4.1173
# 5 9.9616 -6.3289 -14.9991 15.9311 39.1295 0.1590
# 6 11.0101 13.6308 13.9888 4.1173 0.1590 26.1463
#
#
#
# Elastic Compliance Matrix: (Units=1/GPa)
#
#
# Indices 1 2 3 4 5 6 
#
# 1 0.013136 0.000677 -0.007482 -0.004006 -0.004466 -0.001223
# 2 0.000677 0.012870 -0.006522 -0.000661 -0.000308 -0.003399
# 3 -0.007482 -0.006522 0.016591 0.005573 0.004954 -0.003234
# 4 -0.004006 -0.000661 0.005573 0.034877 -0.011125 -0.006375
# 5 -0.004466 -0.000308 0.004954 -0.011125 0.033068 0.000942
# 6 -0.001223 -0.003399 -0.003234 -0.006375 0.000942 0.043262
#
#
# Mechanical properties :
#
#
# Convention : Reuss Voigt Hill
#
# Bulk Modulus (GPa) = 62.72324 71.72423 67.22374
# Shear Modulus (GPa) = 26.91492 34.03060 30.47276
#
# Velocity S-wave (km/s) = 3.58123 4.02689 3.81058
# Velocity P-wave (km/s) = 6.85481 7.46983 7.16892
#
# Compressibility (1/GPa) = 0.01594305
#
# Stress axis : x y z
#
# Youngs Moduli (GPa) = 76.12936 77.70108 60.27458
#
# Poissons Ratio (x) = -0.05260 0.45096
# Poissons Ratio (y) = -0.05153 0.39309
# Poissons Ratio (z) = 0.56958 0.50675
#
# Static dielectric constant tensor:
#      x y z
#    x 1.763770 0.085470 0.025060 
#    y 0.085470 1.882610 -0.026720 
#    z 0.025060 -0.026720 1.840450 
# 
# From -- ./inp_files/406866.got.cif
#   From: 2010.05.17/outbox.cif.g08.bks.cpg/sg2_204_cif.got.tgz:406866.got - 2010.06.03 11:33:40.
