data_PCOD9051240
_publ_section_title
;
Structure prediction by ZEFSAII (Michael W. Deem and Ramdas Pophale) SiO2 
 PCOD9051240
Probable space group: P -1
;
_chemical_formula_sum "Si O2"
_cell_formula_units_Z 12
_cell_length_a 13.570894
_cell_length_b 9.126102
_cell_length_c 9.613673
_cell_angle_alpha 46.674782
_cell_angle_beta 136.375421
_cell_angle_gamma 130.012496
_cell_volume 571.648566
_symmetry_space_group_name_H-M "P -1"
_symmetry_group_IT_number 2
_symmetry_cell_setting 'triclinic'
loop_
_space_group_symop_operation_xyz
x,y,z
-x,-y,-z
loop_
_atom_site_type_symbol
_atom_site_label
_atom_site_fract_x
_atom_site_fract_y
_atom_site_fract_z
Si Si1 0.388467 0.425729 0.810660
Si Si2 0.589089 0.033786 0.923027
Si Si3 0.868850 0.374166 0.547972
Si Si4 0.906224 0.286104 0.973108
Si Si5 0.561732 0.676612 0.568312
Si Si6 0.890020 0.939658 0.790067
O O1 0.241527 0.484054 0.661694
O O2 0.461860 0.569273 0.663843
O O3 0.500000 0.500000 0.000000
O O4 0.377396 0.184813 0.930600
O O5 0.751112 0.202242 0.952934
O O6 0.482584 0.116488 0.658018
O O7 0.500000 0.000000 0.000000
O O8 0.889587 0.339060 0.757727
O O9 0.000000 0.500000 0.500000
O O10 0.828882 0.142093 0.590300
O O11 0.000000 0.500000 0.000000
O O12 0.999970 0.114884 0.175892
O O13 0.500000 0.500000 0.500000
O O14 0.737052 0.743930 0.748766
O O15 0.000000 0.000000 0.000000
#
# Coordination Sequence:
#
# PCOD9051240 Si02
#       6
#     2   2   2   2   2   2
#     4  12  28  43  76 106 146 192 251 301 373 440
#     4  12  26  47  75 111 147 194 252 309 374 440
#     4  11  25  47  68 106 149 192 246 302 372 446
#     4  11  25  45  76 106 149 195 248 309 372 440
#     4  12  25  49  76 110 149 196 249 312 367 448
#     4  10  25  45  73 104 149 194 241 304 379 434
#
# _framework density 20.99192
#
# number of rings (size 3 to 8) (size 9 to 14) (size 15 to 20)
#    0.000    0.667    3.333    3.000    9.333    2.667 
#    0.000    2.500    0.000    0.000    0.000    0.000 
#    0.000    0.000    0.000    0.000    0.000    0.000 
#
# Total GULP energy -66866.581675 kJ/mol
# GULP energy per Si atom -5572.215140 kJ/mol
# Density = 2.094414 g / cm^3
# Si number density = 20.991920 Si / 1000 Ang^3
#
#
#
# Elastic Constant Matrix: (Units=GPa)
#
#
# Indices 1 2 3 4 5 6 
#
# 1 188.2918 85.8441 66.6285 7.8311 10.4009 12.9176
# 2 85.8441 148.8193 51.6070 5.7280 10.5906 4.7173
# 3 66.6285 51.6070 109.1479 -15.8366 12.6961 1.1602
# 4 7.8311 5.7280 -15.8366 31.9670 1.6655 11.3038
# 5 10.4009 10.5906 12.6961 1.6655 47.5699 -12.0103
# 6 12.9176 4.7173 1.1602 11.3038 -12.0103 49.0496
#
#
#
# Elastic Compliance Matrix: (Units=1/GPa)
#
#
# Indices 1 2 3 4 5 6 
#
# 1 0.008458 -0.003325 -0.003990 -0.003026 -0.000234 -0.001173
# 2 -0.003325 0.009758 -0.002900 -0.002513 -0.000465 0.000471
# 3 -0.003990 -0.002900 0.014784 0.009723 -0.003290 -0.002066
# 4 -0.003026 -0.002513 0.009723 0.041093 -0.005329 -0.009966
# 5 -0.000234 -0.000465 -0.003290 -0.005329 0.024087 0.007310
# 6 -0.001173 0.000471 -0.002066 -0.009966 0.007310 0.024787
#
#
# Mechanical properties :
#
#
# Convention : Reuss Voigt Hill
#
# Bulk Modulus (GPa) = 79.55200 94.93536 87.24368
# Shear Modulus (GPa) = 33.87851 41.86258 37.87054
#
# Velocity S-wave (km/s) = 4.02167 4.47052 4.25202
# Velocity P-wave (km/s) = 7.71647 8.48353 8.10907
#
# Compressibility (1/GPa) = 0.01257039
#
# Stress axis : x y z
#
# Youngs Moduli (GPa) = 118.23053 102.48247 67.63941
#
# Poissons Ratio (x) = 0.34073 0.26991
# Poissons Ratio (y) = 0.39309 0.19613
# Poissons Ratio (z) = 0.47180 0.29716
#
# Static dielectric constant tensor:
#      x y z
#    x 1.771940 0.072110 -0.099450 
#    y 0.072110 1.907580 -0.223280 
#    z -0.099450 -0.223280 2.216220 
# 
# From -- ./inp_files/149765.got.cif
#   From: 2010.05.17/outbox.cif.g08.bks.cpg/sg2_75_cif.got.tgz:149765.got - 2010.06.03 11:33:40.
