data_PCOD9051444
_publ_section_title
;
Structure prediction by ZEFSAII (Michael W. Deem and Ramdas Pophale) SiO2 
 PCOD9051444
Probable space group: P -1
;
_chemical_formula_sum "Si O2"
_cell_formula_units_Z 14
_cell_length_a 8.554155
_cell_length_b 17.661500
_cell_length_c 17.587174
_cell_angle_alpha 22.210009
_cell_angle_beta 36.118580
_cell_angle_gamma 41.363084
_cell_volume 591.994020
_symmetry_space_group_name_H-M "P -1"
_symmetry_group_IT_number 2
_symmetry_cell_setting 'triclinic'
loop_
_space_group_symop_operation_xyz
x,y,z
-x,-y,-z
loop_
_atom_site_type_symbol
_atom_site_label
_atom_site_fract_x
_atom_site_fract_y
_atom_site_fract_z
Si Si1 0.904287 0.209314 0.510209
Si Si2 0.361361 0.456214 0.326512
Si Si3 0.484449 0.143438 0.299427
Si Si4 0.078659 0.790182 0.199634
Si Si5 0.709376 0.101541 0.533703
Si Si6 0.059463 0.581481 0.180680
Si Si7 0.806926 0.994465 0.897835
O O1 0.703201 0.118479 0.612244
O O2 0.934675 0.056178 0.710368
O O3 0.189192 0.234458 0.334983
O O4 0.862829 0.430816 0.355210
O O5 0.324961 0.682595 0.160505
O O6 0.636887 0.334108 0.324353
O O7 0.213731 0.464920 0.295387
O O8 0.185536 0.341745 0.565467
O O9 0.500000 0.000000 0.500000
O O10 0.487907 0.020652 0.331527
O O11 0.706218 0.312308 0.057603
O O12 0.144671 0.837710 0.215725
O O13 0.000000 0.000000 0.000000
O O14 0.000000 0.000000 0.500000
O O15 0.900101 0.776098 0.091784
O O16 0.500000 0.000000 0.000000
#
# Coordination Sequence:
#
# PCOD9051444 Si02
#       7
#     2   2   2   2   2   2   2
#     4  11  25  46  66 105 145 182 234 289 360 423
#     4  11  24  43  74 101 137 185 244 284 345 430
#     4  11  22  46  77  99 138 186 237 291 350 423
#     4  11  24  44  68 104 137 187 240 287 343 418
#     4  10  25  46  71 103 144 183 226 300 360 417
#     4  12  24  45  74 104 137 191 241 288 350 428
#     4  12  27  42  68 103 148 186 228 295 364 411
#
# _framework density 23.648887999999999
#
# number of rings (size 3 to 8) (size 9 to 14) (size 15 to 20)
#    0.000    0.857    4.286    2.143    4.000    0.571 
#    0.000    2.143    0.000    0.000    0.000    0.000 
#    0.000    0.000    0.000    0.000    0.000    0.000 
#
# Total GULP energy -78102.846525 kJ/mol
# GULP energy per Si atom -5578.774752 kJ/mol
# Density = 2.359506 g / cm^3
# Si number density = 23.648888 Si / 1000 Ang^3
#
#
#
# Elastic Constant Matrix: (Units=GPa)
#
#
# Indices 1 2 3 4 5 6 
#
# 1 111.6047 27.8596 28.4761 -14.7186 9.5442 24.1186
# 2 27.8596 107.9681 23.1514 -29.3555 1.2170 -12.6517
# 3 28.4761 23.1514 102.0615 -9.2240 12.0449 3.0856
# 4 -14.7186 -29.3555 -9.2240 40.6065 3.3560 1.1560
# 5 9.5442 1.2170 12.0449 3.3560 29.0425 -7.1530
# 6 24.1186 -12.6517 3.0856 1.1560 -7.1530 51.9214
#
#
#
# Elastic Compliance Matrix: (Units=1/GPa)
#
#
# Indices 1 2 3 4 5 6 
#
# 1 0.012498 -0.002908 -0.001736 0.002681 -0.005350 -0.007208
# 2 -0.002908 0.013012 -0.001748 0.007708 0.001389 0.004645
# 3 -0.001736 -0.001748 0.011323 0.001070 -0.004403 -0.000923
# 4 0.002681 0.007708 0.001070 0.031899 -0.005557 -0.000906
# 5 -0.005350 0.001389 -0.004403 -0.005557 0.040775 0.008827
# 6 -0.007208 0.004645 -0.000923 -0.000906 0.008827 0.025031
#
#
# Mechanical properties :
#
#
# Convention : Reuss Voigt Hill
#
# Bulk Modulus (GPa) = 41.58138 53.40095 47.49116
# Shear Modulus (GPa) = 32.18820 40.45721 36.32270
#
# Velocity S-wave (km/s) = 3.69329 4.14060 3.92333
# Velocity P-wave (km/s) = 5.98400 6.74457 6.37563
#
# Compressibility (1/GPa) = 0.02404923
#
# Stress axis : x y z
#
# Youngs Moduli (GPa) = 80.01439 76.85436 88.31595
#
# Poissons Ratio (x) = 0.22350 0.15329
# Poissons Ratio (y) = 0.23269 0.15436
# Poissons Ratio (z) = 0.13888 0.13433
#
# Static dielectric constant tensor:
#      x y z
#    x 1.878200 -0.013850 0.011940 
#    y -0.013850 1.969450 0.048680 
#    z 0.011940 0.048680 1.883630 
# 
# From -- ./inp_files/40244.got.cif
#   From: 2010.05.17/outbox.cif.g08.bks.cpg/sg2_21_cif.got.tgz:40244.got - 2010.06.03 11:33:40.
