data_PCOD9051443
_publ_section_title
;
Structure prediction by ZEFSAII (Michael W. Deem and Ramdas Pophale) SiO2 
 PCOD9051443
Probable space group: P -1
;
_chemical_formula_sum "Si O2"
_cell_formula_units_Z 14
_cell_length_a 18.225632
_cell_length_b 20.457814
_cell_length_c 7.782794
_cell_angle_alpha 35.827981
_cell_angle_beta 133.419612
_cell_angle_gamma 157.935728
_cell_volume 610.398406
_symmetry_space_group_name_H-M "P -1"
_symmetry_group_IT_number 2
_symmetry_cell_setting 'triclinic'
loop_
_space_group_symop_operation_xyz
x,y,z
-x,-y,-z
loop_
_atom_site_type_symbol
_atom_site_label
_atom_site_fract_x
_atom_site_fract_y
_atom_site_fract_z
Si Si1 0.707024 0.890210 0.514254
Si Si2 0.407562 0.790388 0.346883
Si Si3 0.873590 0.090283 0.723842
Si Si4 0.621151 0.225559 0.272511
Si Si5 0.788901 0.741811 0.133954
Si Si6 0.566002 0.737623 0.249401
Si Si7 0.036269 0.588368 0.685587
O O1 0.515340 0.789121 0.435075
O O2 0.730617 0.909095 0.305053
O O3 0.847795 0.072154 0.512258
O O4 0.696424 0.750264 0.849037
O O5 0.433265 0.795726 0.577754
O O6 0.172634 0.576387 0.383021
O O7 0.500000 0.000000 0.000000
O O8 0.097520 0.255718 0.772626
O O9 0.847666 0.185107 0.569831
O O10 0.696717 0.847206 0.050937
O O11 0.850318 0.398542 0.265755
O O12 0.500000 0.000000 0.500000
O O13 0.566874 0.277161 0.956239
O O14 0.604599 0.518636 0.430580
O O15 0.000000 0.000000 0.000000
O O16 0.000000 0.500000 0.000000
#
# Coordination Sequence:
#
# PCOD9051443 Si02
#       7
#     2   2   2   2   2   2   2
#     4  11  23  45  71 100 137 183 229 286 355 411
#     4  12  25  43  70  99 139 186 226 288 354 413
#     4  11  24  47  69 105 138 182 238 289 350 419
#     4  12  23  44  67 105 138 180 235 283 349 422
#     4  10  25  46  71 103 141 183 238 289 349 418
#     4  12  24  45  75  99 144 185 230 292 353 412
#     4  12  24  42  68  98 141 181 231 290 348 419
#
# _framework density 22.935839999999999
#
# number of rings (size 3 to 8) (size 9 to 14) (size 15 to 20)
#    0.000    0.571    2.857    6.000    0.000    4.000 
#    7.714    0.000    0.000    0.000    0.000    0.000 
#    0.000    0.000    0.000    0.000    0.000    0.000 
#
# Total GULP energy -78102.314098 kJ/mol
# GULP energy per Si atom -5578.736721 kJ/mol
# Density = 2.288364 g / cm^3
# Si number density = 22.935840 Si / 1000 Ang^3
#
#
#
# Elastic Constant Matrix: (Units=GPa)
#
#
# Indices 1 2 3 4 5 6 
#
# 1 61.9939 14.2106 21.8286 5.0701 -1.6828 0.4583
# 2 14.2106 104.6461 40.8076 15.4467 5.1036 -0.8956
# 3 21.8286 40.8076 123.8113 22.0591 6.0652 1.8813
# 4 5.0701 15.4467 22.0591 42.6834 6.2637 -1.3444
# 5 -1.6828 5.1036 6.0652 6.2637 33.5546 10.3387
# 6 0.4583 -0.8956 1.8813 -1.3444 10.3387 44.4115
#
#
#
# Elastic Compliance Matrix: (Units=1/GPa)
#
#
# Indices 1 2 3 4 5 6 
#
# 1 0.017461 -0.001368 -0.002618 -0.000510 0.001817 -0.000535
# 2 -0.001368 0.011310 -0.003056 -0.002188 -0.000993 0.000537
# 3 -0.002618 -0.003056 0.010262 -0.003800 -0.000681 -0.000426
# 4 -0.000510 -0.002188 -0.003800 0.026994 -0.004669 0.002026
# 5 0.001817 -0.000993 -0.000681 -0.004669 0.033488 -0.007947
# 6 -0.000535 0.000537 -0.000426 0.002026 -0.007947 0.024462
#
#
# Mechanical properties :
#
#
# Convention : Reuss Voigt Hill
#
# Bulk Modulus (GPa) = 40.08138 49.34942 44.71540
# Shear Modulus (GPa) = 34.15841 38.37021 36.26431
#
# Velocity S-wave (km/s) = 3.86334 4.09459 3.98064
# Velocity P-wave (km/s) = 6.11669 6.62701 6.37695
#
# Compressibility (1/GPa) = 0.02494924
#
# Stress axis : x y z
#
# Youngs Moduli (GPa) = 57.27081 88.42071 97.44276
#
# Poissons Ratio (x) = 0.12099 0.25506
# Poissons Ratio (y) = 0.07837 0.29778
# Poissons Ratio (z) = 0.14991 0.27021
#
# Static dielectric constant tensor:
#      x y z
#    x 1.965020 0.053010 0.061750 
#    y 0.053010 2.016090 -0.020650 
#    z 0.061750 -0.020650 1.892620 
# 
# From -- ./inp_files/349965.got.cif
#   From: 2010.05.17/outbox.cif.g08.bks.cpg/sg2_175_cif.got.tgz:349965.got - 2010.06.03 11:33:40.
