data_PCOD9051349
_publ_section_title
;
Structure prediction by ZEFSAII (Michael W. Deem and Ramdas Pophale) SiO2 
 PCOD9051349
Probable space group: P -1
;
_chemical_formula_sum "Si O2"
_cell_formula_units_Z 16
_cell_length_a 12.121588
_cell_length_b 9.841367
_cell_length_c 14.273248
_cell_angle_alpha 117.317646
_cell_angle_beta 149.285368
_cell_angle_gamma 72.989750
_cell_volume 752.912185
_symmetry_space_group_name_H-M "P -1"
_symmetry_group_IT_number 2
_symmetry_cell_setting 'triclinic'
loop_
_space_group_symop_operation_xyz
x,y,z
-x,-y,-z
loop_
_atom_site_type_symbol
_atom_site_label
_atom_site_fract_x
_atom_site_fract_y
_atom_site_fract_z
Si Si1 0.337809 0.592021 0.857904
Si Si2 0.691528 0.594800 0.603447
Si Si3 0.128242 0.878416 0.509804
Si Si4 0.157083 0.557983 0.510829
Si Si5 0.558764 0.841425 0.456564
Si Si6 0.076123 0.665049 0.051771
Si Si7 0.573683 0.042822 0.960320
Si Si8 0.031773 0.937008 0.252008
O O1 0.300542 0.553817 0.707673
O O2 0.084123 0.556187 0.696724
O O3 0.500000 0.500000 0.000000
O O4 0.426883 0.776097 0.993799
O O5 0.500000 0.500000 0.500000
O O6 0.714762 0.485028 0.498280
O O7 0.639850 0.752105 0.573783
O O8 0.917553 0.642244 0.840145
O O9 0.099036 0.725926 0.504846
O O10 0.046746 0.853248 0.336111
O O11 0.390553 0.948188 0.726672
O O12 0.000000 0.000000 0.500000
O O13 0.332583 0.719290 0.223177
O O14 0.500000 0.000000 0.500000
O O15 0.762813 0.910071 0.557924
O O16 0.040070 0.807378 0.137417
O O17 0.000000 0.500000 0.000000
O O18 0.500000 0.000000 0.000000
O O19 0.808033 0.999140 0.102251
#
# Coordination Sequence:
#
# PCOD9051349 Si02
#       8
#     2   2   2   2   2   2   2   2
#     4  11  25  47  72 101 140 183 232 293 360 415
#     4  12  26  44  73 105 146 187 233 295 347 417
#     4  12  24  43  72 102 142 183 234 297 352 415
#     4  11  26  44  70 104 143 180 236 290 353 422
#     4  10  25  46  68 101 142 176 242 288 345 416
#     4  11  24  46  72 103 138 186 239 280 351 424
#     4  12  24  43  69 102 137 180 240 282 350 426
#     4  11  26  43  71 103 143 188 230 295 354 411
#
# _framework density 21.250817999999999
#
# number of rings (size 3 to 8) (size 9 to 14) (size 15 to 20)
#    0.000    0.750    3.750    2.250    3.500    8.000 
#    0.000    0.000    0.000    0.000    0.000    0.000 
#    0.000    0.000    0.000    0.000    0.000    0.000 
#
# Total GULP energy -89464.036964 kJ/mol
# GULP energy per Si atom -5591.502310 kJ/mol
# Density = 2.120245 g / cm^3
# Si number density = 21.250818 Si / 1000 Ang^3
#
#
#
# Elastic Constant Matrix: (Units=GPa)
#
#
# Indices 1 2 3 4 5 6 
#
# 1 90.3911 7.0126 2.9782 -10.8661 5.1139 -5.3174
# 2 7.0126 136.3223 14.2535 -13.5756 0.6797 9.8168
# 3 2.9782 14.2535 92.9684 -16.9635 9.7059 7.5582
# 4 -10.8661 -13.5756 -16.9635 46.7003 10.0225 0.5045
# 5 5.1139 0.6797 9.7059 10.0225 32.4255 -4.0302
# 6 -5.3174 9.8168 7.5582 0.5045 -4.0302 27.5139
#
#
#
# Elastic Compliance Matrix: (Units=1/GPa)
#
#
# Indices 1 2 3 4 5 6 
#
# 1 0.011750 -0.000436 0.000442 0.003345 -0.002782 0.001836
# 2 -0.000436 0.007848 -0.000423 0.002282 -0.001043 -0.002963
# 3 0.000442 -0.000423 0.012937 0.006090 -0.006358 -0.004360
# 4 0.003345 0.002282 0.006090 0.027561 -0.011417 -0.004019
# 5 -0.002782 -0.001043 -0.006358 -0.011417 0.037640 0.007304
# 6 0.001836 -0.002963 -0.004360 -0.004019 0.007304 0.040099
#
#
# Mechanical properties :
#
#
# Convention : Reuss Voigt Hill
#
# Bulk Modulus (GPa) = 31.54554 40.90782 36.22668
# Shear Modulus (GPa) = 33.50426 41.02377 37.26402
#
# Velocity S-wave (km/s) = 3.97496 4.39846 4.19206
# Velocity P-wave (km/s) = 5.99531 6.71469 6.36517
#
# Compressibility (1/GPa) = 0.03170021
#
# Stress axis : x y z
#
# Youngs Moduli (GPa) = 85.10787 127.42055 77.30020
#
# Poissons Ratio (x) = 0.05554 -0.03416
# Poissons Ratio (y) = 0.03710 0.03271
# Poissons Ratio (z) = -0.03761 0.05392
#
# Static dielectric constant tensor:
#      x y z
#    x 1.788010 0.027140 0.024360 
#    y 0.027140 1.742930 -0.008630 
#    z 0.024360 -0.008630 1.678820 
# 
# From -- ./inp_files/516034.got.cif
#   From: 2010.05.17/outbox.cif.g08.bks.cpg/sg2_259_cif.got.tgz:516034.got - 2010.06.03 11:33:40.
