data_PCOD9051181
_publ_section_title
;
Structure prediction by ZEFSAII (Michael W. Deem and Ramdas Pophale) SiO2 
 PCOD9051181
Probable space group: P -1
;
_chemical_formula_sum "Si O2"
_cell_formula_units_Z 14
_cell_length_a 9.112106
_cell_length_b 9.455243
_cell_length_c 11.850336
_cell_angle_alpha 128.272266
_cell_angle_beta 127.094135
_cell_angle_gamma 81.568753
_cell_volume 595.890471
_symmetry_space_group_name_H-M "P -1"
_symmetry_group_IT_number 2
_symmetry_cell_setting 'triclinic'
loop_
_space_group_symop_operation_xyz
x,y,z
-x,-y,-z
loop_
_atom_site_type_symbol
_atom_site_label
_atom_site_fract_x
_atom_site_fract_y
_atom_site_fract_z
Si Si1 0.625998 0.867219 0.507369
Si Si2 0.970906 0.046988 0.138387
Si Si3 0.628282 0.377584 0.535201
Si Si4 0.523082 0.816974 0.859724
Si Si5 0.530881 0.337726 0.014027
Si Si6 0.177102 0.196806 0.657447
Si Si7 0.937929 0.420731 0.223912
O O1 0.476589 0.709037 0.440708
O O2 0.684104 0.808257 0.384778
O O3 0.840342 0.960085 0.711287
O O4 0.500000 0.000000 0.500000
O O5 0.974821 0.270177 0.256485
O O6 0.758521 0.887291 0.989314
O O7 0.000000 0.000000 0.000000
O O8 0.500000 0.500000 0.500000
O O9 0.588883 0.232604 0.337081
O O10 0.859717 0.504600 0.715474
O O11 0.434335 0.646171 0.827101
O O12 0.500000 0.000000 0.000000
O O13 0.307977 0.196080 0.828108
O O14 0.500000 0.500000 0.000000
O O15 0.711899 0.290377 0.020148
O O16 0.103214 0.375832 0.683724
O O17 0.000000 0.000000 0.500000
#
# Coordination Sequence:
#
# PCOD9051181 Si02
#       7
#     2   2   2   2   2   2   2
#     4  12  28  46  75 110 156 196 250 322 393 456
#     4  12  25  48  73 112 151 200 254 318 395 457
#     4  12  27  48  71 113 149 201 257 317 395 453
#     4  12  26  44  79 105 147 199 260 319 373 463
#     4  10  25  45  71 111 147 189 258 320 381 444
#     4  11  26  48  79 111 152 200 259 317 393 459
#     4  11  25  45  76 105 150 198 262 317 368 474
#
# _framework density 23.494250000000001
#
# number of rings (size 3 to 8) (size 9 to 14) (size 15 to 20)
#    0.000    0.571    4.286    1.714   12.000    2.286 
#    0.000    0.714    0.000    0.000    0.000    0.000 
#    0.000    0.000    0.000    0.000    0.000    0.000 
#
# Total GULP energy -77951.127577 kJ/mol
# GULP energy per Si atom -5567.937684 kJ/mol
# Density = 2.344078 g / cm^3
# Si number density = 23.494250 Si / 1000 Ang^3
#
#
#
# Elastic Constant Matrix: (Units=GPa)
#
#
# Indices 1 2 3 4 5 6 
#
# 1 147.0839 47.9676 18.5229 -7.1131 21.7198 3.3443
# 2 47.9676 140.9779 -5.7876 -2.9282 3.4642 -8.1481
# 3 18.5229 -5.7876 58.6819 -3.8470 16.9037 -7.5821
# 4 -7.1131 -2.9282 -3.8470 31.0459 -2.5542 8.6443
# 5 21.7198 3.4642 16.9037 -2.5542 64.9103 -0.6997
# 6 3.3443 -8.1481 -7.5821 8.6443 -0.6997 61.0928
#
#
#
# Elastic Compliance Matrix: (Units=1/GPa)
#
#
# Indices 1 2 3 4 5 6 
#
# 1 0.008489 -0.002990 -0.002481 0.001587 -0.001988 -0.001419
# 2 -0.002990 0.008274 0.001931 -0.000083 0.000069 0.001519
# 3 -0.002481 0.001931 0.019666 0.000957 -0.004328 0.002649
# 4 0.001587 -0.000083 0.000957 0.034061 0.000513 -0.004793
# 5 -0.001988 0.000069 -0.004328 0.000513 0.017211 -0.000295
# 6 -0.001419 0.001519 0.002649 -0.004793 -0.000295 0.017652
#
#
# Mechanical properties :
#
#
# Convention : Reuss Voigt Hill
#
# Bulk Modulus (GPa) = 34.07333 52.01662 43.04498
# Shear Modulus (GPa) = 40.90997 50.47918 45.69457
#
# Velocity S-wave (km/s) = 4.17739 4.64030 4.41492
# Velocity P-wave (km/s) = 6.14831 7.13429 6.65957
#
# Compressibility (1/GPa) = 0.02934847
#
# Stress axis : x y z
#
# Youngs Moduli (GPa) = 117.79806 120.85347 50.84811
#
# Poissons Ratio (x) = 0.36141 0.12617
# Poissons Ratio (y) = 0.35227 -0.09819
# Poissons Ratio (z) = 0.29229 -0.23336
#
# Static dielectric constant tensor:
#      x y z
#    x 1.611950 -0.176650 3.380940 
#    y -0.176650 1.814160 3.275210 
#    z 3.380940 3.275210 -66.306910 
# 
# From -- ./inp_files/383416.got.cif
#   From: 2010.05.17/outbox.cif.g08.bks.cpg/sg2_192_cif.got.tgz:383416.got - 2010.06.03 11:33:40.
