data_PCOD9051257
_publ_section_title
;
Structure prediction by ZEFSAII (Michael W. Deem and Ramdas Pophale) SiO2 
 PCOD9051257
Probable space group: P -1
;
_chemical_formula_sum "Si O2"
_cell_formula_units_Z 16
_cell_length_a 5.204803
_cell_length_b 14.676213
_cell_length_c 12.984811
_cell_angle_alpha 95.341956
_cell_angle_beta 48.260957
_cell_angle_gamma 117.968411
_cell_volume 616.486416
_symmetry_space_group_name_H-M "P -1"
_symmetry_group_IT_number 2
_symmetry_cell_setting 'triclinic'
loop_
_space_group_symop_operation_xyz
x,y,z
-x,-y,-z
loop_
_atom_site_type_symbol
_atom_site_label
_atom_site_fract_x
_atom_site_fract_y
_atom_site_fract_z
Si Si1 0.490629 0.396441 0.327782
Si Si2 0.736314 0.456273 0.711791
Si Si3 0.360867 0.229067 0.707514
Si Si4 0.851821 0.615484 0.961906
Si Si5 0.823000 0.070981 0.009284
Si Si6 0.846592 0.177120 0.214382
Si Si7 0.387676 0.018966 0.642737
Si Si8 0.200551 0.196990 0.521554
O O1 0.283990 0.456579 0.343905
O O2 0.195442 0.280773 0.450785
O O3 0.861821 0.476885 0.315910
O O4 0.715110 0.371020 0.173944
O O5 0.707892 0.354277 0.654570
O O6 0.299398 0.395440 0.883290
O O7 0.334826 0.118896 0.667293
O O8 0.199396 0.241786 0.640080
O O9 0.148893 0.179909 0.870456
O O10 0.841850 0.705118 0.904347
O O11 0.500000 0.500000 0.000000
O O12 0.657528 0.107685 0.151816
O O13 0.500000 0.000000 0.000000
O O14 0.000000 0.000000 0.000000
O O15 0.579059 0.193476 0.372293
O O16 0.956519 0.098539 0.232884
O O17 0.806048 0.074678 0.604038
O O18 0.500000 0.000000 0.500000
#
# Coordination Sequence:
#
# PCOD9051257 Si02
#       8
#     2   2   2   2   2   2   2   2
#     4  10  25  45  74 102 145 190 243 294 363 433
#     4  11  24  45  71 108 142 189 237 306 363 423
#     4  12  27  45  71 107 149 190 242 307 365 432
#     4   9  20  43  71 104 142 186 239 294 357 433
#     4  12  27  46  71 107 146 188 242 298 363 431
#     4  11  22  46  71 105 140 193 239 298 360 430
#     4  12  26  44  74 104 146 194 246 298 361 438
#     4  11  27  46  72 104 145 194 250 296 360 439
#
# _framework density 25.953529
#
# number of rings (size 3 to 8) (size 9 to 14) (size 15 to 20)
#    0.000    1.000    3.750    1.500    5.250    2.000 
#    0.000    2.500    0.000    0.000    0.000    0.000 
#    0.000    0.000    0.000    0.000    0.000    0.000 
#
# Total GULP energy -89293.212782 kJ/mol
# GULP energy per Si atom -5580.825799 kJ/mol
# Density = 2.589446 g / cm^3
# Si number density = 25.953529 Si / 1000 Ang^3
#
#
#
# Elastic Constant Matrix: (Units=GPa)
#
#
# Indices 1 2 3 4 5 6 
#
# 1 80.0419 21.3618 17.9284 5.8832 21.0188 -6.2673
# 2 21.3618 149.7576 37.1334 -12.9162 10.1017 -12.6985
# 3 17.9284 37.1334 141.0243 -18.6772 24.1842 -14.8839
# 4 5.8832 -12.9162 -18.6772 53.9074 -4.6810 12.7910
# 5 21.0188 10.1017 24.1842 -4.6810 25.3209 5.4350
# 6 -6.2673 -12.6985 -14.8839 12.7910 5.4350 38.1714
#
#
#
# Elastic Compliance Matrix: (Units=1/GPa)
#
#
# Indices 1 2 3 4 5 6 
#
# 1 0.018450 -0.001534 0.001323 -0.005301 -0.018547 0.007452
# 2 -0.001534 0.007489 -0.001404 0.001105 -0.000467 0.001388
# 3 0.001323 -0.001404 0.009748 0.000826 -0.010727 0.004802
# 4 -0.005301 0.001105 0.000826 0.022646 0.009310 -0.009095
# 5 -0.018547 -0.000467 -0.010727 0.009310 0.071480 -0.020680
# 6 0.007452 0.001388 0.004802 -0.009095 -0.020680 0.035747
#
#
# Mechanical properties :
#
#
# Convention : Reuss Voigt Hill
#
# Bulk Modulus (GPa) = 30.80938 58.18566 44.49752
# Shear Modulus (GPa) = 27.83815 43.10663 35.47239
#
# Velocity S-wave (km/s) = 3.27863 4.07985 3.70099
# Velocity P-wave (km/s) = 5.12146 6.68292 5.95360
#
# Compressibility (1/GPa) = 0.03245765
#
# Stress axis : x y z
#
# Youngs Moduli (GPa) = 54.20062 133.53018 102.58373
#
# Poissons Ratio (x) = 0.20486 -0.13576
# Poissons Ratio (y) = 0.08315 0.14402
# Poissons Ratio (z) = -0.07173 0.18747
#
# Static dielectric constant tensor:
#      x y z
#    x 2.332480 0.125790 -0.071010 
#    y 0.125790 2.112530 0.154370 
#    z -0.071010 0.154370 2.100730 
# 
# From -- ./inp_files/367756.got.cif
#   From: 2010.05.17/outbox.cif.g08.bks.cpg/sg2_184_cif.got.tgz:367756.got - 2010.06.03 11:33:40.
