data_PCOD9051126
_publ_section_title
;
Structure prediction by ZEFSAII (Michael W. Deem and Ramdas Pophale) SiO2 
 PCOD9051126
Probable space group: P -1
;
_chemical_formula_sum "Si O2"
_cell_formula_units_Z 14
_cell_length_a 10.816458
_cell_length_b 14.305318
_cell_length_c 5.515885
_cell_angle_alpha 92.950599
_cell_angle_beta 121.315207
_cell_angle_gamma 54.171356
_cell_volume 550.408307
_symmetry_space_group_name_H-M "P -1"
_symmetry_group_IT_number 2
_symmetry_cell_setting 'triclinic'
loop_
_space_group_symop_operation_xyz
x,y,z
-x,-y,-z
loop_
_atom_site_type_symbol
_atom_site_label
_atom_site_fract_x
_atom_site_fract_y
_atom_site_fract_z
Si Si1 0.092943 0.782164 0.081721
Si Si2 0.613117 0.214796 0.879799
Si Si3 0.344749 0.378508 0.254564
Si Si4 0.337449 0.021820 0.165286
Si Si5 0.763603 0.749449 0.076882
Si Si6 0.623102 0.376606 0.270256
Si Si7 0.990671 0.642303 0.780867
O O1 0.225791 0.814499 0.153003
O O2 0.180658 0.690490 0.393977
O O3 0.871695 0.901668 0.911903
O O4 0.095394 0.698944 0.872530
O O5 0.401788 0.331018 0.579287
O O6 0.614985 0.102607 0.889735
O O7 0.656540 0.265557 0.148566
O O8 0.474324 0.412098 0.333177
O O9 0.391550 0.265741 0.132104
O O10 0.137232 0.498584 0.977115
O O11 0.500000 0.000000 0.500000
O O12 0.307009 0.114744 0.944136
O O13 0.887218 0.670770 0.425113
O O14 0.861632 0.706425 0.901382
O O15 0.500000 0.500000 0.000000
#
# Coordination Sequence:
#
# PCOD9051126 Si02
#       7
#     2   2   2   2   2   2   2
#     4  10  25  45  70 103 143 191 242 304 367 433
#     4  11  24  45  71 105 145 195 241 302 370 436
#     4  11  24  42  71 106 146 188 245 302 371 442
#     4  11  24  48  73 102 147 190 255 303 362 440
#     4  11  26  46  71 109 146 197 242 309 371 433
#     4  11  25  43  73 105 145 188 246 302 367 442
#     4  11  25  44  75 106 148 191 245 305 375 438
#
# _framework density 25.435663999999999
#
# number of rings (size 3 to 8) (size 9 to 14) (size 15 to 20)
#    0.000    1.143    1.429    3.000   12.000    2.857 
#   10.286    3.571    0.000    0.000    0.000    0.000 
#    0.000    0.000    0.000    0.000    0.000    0.000 
#
# Total GULP energy -78213.982684 kJ/mol
# GULP energy per Si atom -5586.713049 kJ/mol
# Density = 2.537777 g / cm^3
# Si number density = 25.435664 Si / 1000 Ang^3
#
#
#
# Elastic Constant Matrix: (Units=GPa)
#
#
# Indices 1 2 3 4 5 6 
#
# 1 99.8662 31.1329 23.5984 -7.4748 9.1528 20.6422
# 2 31.1329 102.9281 1.9804 0.2980 4.3953 18.1739
# 3 23.5984 1.9804 129.2419 11.4054 18.5703 -9.2081
# 4 -7.4748 0.2980 11.4054 49.0525 3.8597 7.8300
# 5 9.1528 4.3953 18.5703 3.8597 25.9738 8.1472
# 6 20.6422 18.1739 -9.2081 7.8300 8.1472 40.8104
#
#
#
# Elastic Compliance Matrix: (Units=1/GPa)
#
#
# Indices 1 2 3 4 5 6 
#
# 1 0.013392 -0.002758 -0.003191 0.003938 -0.000377 -0.006946
# 2 -0.002758 0.011181 0.000043 0.000066 0.000175 -0.003622
# 3 -0.003191 0.000043 0.010108 -0.003202 -0.007513 0.005990
# 4 0.003938 0.000066 -0.003202 0.022883 -0.000291 -0.007076
# 5 -0.000377 0.000175 -0.007513 -0.000291 0.047469 -0.011003
# 6 -0.006946 -0.003622 0.005990 -0.007076 -0.011003 0.034535
#
#
# Mechanical properties :
#
#
# Convention : Reuss Voigt Hill
#
# Bulk Modulus (GPa) = 43.72742 49.49551 46.61146
# Shear Modulus (GPa) = 31.44558 41.52230 36.48394
#
# Velocity S-wave (km/s) = 3.51989 4.04473 3.79141
# Velocity P-wave (km/s) = 5.80932 6.42764 6.12628
#
# Compressibility (1/GPa) = 0.02286895
#
# Stress axis : x y z
#
# Youngs Moduli (GPa) = 74.66910 89.43884 98.92907
#
# Poissons Ratio (x) = 0.24670 0.31571
# Poissons Ratio (y) = 0.20596 -0.00428
# Poissons Ratio (z) = 0.23829 -0.00387
#
# Static dielectric constant tensor:
#      x y z
#    x 2.198300 0.008480 0.018110 
#    y 0.008480 2.027320 -0.015750 
#    z 0.018110 -0.015750 1.965570 
# 
# From -- ./inp_files/78031.got.cif
#   From: 2010.05.17/outbox.cif.g08.bks.cpg/sg2_40_cif.got.tgz:78031.got - 2010.06.03 11:33:40.
