data_PCOD9051912
_publ_section_title
;
Structure prediction by ZEFSAII (Michael W. Deem and Ramdas Pophale) SiO2 
 PCOD9051912
Probable space group: P -1
;
_chemical_formula_sum "Si O2"
_cell_formula_units_Z 14
_cell_length_a 12.109997
_cell_length_b 8.143326
_cell_length_c 10.399976
_cell_angle_alpha 112.798745
_cell_angle_beta 143.730616
_cell_angle_gamma 61.286524
_cell_volume 532.119879
_symmetry_space_group_name_H-M "P -1"
_symmetry_group_IT_number 2
_symmetry_cell_setting 'triclinic'
loop_
_space_group_symop_operation_xyz
x,y,z
-x,-y,-z
loop_
_atom_site_type_symbol
_atom_site_label
_atom_site_fract_x
_atom_site_fract_y
_atom_site_fract_z
Si Si1 0.281925 0.966514 0.785215
Si Si2 0.776441 0.433466 0.444193
Si Si3 0.117744 0.450267 0.961077
Si Si4 0.184090 0.040513 0.246007
Si Si5 0.580748 0.365496 0.655000
Si Si6 0.656583 0.941319 0.873019
Si Si7 0.773420 0.770637 0.411841
O O1 0.273478 0.761728 0.674834
O O2 0.168120 0.128068 0.626412
O O3 0.500000 0.000000 0.000000
O O4 0.213481 0.991789 0.877501
O O5 0.594736 0.579510 0.392386
O O6 0.791106 0.550882 0.363921
O O7 0.965990 0.417518 0.705946
O O8 0.228887 0.601662 0.090113
O O9 0.304769 0.265532 0.097752
O O10 0.000000 0.500000 0.000000
O O11 0.336491 0.846765 0.379942
O O12 0.279865 0.093948 0.224803
O O13 0.127978 0.185958 0.352668
O O14 0.000000 0.000000 0.000000
O O15 0.500000 0.500000 0.500000
O O16 0.452002 0.103049 0.737726
#
# Coordination Sequence:
#
# PCOD9051912 Si02
#       7
#     2   2   2   2   2   2   2
#     4  10  25  48  75 106 146 194 249 300 368 446
#     4  12  25  46  74 105 148 195 244 307 367 440
#     4  12  25  43  69 111 147 188 247 303 370 439
#     4  12  25  42  69 108 142 186 244 305 363 435
#     4  12  23  41  69 105 146 191 239 302 369 431
#     4  11  24  46  69 101 145 188 238 304 365 433
#     4  11  24  47  75 106 143 190 247 303 371 439
#
# _framework density 26.309861000000001
#
# number of rings (size 3 to 8) (size 9 to 14) (size 15 to 20)
#    0.000    0.571    2.857    6.429    2.000    2.857 
#    2.571    0.714    0.000    0.000    0.000    0.000 
#    0.000    0.000    0.000    0.000    0.000    0.000 
#
# Total GULP energy -78282.931776 kJ/mol
# GULP energy per Si atom -5591.637984 kJ/mol
# Density = 2.624998 g / cm^3
# Si number density = 26.309861 Si / 1000 Ang^3
#
#
#
# Elastic Constant Matrix: (Units=GPa)
#
#
# Indices 1 2 3 4 5 6 
#
# 1 77.4075 26.5001 29.9407 -0.3191 -5.7822 -5.3523
# 2 26.5001 183.7050 54.6160 5.8902 -10.0853 31.5131
# 3 29.9407 54.6160 163.3353 10.2660 2.2578 16.5307
# 4 -0.3191 5.8902 10.2660 44.4314 -2.4603 -5.9480
# 5 -5.7822 -10.0853 2.2578 -2.4603 53.6979 -2.5293
# 6 -5.3523 31.5131 16.5307 -5.9480 -2.5293 29.3013
#
#
#
# Elastic Compliance Matrix: (Units=1/GPa)
#
#
# Indices 1 2 3 4 5 6 
#
# 1 0.015712 -0.002762 -0.002953 0.002350 0.001788 0.008137
# 2 -0.002762 0.007732 -0.001108 -0.001889 0.000714 -0.008517
# 3 -0.002953 -0.001108 0.007618 -0.002261 -0.001148 -0.004203
# 4 0.002350 -0.001889 -0.002261 0.024567 0.001536 0.008856
# 5 0.001788 0.000714 -0.001148 0.001536 0.019170 0.002173
# 6 0.008137 -0.008517 -0.004203 0.008856 0.002173 0.049131
#
#
# Mechanical properties :
#
#
# Convention : Reuss Voigt Hill
#
# Bulk Modulus (GPa) = 57.41745 71.84018 64.62881
# Shear Modulus (GPa) = 34.87217 46.37886 40.62552
#
# Velocity S-wave (km/s) = 3.64461 4.20312 3.93379
# Velocity P-wave (km/s) = 6.29141 7.13580 6.72687
#
# Compressibility (1/GPa) = 0.01741631
#
# Stress axis : x y z
#
# Youngs Moduli (GPa) = 63.64525 129.32927 131.27599
#
# Poissons Ratio (x) = 0.35718 0.38761
# Poissons Ratio (y) = 0.17577 0.14550
# Poissons Ratio (z) = 0.18792 0.14334
#
# Static dielectric constant tensor:
#      x y z
#    x 2.460120 0.321250 0.194500 
#    y 0.321250 2.516900 0.254110 
#    z 0.194500 0.254110 2.244330 
# 
# From -- ./inp_files/446374.got.cif
#   From: 2010.05.17/outbox.cif.g08.bks.cpg/sg2_224_cif.got.tgz:446374.got - 2010.06.03 11:33:40.
