data_PCOD9051507
_publ_section_title
;
Structure prediction by ZEFSAII (Michael W. Deem and Ramdas Pophale) SiO2 
 PCOD9051507
Probable space group: P -1
;
_chemical_formula_sum "Si O2"
_cell_formula_units_Z 16
_cell_length_a 9.046645
_cell_length_b 5.369321
_cell_length_c 23.608642
_cell_angle_alpha 93.012877
_cell_angle_beta 132.346702
_cell_angle_gamma 112.045406
_cell_volume 703.207981
_symmetry_space_group_name_H-M "P -1"
_symmetry_group_IT_number 2
_symmetry_cell_setting 'triclinic'
loop_
_space_group_symop_operation_xyz
x,y,z
-x,-y,-z
loop_
_atom_site_type_symbol
_atom_site_label
_atom_site_fract_x
_atom_site_fract_y
_atom_site_fract_z
Si Si1 0.550784 0.841013 0.674671
Si Si2 0.700085 0.160761 0.604286
Si Si3 0.478305 0.884952 0.225379
Si Si4 0.115880 0.320236 0.506374
Si Si5 0.837194 0.720201 0.823859
Si Si6 0.395164 0.182988 0.999312
Si Si7 0.270311 0.111213 0.090475
Si Si8 0.980014 0.841916 0.651073
O O1 0.387534 0.518299 0.599866
O O2 0.782171 0.860407 0.759317
O O3 0.580838 0.054532 0.634067
O O4 0.423755 0.843767 0.700007
O O5 0.859997 0.522270 0.647840
O O6 0.500000 0.000000 0.500000
O O7 0.866422 0.028870 0.640216
O O8 0.276526 0.630015 0.213623
O O9 0.322774 0.884076 0.132294
O O10 0.728763 0.946359 0.268301
O O11 0.093870 0.269201 0.433719
O O12 0.000000 0.500000 0.500000
O O13 0.000000 0.000000 0.500000
O O14 0.685755 0.681279 0.841982
O O15 0.111831 0.950002 0.912268
O O16 0.500000 0.500000 0.000000
O O17 0.426218 0.233497 0.075640
O O18 0.500000 0.000000 0.000000
O O19 0.000000 0.000000 0.000000
#
# Coordination Sequence:
#
# PCOD9051507 Si02
#       8
#     2   2   2   2   2   2   2   2
#     4  11  26  44  69 101 143 191 239 296 368 423
#     4  12  28  47  67 100 147 190 234 299 372 424
#     4  11  25  45  75 104 140 191 247 300 353 422
#     4  12  24  41  71 101 136 182 245 300 343 417
#     4  10  25  46  73 101 145 188 239 296 356 426
#     4  11  27  46  75 109 144 185 232 285 357 432
#     4   9  23  45  72 103 144 189 235 288 356 429
#     4  12  27  45  71 103 139 187 246 296 357 426
#
# _framework density 22.752870000000001
#
# number of rings (size 3 to 8) (size 9 to 14) (size 15 to 20)
#    0.000    1.000    2.500    1.875   12.250    3.000 
#    0.000    0.000    0.000    0.000    0.000    0.000 
#    0.000    0.000    0.000    0.000    0.000    0.000 
#
# Total GULP energy -89241.347035 kJ/mol
# GULP energy per Si atom -5577.584190 kJ/mol
# Density = 2.270108 g / cm^3
# Si number density = 22.752870 Si / 1000 Ang^3
#
#
#
# Elastic Constant Matrix: (Units=GPa)
#
#
# Indices 1 2 3 4 5 6 
#
# 1 96.2370 46.8887 25.7030 -18.2348 3.6872 1.0709
# 2 46.8887 159.9675 32.2116 -3.6428 11.3891 10.8825
# 3 25.7030 32.2116 104.9882 -11.7203 12.7352 12.8676
# 4 -18.2348 -3.6428 -11.7203 42.0566 11.3738 -1.0442
# 5 3.6872 11.3891 12.7352 11.3738 38.6929 -10.4784
# 6 1.0709 10.8825 12.8676 -1.0442 -10.4784 37.3182
#
#
#
# Elastic Compliance Matrix: (Units=1/GPa)
#
#
# Indices 1 2 3 4 5 6 
#
# 1 0.013611 -0.003534 -0.001648 0.005439 -0.001022 0.001073
# 2 -0.003534 0.007796 -0.001052 -0.000649 -0.002073 -0.002409
# 3 -0.001648 -0.001052 0.012135 0.004122 -0.006218 -0.005460
# 4 0.005439 -0.000649 0.004122 0.030274 -0.011612 -0.003801
# 5 -0.001022 -0.002073 -0.006218 -0.011612 0.035365 0.012383
# 6 0.001073 -0.002409 -0.005460 -0.003801 0.012383 0.032722
#
#
# Mechanical properties :
#
#
# Convention : Reuss Voigt Hill
#
# Bulk Modulus (GPa) = 47.45588 63.42215 55.43901
# Shear Modulus (GPa) = 33.02590 40.70618 36.86604
#
# Velocity S-wave (km/s) = 3.81400 4.23431 4.02964
# Velocity P-wave (km/s) = 6.34805 7.20005 6.78743
#
# Compressibility (1/GPa) = 0.02107221
#
# Stress axis : x y z
#
# Youngs Moduli (GPa) = 73.47052 128.27492 82.40713
#
# Poissons Ratio (x) = 0.45332 0.13583
# Poissons Ratio (y) = 0.25965 0.08672
# Poissons Ratio (z) = 0.12110 0.13500
#
# Static dielectric constant tensor:
#      x y z
#    x 1.941150 0.017880 0.082680 
#    y 0.017880 1.812900 -0.222300 
#    z 0.082680 -0.222300 1.589980 
# 
# From -- ./inp_files/605876.got.cif
#   From: 2010.05.17/outbox.cif.g08.bks.cpg/sg2_303_cif.got.tgz:605876.got - 2010.06.03 11:33:40.
