data_PCOD9051967
_publ_section_title
;
Structure prediction by ZEFSAII (Michael W. Deem and Ramdas Pophale) SiO2 
 PCOD9051967
Probable space group: P -1
;
_chemical_formula_sum "Si O2"
_cell_formula_units_Z 16
_cell_length_a 12.909027
_cell_length_b 19.039713
_cell_length_c 8.832331
_cell_angle_alpha 75.368100
_cell_angle_beta 35.772622
_cell_angle_gamma 49.012201
_cell_volume 741.158771
_symmetry_space_group_name_H-M "P -1"
_symmetry_group_IT_number 2
_symmetry_cell_setting 'triclinic'
loop_
_space_group_symop_operation_xyz
x,y,z
-x,-y,-z
loop_
_atom_site_type_symbol
_atom_site_label
_atom_site_fract_x
_atom_site_fract_y
_atom_site_fract_z
Si Si1 0.695338 0.633318 0.843230
Si Si2 0.101425 0.018524 0.722153
Si Si3 0.651263 0.790428 0.331269
Si Si4 0.298969 0.628893 0.249867
Si Si5 0.707576 0.621180 0.194021
Si Si6 0.722719 0.891884 0.668592
Si Si7 0.595689 0.133063 0.085348
Si Si8 0.287589 0.631592 0.624527
O O1 0.566288 0.753504 0.884812
O O2 0.000000 0.500000 0.500000
O O3 0.468049 0.650063 0.033719
O O4 0.741140 0.618219 0.976859
O O5 0.084452 0.110450 0.651729
O O6 0.447143 0.905008 0.404734
O O7 0.943691 0.032505 0.757022
O O8 0.000000 0.000000 0.000000
O O9 0.649805 0.715893 0.286328
O O10 0.529712 0.813739 0.627545
O O11 0.964040 0.724396 0.016013
O O12 0.278244 0.624567 0.457930
O O13 0.971626 0.753513 0.509750
O O14 0.500000 0.500000 0.000000
O O15 0.431666 0.657089 0.506717
O O16 0.000000 0.500000 0.000000
O O17 0.499967 0.915701 0.821787
O O18 0.500000 0.000000 0.000000
O O19 0.500000 0.500000 0.500000
#
# Coordination Sequence:
#
# PCOD9051967 Si02
#       8
#     2   2   2   2   2   2   2   2
#     4  11  24  42  69 105 146 188 243 299 371 445
#     4  10  25  49  71 103 145 193 251 304 374 438
#     4  11  25  44  71  99 143 187 243 301 374 431
#     4  11  26  45  73 111 148 191 244 310 373 442
#     4  11  24  42  67 101 140 186 238 297 372 437
#     4  12  27  47  78 110 151 198 254 310 378 450
#     4  11  26  46  74 104 143 195 251 306 371 449
#     4  11  25  42  67 106 144 188 240 300 372 451
#
# _framework density 21.587816
#
# number of rings (size 3 to 8) (size 9 to 14) (size 15 to 20)
#    0.000    1.000    2.500    2.250    8.750    8.500 
#    0.000    0.000    0.000    0.000    0.000    0.000 
#    0.000    0.000    0.000    0.000    0.000    0.000 
#
# Total GULP energy -89110.624657 kJ/mol
# GULP energy per Si atom -5569.414041 kJ/mol
# Density = 2.153868 g / cm^3
# Si number density = 21.587816 Si / 1000 Ang^3
#
#
#
# Elastic Constant Matrix: (Units=GPa)
#
#
# Indices 1 2 3 4 5 6 
#
# 1 88.1541 19.1253 24.6121 -8.5055 -64.8657 25.4864
# 2 19.1253 96.8512 15.3701 -2.0534 -31.9773 -4.8413
# 3 24.6121 15.3701 42.9155 4.6126 -0.2071 -21.9963
# 4 -8.5055 -2.0534 4.6126 31.9731 -0.5447 -15.4448
# 5 -64.8657 -31.9773 -0.2071 -0.5447 -18.4137 46.0271
# 6 25.4864 -4.8413 -21.9963 -15.4448 46.0271 17.2834
#
#
#
# Elastic Compliance Matrix: (Units=1/GPa)
#
#
# Indices 1 2 3 4 5 6 
#
# 1 0.006981 -0.002585 -0.000494 0.004599 -0.005103 0.006053
# 2 -0.002585 0.011681 -0.000369 0.002594 0.001447 0.005080
# 3 -0.000494 -0.000369 0.025715 -0.002059 0.010569 0.003367
# 4 0.004599 0.002594 -0.002059 0.038337 0.005502 0.010930
# 5 -0.005103 0.001447 0.010569 0.005502 0.003476 0.017042
# 6 0.006053 0.005080 0.003367 0.010930 0.017042 0.019022
#
#
# Mechanical properties :
#
#
# Convention : Reuss Voigt Hill
#
# Bulk Modulus (GPa) = 26.68079 38.45952 32.57015
# Shear Modulus (GPa) = 40.12763 17.42278 28.77520
#
# Velocity S-wave (km/s) = 4.31607 2.84397 3.65490
# Velocity P-wave (km/s) = 6.10114 5.35148 5.73856
#
# Compressibility (1/GPa) = 0.03748015
#
# Stress axis : x y z
#
# Youngs Moduli (GPa) = 143.24217 85.61117 38.88767
#
# Poissons Ratio (x) = 0.22131 0.01922
# Poissons Ratio (y) = 0.37028 0.01435
# Poissons Ratio (z) = 0.07081 0.03160
#
# Static dielectric constant tensor:
#      x y z
#    x 1.811210 0.022080 -0.046170 
#    y 0.022080 1.675470 -0.087900 
#    z -0.046170 -0.087900 1.955060 
# 
# From -- ./inp_files/279356.got.cif
#   From: 2010.05.17/outbox.cif.g08.bks.cpg/sg2_140_cif.got.tgz:279356.got - 2010.06.03 11:33:40.
