data_PCOD9051761
_publ_section_title
;
Structure prediction by ZEFSAII (Michael W. Deem and Ramdas Pophale) SiO2 
 PCOD9051761
Probable space group: P -1
;
_chemical_formula_sum "Si O2"
_cell_formula_units_Z 11
_cell_length_a 5.259013
_cell_length_b 8.033583
_cell_length_c 14.662188
_cell_angle_alpha 49.947507
_cell_angle_beta 53.763160
_cell_angle_gamma 62.214571
_cell_volume 378.745179
_symmetry_space_group_name_H-M "P -1"
_symmetry_group_IT_number 2
_symmetry_cell_setting 'triclinic'
loop_
_space_group_symop_operation_xyz
x,y,z
-x,-y,-z
loop_
_atom_site_type_symbol
_atom_site_label
_atom_site_fract_x
_atom_site_fract_y
_atom_site_fract_z
Si Si1 0.249031 0.542160 0.236501
Si Si2 0.850095 0.204662 0.211944
Si Si3 0.500000 0.500000 0.500000
Si Si4 0.377249 0.854190 0.243694
Si Si5 0.252265 0.722200 0.983904
Si Si6 0.158465 0.767115 0.586040
O O1 0.482379 0.314166 0.246998
O O2 0.443721 0.688610 0.204217
O O3 0.940578 0.445663 0.376099
O O4 0.128381 0.690180 0.122920
O O5 0.963893 0.273059 0.062640
O O6 0.930125 0.263773 0.278709
O O7 0.010462 0.955742 0.267424
O O8 0.416303 0.721429 0.374045
O O9 0.524140 0.680526 0.524187
O O10 0.571107 0.062310 0.129780
O O11 0.500000 0.500000 0.000000
O O12 0.000000 0.000000 0.500000
#
# Coordination Sequence:
#
# PCOD9051761 Si02
#       6
#     2   2   1   2   2   2
#     4  11  27  46  74 111 142 190 241 296 362 426
#     4  11  24  46  76 104 146 188 234 296 362 421
#     4  12  28  48  72 106 150 186 250 292 356 426
#     4  12  26  47  74 109 148 190 238 297 355 432
#     4  10  25  47  75 109 146 186 241 295 362 430
#     4  12  27  48  74 104 146 194 242 297 356 428
#
# _framework density 29.043272999999999
#
# number of rings (size 3 to 8) (size 9 to 14) (size 15 to 20)
#    0.000    0.727    3.636    2.727    2.545   10.182 
#    0.000    0.000    0.000    0.000    0.000    0.000 
#    0.000    0.000    0.000    0.000    0.000    0.000 
#
# Total GULP energy -61295.145384 kJ/mol
# GULP energy per Si atom -5572.285944 kJ/mol
# Density = 2.897717 g / cm^3
# Si number density = 29.043273 Si / 1000 Ang^3
#
#
#
# Elastic Constant Matrix: (Units=GPa)
#
#
# Indices 1 2 3 4 5 6 
#
# 1 129.0675 45.2524 94.3741 -23.7864 24.9988 11.6814
# 2 45.2524 149.5893 69.0692 -24.5237 11.7308 -19.2946
# 3 94.3741 69.0692 261.1781 -29.0296 18.4265 32.2030
# 4 -23.7864 -24.5237 -29.0296 61.3918 0.3434 19.3498
# 5 24.9988 11.7308 18.4265 0.3434 69.3265 -4.3556
# 6 11.6814 -19.2946 32.2030 19.3498 -4.3556 61.3131
#
#
#
# Elastic Compliance Matrix: (Units=1/GPa)
#
#
# Indices 1 2 3 4 5 6 
#
# 1 0.012063 -0.001807 -0.002930 0.003422 -0.003449 -0.002653
# 2 -0.001807 0.008825 -0.002120 0.000543 -0.000026 0.004061
# 3 -0.002930 -0.002120 0.006250 0.002284 -0.000518 -0.004149
# 4 0.003422 0.000543 0.002284 0.021669 -0.002587 -0.008703
# 5 -0.003449 -0.000026 -0.000518 -0.002587 0.016004 0.002874
# 6 -0.002653 0.004061 -0.004149 -0.008703 0.002874 0.023223
#
#
# Mechanical properties :
#
#
# Convention : Reuss Voigt Hill
#
# Bulk Modulus (GPa) = 74.48952 106.35847 90.42400
# Shear Modulus (GPa) = 47.07145 60.48223 53.77684
#
# Velocity S-wave (km/s) = 4.03020 4.56838 4.30770
# Velocity P-wave (km/s) = 6.88187 8.03287 7.47954
#
# Compressibility (1/GPa) = 0.01342471
#
# Stress axis : x y z
#
# Youngs Moduli (GPa) = 82.90094 113.31303 159.99788
#
# Poissons Ratio (x) = 0.20474 0.46882
# Poissons Ratio (y) = 0.14979 0.33912
# Poissons Ratio (z) = 0.24291 0.24017
#
# Static dielectric constant tensor:
#      x y z
#    x 2.456060 -0.202590 -0.281220 
#    y -0.202590 2.748590 0.515220 
#    z -0.281220 0.515220 2.528770 
# 
# From -- ./inp_files/88269.got.cif
#   From: 2010.05.17/outbox.cif.g08.bks.cpg/sg2_45_cif.got.tgz:88269.got - 2010.06.03 11:33:40.
