data_PCOD9051144
_publ_section_title
;
Structure prediction by ZEFSAII (Michael W. Deem and Ramdas Pophale) SiO2 
 PCOD9051144
Probable space group: P -1
;
_chemical_formula_sum "Si O2"
_cell_formula_units_Z 12
_cell_length_a 11.862079
_cell_length_b 11.065214
_cell_length_c 9.320454
_cell_angle_alpha 69.841078
_cell_angle_beta 117.477337
_cell_angle_gamma 155.006889
_cell_volume 449.658790
_symmetry_space_group_name_H-M "P -1"
_symmetry_group_IT_number 2
_symmetry_cell_setting 'triclinic'
loop_
_space_group_symop_operation_xyz
x,y,z
-x,-y,-z
loop_
_atom_site_type_symbol
_atom_site_label
_atom_site_fract_x
_atom_site_fract_y
_atom_site_fract_z
Si Si1 0.757903 0.963697 0.834219
Si Si2 0.381731 0.666332 0.476081
Si Si3 0.134416 0.120792 0.819809
Si Si4 0.569531 0.438079 0.721295
Si Si5 0.807365 0.256747 0.362680
Si Si6 0.855818 0.469150 0.036720
O O1 0.485482 0.743495 0.666969
O O2 0.703128 0.803605 0.984785
O O3 0.000375 0.128582 0.800365
O O4 0.895868 0.212053 0.887401
O O5 0.491549 0.654532 0.439864
O O6 0.039047 0.366300 0.388108
O O7 0.537629 0.937970 0.401170
O O8 0.864955 0.783523 0.767120
O O9 0.329563 0.298554 0.722304
O O10 0.626311 0.353011 0.870867
O O11 0.730097 0.280335 0.177265
O O12 0.000000 0.500000 0.500000
O O13 0.000000 0.500000 0.000000
#
# Coordination Sequence:
#
# PCOD9051144 Si02
#       6
#     2   2   2   2   2   2
#     4  10  25  45  71 101 135 182 226 283 337 401
#     4  12  26  43  69 103 139 176 227 279 341 398
#     4  10  25  47  71  98 136 179 232 276 337 401
#     4  11  25  45  71 102 135 180 225 282 334 403
#     4  12  26  43  66 104 140 181 223 275 340 407
#     4  11  24  45  71 102 139 180 224 279 339 407
#
# _framework density 26.686902
#
# number of rings (size 3 to 8) (size 9 to 14) (size 15 to 20)
#    0.000    1.000    3.333    1.500    4.667   10.667 
#    0.000    0.000    0.000    0.000    0.000    0.000 
#    0.000    0.000    0.000    0.000    0.000    0.000 
#
# Total GULP energy -67467.297760 kJ/mol
# GULP energy per Si atom -5622.274813 kJ/mol
# Density = 2.662616 g / cm^3
# Si number density = 26.686902 Si / 1000 Ang^3
#
#
#
# Elastic Constant Matrix: (Units=GPa)
#
#
# Indices 1 2 3 4 5 6 
#
# 1 145.2959 25.9543 29.5315 2.8192 -29.9502 -4.5855
# 2 25.9543 104.1043 27.3113 -14.4300 -0.5321 4.8597
# 3 29.5315 27.3113 121.7638 -9.0355 -0.8954 -7.5955
# 4 2.8192 -14.4300 -9.0355 33.3141 -2.5671 -5.9252
# 5 -29.9502 -0.5321 -0.8954 -2.5671 55.7426 4.5912
# 6 -4.5855 4.8597 -7.5955 -5.9252 4.5912 42.5084
#
#
#
# Elastic Compliance Matrix: (Units=1/GPa)
#
#
# Indices 1 2 3 4 5 6 
#
# 1 0.008522 -0.001882 -0.001727 -0.001641 0.004448 0.000117
# 2 -0.001882 0.011192 -0.001814 0.004262 -0.000643 -0.001143
# 3 -0.001727 -0.001814 0.009325 0.002194 -0.000866 0.002087
# 4 -0.001641 0.004262 0.002194 0.033399 0.000375 0.004343
# 5 0.004448 -0.000643 -0.000866 0.000375 0.020472 -0.001760
# 6 0.000117 -0.001143 0.002087 0.004343 -0.001760 0.024836
#
#
# Mechanical properties :
#
#
# Convention : Reuss Voigt Hill
#
# Bulk Modulus (GPa) = 54.96216 59.63979 57.30098
# Shear Modulus (GPa) = 40.11117 45.53748 42.82433
#
# Velocity S-wave (km/s) = 3.88110 4.13529 4.01021
# Velocity P-wave (km/s) = 6.38152 6.72290 6.55443
#
# Compressibility (1/GPa) = 0.01819434
#
# Stress axis : x y z
#
# Youngs Moduli (GPa) = 117.34371 89.35310 107.24164
#
# Poissons Ratio (x) = 0.16815 0.18516
# Poissons Ratio (y) = 0.22082 0.19449
# Poissons Ratio (z) = 0.20260 0.16205
#
# Static dielectric constant tensor:
#      x y z
#    x 2.120700 -0.015930 0.028150 
#    y -0.015930 1.995080 -0.020680 
#    z 0.028150 -0.020680 2.063120 
# 
# From -- ./inp_files/228806.got.cif
#   From: 2010.05.17/outbox.cif.g08.bks.cpg/sg2_115_cif.got.tgz:228806.got - 2010.06.03 11:33:40.
