data_PCOD9051424
_publ_section_title
;
Structure prediction by ZEFSAII (Michael W. Deem and Ramdas Pophale) SiO2 
 PCOD9051424
Probable space group: P -1
;
_chemical_formula_sum "Si O2"
_cell_formula_units_Z 14
_cell_length_a 9.561234
_cell_length_b 5.332995
_cell_length_c 24.335933
_cell_angle_alpha 96.771112
_cell_angle_beta 152.359972
_cell_angle_gamma 81.886098
_cell_volume 569.835871
_symmetry_space_group_name_H-M "P -1"
_symmetry_group_IT_number 2
_symmetry_cell_setting 'triclinic'
loop_
_space_group_symop_operation_xyz
x,y,z
-x,-y,-z
loop_
_atom_site_type_symbol
_atom_site_label
_atom_site_fract_x
_atom_site_fract_y
_atom_site_fract_z
Si Si1 0.094674 0.237091 0.746308
Si Si2 0.809033 0.222063 0.360281
Si Si3 0.646051 0.070373 0.866367
Si Si4 0.754768 0.930458 0.701282
Si Si5 0.163037 0.690051 0.461113
Si Si6 0.149882 0.556593 0.879743
Si Si7 0.637397 0.356579 0.754056
O O1 0.055086 0.440284 0.785760
O O2 0.911026 0.300271 0.629024
O O3 0.447987 0.198874 0.850575
O O4 0.943018 0.003071 0.715474
O O5 0.560690 0.162057 0.225611
O O6 0.590821 0.393978 0.328972
O O7 0.048131 0.422451 0.432526
O O8 0.966211 0.944854 0.422268
O O9 0.615587 0.240202 0.804348
O O10 0.000000 0.000000 0.000000
O O11 0.504660 0.744440 0.592698
O O12 0.010579 0.840425 0.832798
O O13 0.584743 0.161919 0.681874
O O14 0.975747 0.435697 0.865199
O O15 0.500000 0.500000 0.000000
#
# Coordination Sequence:
#
# PCOD9051424 Si02
#       7
#     2   2   2   2   2   2   2
#     4  10  25  46  70 113 141 201 246 319 370 446
#     4  11  24  48  72 115 146 191 249 314 375 437
#     4  11  26  46  78 109 149 199 256 314 376 446
#     4  11  27  47  73 110 151 207 247 310 380 448
#     4  11  26  47  80 110 155 194 259 312 374 448
#     4  11  28  45  74 106 156 200 254 310 377 453
#     4  11  25  48  71 110 152 196 256 304 387 445
#
# _framework density 24.568479
#
# number of rings (size 3 to 8) (size 9 to 14) (size 15 to 20)
#    0.000    1.143    2.857    1.286   14.000    3.429 
#    0.000    0.000    0.000    0.000    0.000    0.000 
#    0.000    0.000    0.000    0.000    0.000    0.000 
#
# Total GULP energy -78227.185576 kJ/mol
# GULP energy per Si atom -5587.656113 kJ/mol
# Density = 2.451256 g / cm^3
# Si number density = 24.568479 Si / 1000 Ang^3
#
#
#
# Elastic Constant Matrix: (Units=GPa)
#
#
# Indices 1 2 3 4 5 6 
#
# 1 130.5521 35.6971 28.8460 -9.2276 27.4230 14.2185
# 2 35.6971 98.2392 33.8569 -11.7114 13.5524 3.2636
# 3 28.8460 33.8569 141.8627 -23.2862 34.3235 7.0571
# 4 -9.2276 -11.7114 -23.2862 23.8453 -2.9100 3.9202
# 5 27.4230 13.5524 34.3235 -2.9100 36.7132 3.8646
# 6 14.2185 3.2636 7.0571 3.9202 3.8646 36.5250
#
#
#
# Elastic Compliance Matrix: (Units=1/GPa)
#
#
# Indices 1 2 3 4 5 6 
#
# 1 0.010236 -0.002568 0.000937 0.003355 -0.006933 -0.003563
# 2 -0.002568 0.012182 -0.001660 0.003282 -0.000763 -0.000040
# 3 0.000937 -0.001660 0.011320 0.009827 -0.009635 -0.002439
# 4 0.003355 0.003282 0.009827 0.054921 -0.007648 -0.008583
# 5 -0.006933 -0.000763 -0.009635 -0.007648 0.040982 0.001113
# 6 -0.003563 -0.000040 -0.002439 -0.008583 0.001113 0.030044
#
#
# Mechanical properties :
#
#
# Convention : Reuss Voigt Hill
#
# Bulk Modulus (GPa) = 36.82350 63.05043 49.93696
# Shear Modulus (GPa) = 28.51915 37.56697 33.04306
#
# Velocity S-wave (km/s) = 3.41075 3.91458 3.67132
# Velocity P-wave (km/s) = 5.52554 6.79343 6.19202
#
# Compressibility (1/GPa) = 0.02715657
#
# Stress axis : x y z
#
# Youngs Moduli (GPa) = 97.69114 82.08728 88.33691
#
# Poissons Ratio (x) = 0.21078 -0.08274
# Poissons Ratio (y) = 0.25084 0.14665
# Poissons Ratio (z) = -0.09150 0.13627
#
# Static dielectric constant tensor:
#      x y z
#    x 1.968750 -0.016970 0.001580 
#    y -0.016970 2.112910 -0.020790 
#    z 0.001580 -0.020790 1.960690 
# 
# From -- ./inp_files/77065.got.cif
#   From: 2010.05.17/outbox.cif.g08.bks.cpg/sg2_39_cif.got.tgz:77065.got - 2010.06.03 11:33:40.
