data_PCOD9051943
_publ_section_title
;
Structure prediction by ZEFSAII (Michael W. Deem and Ramdas Pophale) SiO2 
 PCOD9051943
Probable space group: P -1
;
_chemical_formula_sum "Si O2"
_cell_formula_units_Z 12
_cell_length_a 10.858034
_cell_length_b 8.651822
_cell_length_c 9.110959
_cell_angle_alpha 134.596039
_cell_angle_beta 70.106199
_cell_angle_gamma 126.801777
_cell_volume 483.139980
_symmetry_space_group_name_H-M "P -1"
_symmetry_group_IT_number 2
_symmetry_cell_setting 'triclinic'
loop_
_space_group_symop_operation_xyz
x,y,z
-x,-y,-z
loop_
_atom_site_type_symbol
_atom_site_label
_atom_site_fract_x
_atom_site_fract_y
_atom_site_fract_z
Si Si1 0.331156 0.295548 0.994835
Si Si2 0.269140 0.538582 0.786546
Si Si3 0.109524 0.476873 0.101235
Si Si4 0.865907 0.304975 0.307391
Si Si5 0.162117 0.007205 0.431671
Si Si6 0.592172 0.727047 0.732249
O O1 0.256185 0.989327 0.786519
O O2 0.500000 0.500000 0.000000
O O3 0.226483 0.398281 0.052201
O O4 0.342831 0.326104 0.185890
O O5 0.217399 0.568800 0.663303
O O6 0.266548 0.278420 0.649453
O O7 0.451021 0.751570 0.867759
O O8 0.141922 0.512309 0.936610
O O9 0.954515 0.272202 0.112318
O O10 0.143274 0.750388 0.327427
O O11 0.000000 0.500000 0.500000
O O12 0.257943 0.058465 0.275786
O O13 0.000000 0.000000 0.500000
O O14 0.500000 0.500000 0.500000
#
# Coordination Sequence:
#
# PCOD9051943 Si02
#       6
#     2   2   2   2   2   2
#     4  12  28  52  79 119 165 207 273 336 409 485
#     4  11  25  51  78 114 158 212 273 329 411 483
#     4  12  27  47  81 114 158 213 264 338 408 479
#     4  12  30  49  79 117 164 214 271 337 404 481
#     4  11  25  45  78 115 156 203 273 321 403 484
#     4  10  25  48  80 114 158 211 265 336 399 484
#
# _framework density 24.837523000000001
#
# number of rings (size 3 to 8) (size 9 to 14) (size 15 to 20)
#    0.000    0.667    3.333    2.000   11.667    1.333 
#    0.000    4.167    0.000    0.000    0.000    0.000 
#    0.000    0.000    0.000    0.000    0.000    0.000 
#
# Total GULP energy -66855.095090 kJ/mol
# GULP energy per Si atom -5571.257924 kJ/mol
# Density = 2.478099 g / cm^3
# Si number density = 24.837523 Si / 1000 Ang^3
#
#
#
# Elastic Constant Matrix: (Units=GPa)
#
#
# Indices 1 2 3 4 5 6 
#
# 1 84.0700 36.0816 20.0794 -7.3932 13.7967 -6.9772
# 2 36.0816 191.0383 58.9049 1.6186 0.5862 9.6059
# 3 20.0794 58.9049 109.6667 18.3878 14.8147 -13.1215
# 4 -7.3932 1.6186 18.3878 59.7338 -1.0255 -21.8796
# 5 13.7967 0.5862 14.8147 -1.0255 36.5091 -18.2525
# 6 -6.9772 9.6059 -13.1215 -21.8796 -18.2525 54.3712
#
#
#
# Elastic Compliance Matrix: (Units=1/GPa)
#
#
# Indices 1 2 3 4 5 6 
#
# 1 0.014235 -0.002489 -0.000974 0.002717 -0.003972 0.001791
# 2 -0.002489 0.006936 -0.003674 -0.000086 0.001304 -0.002028
# 3 -0.000974 -0.003674 0.012577 -0.003780 -0.004523 0.000520
# 4 0.002717 -0.000086 -0.003780 0.022213 0.006401 0.010540
# 5 -0.003972 0.001304 -0.004523 0.006401 0.037562 0.013354
# 6 0.001791 -0.002028 0.000520 0.010540 0.013354 0.027830
#
#
# Mechanical properties :
#
#
# Convention : Reuss Voigt Hill
#
# Bulk Modulus (GPa) = 51.35085 68.32298 59.83692
# Shear Modulus (GPa) = 35.18116 48.10341 41.64229
#
# Velocity S-wave (km/s) = 3.76766 4.40560 4.09906
# Velocity P-wave (km/s) = 6.29656 7.31073 6.82251
#
# Compressibility (1/GPa) = 0.01947387
#
# Stress axis : x y z
#
# Youngs Moduli (GPa) = 70.24761 144.16710 79.50709
#
# Poissons Ratio (x) = 0.35886 0.07744
# Poissons Ratio (y) = 0.17486 0.29214
# Poissons Ratio (z) = 0.06842 0.52973
#
# Static dielectric constant tensor:
#      x y z
#    x 2.021360 0.044220 0.006160 
#    y 0.044220 2.046140 -0.006750 
#    z 0.006160 -0.006750 2.111350 
# 
# From -- ./inp_files/241303.got.cif
#   From: 2010.05.17/outbox.cif.g08.bks.cpg/sg2_121_cif.got.tgz:241303.got - 2010.06.03 11:33:40.
