data_PCOD9051067
_publ_section_title
;
Structure prediction by ZEFSAII (Michael W. Deem and Ramdas Pophale) SiO2 
 PCOD9051067
Probable space group: P -1
;
_chemical_formula_sum "Si O2"
_cell_formula_units_Z 14
_cell_length_a 9.456806
_cell_length_b 9.692579
_cell_length_c 13.512078
_cell_angle_alpha 102.577671
_cell_angle_beta 47.959370
_cell_angle_gamma 130.053338
_cell_volume 652.698956
_symmetry_space_group_name_H-M "P -1"
_symmetry_group_IT_number 2
_symmetry_cell_setting 'triclinic'
loop_
_space_group_symop_operation_xyz
x,y,z
-x,-y,-z
loop_
_atom_site_type_symbol
_atom_site_label
_atom_site_fract_x
_atom_site_fract_y
_atom_site_fract_z
Si Si1 0.807822 0.899733 0.814602
Si Si2 0.258905 0.540699 0.360783
Si Si3 0.011282 0.858985 0.531090
Si Si4 0.000091 0.361445 0.045146
Si Si5 0.688287 0.390393 0.878291
Si Si6 0.580281 0.021526 0.792755
Si Si7 0.165154 0.165339 0.863548
O O1 0.987714 0.891494 0.661233
O O2 0.653053 0.204366 0.842209
O O3 0.583718 0.709950 0.955100
O O4 0.993814 0.074962 0.831136
O O5 0.220554 0.372907 0.409762
O O6 0.264893 0.521155 0.236945
O O7 0.546738 0.750152 0.278576
O O8 0.000000 0.500000 0.500000
O O9 0.259469 0.910929 0.373742
O O10 0.000000 0.000000 0.500000
O O11 0.200813 0.343883 0.912009
O O12 0.079650 0.450494 0.131268
O O13 0.719900 0.146718 0.123856
O O14 0.000000 0.500000 0.000000
O O15 0.660934 0.934771 0.815361
O O16 0.000000 0.000000 0.000000
#
# Coordination Sequence:
#
# PCOD9051067 Si02
#       7
#     2   2   2   2   2   2   2
#     4  11  22  43  72 100 145 185 235 295 361 418
#     4  12  26  47  70 102 149 188 239 300 359 428
#     4  10  25  45  68  98 144 187 233 298 360 421
#     4  12  25  41  75 109 139 187 248 291 358 432
#     4  12  23  43  73 104 139 193 240 294 358 422
#     4  11  22  47  68 106 151 182 233 310 354 427
#     4  12  26  44  70 110 145 187 239 300 361 425
#
# _framework density 21.449399
#
# number of rings (size 3 to 8) (size 9 to 14) (size 15 to 20)
#    0.000    0.571    5.714    2.143    4.000    2.286 
#    0.000    2.857    0.000    0.000    0.000    0.000 
#    0.000    0.000    0.000    0.000    0.000    0.000 
#
# Total GULP energy -78187.973431 kJ/mol
# GULP energy per Si atom -5584.855245 kJ/mol
# Density = 2.140058 g / cm^3
# Si number density = 21.449399 Si / 1000 Ang^3
#
#
#
# Elastic Constant Matrix: (Units=GPa)
#
#
# Indices 1 2 3 4 5 6 
#
# 1 107.7659 31.5404 39.0568 -2.0728 -4.4789 25.7474
# 2 31.5404 99.8707 36.7047 -2.1612 -4.4133 5.6454
# 3 39.0568 36.7047 163.4327 4.9384 -7.6111 2.8933
# 4 -2.0728 -2.1612 4.9384 42.2010 2.4352 12.0472
# 5 -4.4789 -4.4133 -7.6111 2.4352 34.2022 -1.7373
# 6 25.7474 5.6454 2.8933 12.0472 -1.7373 39.7785
#
#
#
# Elastic Compliance Matrix: (Units=1/GPa)
#
#
# Indices 1 2 3 4 5 6 
#
# 1 0.013175 -0.002661 -0.002487 0.003358 0.000133 -0.008981
# 2 -0.002661 0.011615 -0.001962 0.000640 0.000671 0.000052
# 3 -0.002487 -0.001962 0.007229 -0.001691 0.001248 0.001929
# 4 0.003358 0.000640 -0.001691 0.027219 -0.002325 -0.010486
# 5 0.000133 0.000671 0.001248 -0.002325 0.029873 0.001737
# 6 -0.008981 0.000052 0.001929 -0.010486 0.001737 0.034056
#
#
# Mechanical properties :
#
#
# Convention : Reuss Voigt Hill
#
# Bulk Modulus (GPa) = 56.18113 65.07478 60.62796
# Shear Modulus (GPa) = 34.88691 40.82084 37.85388
#
# Velocity S-wave (km/s) = 4.03733 4.36721 4.20551
# Velocity P-wave (km/s) = 6.92695 7.47226 7.20477
#
# Compressibility (1/GPa) = 0.01779957
#
# Stress axis : x y z
#
# Youngs Moduli (GPa) = 75.89969 86.09759 138.33556
#
# Poissons Ratio (x) = 0.22907 0.34409
# Poissons Ratio (y) = 0.20194 0.27137
# Poissons Ratio (z) = 0.18879 0.16890
#
# Static dielectric constant tensor:
#      x y z
#    x 1.773800 -0.033460 -0.026490 
#    y -0.033460 1.847280 -0.017200 
#    z -0.026490 -0.017200 1.804120 
# 
# From -- ./inp_files/513328.got.cif
#   From: 2010.05.17/outbox.cif.g08.bks.cpg/sg2_257_cif.got.tgz:513328.got - 2010.06.03 11:33:40.
