data_PCOD9051167
_publ_section_title
;
Structure prediction by ZEFSAII (Michael W. Deem and Ramdas Pophale) SiO2 
 PCOD9051167
Probable space group: P -1
;
_chemical_formula_sum "Si O2"
_cell_formula_units_Z 14
_cell_length_a 4.835262
_cell_length_b 16.369506
_cell_length_c 10.074362
_cell_angle_alpha 128.794591
_cell_angle_beta 64.171125
_cell_angle_gamma 110.320289
_cell_volume 556.253778
_symmetry_space_group_name_H-M "P -1"
_symmetry_group_IT_number 2
_symmetry_cell_setting 'triclinic'
loop_
_space_group_symop_operation_xyz
x,y,z
-x,-y,-z
loop_
_atom_site_type_symbol
_atom_site_label
_atom_site_fract_x
_atom_site_fract_y
_atom_site_fract_z
Si Si1 0.204226 0.913997 0.491785
Si Si2 0.863895 0.216117 0.891098
Si Si3 0.774872 0.459691 0.125359
Si Si4 0.143123 0.541762 0.372988
Si Si5 0.245990 0.043663 0.192996
Si Si6 0.282069 0.787656 0.622735
Si Si7 0.189768 0.141433 0.992643
O O1 0.121720 0.832843 0.307255
O O2 0.254945 0.844097 0.542897
O O3 0.900239 0.974118 0.646061
O O4 0.500000 0.000000 0.500000
O O5 0.550667 0.157307 0.959402
O O6 0.128198 0.197485 0.922653
O O7 0.818862 0.338272 0.016281
O O8 0.417787 0.476363 0.197767
O O9 0.878287 0.525771 0.302052
O O10 0.000000 0.500000 0.000000
O O11 0.273838 0.663534 0.480736
O O12 0.000000 0.500000 0.500000
O O13 0.418495 0.159786 0.307649
O O14 0.938904 0.980243 0.124527
O O15 0.500000 0.000000 0.000000
O O16 0.996188 0.810598 0.801277
#
# Coordination Sequence:
#
# PCOD9051167 Si02
#       7
#     2   2   2   2   2   2   2
#     4  12  26  46  75 110 152 188 248 301 368 447
#     4  12  26  46  76 106 152 193 248 300 380 432
#     4  12  27  48  72 108 151 195 244 314 375 435
#     4  12  27  50  77 110 146 194 260 310 360 435
#     4  10  25  45  71 105 149 188 243 293 370 439
#     4  11  27  44  78 106 146 200 247 305 369 434
#     4  11  26  47  73 109 148 196 242 302 369 451
#
# _framework density 25.168371
#
# number of rings (size 3 to 8) (size 9 to 14) (size 15 to 20)
#    0.000    0.571    1.429    5.143   10.000    2.286 
#    0.000    0.000    0.000    0.000    0.000    0.000 
#    0.000    0.000    0.000    0.000    0.000    0.000 
#
# Total GULP energy -78309.926206 kJ/mol
# GULP energy per Si atom -5593.566158 kJ/mol
# Density = 2.511109 g / cm^3
# Si number density = 25.168371 Si / 1000 Ang^3
#
#
#
# Elastic Constant Matrix: (Units=GPa)
#
#
# Indices 1 2 3 4 5 6 
#
# 1 78.3757 24.4732 9.4629 -5.6625 0.4757 3.3415
# 2 24.4732 157.3786 66.4508 11.2814 0.5444 -10.2823
# 3 9.4629 66.4508 150.8203 -5.8524 4.6970 -7.0104
# 4 -5.6625 11.2814 -5.8524 62.4176 8.1844 -2.6441
# 5 0.4757 0.5444 4.6970 8.1844 51.9416 -8.0154
# 6 3.3415 -10.2823 -7.0104 -2.6441 -8.0154 49.4492
#
#
#
# Elastic Compliance Matrix: (Units=1/GPa)
#
#
# Indices 1 2 3 4 5 6 
#
# 1 0.013681 -0.002441 0.000238 0.001725 -0.000610 -0.001405
# 2 -0.002441 0.008516 -0.003641 -0.002149 0.000823 0.001438
# 3 0.000238 -0.003641 0.008326 0.001595 -0.000915 0.000344
# 4 0.001725 -0.002149 0.001595 0.017089 -0.002812 0.000121
# 5 -0.000610 0.000823 -0.000915 -0.002812 0.020272 0.003218
# 6 -0.001405 0.001438 0.000344 0.000121 0.003218 0.021194
#
#
# Mechanical properties :
#
#
# Convention : Reuss Voigt Hill
#
# Bulk Modulus (GPa) = 53.09518 65.26095 59.17806
# Shear Modulus (GPa) = 46.70909 51.84087 49.27498
#
# Velocity S-wave (km/s) = 4.31265 4.54338 4.42952
# Velocity P-wave (km/s) = 6.77793 7.31500 7.05158
#
# Compressibility (1/GPa) = 0.01883410
#
# Stress axis : x y z
#
# Youngs Moduli (GPa) = 73.09485 117.42096 120.10277
#
# Poissons Ratio (x) = 0.28665 -0.02856
# Poissons Ratio (y) = 0.17844 0.43733
# Poissons Ratio (z) = -0.01738 0.42756
#
# Static dielectric constant tensor:
#      x y z
#    x 2.163110 -0.198270 -0.113480 
#    y -0.198270 2.064320 -0.002430 
#    z -0.113480 -0.002430 2.009950 
# 
# From -- ./inp_files/116620.got.cif
#   From: 2010.05.17/outbox.cif.g08.bks.cpg/sg2_59_cif.got.tgz:116620.got - 2010.06.03 11:33:40.
