data_PCOD9051093
_publ_section_title
;
Structure prediction by ZEFSAII (Michael W. Deem and Ramdas Pophale) SiO2 
 PCOD9051093
Probable space group: P -1
;
_chemical_formula_sum "Si O2"
_cell_formula_units_Z 12
_cell_length_a 9.090697
_cell_length_b 5.255644
_cell_length_c 9.673500
_cell_angle_alpha 89.697179
_cell_angle_beta 72.906921
_cell_angle_gamma 75.929427
_cell_volume 427.413430
_symmetry_space_group_name_H-M "P -1"
_symmetry_group_IT_number 2
_symmetry_cell_setting 'triclinic'
loop_
_space_group_symop_operation_xyz
x,y,z
-x,-y,-z
loop_
_atom_site_type_symbol
_atom_site_label
_atom_site_fract_x
_atom_site_fract_y
_atom_site_fract_z
Si Si1 0.111226 0.311770 0.578851
Si Si2 0.258997 0.881560 0.366771
Si Si3 0.088273 0.277126 0.175658
Si Si4 0.312786 0.587711 0.078910
Si Si5 0.227226 0.854190 0.838842
Si Si6 0.378394 0.298419 0.667023
O O1 0.144037 0.004294 0.528103
O O2 0.287551 0.358549 0.544471
O O3 0.000000 0.500000 0.500000
O O4 0.022194 0.437569 0.741282
O O5 0.188617 0.115477 0.275314
O O6 0.275927 0.646170 0.251305
O O7 0.435292 0.829558 0.378938
O O8 0.218896 0.379285 0.053461
O O9 0.952049 0.150259 0.152887
O O10 0.500000 0.500000 0.000000
O O11 0.248621 0.839344 0.998391
O O12 0.337354 0.576984 0.754061
O O13 0.295384 0.083694 0.755950
#
# Coordination Sequence:
#
# PCOD9051093 Si02
#       6
#     2   2   2   2   2   2
#     4   9  22  49  73 106 140 186 244 298 360 428
#     4  11  24  43  75 103 146 193 233 302 359 427
#     4  10  25  45  69 107 139 192 241 299 356 425
#     4  12  25  44  71 105 147 190 241 294 359 431
#     4  11  26  46  74 106 149 189 243 295 359 429
#     4  11  24  48  74 109 144 190 240 300 360 428
#
# _framework density 28.075861
#
# number of rings (size 3 to 8) (size 9 to 14) (size 15 to 20)
#    0.000    1.333    1.667    2.000    7.000    2.667 
#   12.000    4.167    0.000    0.000    0.000    0.000 
#    0.000    0.000    0.000    0.000    0.000    0.000 
#
# Total GULP energy -67088.934586 kJ/mol
# GULP energy per Si atom -5590.744549 kJ/mol
# Density = 2.801196 g / cm^3
# Si number density = 28.075861 Si / 1000 Ang^3
#
#
#
# Elastic Constant Matrix: (Units=GPa)
#
#
# Indices 1 2 3 4 5 6 
#
# 1 224.8837 82.6412 36.3731 5.4375 7.9949 -34.3185
# 2 82.6412 125.9643 33.6855 14.9966 -8.5237 -2.7413
# 3 36.3731 33.6855 117.6175 18.9829 16.9036 1.7600
# 4 5.4375 14.9966 18.9829 60.7721 -11.7437 0.6333
# 5 7.9949 -8.5237 16.9036 -11.7437 39.5374 -8.1188
# 6 -34.3185 -2.7413 1.7600 0.6333 -8.1188 64.7025
#
#
#
# Elastic Compliance Matrix: (Units=1/GPa)
#
#
# Indices 1 2 3 4 5 6 
#
# 1 0.006641 -0.004198 -0.000813 0.000449 -0.001105 0.003224
# 2 -0.004198 0.011698 -0.002432 -0.000990 0.003876 -0.001169
# 3 -0.000813 -0.002432 0.011083 -0.004054 -0.006637 -0.001629
# 4 0.000449 -0.000990 -0.004054 0.019343 0.007389 0.001044
# 5 -0.001105 0.003876 -0.006637 0.007389 0.032148 0.003720
# 6 0.003224 -0.001169 -0.001629 0.001044 0.003720 0.017617
#
#
# Mechanical properties :
#
#
# Convention : Reuss Voigt Hill
#
# Bulk Modulus (GPa) = 68.79552 85.98499 77.39025
# Shear Modulus (GPa) = 42.27968 54.05345 48.16657
#
# Velocity S-wave (km/s) = 3.88481 4.39254 4.14646
# Velocity P-wave (km/s) = 6.68424 7.51122 7.10976
#
# Compressibility (1/GPa) = 0.01453583
#
# Stress axis : x y z
#
# Youngs Moduli (GPa) = 150.57360 85.48638 90.22998
#
# Poissons Ratio (x) = 0.35884 0.07340
# Poissons Ratio (y) = 0.63205 0.21943
# Poissons Ratio (z) = 0.12249 0.20790
#
# Static dielectric constant tensor:
#      x y z
#    x 2.171540 0.021400 0.091520 
#    y 0.021400 2.173450 0.072240 
#    z 0.091520 0.072240 2.488320 
# 
# From -- ./inp_files/372756.got.cif
#   From: 2010.05.17/outbox.cif.g08.bks.cpg/sg2_187_cif.got.tgz:372756.got - 2010.06.03 11:33:40.
