data_PCOD9051872
_publ_section_title
;
Structure prediction by ZEFSAII (Michael W. Deem and Ramdas Pophale) SiO2 
 PCOD9051872
Probable space group: P -1
;
_chemical_formula_sum "Si O2"
_cell_formula_units_Z 16
_cell_length_a 16.845900
_cell_length_b 8.592578
_cell_length_c 8.810420
_cell_angle_alpha 143.372889
_cell_angle_beta 60.850190
_cell_angle_gamma 105.866190
_cell_volume 647.368453
_symmetry_space_group_name_H-M "P -1"
_symmetry_group_IT_number 2
_symmetry_cell_setting 'triclinic'
loop_
_space_group_symop_operation_xyz
x,y,z
-x,-y,-z
loop_
_atom_site_type_symbol
_atom_site_label
_atom_site_fract_x
_atom_site_fract_y
_atom_site_fract_z
Si Si1 0.247898 0.949131 0.924570
Si Si2 0.900161 0.597233 0.460271
Si Si3 0.546696 0.472335 0.270815
Si Si4 0.583277 0.146420 0.503104
Si Si5 0.069752 0.824362 0.418513
Si Si6 0.651422 0.957481 0.602268
Si Si7 0.104774 0.904661 0.766215
Si Si8 0.195414 0.503338 0.806430
O O1 0.346348 0.985299 0.799862
O O2 0.179111 0.988850 0.873267
O O3 0.258332 0.660351 0.769220
O O4 0.185138 0.146647 0.255736
O O5 0.875037 0.412475 0.470651
O O6 0.893157 0.471991 0.203392
O O7 0.001337 0.654227 0.425094
O O8 0.500000 0.500000 0.500000
O O9 0.468062 0.563847 0.285321
O O10 0.605946 0.703561 0.403968
O O11 0.602133 0.173703 0.942413
O O12 0.500000 0.000000 0.500000
O O13 0.642616 0.128164 0.588129
O O14 0.102569 0.974868 0.647570
O O15 0.156843 0.650788 0.112237
O O16 0.000000 0.000000 0.500000
O O17 0.750145 0.795008 0.442542
O O18 0.000000 0.000000 0.000000
#
# Coordination Sequence:
#
# PCOD9051872 Si02
#       8
#     2   2   2   2   2   2   2   2
#     4  11  24  47  70 101 140 190 242 299 364 443
#     4  11  24  44  68  97 146 189 236 295 360 435
#     4  11  24  47  75 105 142 188 237 308 379 446
#     4  10  25  48  73 103 144 186 243 305 376 441
#     4  12  23  44  69 101 149 189 239 299 362 435
#     4  11  26  45  71 108 144 185 246 303 375 440
#     4  11  24  43  69 103 140 191 242 294 366 434
#     4  11  26  42  68 108 139 194 245 300 365 441
#
# _framework density 24.715446
#
# number of rings (size 3 to 8) (size 9 to 14) (size 15 to 20)
#    0.000    1.000    2.500    3.000    5.250    2.000 
#   13.500    0.000    0.000    0.000    0.000    0.000 
#    0.000    0.000    0.000    0.000    0.000    0.000 
#
# Total GULP energy -89452.983546 kJ/mol
# GULP energy per Si atom -5590.811472 kJ/mol
# Density = 2.465919 g / cm^3
# Si number density = 24.715446 Si / 1000 Ang^3
#
#
#
# Elastic Constant Matrix: (Units=GPa)
#
#
# Indices 1 2 3 4 5 6 
#
# 1 81.9317 44.8427 32.4908 -8.5812 -5.6820 -20.3049
# 2 44.8427 74.0465 45.5764 -10.0210 -10.9140 -18.8824
# 3 32.4908 45.5764 154.7470 -13.6456 -13.2913 -16.5781
# 4 -8.5812 -10.0210 -13.6456 44.1683 -4.2152 -6.5698
# 5 -5.6820 -10.9140 -13.2913 -4.2152 38.6287 -5.3958
# 6 -20.3049 -18.8824 -16.5781 -6.5698 -5.3958 59.6181
#
#
#
# Elastic Compliance Matrix: (Units=1/GPa)
#
#
# Indices 1 2 3 4 5 6 
#
# 1 0.018923 -0.009992 -0.000466 0.001815 0.000472 0.003393
# 2 -0.009992 0.024141 -0.003858 0.003411 0.004954 0.003994
# 3 -0.000466 -0.003858 0.008183 0.001951 0.002051 0.001295
# 4 0.001815 0.003411 0.001951 0.025722 0.005487 0.005572
# 5 0.000472 0.004954 0.002051 0.005487 0.029439 0.005569
# 6 0.003393 0.003994 0.001295 0.005572 0.005569 0.020672
#
#
# Mechanical properties :
#
#
# Convention : Reuss Voigt Hill
#
# Bulk Modulus (GPa) = 44.21910 61.83835 53.02872
# Shear Modulus (GPa) = 30.62745 41.00404 35.81575
#
# Velocity S-wave (km/s) = 3.52405 4.07756 3.81087
# Velocity P-wave (km/s) = 5.87271 6.87336 6.39264
#
# Compressibility (1/GPa) = 0.02261466
#
# Stress axis : x y z
#
# Youngs Moduli (GPa) = 52.84609 41.42257 122.20125
#
# Poissons Ratio (x) = 0.41391 0.05694
# Poissons Ratio (y) = 0.52806 0.47145
# Poissons Ratio (z) = 0.02463 0.15981
#
# Static dielectric constant tensor:
#      x y z
#    x 2.055630 0.003460 0.008920 
#    y 0.003460 2.041900 0.070070 
#    z 0.008920 0.070070 2.014380 
# 
# From -- ./inp_files/46602.got.cif
#   From: 2010.05.17/outbox.cif.g08.bks.cpg/sg2_24_cif.got.tgz:46602.got - 2010.06.03 11:33:40.
