data_PCOD9051585
_publ_section_title
;
Structure prediction by ZEFSAII (Michael W. Deem and Ramdas Pophale) SiO2 
 PCOD9051585
Probable space group: P -1
;
_chemical_formula_sum "Si O2"
_cell_formula_units_Z 16
_cell_length_a 19.378100
_cell_length_b 12.390755
_cell_length_c 15.518870
_cell_angle_alpha 26.434960
_cell_angle_beta 144.850660
_cell_angle_gamma 154.756154
_cell_volume 706.864803
_symmetry_space_group_name_H-M "P -1"
_symmetry_group_IT_number 2
_symmetry_cell_setting 'triclinic'
loop_
_space_group_symop_operation_xyz
x,y,z
-x,-y,-z
loop_
_atom_site_type_symbol
_atom_site_label
_atom_site_fract_x
_atom_site_fract_y
_atom_site_fract_z
Si Si1 0.186795 0.717655 0.500249
Si Si2 0.833398 0.303391 0.916339
Si Si3 0.813842 0.819863 0.158552
Si Si4 0.399169 0.086607 0.794828
Si Si5 0.603810 0.807197 0.483594
Si Si6 0.144074 0.242752 0.281134
Si Si7 0.964940 0.322211 0.307908
Si Si8 0.883993 0.052905 0.878052
O O1 0.208712 0.496206 0.629425
O O2 0.219154 0.986396 0.278061
O O3 0.000000 0.500000 0.500000
O O4 0.317345 0.899723 0.579521
O O5 0.757037 0.410930 0.818140
O O6 0.892269 0.478559 0.758319
O O7 0.000000 0.500000 0.000000
O O8 0.742308 0.927211 0.072588
O O9 0.005275 0.122720 0.157405
O O10 0.787914 0.841812 0.015920
O O11 0.456537 0.437534 0.628295
O O12 0.416472 0.111908 0.690133
O O13 0.206453 0.825049 0.801514
O O14 0.500000 0.000000 0.000000
O O15 0.739851 0.785034 0.626813
O O16 0.057377 0.970713 0.462872
O O17 0.008753 0.572543 0.248631
O O18 0.000000 0.000000 0.000000
#
# Coordination Sequence:
#
# PCOD9051585 Si02
#       8
#     2   2   2   2   2   2   2   2
#     4  12  19  32  53  76 113 141 167 225 275 324
#     4   9  20  31  52  79 111 140 176 223 267 322
#     4  10  20  31  46  80 109 138 170 206 276 320
#     4  10  23  35  53  74 112 150 181 218 255 317
#     4  10  22  36  52  83 111 141 181 216 268 322
#     4  10  17  35  54  74 118 139 173 224 270 318
#     4  10  20  35  52  81 110 144 182 213 272 326
#     4  11  20  28  50  77 108 139 169 213 275 326
#
# _framework density 22.635162000000001
#
# number of rings (size 3 to 8) (size 9 to 14) (size 15 to 20)
#    0.000    1.750    3.750    1.125    7.000    0.000 
#    0.000    0.000    0.000    0.000    0.000   11.375 
#    0.000    0.375    0.000    0.000    0.000    0.000 
#
# Total GULP energy -89273.361712 kJ/mol
# GULP energy per Si atom -5579.585107 kJ/mol
# Density = 2.258364 g / cm^3
# Si number density = 22.635162 Si / 1000 Ang^3
#
#
#
# Elastic Constant Matrix: (Units=GPa)
#
#
# Indices 1 2 3 4 5 6 
#
# 1 38.7341 13.5892 5.8192 -11.6267 7.5480 -27.4862
# 2 13.5892 75.8877 11.3564 -5.9612 4.3505 -21.5905
# 3 5.8192 11.3564 95.1638 0.8476 -2.9861 -15.9210
# 4 -11.6267 -5.9612 0.8476 32.9412 -16.5247 8.6072
# 5 7.5480 4.3505 -2.9861 -16.5247 26.7165 -11.9433
# 6 -27.4862 -21.5905 -15.9210 8.6072 -11.9433 39.3176
#
#
#
# Elastic Compliance Matrix: (Units=1/GPa)
#
#
# Indices 1 2 3 4 5 6 
#
# 1 0.057451 0.001945 0.003754 0.015718 0.012921 0.043235
# 2 0.001945 0.015816 -0.000206 0.002308 0.002900 0.010337
# 3 0.003754 -0.000206 0.011872 0.001184 0.004846 0.008531
# 4 0.015718 0.002308 0.001184 0.048602 0.030448 0.011344
# 5 0.012921 0.002900 0.004846 0.030448 0.064023 0.025370
# 6 0.043235 0.010337 0.008531 0.011344 0.025370 0.070013
#
#
# Mechanical properties :
#
#
# Convention : Reuss Voigt Hill
#
# Bulk Modulus (GPa) = 10.40334 30.14614 20.27474
# Shear Modulus (GPa) = 17.31103 31.72979 24.52041
#
# Velocity S-wave (km/s) = 2.76847 3.74811 3.29491
# Velocity P-wave (km/s) = 3.85037 5.66377 4.84271
#
# Compressibility (1/GPa) = 0.09612302
#
# Stress axis : x y z
#
# Youngs Moduli (GPa) = 17.40619 63.22748 84.23139
#
# Poissons Ratio (x) = -0.12298 -0.31617
# Poissons Ratio (y) = -0.03386 0.01739
# Poissons Ratio (z) = -0.06533 0.01306
#
# Static dielectric constant tensor:
#      x y z
#    x 1.876830 0.016700 0.032260 
#    y 0.016700 1.881270 -0.001920 
#    z 0.032260 -0.001920 1.990420 
# 
# From -- ./inp_files/450469.got.cif
#   From: 2010.05.17/outbox.cif.g08.bks.cpg/sg2_226_cif.got.tgz:450469.got - 2010.06.03 11:33:40.
