data_PCOD9051707
_publ_section_title
;
Structure prediction by ZEFSAII (Michael W. Deem and Ramdas Pophale) SiO2 
 PCOD9051707
Probable space group: P -1
;
_chemical_formula_sum "Si O2"
_cell_formula_units_Z 13
_cell_length_a 13.071232
_cell_length_b 7.660807
_cell_length_c 10.604056
_cell_angle_alpha 46.278012
_cell_angle_beta 42.241210
_cell_angle_gamma 63.059417
_cell_volume 512.119527
_symmetry_space_group_name_H-M "P -1"
_symmetry_group_IT_number 2
_symmetry_cell_setting 'triclinic'
loop_
_space_group_symop_operation_xyz
x,y,z
-x,-y,-z
loop_
_atom_site_type_symbol
_atom_site_label
_atom_site_fract_x
_atom_site_fract_y
_atom_site_fract_z
Si Si1 0.342456 0.171460 0.039923
Si Si2 0.678285 0.820100 0.654381
Si Si3 0.160658 0.404594 0.913955
Si Si4 0.500000 0.000000 0.500000
Si Si5 0.011732 0.923040 0.173318
Si Si6 0.349373 0.485945 0.475191
Si Si7 0.235302 0.668597 0.253066
O O1 0.325592 0.108430 0.232543
O O2 0.218980 0.355792 0.023778
O O3 0.311876 0.932147 0.100199
O O4 0.503857 0.325562 0.787386
O O5 0.665824 0.524555 0.804913
O O6 0.846501 0.911650 0.396884
O O7 0.553661 0.928392 0.628584
O O8 0.124100 0.147759 0.009856
O O9 0.294906 0.536821 0.640018
O O10 0.000000 0.500000 0.000000
O O11 0.402465 0.221178 0.534808
O O12 0.100857 0.707045 0.257110
O O13 0.000000 0.000000 0.000000
O O14 0.210646 0.532435 0.481437
#
# Coordination Sequence:
#
# PCOD9051707 Si02
#       7
#     2   2   2   1   2   2   2
#     4  11  27  45  76 111 149 200 248 311 382 449
#     4  11  26  46  78 109 151 198 250 314 380 448
#     4  11  28  46  73 111 151 196 255 311 371 455
#     4  10  26  48  74 114 148 200 256 304 376 456
#     4  11  25  45  73 106 151 200 247 316 377 447
#     4  11  25  48  77 107 154 199 246 317 376 448
#     4  10  25  47  72 112 151 190 259 309 374 449
#
# _framework density 25.384699000000001
#
# number of rings (size 3 to 8) (size 9 to 14) (size 15 to 20)
#    0.000    1.231    0.000    3.231    8.615   11.077 
#    0.000    2.308    0.000    0.000    0.000    0.000 
#    0.000    0.000    0.000    0.000    0.000    0.000 
#
# Total GULP energy -72404.467791 kJ/mol
# GULP energy per Si atom -5569.574445 kJ/mol
# Density = 2.532692 g / cm^3
# Si number density = 25.384699 Si / 1000 Ang^3
#
#
#
# Elastic Constant Matrix: (Units=GPa)
#
#
# Indices 1 2 3 4 5 6 
#
# 1 148.6831 66.5425 103.1423 -11.5965 61.6061 -32.3846
# 2 66.5425 117.5514 68.9627 -12.6454 20.8391 -28.1340
# 3 103.1423 68.9627 170.8167 4.5677 20.6873 -27.0973
# 4 -11.5965 -12.6454 4.5677 33.5160 -11.2291 18.5499
# 5 61.6061 20.8391 20.6873 -11.2291 62.1770 -22.0291
# 6 -32.3846 -28.1340 -27.0973 18.5499 -22.0291 59.3450
#
#
#
# Elastic Compliance Matrix: (Units=1/GPa)
#
#
# Indices 1 2 3 4 5 6 
#
# 1 0.023210 -0.003753 -0.010622 0.002846 -0.018271 -0.001635
# 2 -0.003753 0.012926 -0.002870 0.003226 0.001782 0.002423
# 3 -0.010622 -0.002870 0.013268 -0.006075 0.007206 0.003475
# 4 0.002846 0.003226 -0.006075 0.039716 0.001156 -0.011677
# 5 -0.018271 0.001782 0.007206 0.001156 0.033627 0.006286
# 6 -0.001635 0.002423 0.003475 -0.011677 0.006286 0.024677
#
#
# Mechanical properties :
#
#
# Convention : Reuss Voigt Hill
#
# Bulk Modulus (GPa) = 67.05619 101.59402 84.32511
# Shear Modulus (GPa) = 26.75414 44.23450 35.49432
#
# Velocity S-wave (km/s) = 3.24998 4.17893 3.74338
# Velocity P-wave (km/s) = 6.36840 7.96199 7.20936
#
# Compressibility (1/GPa) = 0.01491287
#
# Stress axis : x y z
#
# Youngs Moduli (GPa) = 43.08415 77.36238 75.36987
#
# Poissons Ratio (x) = 0.29037 0.80061
# Poissons Ratio (y) = 0.16171 0.21632
# Poissons Ratio (z) = 0.45766 0.22204
#
# Static dielectric constant tensor:
#      x y z
#    x 2.011780 0.005780 -0.000020 
#    y 0.005780 2.087520 -0.194400 
#    z -0.000020 -0.194400 1.794570 
# 
# From -- ./inp_files/289448.got.cif
#   From: 2010.05.17/outbox.cif.g08.bks.cpg/sg2_145_cif.got.tgz:289448.got - 2010.06.03 11:33:40.
