data_PCOD9051394
_publ_section_title
;
Structure prediction by ZEFSAII (Michael W. Deem and Ramdas Pophale) SiO2 
 PCOD9051394
Probable space group: P -1
;
_chemical_formula_sum "Si O2"
_cell_formula_units_Z 14
_cell_length_a 22.564724
_cell_length_b 16.583480
_cell_length_c 8.135006
_cell_angle_alpha 136.925099
_cell_angle_beta 34.715308
_cell_angle_gamma 158.934969
_cell_volume 613.073162
_symmetry_space_group_name_H-M "P -1"
_symmetry_group_IT_number 2
_symmetry_cell_setting 'triclinic'
loop_
_space_group_symop_operation_xyz
x,y,z
-x,-y,-z
loop_
_atom_site_type_symbol
_atom_site_label
_atom_site_fract_x
_atom_site_fract_y
_atom_site_fract_z
Si Si1 0.699159 0.550713 0.320978
Si Si2 0.011493 0.686471 0.944377
Si Si3 0.407476 0.145481 0.591238
Si Si4 0.528872 0.637778 0.928116
Si Si5 0.662178 0.182952 0.043725
Si Si6 0.894625 0.773710 0.860758
Si Si7 0.779653 0.074487 0.829012
O O1 0.500544 0.280398 0.409279
O O2 0.642978 0.630424 0.603752
O O3 0.790636 0.627533 0.047113
O O4 0.867462 0.660941 0.222461
O O5 0.187351 0.876615 0.694149
O O6 0.115444 0.781459 0.026089
O O7 0.867641 0.434921 0.876295
O O8 0.559074 0.193678 0.388854
O O9 0.411726 0.261131 0.875490
O O10 0.605711 0.816302 0.899036
O O11 0.291215 0.389009 0.082134
O O12 0.702542 0.111441 0.959227
O O13 0.500000 0.000000 0.000000
O O14 0.056142 0.840127 0.520004
O O15 0.000000 0.000000 0.000000
#
# Coordination Sequence:
#
# PCOD9051394 Si02
#       7
#     2   2   2   2   2   2   2
#     4  11  24  42  70 104 141 176 231 283 336 412
#     4  10  25  46  73 100 138 186 230 282 343 413
#     4  10  25  46  69  98 137 185 229 280 343 408
#     4  11  25  44  69 102 142 185 226 282 343 414
#     4  11  26  45  73 103 139 175 236 292 342 405
#     4  12  26  41  69 103 145 183 224 284 348 405
#     4  11  26  47  70 102 141 184 232 279 347 411
#
# _framework density 22.835775000000002
#
# number of rings (size 3 to 8) (size 9 to 14) (size 15 to 20)
#    0.000    1.143    1.429    3.000    8.000    6.286 
#    0.000    0.000    0.000    0.000    0.000    0.000 
#    0.000    0.000    0.000    0.000    0.000    0.000 
#
# Total GULP energy -78389.032831 kJ/mol
# GULP energy per Si atom -5599.216631 kJ/mol
# Density = 2.278380 g / cm^3
# Si number density = 22.835775 Si / 1000 Ang^3
#
#
#
# Elastic Constant Matrix: (Units=GPa)
#
#
# Indices 1 2 3 4 5 6 
#
# 1 100.4217 53.3078 10.7028 -5.9154 -3.7187 -8.9028
# 2 53.3078 171.5568 25.3960 -27.2796 4.7212 -16.6047
# 3 10.7028 25.3960 77.6376 -11.7662 7.4980 -14.4087
# 4 -5.9154 -27.2796 -11.7662 34.1892 -7.5944 4.6079
# 5 -3.7187 4.7212 7.4980 -7.5944 42.9934 -5.2322
# 6 -8.9028 -16.6047 -14.4087 4.6079 -5.2322 39.7433
#
#
#
# Elastic Compliance Matrix: (Units=1/GPa)
#
#
# Indices 1 2 3 4 5 6 
#
# 1 0.012121 -0.003755 -0.000491 -0.000897 0.001543 0.001275
# 2 -0.003755 0.008144 -0.001061 0.005292 0.000092 0.001575
# 3 -0.000491 -0.001061 0.014706 0.003249 -0.001403 0.004217
# 4 -0.000897 0.005292 0.003249 0.035588 0.005027 -0.000276
# 5 0.001543 0.000092 -0.001403 0.005027 0.024827 0.002561
# 6 0.001275 0.001575 0.004217 -0.000276 0.002561 0.028003
#
#
# Mechanical properties :
#
#
# Convention : Reuss Voigt Hill
#
# Bulk Modulus (GPa) = 41.05652 58.71438 49.88545
# Shear Modulus (GPa) = 35.18070 40.73249 37.95659
#
# Velocity S-wave (km/s) = 3.92930 4.22799 4.08138
# Velocity P-wave (km/s) = 6.21321 7.04286 6.64100
#
# Compressibility (1/GPa) = 0.02435667
#
# Stress axis : x y z
#
# Youngs Moduli (GPa) = 82.49991 122.78464 68.00115
#
# Poissons Ratio (x) = 0.46111 0.03338
# Poissons Ratio (y) = 0.30983 0.07215
# Poissons Ratio (z) = 0.04050 0.13027
#
# Static dielectric constant tensor:
#      x y z
#    x 1.849390 0.007580 0.020380 
#    y 0.007580 1.866740 0.002620 
#    z 0.020380 0.002620 1.855390 
# 
# From -- ./inp_files/355031.got.cif
#   From: 2010.05.17/outbox.cif.g08.bks.cpg/sg2_178_cif.got.tgz:355031.got - 2010.06.03 11:33:40.
