data_PCOD9051358
_publ_section_title
;
Structure prediction by ZEFSAII (Michael W. Deem and Ramdas Pophale) SiO2 
 PCOD9051358
Probable space group: P -1
;
_chemical_formula_sum "Si O2"
_cell_formula_units_Z 16
_cell_length_a 26.792951
_cell_length_b 15.849858
_cell_length_c 9.004023
_cell_angle_alpha 146.071464
_cell_angle_beta 129.694383
_cell_angle_gamma 25.079926
_cell_volume 795.196470
_symmetry_space_group_name_H-M "P -1"
_symmetry_group_IT_number 2
_symmetry_cell_setting 'triclinic'
loop_
_space_group_symop_operation_xyz
x,y,z
-x,-y,-z
loop_
_atom_site_type_symbol
_atom_site_label
_atom_site_fract_x
_atom_site_fract_y
_atom_site_fract_z
Si Si1 0.894172 0.320659 0.354815
Si Si2 0.861261 0.343905 0.675563
Si Si3 0.282279 0.588449 0.290334
Si Si4 0.765227 0.864649 0.367086
Si Si5 0.379288 0.834970 0.183172
Si Si6 0.529921 0.522571 0.436412
Si Si7 0.377125 0.174969 0.606579
Si Si8 0.926041 0.777799 0.360475
O O1 0.869429 0.326840 0.488425
O O2 0.752203 0.597229 0.407637
O O3 0.963754 0.342977 0.526055
O O4 0.000000 0.000000 0.000000
O O5 0.756997 0.438096 0.685433
O O6 0.835387 0.566427 0.012348
O O7 0.000000 0.000000 0.500000
O O8 0.397160 0.469743 0.381947
O O9 0.161748 0.934346 0.494041
O O10 0.330584 0.379743 0.947397
O O11 0.832698 0.875046 0.438949
O O12 0.749278 0.911610 0.583444
O O13 0.613888 0.161991 0.452170
O O14 0.420856 0.923984 0.384013
O O15 0.500000 0.500000 0.000000
O O16 0.374404 0.773305 0.920032
O O17 0.500000 0.500000 0.500000
O O18 0.500000 0.000000 0.500000
O O19 0.000000 0.500000 0.000000
#
# Coordination Sequence:
#
# PCOD9051358 Si02
#       8
#     2   2   2   2   2   2   2   2
#     4  12  27  46  73 106 144 189 243 291 358 429
#     4  12  24  46  70 102 143 182 237 297 351 419
#     4  12  25  45  71 103 142 187 236 297 357 420
#     4  11  24  45  73  98 145 185 231 296 354 421
#     4  10  25  46  68 103 145 181 234 293 350 424
#     4  11  24  42  72 105 138 181 237 286 356 425
#     4  12  27  46  74 103 147 189 237 292 358 423
#     4  12  24  44  72  98 137 189 238 283 358 421
#
# _framework density 20.120812999999998
#
# number of rings (size 3 to 8) (size 9 to 14) (size 15 to 20)
#    0.000    0.500    6.250    0.750    7.000    3.500 
#    0.000    0.625    0.000    0.000    0.000    0.000 
#    0.000    0.000    0.000    0.000    0.000    0.000 
#
# Total GULP energy -89452.619796 kJ/mol
# GULP energy per Si atom -5590.788737 kJ/mol
# Density = 2.007502 g / cm^3
# Si number density = 20.120813 Si / 1000 Ang^3
#
#
#
# Elastic Constant Matrix: (Units=GPa)
#
#
# Indices 1 2 3 4 5 6 
#
# 1 186.6817 48.2831 76.4592 -16.6536 -2.4818 -14.2504
# 2 48.2831 76.9525 58.4575 -8.9585 -4.4898 -32.2676
# 3 76.4592 58.4575 179.9047 -13.5263 -0.2795 8.7115
# 4 -16.6536 -8.9585 -13.5263 38.0422 4.2526 8.3594
# 5 -2.4818 -4.4898 -0.2795 4.2526 40.0801 -10.5552
# 6 -14.2504 -32.2676 8.7115 8.3594 -10.5552 35.6385
#
#
#
# Elastic Compliance Matrix: (Units=1/GPa)
#
#
# Indices 1 2 3 4 5 6 
#
# 1 0.007046 -0.001589 -0.002463 0.001367 0.000579 0.001832
# 2 -0.001589 0.065288 -0.025278 -0.014333 0.028712 0.076523
# 3 -0.002463 -0.025278 0.017011 0.007796 -0.012534 -0.033571
# 4 0.001367 -0.014333 0.007796 0.033219 -0.011734 -0.025604
# 5 0.000579 0.028712 -0.012534 -0.011734 0.040996 0.044186
# 6 0.001832 0.076523 -0.033571 -0.025604 0.044186 0.125376
#
#
# Mechanical properties :
#
#
# Convention : Reuss Voigt Hill
#
# Bulk Modulus (GPa) = 32.58811 89.99318 61.29064
# Shear Modulus (GPa) = 13.97329 40.10809 27.04069
#
# Velocity S-wave (km/s) = 2.63814 4.46955 3.66992
# Velocity P-wave (km/s) = 5.05085 8.45337 6.96313
#
# Compressibility (1/GPa) = 0.03068604
#
# Stress axis : x y z
#
# Youngs Moduli (GPa) = 141.92458 15.31668 58.78420
#
# Poissons Ratio (x) = 0.02433 0.14481
# Poissons Ratio (y) = 0.22545 1.48594
# Poissons Ratio (z) = 0.34961 0.38717
#
# Static dielectric constant tensor:
#      x y z
#    x 1.719870 0.029000 -0.012210 
#    y 0.029000 1.721400 0.007730 
#    z -0.012210 0.007730 1.701740 
# 
# From -- ./inp_files/343439.got.cif
#   From: 2010.05.17/outbox.cif.g08.bks.cpg/sg2_172_cif.got.tgz:343439.got - 2010.06.03 11:33:40.
