data_PCOD9051925
_publ_section_title
;
Structure prediction by ZEFSAII (Michael W. Deem and Ramdas Pophale) SiO2 
 PCOD9051925
Probable space group: P -1
;
_chemical_formula_sum "Si O2"
_cell_formula_units_Z 11
_cell_length_a 11.678160
_cell_length_b 9.001623
_cell_length_c 9.051138
_cell_angle_alpha 112.410494
_cell_angle_beta 143.098196
_cell_angle_gamma 47.696943
_cell_volume 395.259627
_symmetry_space_group_name_H-M "P -1"
_symmetry_group_IT_number 2
_symmetry_cell_setting 'triclinic'
loop_
_space_group_symop_operation_xyz
x,y,z
-x,-y,-z
loop_
_atom_site_type_symbol
_atom_site_label
_atom_site_fract_x
_atom_site_fract_y
_atom_site_fract_z
Si Si1 0.159944 0.646941 0.900855
Si Si2 0.614609 0.075568 0.944794
Si Si3 0.655484 0.256546 0.620757
Si Si4 0.195097 0.292140 0.222437
Si Si5 0.500000 0.500000 0.000000
Si Si6 0.835784 0.915770 0.424986
O O1 0.449564 0.439447 0.094727
O O2 0.946049 0.650047 0.744723
O O3 0.112751 0.701386 0.693609
O O4 0.159625 0.779113 0.076746
O O5 0.543031 0.291659 0.898461
O O6 0.368967 0.110037 0.759955
O O7 0.740497 0.902913 0.877859
O O8 0.809056 0.966095 0.244631
O O9 0.500000 0.500000 0.500000
O O10 0.454089 0.244830 0.474922
O O11 0.781693 0.088405 0.551940
O O12 0.000000 0.500000 0.000000
#
# Coordination Sequence:
#
# PCOD9051925 Si02
#       6
#     2   2   2   2   1   2
#     4  12  28  47  76 112 152 206 254 320 381 452
#     4  10  26  51  75 115 152 202 257 316 380 467
#     4  11  23  45  77 114 150 197 261 308 374 467
#     4  11  26  48  82 112 156 205 253 318 388 446
#     4  12  30  46  78 116 150 198 268 312 378 466
#     4  10  25  48  77 107 158 202 250 320 387 447
#
# _framework density 27.829809000000001
#
# number of rings (size 3 to 8) (size 9 to 14) (size 15 to 20)
#    0.000    1.091    1.818    1.636   12.727    4.364 
#    0.000    0.000    0.000    0.000    0.000    0.000 
#    0.000    0.000    0.000    0.000    0.000    0.000 
#
# Total GULP energy -61445.301845 kJ/mol
# GULP energy per Si atom -5585.936531 kJ/mol
# Density = 2.776647 g / cm^3
# Si number density = 27.829809 Si / 1000 Ang^3
#
#
#
# Elastic Constant Matrix: (Units=GPa)
#
#
# Indices 1 2 3 4 5 6 
#
# 1 203.3058 30.3441 38.3627 14.0450 8.5344 -16.7338
# 2 30.3441 163.3478 19.8114 -1.8698 -11.4446 8.7430
# 3 38.3627 19.8114 134.3785 5.6730 -29.4818 16.3963
# 4 14.0450 -1.8698 5.6730 41.6932 11.9215 2.8246
# 5 8.5344 -11.4446 -29.4818 11.9215 51.4064 -3.8488
# 6 -16.7338 8.7430 16.3963 2.8246 -3.8488 20.5407
#
#
#
# Elastic Compliance Matrix: (Units=1/GPa)
#
#
# Indices 1 2 3 4 5 6 
#
# 1 0.006623 -0.001474 -0.003085 -0.001828 -0.002149 0.008334
# 2 -0.001474 0.006692 0.000208 0.000641 0.001403 -0.004040
# 3 -0.003085 0.000208 0.011000 -0.001634 0.006502 -0.009939
# 4 -0.001828 0.000641 -0.001634 0.027298 -0.007238 -0.005568
# 5 -0.002149 0.001403 0.006502 -0.007238 0.025396 -0.001784
# 6 0.008334 -0.004040 -0.009939 -0.005568 -0.001784 0.065558
#
#
# Mechanical properties :
#
#
# Convention : Reuss Voigt Hill
#
# Bulk Modulus (GPa) = 64.04609 75.34095 69.69352
# Shear Modulus (GPa) = 31.95431 50.22899 41.09165
#
# Velocity S-wave (km/s) = 3.39219 4.25298 3.84674
# Velocity P-wave (km/s) = 6.19726 7.15876 6.69530
#
# Compressibility (1/GPa) = 0.01561376
#
# Stress axis : x y z
#
# Youngs Moduli (GPa) = 150.98542 149.42452 90.91111
#
# Poissons Ratio (x) = 0.22022 0.28043
# Poissons Ratio (y) = 0.22252 -0.01888
# Poissons Ratio (z) = 0.46575 -0.03104
#
# Static dielectric constant tensor:
#      x y z
#    x 1.655950 0.696960 -0.658680 
#    y 0.696960 1.430520 0.707220 
#    z -0.658680 0.707220 1.437720 
# 
# From -- ./inp_files/154420.got.cif
#   From: 2010.05.17/outbox.cif.g08.bks.cpg/sg2_78_cif.got.tgz:154420.got - 2010.06.03 11:33:40.
