data_PCOD9051840
_publ_section_title
;
Structure prediction by ZEFSAII (Michael W. Deem and Ramdas Pophale) SiO2 
 PCOD9051840
Probable space group: P -1
;
_chemical_formula_sum "Si O2"
_cell_formula_units_Z 10
_cell_length_a 12.133495
_cell_length_b 7.472078
_cell_length_c 7.846797
_cell_angle_alpha 53.272893
_cell_angle_beta 37.510784
_cell_angle_gamma 59.271345
_cell_volume 346.216242
_symmetry_space_group_name_H-M "P -1"
_symmetry_group_IT_number 2
_symmetry_cell_setting 'triclinic'
loop_
_space_group_symop_operation_xyz
x,y,z
-x,-y,-z
loop_
_atom_site_type_symbol
_atom_site_label
_atom_site_fract_x
_atom_site_fract_y
_atom_site_fract_z
Si Si1 0.197154 0.873273 0.864326
Si Si2 0.959824 0.314463 0.393197
Si Si3 0.746121 0.973829 0.653358
Si Si4 0.242751 0.299405 0.740839
Si Si5 0.568124 0.533301 0.092148
O O1 0.281881 0.892150 0.562147
O O2 0.288263 0.045051 0.779500
O O3 0.246909 0.625230 0.014390
O O4 0.000000 0.000000 0.000000
O O5 0.871116 0.564925 0.347459
O O6 0.066091 0.191986 0.486367
O O7 0.803559 0.153255 0.619917
O O8 0.113387 0.308712 0.058017
O O9 0.599597 0.789698 0.951568
O O10 0.422000 0.429378 0.452632
O O11 0.500000 0.500000 0.000000
#
# Coordination Sequence:
#
# PCOD9051840 Si02
#       5
#     2   2   2   2   2
#     4  12  25  47  77 103 144 194 248 290 347 437
#     4  10  25  48  71 107 146 197 232 295 361 434
#     4  11  25  47  72 107 141 193 244 285 365 422
#     4  11  24  46  73 103 150 185 240 293 360 425
#     4  12  28  44  75 114 143 183 242 307 357 412
#
# _framework density 28.883682
#
# number of rings (size 3 to 8) (size 9 to 14) (size 15 to 20)
#    0.000    0.800    4.000    1.800    5.600    3.200 
#    0.000    0.000    0.000    0.000    0.000    0.000 
#    0.000    0.000    0.000    0.000    0.000    0.000 
#
# Total GULP energy -56073.408449 kJ/mol
# GULP energy per Si atom -5607.340845 kJ/mol
# Density = 2.881794 g / cm^3
# Si number density = 28.883682 Si / 1000 Ang^3
#
#
#
# Elastic Constant Matrix: (Units=GPa)
#
#
# Indices 1 2 3 4 5 6 
#
# 1 138.0263 34.7385 61.0552 -16.6057 8.9510 -14.9054
# 2 34.7385 156.0854 29.9817 -41.2643 3.3368 -3.6700
# 3 61.0552 29.9817 145.0194 -16.3127 -20.2659 11.8425
# 4 -16.6057 -41.2643 -16.3127 55.2630 -6.4101 -9.9252
# 5 8.9510 3.3368 -20.2659 -6.4101 59.3713 -17.8995
# 6 -14.9054 -3.6700 11.8425 -9.9252 -17.8995 64.6758
#
#
#
# Elastic Compliance Matrix: (Units=1/GPa)
#
#
# Indices 1 2 3 4 5 6 
#
# 1 0.009985 -0.000946 -0.004365 0.001257 -0.001996 0.002687
# 2 -0.000946 0.008386 -0.000695 0.006099 0.000535 0.001469
# 3 -0.004365 -0.000695 0.009645 0.001143 0.003620 -0.001634
# 4 0.001257 0.006099 0.001143 0.024814 0.004161 0.005386
# 5 -0.001996 0.000535 0.003620 0.004161 0.020361 0.005181
# 6 0.002687 0.001469 -0.001634 0.005386 0.005181 0.018724
#
#
# Mechanical properties :
#
#
# Convention : Reuss Voigt Hill
#
# Bulk Modulus (GPa) = 62.48265 76.74242 69.61254
# Shear Modulus (GPa) = 45.76198 56.75239 51.25719
#
# Velocity S-wave (km/s) = 3.98471 4.43748 4.21718
# Velocity P-wave (km/s) = 6.54600 7.27201 6.91853
#
# Compressibility (1/GPa) = 0.01600444
#
# Stress axis : x y z
#
# Youngs Moduli (GPa) = 100.15226 119.24594 103.68012
#
# Poissons Ratio (x) = 0.11276 0.45260
# Poissons Ratio (y) = 0.09471 0.07203
# Poissons Ratio (z) = 0.43720 0.08285
#
# Static dielectric constant tensor:
#      x y z
#    x 2.251060 0.000960 -0.078390 
#    y 0.000960 2.247720 0.113680 
#    z -0.078390 0.113680 2.362900 
# 
# From -- ./inp_files/230110.got.cif
#   From: 2010.05.17/outbox.cif.g08.bks.cpg/sg2_116_cif.got.tgz:230110.got - 2010.06.03 11:33:40.
