data_PCOD9051001
_publ_section_title
;
Structure prediction by ZEFSAII (Michael W. Deem and Ramdas Pophale) SiO2 
 PCOD9051001
Probable space group: P -1
;
_chemical_formula_sum "Si O2"
_cell_formula_units_Z 14
_cell_length_a 12.269115
_cell_length_b 13.699101
_cell_length_c 7.660959
_cell_angle_alpha 60.952289
_cell_angle_beta 108.077349
_cell_angle_gamma 148.900849
_cell_volume 565.348920
_symmetry_space_group_name_H-M "P -1"
_symmetry_group_IT_number 2
_symmetry_cell_setting 'triclinic'
loop_
_space_group_symop_operation_xyz
x,y,z
-x,-y,-z
loop_
_atom_site_type_symbol
_atom_site_label
_atom_site_fract_x
_atom_site_fract_y
_atom_site_fract_z
Si Si1 0.155321 0.382971 0.544304
Si Si2 0.354749 0.784324 0.699480
Si Si3 0.805956 0.051946 0.199332
Si Si4 0.934210 0.331494 0.769676
Si Si5 0.579920 0.778208 0.645509
Si Si6 0.984548 0.000244 0.784113
Si Si7 0.663598 0.274559 0.870726
O O1 0.377378 0.571021 0.606744
O O2 0.105465 0.215949 0.612386
O O3 0.193859 0.499569 0.303432
O O4 0.967629 0.277223 0.669887
O O5 0.484177 0.774870 0.753170
O O6 0.135722 0.583163 0.656056
O O7 0.500000 0.000000 0.500000
O O8 0.294886 0.746772 0.904106
O O9 0.725605 0.980141 0.420044
O O10 0.906123 0.014742 0.238892
O O11 0.583224 0.889773 0.123523
O O12 0.959742 0.273146 0.003565
O O13 0.723197 0.231686 0.790325
O O14 0.736678 0.811986 0.763659
O O15 0.000000 0.000000 0.000000
#
# Coordination Sequence:
#
# PCOD9051001 Si02
#       7
#     2   2   2   2   2   2   2
#     4  10  25  45  69 106 134 182 230 278 352 402
#     4  11  25  43  67 104 139 180 228 282 343 411
#     4  11  24  45  67 105 133 183 229 281 344 403
#     4  11  23  43  68 101 141 175 223 286 347 407
#     4  10  25  45  66 102 141 177 230 287 337 407
#     4  12  24  45  73  99 140 181 233 281 339 412
#     4  11  24  42  71 100 138 180 226 285 340 414
#
# _framework density 24.763466999999999
#
# number of rings (size 3 to 8) (size 9 to 14) (size 15 to 20)
#    0.000    1.143    1.429    3.429    4.000    5.143 
#    2.571    0.000    0.000    0.000    0.000    0.000 
#    0.000    0.000    0.000    0.000    0.000    0.000 
#
# Total GULP energy -78455.175739 kJ/mol
# GULP energy per Si atom -5603.941124 kJ/mol
# Density = 2.470710 g / cm^3
# Si number density = 24.763467 Si / 1000 Ang^3
#
#
#
# Elastic Constant Matrix: (Units=GPa)
#
#
# Indices 1 2 3 4 5 6 
#
# 1 151.1881 37.3065 32.7514 -9.8144 15.3004 26.3349
# 2 37.3065 89.9022 15.4566 -1.7321 7.5173 9.7637
# 3 32.7514 15.4566 108.0788 -0.8818 -5.5584 -6.8829
# 4 -9.8144 -1.7321 -0.8818 42.2457 -6.3066 8.6351
# 5 15.3004 7.5173 -5.5584 -6.3066 49.6551 0.7697
# 6 26.3349 9.7637 -6.8829 8.6351 0.7697 31.3344
#
#
#
# Elastic Compliance Matrix: (Units=1/GPa)
#
#
# Indices 1 2 3 4 5 6 
#
# 1 0.010065 -0.002277 -0.003427 0.003733 -0.002519 -0.009469
# 2 -0.002277 0.012668 -0.001337 0.000252 -0.001297 -0.002365
# 3 -0.003427 -0.001337 0.010969 -0.001536 0.002197 0.006075
# 4 0.003733 0.000252 -0.001536 0.027118 0.002256 -0.011082
# 5 -0.002519 -0.001297 0.002197 0.002256 0.021615 0.001852
# 6 -0.009469 -0.002365 0.006075 -0.011082 0.001852 0.044952
#
#
# Mechanical properties :
#
#
# Convention : Reuss Voigt Hill
#
# Bulk Modulus (GPa) = 50.96333 57.79980 54.38157
# Shear Modulus (GPa) = 33.78160 42.22403 38.00282
#
# Velocity S-wave (km/s) = 3.69748 4.13376 3.92169
# Velocity P-wave (km/s) = 6.23323 6.79525 6.52030
#
# Compressibility (1/GPa) = 0.01962195
#
# Stress axis : x y z
#
# Youngs Moduli (GPa) = 99.35407 78.93903 91.16218
#
# Poissons Ratio (x) = 0.17971 0.31238
# Poissons Ratio (y) = 0.22619 0.12189
# Poissons Ratio (z) = 0.34045 0.10555
#
# Static dielectric constant tensor:
#      x y z
#    x 1.890610 0.024770 -0.007730 
#    y 0.024770 2.008390 -0.006480 
#    z -0.007730 -0.006480 1.992450 
# 
# From -- ./inp_files/258610.got.cif
#   From: 2010.05.17/outbox.cif.g08.bks.cpg/sg2_130_cif.got.tgz:258610.got - 2010.06.03 11:33:40.
