data_PCOD9051527
_publ_section_title
;
Structure prediction by ZEFSAII (Michael W. Deem and Ramdas Pophale) SiO2 
 PCOD9051527
Probable space group: P -1
;
_chemical_formula_sum "Si O2"
_cell_formula_units_Z 16
_cell_length_a 5.458922
_cell_length_b 7.799338
_cell_length_c 19.746709
_cell_angle_alpha 81.316290
_cell_angle_beta 62.174382
_cell_angle_gamma 61.101241
_cell_volume 647.907459
_symmetry_space_group_name_H-M "P -1"
_symmetry_group_IT_number 2
_symmetry_cell_setting 'triclinic'
loop_
_space_group_symop_operation_xyz
x,y,z
-x,-y,-z
loop_
_atom_site_type_symbol
_atom_site_label
_atom_site_fract_x
_atom_site_fract_y
_atom_site_fract_z
Si Si1 0.284811 0.537655 0.642283
Si Si2 0.891214 0.176816 0.555229
Si Si3 0.276225 0.262093 0.403505
Si Si4 0.087532 0.070957 0.687885
Si Si5 0.939503 0.653034 0.220749
Si Si6 0.540993 0.605719 0.074822
Si Si7 0.697018 0.202408 0.048675
Si Si8 0.560868 0.047452 0.828622
O O1 0.527792 0.332432 0.588559
O O2 0.504525 0.636646 0.621107
O O3 0.172869 0.499684 0.731828
O O4 0.994147 0.650776 0.623156
O O5 0.112064 0.268126 0.495704
O O6 0.966781 0.099631 0.625773
O O7 0.000000 0.000000 0.500000
O O8 0.538587 0.047984 0.357642
O O9 0.969453 0.283148 0.724209
O O10 0.916443 0.979012 0.762863
O O11 0.658682 0.846700 0.213360
O O12 0.225807 0.592845 0.136996
O O13 0.780870 0.370388 0.057827
O O14 0.546058 0.769047 0.115041
O O15 0.493529 0.696363 0.000988
O O16 0.507365 0.124046 0.124999
O O17 0.000000 0.000000 0.000000
#
# Coordination Sequence:
#
# PCOD9051527 Si02
#       8
#     2   2   2   2   2   2   2   2
#     4  12  27  47  71 109 151 193 254 326 391 461
#     4  12  25  50  76 104 146 201 257 322 392 469
#     4  12  28  45  74 109 146 196 258 326 395 465
#     4  11  26  47  72 105 143 205 258 315 391 470
#     4  11  24  47  71 102 152 198 253 313 382 464
#     4  10  25  46  73 113 150 196 255 317 382 466
#     4  11  23  47  77 111 152 195 252 313 388 475
#     4  11  24  48  75 105 153 204 254 318 389 467
#
# _framework density 24.694882
#
# number of rings (size 3 to 8) (size 9 to 14) (size 15 to 20)
#    0.000    0.750    2.500    3.750    5.250    2.500 
#    2.250    0.000    0.000    0.000    0.000    0.000 
#    0.000    0.000    0.000    0.000    0.000    0.000 
#
# Total GULP energy -89566.181800 kJ/mol
# GULP energy per Si atom -5597.886362 kJ/mol
# Density = 2.463868 g / cm^3
# Si number density = 24.694882 Si / 1000 Ang^3
#
#
#
# Elastic Constant Matrix: (Units=GPa)
#
#
# Indices 1 2 3 4 5 6 
#
# 1 103.6543 38.4327 37.3864 -12.8437 3.4765 -6.2406
# 2 38.4327 125.0067 37.8753 -12.6827 -0.4789 1.0653
# 3 37.3864 37.8753 135.7158 -15.1123 -1.8027 -5.0961
# 4 -12.8437 -12.6827 -15.1123 41.4892 4.0339 -18.5726
# 5 3.4765 -0.4789 -1.8027 4.0339 41.1609 11.0946
# 6 -6.2406 1.0653 -5.0961 -18.5726 11.0946 42.4133
#
#
#
# Elastic Compliance Matrix: (Units=1/GPa)
#
#
# Indices 1 2 3 4 5 6 
#
# 1 0.012294 -0.002774 -0.001996 0.004420 -0.002748 0.004293
# 2 -0.002774 0.009515 -0.001769 0.001201 0.000258 -0.000401
# 3 -0.001996 -0.001769 0.008840 0.003119 -0.000385 0.002279
# 4 0.004420 0.001201 0.003119 0.036508 -0.009013 0.019339
# 5 -0.002748 0.000258 -0.000385 -0.009013 0.028600 -0.011885
# 6 0.004293 -0.000401 0.002279 0.019339 -0.011885 0.036071
#
#
# Mechanical properties :
#
#
# Convention : Reuss Voigt Hill
#
# Bulk Modulus (GPa) = 56.91186 65.75172 61.33179
# Shear Modulus (GPa) = 33.16506 41.72484 37.44495
#
# Velocity S-wave (km/s) = 3.66866 4.11495 3.89820
# Velocity P-wave (km/s) = 6.40636 7.01859 6.71945
#
# Compressibility (1/GPa) = 0.01757103
#
# Stress axis : x y z
#
# Youngs Moduli (GPa) = 81.33997 105.10167 113.12685
#
# Poissons Ratio (x) = 0.29152 0.22577
# Poissons Ratio (y) = 0.22562 0.20014
# Poissons Ratio (z) = 0.16233 0.18594
#
# Static dielectric constant tensor:
#      x y z
#    x 2.021650 0.136880 -0.041830 
#    y 0.136880 2.127070 0.005340 
#    z -0.041830 0.005340 1.959010 
# 
# From -- ./inp_files/582384.got.cif
#   From: 2010.05.17/outbox.cif.g08.bks.cpg/sg2_292_cif.got.tgz:582384.got - 2010.06.03 11:33:40.
