data_PCOD9051785
_publ_section_title
;
Structure prediction by ZEFSAII (Michael W. Deem and Ramdas Pophale) SiO2 
 PCOD9051785
Probable space group: P -1
;
_chemical_formula_sum "Si O2"
_cell_formula_units_Z 15
_cell_length_a 9.203977
_cell_length_b 16.728082
_cell_length_c 8.719284
_cell_angle_alpha 62.366142
_cell_angle_beta 100.979299
_cell_angle_gamma 49.441822
_cell_volume 616.564196
_symmetry_space_group_name_H-M "P -1"
_symmetry_group_IT_number 2
_symmetry_cell_setting 'triclinic'
loop_
_space_group_symop_operation_xyz
x,y,z
-x,-y,-z
loop_
_atom_site_type_symbol
_atom_site_label
_atom_site_fract_x
_atom_site_fract_y
_atom_site_fract_z
Si Si1 0.752644 0.606593 0.738949
Si Si2 0.205731 0.838050 0.296334
Si Si3 0.452932 0.640424 0.218187
Si Si4 0.933876 0.625011 0.466124
Si Si5 0.743940 0.401131 0.016828
Si Si6 0.500000 0.000000 0.000000
Si Si7 0.810936 0.053879 0.281518
Si Si8 0.650401 0.954608 0.419392
O O1 0.416082 0.792130 0.476917
O O2 0.857824 0.618987 0.615811
O O3 0.736494 0.505815 0.854341
O O4 0.000000 0.500000 0.000000
O O5 0.374945 0.690136 0.338338
O O6 0.001744 0.902457 0.327033
O O7 0.000000 0.000000 0.000000
O O8 0.783969 0.461247 0.413254
O O9 0.285873 0.649003 0.090787
O O10 0.355649 0.782605 0.986642
O O11 0.682384 0.812813 0.179926
O O12 0.000000 0.500000 0.500000
O O13 0.027238 0.236101 0.312726
O O14 0.500000 0.500000 0.000000
O O15 0.552172 0.965291 0.229345
O O16 0.615544 0.080713 0.292772
O O17 0.000000 0.000000 0.500000
O O18 0.500000 0.000000 0.500000
#
# Coordination Sequence:
#
# PCOD9051785 Si02
#       8
#     2   2   2   2   2   1   2   2
#     4  12  27  48  82 116 165 219 284 354 430 524
#     4  10  25  47  76 120 154 218 284 342 434 518
#     4  11  24  50  82 113 164 218 283 350 431 524
#     4  12  27  54  83 125 166 221 285 355 441 517
#     4  12  27  51  77 118 161 221 284 354 429 523
#     4  12  30  54  82 120 182 218 282 364 430 518
#     4  11  24  47  80 112 163 216 278 353 427 520
#     4  12  29  50  80 124 165 222 287 357 438 515
#
# _framework density 24.328367
#
# number of rings (size 3 to 8) (size 9 to 14) (size 15 to 20)
#    0.000    0.533    2.667    4.000    7.467    2.667 
#    0.000    0.000    0.000    0.000    0.000    0.000 
#    0.000    0.000    0.000    0.000    0.000    0.000 
#
# Total GULP energy -83544.161227 kJ/mol
# GULP energy per Si atom -5569.610748 kJ/mol
# Density = 2.427299 g / cm^3
# Si number density = 24.328367 Si / 1000 Ang^3
#
#
#
# Elastic Constant Matrix: (Units=GPa)
#
#
# Indices 1 2 3 4 5 6 
#
# 1 128.3472 62.7342 53.1718 8.9816 -20.7396 -6.6260
# 2 62.7342 90.0410 55.1474 14.8041 -0.1889 -12.4856
# 3 53.1718 55.1474 185.0879 12.8447 -17.0066 -5.8217
# 4 8.9816 14.8041 12.8447 39.3077 4.6429 -4.0183
# 5 -20.7396 -0.1889 -17.0066 4.6429 35.8084 -3.1729
# 6 -6.6260 -12.4856 -5.8217 -4.0183 -3.1729 37.2320
#
#
#
# Elastic Compliance Matrix: (Units=1/GPa)
#
#
# Indices 1 2 3 4 5 6 
#
# 1 0.013781 -0.009243 -0.000465 -0.000444 0.007760 -0.000106
# 2 -0.009243 0.020963 -0.003808 -0.003401 -0.006266 0.003889
# 3 -0.000465 -0.003808 0.007041 -0.001149 0.003194 -0.000111
# 4 -0.000444 -0.003401 -0.001149 0.027835 -0.004320 0.001237
# 5 0.007760 -0.006266 0.003194 -0.004320 0.034666 0.002267
# 6 -0.000106 0.003889 -0.000111 0.001237 0.002267 0.028453
#
#
# Mechanical properties :
#
#
# Convention : Reuss Voigt Hill
#
# Bulk Modulus (GPa) = 67.77740 82.84255 75.30997
# Shear Modulus (GPa) = 30.36043 37.96447 34.16245
#
# Velocity S-wave (km/s) = 3.53646 3.95460 3.75136
# Velocity P-wave (km/s) = 6.67797 7.41469 7.05595
#
# Compressibility (1/GPa) = 0.01475418
#
# Stress axis : x y z
#
# Youngs Moduli (GPa) = 72.56325 47.70225 142.03134
#
# Poissons Ratio (x) = 0.44089 0.06600
# Poissons Ratio (y) = 0.67067 0.54089
# Poissons Ratio (z) = 0.03372 0.18166
#
# Static dielectric constant tensor:
#      x y z
#    x 0.668780 0.289960 -0.431050 
#    y 0.289960 1.949030 0.097000 
#    z -0.431050 0.097000 1.689860 
# 
# From -- ./inp_files/217102.got.cif
#   From: 2010.05.17/outbox.cif.g08.bks.cpg/sg2_109_cif.got.tgz:217102.got - 2010.06.03 11:33:40.
