data_PCOD9051964
_publ_section_title
;
Structure prediction by ZEFSAII (Michael W. Deem and Ramdas Pophale) SiO2 
 PCOD9051964
Probable space group: P -1
;
_chemical_formula_sum "Si O2"
_cell_formula_units_Z 16
_cell_length_a 9.003294
_cell_length_b 9.741149
_cell_length_c 21.858926
_cell_angle_alpha 130.699913
_cell_angle_beta 28.107070
_cell_angle_gamma 125.864743
_cell_volume 684.423915
_symmetry_space_group_name_H-M "P -1"
_symmetry_group_IT_number 2
_symmetry_cell_setting 'triclinic'
loop_
_space_group_symop_operation_xyz
x,y,z
-x,-y,-z
loop_
_atom_site_type_symbol
_atom_site_label
_atom_site_fract_x
_atom_site_fract_y
_atom_site_fract_z
Si Si1 0.811729 0.430389 0.108578
Si Si2 0.051609 0.409582 0.374143
Si Si3 0.725022 0.829734 0.881698
Si Si4 0.234486 0.881516 0.273414
Si Si5 0.697156 0.373607 0.935187
Si Si6 0.917926 0.961218 0.087538
Si Si7 0.882632 0.206225 0.587317
Si Si8 0.695595 0.144400 0.514253
O O1 0.433493 0.430653 0.251750
O O2 0.971890 0.538084 0.138590
O O3 0.000000 0.500000 0.000000
O O4 0.916324 0.224192 0.012186
O O5 0.068066 0.250907 0.270853
O O6 0.951192 0.611360 0.449174
O O7 0.814293 0.323023 0.486032
O O8 0.494076 0.674848 0.948334
O O9 0.958114 0.889514 0.868143
O O10 0.500000 0.000000 0.000000
O O11 0.276708 0.801121 0.167547
O O12 0.545819 0.943714 0.214413
O O13 0.124560 0.732174 0.320090
O O14 0.016884 0.047172 0.386958
O O15 0.500000 0.500000 0.000000
O O16 0.000000 0.000000 0.000000
O O17 0.594334 0.178289 0.632794
O O18 0.000000 0.000000 0.500000
O O19 0.500000 0.000000 0.500000
#
# Coordination Sequence:
#
# PCOD9051964 Si02
#       8
#     2   2   2   2   2   2   2   2
#     4  12  23  39  65 106 145 184 221 270 343 438
#     4  12  24  44  74 101 141 189 230 290 364 402
#     4  12  23  39  64 107 147 181 225 270 335 448
#     4  11  23  43  69  94 139 189 225 291 365 399
#     4  12  22  39  63 103 145 179 224 267 338 442
#     4  12  22  39  63  99 148 187 217 269 344 431
#     4  10  25  49  70  92 131 180 245 306 345 398
#     4  11  27  48  71  99 128 182 256 309 343 401
#
# _framework density 23.377324999999999
#
# number of rings (size 3 to 8) (size 9 to 14) (size 15 to 20)
#    0.000    0.500    5.000    3.375    3.500    0.000 
#    0.000    2.500    0.000    0.000    0.000    0.000 
#    0.000    0.000    0.000    0.000    0.000    0.000 
#
# Total GULP energy -89113.215609 kJ/mol
# GULP energy per Si atom -5569.575976 kJ/mol
# Density = 2.332412 g / cm^3
# Si number density = 23.377325 Si / 1000 Ang^3
#
#
#
# Elastic Constant Matrix: (Units=GPa)
#
#
# Indices 1 2 3 4 5 6 
#
# 1 119.3617 43.7555 19.6205 5.0524 14.8076 9.4647
# 2 43.7555 111.8240 24.5227 -3.8252 -17.3154 -17.7602
# 3 19.6205 24.5227 63.4472 6.5474 4.3044 -4.2710
# 4 5.0524 -3.8252 6.5474 23.4518 -7.3889 4.9925
# 5 14.8076 -17.3154 4.3044 -7.3889 34.3590 -5.5557
# 6 9.4647 -17.7602 -4.2710 4.9925 -5.5557 62.4617
#
#
#
# Elastic Compliance Matrix: (Units=1/GPa)
#
#
# Indices 1 2 3 4 5 6 
#
# 1 0.013657 -0.008380 0.000281 -0.007272 -0.012511 -0.004964
# 2 -0.008380 0.017399 -0.005841 0.010038 0.016316 0.006467
# 3 0.000281 -0.005841 0.019304 -0.008660 -0.007402 -0.000350
# 4 -0.007272 0.010038 -0.008660 0.054754 0.021194 0.000873
# 5 -0.012511 0.016316 -0.007402 0.021194 0.049618 0.008748
# 6 -0.004964 0.006467 -0.000350 0.000873 0.008748 0.019285
#
#
# Mechanical properties :
#
#
# Convention : Reuss Voigt Hill
#
# Bulk Modulus (GPa) = 44.48377 52.27001 48.37689
# Shear Modulus (GPa) = 23.87852 37.83678 30.85765
#
# Velocity S-wave (km/s) = 3.19946 4.02745 3.63710
# Velocity P-wave (km/s) = 5.72002 6.63589 6.19490
#
# Compressibility (1/GPa) = 0.02248011
#
# Stress axis : x y z
#
# Youngs Moduli (GPa) = 73.22153 57.47316 51.80176
#
# Poissons Ratio (x) = 0.48162 -0.01453
# Poissons Ratio (y) = 0.61359 0.30258
# Poissons Ratio (z) = -0.02054 0.33571
#
# Static dielectric constant tensor:
#      x y z
#    x 1.978690 0.116210 0.186980 
#    y 0.116210 1.921280 0.147510 
#    z 0.186980 0.147510 2.216930 
# 
# From -- ./inp_files/556882.got.cif
#   From: 2010.05.17/outbox.cif.g08.bks.cpg/sg2_279_cif.got.tgz:556882.got - 2010.06.03 11:33:40.
