data_PCOD9051465
_publ_section_title
;
Structure prediction by ZEFSAII (Michael W. Deem and Ramdas Pophale) SiO2 
 PCOD9051465
Probable space group: P -1
;
_chemical_formula_sum "Si O2"
_cell_formula_units_Z 14
_cell_length_a 23.439438
_cell_length_b 17.480542
_cell_length_c 12.950187
_cell_angle_alpha 156.326530
_cell_angle_beta 155.314095
_cell_angle_gamma 17.551870
_cell_volume 614.433638
_symmetry_space_group_name_H-M "P -1"
_symmetry_group_IT_number 2
_symmetry_cell_setting 'triclinic'
loop_
_space_group_symop_operation_xyz
x,y,z
-x,-y,-z
loop_
_atom_site_type_symbol
_atom_site_label
_atom_site_fract_x
_atom_site_fract_y
_atom_site_fract_z
Si Si1 0.305792 0.475017 0.077800
Si Si2 0.108403 0.438345 0.878062
Si Si3 0.254096 0.965053 0.661553
Si Si4 0.783341 0.304436 0.022273
Si Si5 0.092949 0.738875 0.395852
Si Si6 0.324232 0.256034 0.457303
Si Si7 0.541560 0.589443 0.278262
O O1 0.251215 0.742331 0.359155
O O2 0.532443 0.208007 0.152657
O O3 0.171392 0.458664 0.896845
O O4 0.272877 0.526148 0.964816
O O5 0.869504 0.677698 0.792667
O O6 0.203705 0.139155 0.692845
O O7 0.187848 0.497382 0.172160
O O8 0.077073 0.186513 0.723465
O O9 0.764062 0.472728 0.292097
O O10 0.630537 0.287531 0.773188
O O11 0.000000 0.000000 0.000000
O O12 0.253720 0.666004 0.646060
O O13 0.000000 0.000000 0.500000
O O14 0.423582 0.232905 0.487052
O O15 0.500000 0.000000 0.500000
O O16 0.500000 0.500000 0.000000
#
# Coordination Sequence:
#
# PCOD9051465 Si02
#       7
#     2   2   2   2   2   2   2
#     4  11  26  44  72 101 149 187 229 297 360 433
#     4  12  26  45  72 107 144 183 240 299 354 430
#     4  11  24  46  66 106 142 183 239 290 360 418
#     4  11  26  47  73 101 141 194 238 287 365 432
#     4  12  24  43  76 102 138 190 240 291 354 422
#     4  11  27  46  71 105 142 188 241 301 354 421
#     4  10  25  46  71  99 138 189 240 293 349 429
#
# _framework density 22.785211
#
# number of rings (size 3 to 8) (size 9 to 14) (size 15 to 20)
#    0.000    0.857    2.857    2.571   12.000    0.571 
#    5.143    0.000    0.000    0.000    0.000    0.000 
#    0.000    0.000    0.000    0.000    0.000    0.000 
#
# Total GULP energy -78351.189366 kJ/mol
# GULP energy per Si atom -5596.513526 kJ/mol
# Density = 2.273335 g / cm^3
# Si number density = 22.785211 Si / 1000 Ang^3
#
#
#
# Elastic Constant Matrix: (Units=GPa)
#
#
# Indices 1 2 3 4 5 6 
#
# 1 168.4326 47.0695 32.9521 -12.6879 39.6134 15.1657
# 2 47.0695 151.3713 32.3131 -17.4201 23.5260 17.7473
# 3 32.9521 32.3131 50.2914 -15.4858 10.2481 3.4410
# 4 -12.6879 -17.4201 -15.4858 38.4051 -1.5695 -3.0282
# 5 39.6134 23.5260 10.2481 -1.5695 45.3269 3.0038
# 6 15.1657 17.7473 3.4410 -3.0282 3.0038 43.0405
#
#
#
# Elastic Compliance Matrix: (Units=1/GPa)
#
#
# Indices 1 2 3 4 5 6 
#
# 1 0.008477 -0.000612 -0.003568 0.000678 -0.006129 -0.001974
# 2 -0.000612 0.008568 -0.003782 0.001832 -0.002815 -0.002689
# 3 -0.003568 -0.003782 0.027258 0.008161 -0.000883 0.001273
# 4 0.000678 0.001832 0.008161 0.030338 -0.002381 0.000654
# 5 -0.006129 -0.002815 -0.000883 -0.002381 0.028917 0.001205
# 6 -0.001974 -0.002689 0.001273 0.000654 0.001205 0.024898
#
#
# Mechanical properties :
#
#
# Convention : Reuss Voigt Hill
#
# Bulk Modulus (GPa) = 35.23889 66.08497 50.66193
# Shear Modulus (GPa) = 32.50152 42.53855 37.52004
#
# Velocity S-wave (km/s) = 3.78091 4.32549 4.06234
# Velocity P-wave (km/s) = 5.87874 7.34935 6.65479
#
# Compressibility (1/GPa) = 0.02837774
#
# Stress axis : x y z
#
# Youngs Moduli (GPa) = 117.97297 116.71865 36.68678
#
# Poissons Ratio (x) = 0.07145 0.13090
# Poissons Ratio (y) = 0.07221 0.13875
# Poissons Ratio (z) = 0.42092 0.44144
#
# Static dielectric constant tensor:
#      x y z
#    x 1.879610 -0.007860 0.008340 
#    y -0.007860 1.800390 -0.000500 
#    z 0.008340 -0.000500 1.892530 
# 
# From -- ./inp_files/258360.got.cif
#   From: 2010.05.17/outbox.cif.g08.bks.cpg/sg2_130_cif.got.tgz:258360.got - 2010.06.03 11:33:40.
