data_PCOD9051580
_publ_section_title
;
Structure prediction by ZEFSAII (Michael W. Deem and Ramdas Pophale) SiO2 
 PCOD9051580
Probable space group: P -1
;
_chemical_formula_sum "Si O2"
_cell_formula_units_Z 11
_cell_length_a 5.591208
_cell_length_b 8.765435
_cell_length_c 10.550277
_cell_angle_alpha 124.433795
_cell_angle_beta 86.412745
_cell_angle_gamma 74.979308
_cell_volume 397.446131
_symmetry_space_group_name_H-M "P -1"
_symmetry_group_IT_number 2
_symmetry_cell_setting 'triclinic'
loop_
_space_group_symop_operation_xyz
x,y,z
-x,-y,-z
loop_
_atom_site_type_symbol
_atom_site_label
_atom_site_fract_x
_atom_site_fract_y
_atom_site_fract_z
Si Si1 0.013555 0.829991 0.313496
Si Si2 0.759908 0.525501 0.280906
Si Si3 0.500000 0.500000 0.000000
Si Si4 0.472934 0.886764 0.574877
Si Si5 0.447329 0.754743 0.951598
Si Si6 0.194162 0.187943 0.234864
O O1 0.913230 0.663923 0.298791
O O2 0.276423 0.706449 0.178482
O O3 0.000000 0.000000 0.500000
O O4 0.796466 0.975659 0.294208
O O5 0.503920 0.667752 0.425405
O O6 0.677058 0.418843 0.114624
O O7 0.924153 0.350073 0.285114
O O8 0.641436 0.657785 0.011916
O O9 0.710611 0.847774 0.642543
O O10 0.500000 0.000000 0.500000
O O11 0.597267 0.742139 0.812062
O O12 0.247651 0.972281 0.073373
#
# Coordination Sequence:
#
# PCOD9051580 Si02
#       6
#     2   2   1   2   2   2
#     4  11  26  49  79 116 159 205 272 327 393 476
#     4  11  24  49  78 114 159 209 262 326 405 466
#     4  12  26  48  84 108 160 212 260 326 400 466
#     4  10  25  46  78 111 154 206 261 330 395 471
#     4  11  27  44  77 116 156 209 265 326 393 476
#     4  11  25  50  73 116 161 204 267 323 399 480
#
# _framework density 27.676704999999998
#
# number of rings (size 3 to 8) (size 9 to 14) (size 15 to 20)
#    0.000    1.091    1.818    2.182   10.182    5.818 
#    0.000    0.000    0.000    0.000    0.000    0.000 
#    0.000    0.000    0.000    0.000    0.000    0.000 
#
# Total GULP energy -61389.829408 kJ/mol
# GULP energy per Si atom -5580.893583 kJ/mol
# Density = 2.761371 g / cm^3
# Si number density = 27.676705 Si / 1000 Ang^3
#
#
#
# Elastic Constant Matrix: (Units=GPa)
#
#
# Indices 1 2 3 4 5 6 
#
# 1 89.5177 60.6598 79.6037 17.9557 -2.2361 -18.8055
# 2 60.6598 195.3900 69.4335 22.1039 -13.5663 -31.3721
# 3 79.6037 69.4335 193.7736 34.9142 -10.3665 -21.5652
# 4 17.9557 22.1039 34.9142 66.3465 -4.7890 -5.6501
# 5 -2.2361 -13.5663 -10.3665 -4.7890 55.0846 12.4031
# 6 -18.8055 -31.3721 -21.5652 -5.6501 12.4031 64.3193
#
#
#
# Elastic Compliance Matrix: (Units=1/GPa)
#
#
# Indices 1 2 3 4 5 6 
#
# 1 0.020105 -0.003556 -0.006721 -0.000668 -0.001876 0.002194
# 2 -0.003556 0.006893 -0.000609 -0.000786 0.000950 0.001866
# 3 -0.006721 -0.000609 0.008658 -0.002446 0.000939 0.000245
# 4 -0.000668 -0.000786 -0.002446 0.016854 0.000801 -0.000073
# 5 -0.001876 0.000950 0.000939 0.000801 0.019330 -0.003428
# 6 0.002194 0.001866 0.000245 -0.000073 -0.003428 0.017836
#
#
# Mechanical properties :
#
#
# Convention : Reuss Voigt Hill
#
# Bulk Modulus (GPa) = 72.02355 99.78615 85.90485
# Shear Modulus (GPa) = 43.07552 55.08236 49.07894
#
# Velocity S-wave (km/s) = 3.94938 4.46601 4.21562
# Velocity P-wave (km/s) = 6.84664 7.91999 7.40279
#
# Compressibility (1/GPa) = 0.01388435
#
# Stress axis : x y z
#
# Youngs Moduli (GPa) = 49.73826 145.07932 115.49874
#
# Poissons Ratio (x) = 0.51588 0.77628
# Poissons Ratio (y) = 0.17686 0.07033
# Poissons Ratio (z) = 0.33430 0.08835
#
# Static dielectric constant tensor:
#      x y z
#    x 2.326720 -0.045720 0.098700 
#    y -0.045720 2.239790 -0.103130 
#    z 0.098700 -0.103130 2.295230 
# 
# From -- ./inp_files/24775.got.cif
#   From: 2010.05.17/outbox.cif.g08.bks.cpg/sg2_13_cif.got.tgz:24775.got - 2010.06.03 11:33:40.
