data_PCOD9051406
_publ_section_title
;
Structure prediction by ZEFSAII (Michael W. Deem and Ramdas Pophale) SiO2 
 PCOD9051406
Probable space group: P -1
;
_chemical_formula_sum "Si O2"
_cell_formula_units_Z 16
_cell_length_a 4.996681
_cell_length_b 5.282280
_cell_length_c 25.399428
_cell_angle_alpha 121.847918
_cell_angle_beta 93.809270
_cell_angle_gamma 87.948919
_cell_volume 568.204888
_symmetry_space_group_name_H-M "P -1"
_symmetry_group_IT_number 2
_symmetry_cell_setting 'triclinic'
loop_
_space_group_symop_operation_xyz
x,y,z
-x,-y,-z
loop_
_atom_site_type_symbol
_atom_site_label
_atom_site_fract_x
_atom_site_fract_y
_atom_site_fract_z
Si Si1 0.833146 0.193682 0.237651
Si Si2 0.346472 0.041292 0.364967
Si Si3 0.413931 0.286860 0.927418
Si Si4 0.000278 0.604711 0.378162
Si Si5 0.261173 0.538766 0.542685
Si Si6 0.966370 0.818958 0.868913
Si Si7 0.657224 0.207848 0.775465
Si Si8 0.640524 0.798060 0.935454
O O1 0.854249 0.455159 0.309539
O O2 0.822061 0.291769 0.187554
O O3 0.605445 0.961198 0.225207
O O4 0.109601 0.007912 0.222262
O O5 0.187804 0.338347 0.375696
O O6 0.644559 0.149570 0.395590
O O7 0.190013 0.870982 0.390533
O O8 0.353345 0.827340 0.291587
O O9 0.490888 0.487969 0.901870
O O10 0.627318 0.013048 0.906205
O O11 0.500000 0.500000 0.000000
O O12 0.124601 0.144835 0.910562
O O13 0.793858 0.670848 0.430310
O O14 0.500000 0.500000 0.500000
O O15 0.000000 0.500000 0.500000
O O16 0.760542 0.539316 0.822912
O O17 0.956586 0.753975 0.927390
O O18 0.500000 0.000000 0.000000
#
# Coordination Sequence:
#
# PCOD9051406 Si02
#       8
#     2   2   2   2   2   2   2   2
#     4  11  26  47  74 111 153 199 251 316 385 452
#     4  11  25  51  77 112 155 205 252 322 384 449
#     4  10  25  46  70 102 145 191 243 307 373 446
#     4  11  25  51  77 112 155 205 252 322 384 449
#     4  12  26  50  78 116 153 208 262 314 376 462
#     4  12  26  42  76 108 147 192 258 304 382 458
#     4  11  26  47  74 111 153 199 251 316 385 452
#     4  10  25  46  70 102 145 191 243 307 373 446
#
# _framework density 28.158861999999999
#
# number of rings (size 3 to 8) (size 9 to 14) (size 15 to 20)
#    0.000    1.000    3.750    0.750    7.000    6.000 
#    0.000    0.000    0.000    0.000    0.000    0.000 
#    0.000    0.000    0.000    0.000    0.000    0.000 
#
# Total GULP energy -89300.108599 kJ/mol
# GULP energy per Si atom -5581.256787 kJ/mol
# Density = 2.809477 g / cm^3
# Si number density = 28.158862 Si / 1000 Ang^3
#
#
#
# Elastic Constant Matrix: (Units=GPa)
#
#
# Indices 1 2 3 4 5 6 
#
# 1 116.6015 93.7244 32.4384 -9.1695 24.2930 33.2333
# 2 93.7244 241.9848 29.7837 -3.2797 5.0224 69.4563
# 3 32.4384 29.7837 139.6371 2.5846 19.5876 34.4585
# 4 -9.1695 -3.2797 2.5846 53.5921 20.3068 -18.7947
# 5 24.2930 5.0224 19.5876 20.3068 41.7489 4.7318
# 6 33.2333 69.4563 34.4585 -18.7947 4.7318 66.1025
#
#
#
# Elastic Compliance Matrix: (Units=1/GPa)
#
#
# Indices 1 2 3 4 5 6 
#
# 1 0.016992 -0.006776 -0.001527 0.008303 -0.012693 0.002642
# 2 -0.006776 0.008908 0.001042 -0.006114 0.006341 -0.008689
# 3 -0.001527 0.001042 0.008918 -0.001755 -0.001963 -0.005334
# 4 0.008303 -0.006114 -0.001755 0.032479 -0.020643 0.013877
# 5 -0.012693 0.006341 -0.001963 -0.020643 0.042463 -0.008167
# 6 0.002642 -0.008689 -0.005334 0.013877 -0.008167 0.030241
#
#
# Mechanical properties :
#
#
# Convention : Reuss Voigt Hill
#
# Bulk Modulus (GPa) = 49.27018 90.01295 69.64156
# Shear Modulus (GPa) = 31.00038 55.10714 43.05376
#
# Velocity S-wave (km/s) = 3.32160 4.42861 3.91443
# Velocity P-wave (km/s) = 5.67855 7.62795 6.72427
#
# Compressibility (1/GPa) = 0.02029625
#
# Stress axis : x y z
#
# Youngs Moduli (GPa) = 58.85213 112.25817 112.13128
#
# Poissons Ratio (x) = 0.76061 0.17124
# Poissons Ratio (y) = 0.39875 -0.11683
# Poissons Ratio (z) = 0.08988 -0.11696
#
# Static dielectric constant tensor:
#      x y z
#    x 2.454340 -0.203170 -0.127130 
#    y -0.203170 2.168670 -0.129890 
#    z -0.127130 -0.129890 2.350890 
# 
# From -- ./inp_files/614970.got.cif
#   From: 2010.05.17/outbox.cif.g08.bks.cpg/sg2_308_cif.got.tgz:614970.got - 2010.06.03 11:33:40.
