data_PCOD9051703
_publ_section_title
;
Structure prediction by ZEFSAII (Michael W. Deem and Ramdas Pophale) SiO2 
 PCOD9051703
Probable space group: P -1
;
_chemical_formula_sum "Si O2"
_cell_formula_units_Z 10
_cell_length_a 5.139674
_cell_length_b 5.097179
_cell_length_c 14.612043
_cell_angle_alpha 75.755173
_cell_angle_beta 88.797332
_cell_angle_gamma 88.631411
_cell_volume 370.882962
_symmetry_space_group_name_H-M "P -1"
_symmetry_group_IT_number 2
_symmetry_cell_setting 'triclinic'
loop_
_space_group_symop_operation_xyz
x,y,z
-x,-y,-z
loop_
_atom_site_type_symbol
_atom_site_label
_atom_site_fract_x
_atom_site_fract_y
_atom_site_fract_z
Si Si1 0.886907 0.698931 0.117065
Si Si2 0.759115 0.801934 0.909755
Si Si3 0.217793 0.430138 0.390925
Si Si4 0.434863 0.729141 0.753840
Si Si5 0.713610 0.782300 0.403900
O O1 0.708927 0.549060 0.203369
O O2 0.097725 0.475002 0.099265
O O3 0.721200 0.778930 0.020821
O O4 0.047634 0.951673 0.128325
O O5 0.509677 0.837466 0.844240
O O6 0.301429 0.323510 0.300800
O O7 0.436430 0.649655 0.396297
O O8 0.249787 0.200641 0.488353
O O9 0.940434 0.574325 0.389139
O O10 0.274713 0.940437 0.675172
#
# Coordination Sequence:
#
# PCOD9051703 Si02
#       5
#     2   2   2   2   2
#     4  10  25  47  72 109 156 201 253 321 390 459
#     4  10  25  47  72 109 156 201 253 321 390 459
#     4  10  25  47  72 109 156 201 253 321 390 459
#     4  12  26  40  80 110 148 204 262 316 376 474
#     4  10  25  47  72 109 156 201 253 321 390 459
#
# _framework density 26.962682000000001
#
# number of rings (size 3 to 8) (size 9 to 14) (size 15 to 20)
#    0.000    1.600    0.000    1.200   11.200    0.000 
#    0.000   12.000    0.000    7.200    0.000    0.000 
#    0.000    0.000    0.000    0.000    0.000    0.000 
#
# Total GULP energy -56210.949356 kJ/mol
# GULP energy per Si atom -5621.094936 kJ/mol
# Density = 2.690131 g / cm^3
# Si number density = 26.962682 Si / 1000 Ang^3
#
#
#
# Elastic Constant Matrix: (Units=GPa)
#
#
# Indices 1 2 3 4 5 6 
#
# 1 76.4894 35.2738 46.8788 -14.9112 5.1317 9.2813
# 2 35.2738 87.0929 38.8936 -29.2264 6.3549 10.6228
# 3 46.8788 38.8936 190.1182 -38.2227 7.6317 23.3567
# 4 -14.9112 -29.2264 -38.2227 50.6097 -2.6065 -1.4292
# 5 5.1317 6.3549 7.6317 -2.6065 25.2030 2.0316
# 6 9.2813 10.6228 23.3567 -1.4292 2.0316 41.2533
#
#
#
# Elastic Compliance Matrix: (Units=1/GPa)
#
#
# Indices 1 2 3 4 5 6 
#
# 1 0.017740 -0.005800 -0.003180 -0.000605 -0.001196 -0.000659
# 2 -0.005800 0.016970 -0.000049 0.007873 -0.002054 -0.002663
# 3 -0.003180 -0.000049 0.007389 0.004479 -0.000852 -0.003258
# 4 -0.000605 0.007873 0.004479 0.027407 -0.000104 -0.003473
# 5 -0.001196 -0.002054 -0.000852 -0.000104 0.040745 -0.000730
# 6 -0.000659 -0.002663 -0.003258 -0.003473 -0.000730 0.026835
#
#
# Mechanical properties :
#
#
# Convention : Reuss Voigt Hill
#
# Bulk Modulus (GPa) = 41.59708 66.19919 53.89814
# Shear Modulus (GPa) = 30.64520 38.92349 34.78434
#
# Velocity S-wave (km/s) = 3.37498 3.80360 3.59568
# Velocity P-wave (km/s) = 5.53610 6.62535 6.10507
#
# Compressibility (1/GPa) = 0.02404015
#
# Stress axis : x y z
#
# Youngs Moduli (GPa) = 56.37024 58.92895 135.33326
#
# Poissons Ratio (x) = 0.34178 0.43040
# Poissons Ratio (y) = 0.32694 0.00663
# Poissons Ratio (z) = 0.17928 0.00289
#
# Static dielectric constant tensor:
#      x y z
#    x 2.062600 -0.019730 0.021170 
#    y -0.019730 2.072910 0.027480 
#    z 0.021170 0.027480 2.082910 
# 
# From -- ./inp_files/478231.got.cif
#   From: 2010.05.17/outbox.cif.g08.bks.cpg/sg2_240_cif.got.tgz:478231.got - 2010.06.03 11:33:40.
