data_PCOD9051882
_publ_section_title
;
Structure prediction by ZEFSAII (Michael W. Deem and Ramdas Pophale) SiO2 
 PCOD9051882
Probable space group: P -1
;
_chemical_formula_sum "Si O2"
_cell_formula_units_Z 16
_cell_length_a 17.619247
_cell_length_b 24.336228
_cell_length_c 5.543384
_cell_angle_alpha 120.672926
_cell_angle_beta 113.841139
_cell_angle_gamma 18.573208
_cell_volume 623.243000
_symmetry_space_group_name_H-M "P -1"
_symmetry_group_IT_number 2
_symmetry_cell_setting 'triclinic'
loop_
_space_group_symop_operation_xyz
x,y,z
-x,-y,-z
loop_
_atom_site_type_symbol
_atom_site_label
_atom_site_fract_x
_atom_site_fract_y
_atom_site_fract_z
Si Si1 0.986229 0.475607 0.742391
Si Si2 0.962528 0.208951 0.056343
Si Si3 0.184361 0.433880 0.687376
Si Si4 0.959784 0.087920 0.457290
Si Si5 0.513145 0.029185 0.336818
Si Si6 0.549612 0.579817 0.653547
Si Si7 0.986360 0.296519 0.917461
Si Si8 0.636935 0.153810 0.919302
O O1 0.741715 0.625353 0.647299
O O2 0.000000 0.500000 0.500000
O O3 0.257013 0.252762 0.533612
O O4 0.967424 0.480722 0.033199
O O5 0.906243 0.192125 0.764048
O O6 0.060101 0.201301 0.028221
O O7 0.715182 0.414599 0.326801
O O8 0.167162 0.029809 0.093054
O O9 0.447396 0.247881 0.739270
O O10 0.060372 0.594191 0.867692
O O11 0.729811 0.243664 0.327707
O O12 0.000000 0.000000 0.500000
O O13 0.206533 0.920167 0.244256
O O14 0.500000 0.000000 0.500000
O O15 0.770538 0.881212 0.337132
O O16 0.500000 0.000000 0.000000
O O17 0.511735 0.682104 0.762638
O O18 0.728396 0.455265 0.838427
#
# Coordination Sequence:
#
# PCOD9051882 Si02
#       8
#     2   2   2   2   2   2   2   2
#     4  11  25  47  81 109 156 212 263 329 410 483
#     4  12  28  47  81 116 155 209 262 331 408 484
#     4  10  25  48  73 111 154 204 262 331 400 479
#     4  12  27  51  78 114 156 211 265 327 407 487
#     4  12  28  51  82 117 165 215 273 340 409 495
#     4  11  27  49  78 109 156 204 264 335 395 483
#     4  11  27  50  78 118 155 208 267 332 408 482
#     4  11  27  51  77 113 158 206 268 333 402 486
#
# _framework density 25.672172
#
# number of rings (size 3 to 8) (size 9 to 14) (size 15 to 20)
#    0.000    0.750    2.500    2.250   10.500    5.000 
#    0.000    0.000    0.000    0.000    0.000    0.000 
#    0.000    0.000    0.000    0.000    0.000    0.000 
#
# Total GULP energy -89292.487063 kJ/mol
# GULP energy per Si atom -5580.780441 kJ/mol
# Density = 2.561374 g / cm^3
# Si number density = 25.672172 Si / 1000 Ang^3
#
#
#
# Elastic Constant Matrix: (Units=GPa)
#
#
# Indices 1 2 3 4 5 6 
#
# 1 133.0335 65.8552 36.9334 -15.1458 -3.7356 29.0883
# 2 65.8552 174.5892 62.7504 -9.4478 -5.3938 -10.3423
# 3 36.9334 62.7504 126.5360 -12.7296 30.9216 -7.1689
# 4 -15.1458 -9.4478 -12.7296 46.9948 -3.3961 12.3269
# 5 -3.7356 -5.3938 30.9216 -3.3961 42.7595 -2.9509
# 6 29.0883 -10.3423 -7.1689 12.3269 -2.9509 54.1047
#
#
#
# Elastic Compliance Matrix: (Units=1/GPa)
#
#
# Indices 1 2 3 4 5 6 
#
# 1 0.012862 -0.004310 -0.002059 0.005244 0.001857 -0.009105
# 2 -0.004310 0.009127 -0.004148 -0.001458 0.003938 0.004059
# 3 -0.002059 -0.004148 0.013198 0.001013 -0.010078 0.001283
# 4 0.005244 -0.001458 0.001013 0.025294 0.000952 -0.008674
# 5 0.001857 0.003938 -0.010078 0.000952 0.031404 -0.000085
# 6 -0.009105 0.004059 0.001283 -0.008674 -0.000085 0.026295
#
#
# Mechanical properties :
#
#
# Convention : Reuss Voigt Hill
#
# Bulk Modulus (GPa) = 70.64784 85.02629 77.83707
# Shear Modulus (GPa) = 34.73875 46.67977 40.70926
#
# Velocity S-wave (km/s) = 3.68253 4.26878 3.98645
# Velocity P-wave (km/s) = 6.75725 7.58212 7.18154
#
# Compressibility (1/GPa) = 0.01415471
#
# Stress axis : x y z
#
# Youngs Moduli (GPa) = 77.74873 109.56160 75.76849
#
# Poissons Ratio (x) = 0.47218 0.15602
# Poissons Ratio (y) = 0.33507 0.31425
# Poissons Ratio (z) = 0.16009 0.45441
#
# Static dielectric constant tensor:
#      x y z
#    x 2.223980 0.145460 -0.149460 
#    y 0.145460 1.990450 -0.155710 
#    z -0.149460 -0.155710 2.235150 
# 
# From -- ./inp_files/112955.got.cif
#   From: 2010.05.17/outbox.cif.g08.bks.cpg/sg2_57_cif.got.tgz:112955.got - 2010.06.03 11:33:40.
