data_PCOD9051922
_publ_section_title
;
Structure prediction by ZEFSAII (Michael W. Deem and Ramdas Pophale) SiO2 
 PCOD9051922
Probable space group: P -1
;
_chemical_formula_sum "Si O2"
_cell_formula_units_Z 13
_cell_length_a 11.520857
_cell_length_b 5.051499
_cell_length_c 15.558180
_cell_angle_alpha 120.291745
_cell_angle_beta 138.575103
_cell_angle_gamma 65.876125
_cell_volume 516.548155
_symmetry_space_group_name_H-M "P -1"
_symmetry_group_IT_number 2
_symmetry_cell_setting 'triclinic'
loop_
_space_group_symop_operation_xyz
x,y,z
-x,-y,-z
loop_
_atom_site_type_symbol
_atom_site_label
_atom_site_fract_x
_atom_site_fract_y
_atom_site_fract_z
Si Si1 0.571425 0.445916 0.289891
Si Si2 0.818113 0.860311 0.605214
Si Si3 0.071328 0.840568 0.597556
Si Si4 0.043695 0.604068 0.840002
Si Si5 0.000000 0.000000 0.000000
Si Si6 0.576855 0.651910 0.984760
Si Si7 0.771811 0.405156 0.794171
O O1 0.677827 0.697932 0.442299
O O2 0.492001 0.523240 0.165529
O O3 0.404059 0.395933 0.248245
O O4 0.720542 0.184937 0.304745
O O5 0.971820 0.974678 0.647814
O O6 0.922555 0.636107 0.694503
O O7 0.737149 0.144757 0.661096
O O8 0.000000 0.500000 0.500000
O O9 0.000000 0.000000 0.500000
O O10 0.913048 0.610910 0.854730
O O11 0.212538 0.379688 0.898411
O O12 0.112722 0.934220 0.958736
O O13 0.846783 0.221606 0.888213
O O14 0.500000 0.500000 0.000000
O O15 0.500000 0.000000 0.000000
#
# Coordination Sequence:
#
# PCOD9051922 Si02
#       7
#     2   2   2   2   1   2   2
#     4  11  27  48  80 120 156 203 269 336 397 473
#     4  11  25  48  81 116 158 211 258 333 408 477
#     4  10  25  48  76 109 158 209 257 319 402 471
#     4  10  26  48  76 110 156 208 265 314 407 468
#     4   8  24  44  72 110 148 216 248 320 390 474
#     4  12  31  51  79 116 158 214 273 331 390 484
#     4  10  25  48  78 113 165 198 271 320 413 473
#
# _framework density 25.167065000000001
#
# number of rings (size 3 to 8) (size 9 to 14) (size 15 to 20)
#    0.923    0.615    0.000    1.385   12.923    4.308 
#    5.538    0.000    0.000    0.000    0.000    0.000 
#    0.000    0.000    0.000    0.000    0.000    0.000 
#
# Total GULP energy -72490.781638 kJ/mol
# GULP energy per Si atom -5576.213972 kJ/mol
# Density = 2.510978 g / cm^3
# Si number density = 25.167065 Si / 1000 Ang^3
#
#
#
# Elastic Constant Matrix: (Units=GPa)
#
#
# Indices 1 2 3 4 5 6 
#
# 1 204.3392 53.4285 81.5683 -21.4663 8.5125 -21.1037
# 2 53.4285 95.1582 41.1821 -16.5502 9.2997 11.1670
# 3 81.5683 41.1821 196.3150 20.1394 -4.2491 8.4896
# 4 -21.4663 -16.5502 20.1394 43.4308 -10.3465 2.3544
# 5 8.5125 9.2997 -4.2491 -10.3465 50.0852 -10.0315
# 6 -21.1037 11.1670 8.4896 2.3544 -10.0315 38.8325
#
#
#
# Elastic Compliance Matrix: (Units=1/GPa)
#
#
# Indices 1 2 3 4 5 6 
#
# 1 0.008101 -0.003147 -0.003386 0.004289 0.001018 0.006051
# 2 -0.003147 0.015092 -0.002134 0.004886 -0.002760 -0.006593
# 3 -0.003386 -0.002134 0.007665 -0.005930 -0.000118 -0.002573
# 4 0.004289 0.004886 -0.005930 0.030750 0.004519 0.001525
# 5 0.001018 -0.002760 -0.000118 0.004519 0.022619 0.006942
# 6 0.006051 -0.006593 -0.002573 0.001525 0.006942 0.033199
#
#
# Mechanical properties :
#
#
# Convention : Reuss Voigt Hill
#
# Bulk Modulus (GPa) = 73.93489 94.24112 84.08801
# Shear Modulus (GPa) = 35.90153 47.77860 41.84006
#
# Velocity S-wave (km/s) = 3.78104 4.36186 4.08179
# Velocity P-wave (km/s) = 6.96442 7.93065 7.46319
#
# Compressibility (1/GPa) = 0.01352541
#
# Stress axis : x y z
#
# Youngs Moduli (GPa) = 123.43864 66.25808 130.45823
#
# Poissons Ratio (x) = 0.20851 0.44167
# Poissons Ratio (y) = 0.38846 0.27844
# Poissons Ratio (z) = 0.41790 0.14142
#
# Static dielectric constant tensor:
#      x y z
#    x 1.995170 -0.011590 0.029730 
#    y -0.011590 2.209980 0.128380 
#    z 0.029730 0.128380 2.049970 
# 
# From -- ./inp_files/510525.got.cif
#   From: 2010.05.17/outbox.cif.g08.bks.cpg/sg2_256_cif.got.tgz:510525.got - 2010.06.03 11:33:40.
