data_PCOD9051692
_publ_section_title
;
Structure prediction by ZEFSAII (Michael W. Deem and Ramdas Pophale) SiO2 
 PCOD9051692
Probable space group: P -1
;
_chemical_formula_sum "Si O2"
_cell_formula_units_Z 14
_cell_length_a 5.121040
_cell_length_b 13.881005
_cell_length_c 16.938838
_cell_angle_alpha 146.353308
_cell_angle_beta 118.288801
_cell_angle_gamma 65.223533
_cell_volume 586.732926
_symmetry_space_group_name_H-M "P -1"
_symmetry_group_IT_number 2
_symmetry_cell_setting 'triclinic'
loop_
_space_group_symop_operation_xyz
x,y,z
-x,-y,-z
loop_
_atom_site_type_symbol
_atom_site_label
_atom_site_fract_x
_atom_site_fract_y
_atom_site_fract_z
Si Si1 0.810606 0.136307 0.658592
Si Si2 0.123976 0.486654 0.264718
Si Si3 0.611544 0.875516 0.003341
Si Si4 0.680624 0.628641 0.166244
Si Si5 0.817937 0.587092 0.604177
Si Si6 0.241621 0.016950 0.188285
Si Si7 0.301159 0.868228 0.543048
O O1 0.555868 0.228881 0.736260
O O2 0.690685 0.107187 0.533020
O O3 0.069692 0.273690 0.779454
O O4 0.985366 0.957845 0.586915
O O5 0.029145 0.448197 0.313812
O O6 0.303186 0.662175 0.415008
O O7 0.855077 0.529345 0.194947
O O8 0.322674 0.320682 0.150164
O O9 0.391966 0.893383 0.058309
O O10 0.928537 0.948255 0.122213
O O11 0.500000 0.000000 0.000000
O O12 0.500000 0.500000 0.000000
O O13 0.500000 0.500000 0.500000
O O14 0.791945 0.793244 0.727311
O O15 0.000000 0.500000 0.500000
O O16 0.451020 0.043687 0.310992
#
# Coordination Sequence:
#
# PCOD9051692 Si02
#       7
#     2   2   2   2   2   2   2
#     4  10  25  47  72 104 149 184 244 304 358 424
#     4  11  27  47  76 107 147 194 245 300 364 433
#     4  12  28  49  68 105 149 188 233 298 363 427
#     4  11  26  46  72 108 147 191 239 300 366 432
#     4  12  26  45  72 109 143 184 245 303 354 429
#     4  12  27  45  75 101 143 192 240 290 365 431
#     4  10  25  47  77 107 141 195 244 301 360 429
#
# _framework density 23.860942000000001
#
# number of rings (size 3 to 8) (size 9 to 14) (size 15 to 20)
#    0.000    0.857    2.857    1.714    6.000    8.571 
#    0.000    0.000    0.000    0.000    0.000    0.000 
#    0.000    0.000    0.000    0.000    0.000    0.000 
#
# Total GULP energy -78560.480157 kJ/mol
# GULP energy per Si atom -5611.462868 kJ/mol
# Density = 2.380663 g / cm^3
# Si number density = 23.860942 Si / 1000 Ang^3
#
#
#
# Elastic Constant Matrix: (Units=GPa)
#
#
# Indices 1 2 3 4 5 6 
#
# 1 98.1709 12.9119 29.8927 7.9876 -3.4167 -10.8761
# 2 12.9119 110.1019 56.3993 10.9410 -1.1900 -12.5214
# 3 29.8927 56.3993 141.2218 8.5577 -15.8801 -10.6443
# 4 7.9876 10.9410 8.5577 54.4618 -12.2840 0.8955
# 5 -3.4167 -1.1900 -15.8801 -12.2840 38.2692 -3.2924
# 6 -10.8761 -12.5214 -10.6443 0.8955 -3.2924 26.8444
#
#
#
# Elastic Compliance Matrix: (Units=1/GPa)
#
#
# Indices 1 2 3 4 5 6 
#
# 1 0.011355 0.000374 -0.002166 -0.001466 -0.000003 0.003965
# 2 0.000374 0.012076 -0.004701 -0.002241 -0.001938 0.003757
# 3 -0.002166 -0.004701 0.009943 0.000601 0.004096 0.001355
# 4 -0.001466 -0.002241 0.000601 0.020418 0.006492 -0.001286
# 5 -0.000003 -0.001938 0.004096 0.006492 0.030216 0.004208
# 6 0.003965 0.003757 0.001355 -0.001286 0.004208 0.041707
#
#
# Mechanical properties :
#
#
# Convention : Reuss Voigt Hill
#
# Bulk Modulus (GPa) = 49.04483 60.87805 54.96144
# Shear Modulus (GPa) = 34.36552 40.60113 37.48333
#
# Velocity S-wave (km/s) = 3.79917 4.12949 3.96777
# Velocity P-wave (km/s) = 6.31221 6.95025 6.63890
#
# Compressibility (1/GPa) = 0.02038951
#
# Stress axis : x y z
#
# Youngs Moduli (GPa) = 88.06711 82.81174 100.57279
#
# Poissons Ratio (x) = -0.03100 0.21780
# Poissons Ratio (y) = -0.03296 0.47276
# Poissons Ratio (z) = 0.19072 0.38927
#
# Static dielectric constant tensor:
#      x y z
#    x 1.901240 0.004220 0.026590 
#    y 0.004220 1.914670 0.003770 
#    z 0.026590 0.003770 1.883470 
# 
# From -- ./inp_files/549989.got.cif
#   From: 2010.05.17/outbox.cif.g08.bks.cpg/sg2_275_cif.got.tgz:549989.got - 2010.06.03 11:33:40.
