data_PCOD9051041
_publ_section_title
;
Structure prediction by ZEFSAII (Michael W. Deem and Ramdas Pophale) SiO2 
 PCOD9051041
Probable space group: P -1
;
_chemical_formula_sum "Si O2"
_cell_formula_units_Z 12
_cell_length_a 5.283527
_cell_length_b 8.454412
_cell_length_c 11.761179
_cell_angle_alpha 87.319966
_cell_angle_beta 107.714391
_cell_angle_gamma 107.843266
_cell_volume 475.752781
_symmetry_space_group_name_H-M "P -1"
_symmetry_group_IT_number 2
_symmetry_cell_setting 'triclinic'
loop_
_space_group_symop_operation_xyz
x,y,z
-x,-y,-z
loop_
_atom_site_type_symbol
_atom_site_label
_atom_site_fract_x
_atom_site_fract_y
_atom_site_fract_z
Si Si1 0.355139 0.977279 0.602025
Si Si2 0.838439 0.715036 0.481300
Si Si3 0.724482 0.851744 0.088635
Si Si4 0.566671 0.558483 0.682442
Si Si5 0.136483 0.631361 0.115941
Si Si6 0.259625 0.109215 0.174134
O O1 0.577184 0.989959 0.728355
O O2 0.144327 0.791690 0.570954
O O3 0.500000 0.000000 0.500000
O O4 0.216270 0.123540 0.588051
O O5 0.659170 0.650875 0.572046
O O6 0.739216 0.569364 0.380661
O O7 0.426411 0.756251 0.102901
O O8 0.914679 0.726906 0.114192
O O9 0.692130 0.898464 0.952013
O O10 0.932149 0.024178 0.161966
O O11 0.766998 0.454039 0.758692
O O12 0.614040 0.700772 0.777431
O O13 0.000000 0.500000 0.000000
#
# Coordination Sequence:
#
# PCOD9051041 Si02
#       6
#     2   2   2   2   2   2
#     4  11  23  43  70  96 138 183 234 288 359 419
#     4  10  25  45  68 102 136 186 237 293 357 426
#     4  11  28  48  74 108 145 191 241 287 368 423
#     4  11  24  44  71 103 141 182 240 297 356 419
#     4  12  26  48  75 106 146 190 237 297 358 426
#     4  11  25  45  73 103 141 188 235 304 348 434
#
# _framework density 25.223184
#
# number of rings (size 3 to 8) (size 9 to 14) (size 15 to 20)
#    0.000    1.000    3.333    1.500    4.667    4.667 
#    0.000    0.000    0.000    0.000    0.000    0.000 
#    0.000    0.000    0.000    0.000    0.000    0.000 
#
# Total GULP energy -67232.241910 kJ/mol
# GULP energy per Si atom -5602.686826 kJ/mol
# Density = 2.516578 g / cm^3
# Si number density = 25.223184 Si / 1000 Ang^3
#
#
#
# Elastic Constant Matrix: (Units=GPa)
#
#
# Indices 1 2 3 4 5 6 
#
# 1 90.4437 46.4448 21.7495 7.8929 8.0221 18.4487
# 2 46.4448 153.0765 50.6783 37.3248 7.9825 20.8196
# 3 21.7495 50.6783 135.8427 5.5912 33.3175 3.6959
# 4 7.8929 37.3248 5.5912 66.9485 -1.3113 16.9240
# 5 8.0221 7.9825 33.3175 -1.3113 31.8866 -0.3732
# 6 18.4487 20.8196 3.6959 16.9240 -0.3732 44.0762
#
#
#
# Elastic Compliance Matrix: (Units=1/GPa)
#
#
# Indices 1 2 3 4 5 6 
#
# 1 0.014112 -0.003860 -0.000172 0.001650 -0.002391 -0.004723
# 2 -0.003860 0.009953 -0.003306 -0.004516 0.001736 -0.001060
# 3 -0.000172 -0.003306 0.011249 0.000620 -0.010853 0.000360
# 4 0.001650 -0.004516 0.000620 0.018684 0.000768 -0.005777
# 5 -0.002391 0.001736 -0.010853 0.000768 0.042913 0.001160
# 6 -0.004723 -0.001060 0.000360 -0.005777 0.001160 0.027363
#
#
# Mechanical properties :
#
#
# Convention : Reuss Voigt Hill
#
# Bulk Modulus (GPa) = 48.45632 68.56755 58.51194
# Shear Modulus (GPa) = 34.28661 45.94827 40.11744
#
# Velocity S-wave (km/s) = 3.69091 4.27273 3.99243
# Velocity P-wave (km/s) = 6.11690 7.18227 6.67089
#
# Compressibility (1/GPa) = 0.02063714
#
# Stress axis : x y z
#
# Youngs Moduli (GPa) = 70.86377 100.47127 88.89655
#
# Poissons Ratio (x) = 0.38779 0.01532
# Poissons Ratio (y) = 0.27352 0.29391
# Poissons Ratio (z) = 0.01221 0.33218
#
# Static dielectric constant tensor:
#      x y z
#    x 2.020580 -0.029360 0.026060 
#    y -0.029360 2.036870 0.030790 
#    z 0.026060 0.030790 1.947960 
# 
# From -- ./inp_files/34384.got.cif
#   From: 2010.05.17/outbox.cif.g08.bks.cpg/sg2_18_cif.got.tgz:34384.got - 2010.06.03 11:33:40.
