data_PCOD9051701
_publ_section_title
;
Structure prediction by ZEFSAII (Michael W. Deem and Ramdas Pophale) SiO2 
 PCOD9051701
Probable space group: P -1
;
_chemical_formula_sum "Si O2"
_cell_formula_units_Z 16
_cell_length_a 12.071248
_cell_length_b 14.929055
_cell_length_c 20.012602
_cell_angle_alpha 144.986897
_cell_angle_beta 155.047904
_cell_angle_gamma 30.377231
_cell_volume 757.828503
_symmetry_space_group_name_H-M "P -1"
_symmetry_group_IT_number 2
_symmetry_cell_setting 'triclinic'
loop_
_space_group_symop_operation_xyz
x,y,z
-x,-y,-z
loop_
_atom_site_type_symbol
_atom_site_label
_atom_site_fract_x
_atom_site_fract_y
_atom_site_fract_z
Si Si1 0.052811 0.096435 0.205916
Si Si2 0.291282 0.584698 0.115015
Si Si3 0.574844 0.987719 0.831323
Si Si4 0.750041 0.298676 0.294452
Si Si5 0.576806 0.852807 0.895062
Si Si6 0.591738 0.827988 0.395967
Si Si7 0.976315 0.335963 0.200404
Si Si8 0.362397 0.345270 0.875239
O O1 0.900511 0.145134 0.225340
O O2 0.015134 0.278819 0.264242
O O3 0.401604 0.943215 0.298673
O O4 0.851943 0.027628 0.017578
O O5 0.480615 0.463501 0.207625
O O6 0.434273 0.711684 0.256467
O O7 0.320040 0.461525 0.991166
O O8 0.934130 0.711461 0.007502
O O9 0.341389 0.171846 0.779875
O O10 0.492604 0.944959 0.832604
O O11 0.717791 0.809363 0.756378
O O12 0.609787 0.244402 0.245252
O O13 0.049603 0.299852 0.483927
O O14 0.500000 0.000000 0.000000
O O15 0.500000 0.000000 0.500000
O O16 0.872859 0.531429 0.234561
O O17 0.691289 0.308547 0.007474
#
# Coordination Sequence:
#
# PCOD9051701 Si02
#       8
#     2   2   2   2   2   2   2   2
#     4  10  17  35  54  79 114 148 190 233 285 331
#     4  12  20  37  57  83 119 150 193 246 284 339
#     4  11  19  34  57  87 119 153 188 236 294 337
#     4  11  22  35  52  85 118 152 189 232 285 347
#     4  12  21  36  56  82 121 156 186 234 294 347
#     4  10  21  36  56  78 115 156 195 236 283 343
#     4  10  19  32  55  87 121 144 190 244 293 333
#     4  10  19  32  55  90 117 144 189 245 292 338
#
# _framework density 21.112956000000001
#
# number of rings (size 3 to 8) (size 9 to 14) (size 15 to 20)
#    0.000    1.250    6.250    3.000    0.000    1.000 
#    0.000    0.000    0.000    0.750    0.000    1.750 
#    0.000    0.000    0.000    0.000    0.000    0.000 
#
# Total GULP energy -89205.314387 kJ/mol
# GULP energy per Si atom -5575.332149 kJ/mol
# Density = 2.106490 g / cm^3
# Si number density = 21.112956 Si / 1000 Ang^3
#
#
#
# Elastic Constant Matrix: (Units=GPa)
#
#
# Indices 1 2 3 4 5 6 
#
# 1 128.9576 54.2892 14.4101 -4.1152 15.2253 20.2113
# 2 54.2892 111.6826 6.7852 -11.1838 13.2043 22.8505
# 3 14.4101 6.7852 42.0757 -7.1786 13.3806 3.6828
# 4 -4.1152 -11.1838 -7.1786 21.3826 -4.3053 -9.7501
# 5 15.2253 13.2043 13.3806 -4.3053 20.6272 -2.5073
# 6 20.2113 22.8505 3.6828 -9.7501 -2.5073 49.1192
#
#
#
# Elastic Compliance Matrix: (Units=1/GPa)
#
#
# Indices 1 2 3 4 5 6 
#
# 1 0.010706 -0.004133 -0.001573 -0.003186 -0.005299 -0.003268
# 2 -0.004133 0.012755 0.002347 0.003539 -0.006389 -0.004033
# 3 -0.001573 0.002347 0.031524 0.006362 -0.019774 -0.002555
# 4 -0.003186 0.003539 0.006362 0.056993 0.009188 0.010970
# 5 -0.005299 -0.006389 -0.019774 0.009188 0.072705 0.012170
# 6 -0.003268 -0.004033 -0.002555 0.010970 0.012170 0.026570
#
#
# Mechanical properties :
#
#
# Convention : Reuss Voigt Hill
#
# Bulk Modulus (GPa) = 20.71745 48.18720 34.45233
# Shear Modulus (GPa) = 21.36218 32.04121 26.70169
#
# Velocity S-wave (km/s) = 3.18434 3.89988 3.56013
# Velocity P-wave (km/s) = 4.83260 6.56900 5.76653
#
# Compressibility (1/GPa) = 0.04826848
#
# Stress axis : x y z
#
# Youngs Moduli (GPa) = 93.40464 78.39996 31.72175
#
# Poissons Ratio (x) = 0.32400 0.04989
# Poissons Ratio (y) = 0.38601 -0.07445
# Poissons Ratio (z) = 0.14689 -0.18399
#
# Static dielectric constant tensor:
#      x y z
#    x 1.797890 0.021180 -0.074350 
#    y 0.021180 1.879890 -0.023000 
#    z -0.074350 -0.023000 1.805070 
# 
# From -- ./inp_files/595504.got.cif
#   From: 2010.05.17/outbox.cif.g08.bks.cpg/sg2_298_cif.got.tgz:595504.got - 2010.06.03 11:33:40.
