data_PCOD9051753
_publ_section_title
;
Structure prediction by ZEFSAII (Michael W. Deem and Ramdas Pophale) SiO2 
 PCOD9051753
Probable space group: P -1
;
_chemical_formula_sum "Si O2"
_cell_formula_units_Z 16
_cell_length_a 16.416673
_cell_length_b 7.954899
_cell_length_c 9.505607
_cell_angle_alpha 106.746049
_cell_angle_beta 34.719836
_cell_angle_gamma 111.599032
_cell_volume 657.146718
_symmetry_space_group_name_H-M "P -1"
_symmetry_group_IT_number 2
_symmetry_cell_setting 'triclinic'
loop_
_space_group_symop_operation_xyz
x,y,z
-x,-y,-z
loop_
_atom_site_type_symbol
_atom_site_label
_atom_site_fract_x
_atom_site_fract_y
_atom_site_fract_z
Si Si1 0.330199 0.469514 0.601138
Si Si2 0.384697 0.988901 0.032681
Si Si3 0.896469 0.601524 0.585466
Si Si4 0.932060 0.055187 0.429558
Si Si5 0.106044 0.861340 0.800358
Si Si6 0.943640 0.684837 0.225610
Si Si7 0.416019 0.875786 0.465876
Si Si8 0.654886 0.422740 0.088592
O O1 0.211170 0.345315 0.641204
O O2 0.362526 0.674915 0.551870
O O3 0.483215 0.413117 0.352893
O O4 0.276732 0.475938 0.840328
O O5 0.335926 0.784013 0.991357
O O6 0.471352 0.115921 0.819535
O O7 0.232420 0.031954 0.303742
O O8 0.500000 0.000000 0.000000
O O9 0.916440 0.579880 0.385750
O O10 0.000000 0.500000 0.500000
O O11 0.962146 0.809979 0.584454
O O12 0.734699 0.527755 0.864390
O O13 0.903667 0.169349 0.359971
O O14 0.001613 0.892345 0.245050
O O15 0.274921 0.941475 0.624556
O O16 0.051552 0.688217 0.939301
O O17 0.000000 0.000000 0.000000
O O18 0.500000 0.000000 0.500000
#
# Coordination Sequence:
#
# PCOD9051753 Si02
#       8
#     2   2   2   2   2   2   2   2
#     4  11  27  47  74 104 140 188 243 296 352 427
#     4  12  24  44  73  99 145 182 235 285 358 424
#     4  12  27  44  69 106 146 184 235 297 362 420
#     4  11  24  48  72 104 140 192 233 296 358 430
#     4  10  25  47  75 103 141 188 242 292 355 431
#     4  11  27  46  74 104 142 186 243 290 359 429
#     4  12  27  44  74 108 140 188 241 295 354 426
#     4  11  26  49  71 103 148 188 231 299 362 422
#
# _framework density 24.347681000000001
#
# number of rings (size 3 to 8) (size 9 to 14) (size 15 to 20)
#    0.000    0.750    3.750    1.875   10.500    3.000 
#    0.000    0.000    0.000    0.000    0.000    0.000 
#    0.000    0.000    0.000    0.000    0.000    0.000 
#
# Total GULP energy -89542.414029 kJ/mol
# GULP energy per Si atom -5596.400877 kJ/mol
# Density = 2.429226 g / cm^3
# Si number density = 24.347681 Si / 1000 Ang^3
#
#
#
# Elastic Constant Matrix: (Units=GPa)
#
#
# Indices 1 2 3 4 5 6 
#
# 1 118.9232 0.0476 40.8299 -2.5783 37.9311 10.9981
# 2 0.0476 52.1038 -5.4232 -3.9507 9.4176 9.9308
# 3 40.8299 -5.4232 139.2427 -21.5016 34.7648 -3.9851
# 4 -2.5783 -3.9507 -21.5016 38.3125 -6.5617 8.0318
# 5 37.9311 9.4176 34.7648 -6.5617 49.8645 -6.1404
# 6 10.9981 9.9308 -3.9851 8.0318 -6.1404 37.9643
#
#
#
# Elastic Compliance Matrix: (Units=1/GPa)
#
#
# Indices 1 2 3 4 5 6 
#
# 1 0.012596 0.002834 -0.001263 0.000007 -0.009991 -0.006140
# 2 0.002834 0.023143 0.002738 0.004463 -0.008954 -0.008980
# 3 -0.001263 0.002738 0.009878 0.005002 -0.005949 -0.001334
# 4 0.000007 0.004463 0.005002 0.030701 -0.001199 -0.007333
# 5 -0.009991 -0.008954 -0.005949 -0.001199 0.034625 0.010466
# 6 -0.006140 -0.008980 -0.001334 -0.007333 0.010466 0.033573
#
#
# Mechanical properties :
#
#
# Convention : Reuss Voigt Hill
#
# Bulk Modulus (GPa) = 18.43830 42.35314 30.39572
# Shear Modulus (GPa) = 32.47238 43.54927 38.01083
#
# Velocity S-wave (km/s) = 3.65594 4.23382 3.95545
# Velocity P-wave (km/s) = 5.04089 6.42909 5.77684
#
# Compressibility (1/GPa) = 0.05423493
#
# Stress axis : x y z
#
# Youngs Moduli (GPa) = 79.38899 43.20932 101.23151
#
# Poissons Ratio (x) = -0.12245 0.12789
# Poissons Ratio (y) = -0.22497 -0.27718
# Poissons Ratio (z) = 0.10029 -0.11831
#
# Static dielectric constant tensor:
#      x y z
#    x 1.959080 -0.026590 0.023150 
#    y -0.026590 1.992220 0.006330 
#    z 0.023150 0.006330 1.978510 
# 
# From -- ./inp_files/207922.got.cif
#   From: 2010.05.17/outbox.cif.g08.bks.cpg/sg2_104_cif.got.tgz:207922.got - 2010.06.03 11:33:40.
