data_PCOD9051973
_publ_section_title
;
Structure prediction by ZEFSAII (Michael W. Deem and Ramdas Pophale) SiO2 
 PCOD9051973
Probable space group: P -1
;
_chemical_formula_sum "Si O2"
_cell_formula_units_Z 16
_cell_length_a 15.386849
_cell_length_b 8.474944
_cell_length_c 12.359842
_cell_angle_alpha 77.855592
_cell_angle_beta 28.087171
_cell_angle_gamma 75.994521
_cell_volume 736.262474
_symmetry_space_group_name_H-M "P -1"
_symmetry_group_IT_number 2
_symmetry_cell_setting 'triclinic'
loop_
_space_group_symop_operation_xyz
x,y,z
-x,-y,-z
loop_
_atom_site_type_symbol
_atom_site_label
_atom_site_fract_x
_atom_site_fract_y
_atom_site_fract_z
Si Si1 0.944174 0.662471 0.658946
Si Si2 0.365997 0.037621 0.789248
Si Si3 0.530284 0.279020 0.418812
Si Si4 0.412012 0.877147 0.979588
Si Si5 0.698964 0.453447 0.843215
Si Si6 0.797318 0.438911 0.242645
Si Si7 0.971421 0.169916 0.241973
Si Si8 0.788989 0.935573 0.631635
O O1 0.767151 0.569571 0.842327
O O2 0.919070 0.817366 0.583530
O O3 0.135942 0.559022 0.425244
O O4 0.958620 0.717566 0.756999
O O5 0.478588 0.173119 0.594879
O O6 0.432620 0.860048 0.692346
O O7 0.150651 0.092820 0.989871
O O8 0.382655 0.018850 0.902893
O O9 0.705577 0.372382 0.244544
O O10 0.354570 0.414612 0.570779
O O11 0.317951 0.724191 0.065120
O O12 0.319096 0.931906 0.188045
O O13 0.631325 0.839928 0.765815
O O14 0.500000 0.500000 0.000000
O O15 0.828670 0.285678 0.310780
O O16 0.000000 0.500000 0.000000
O O17 0.887933 0.026525 0.417561
#
# Coordination Sequence:
#
# PCOD9051973 Si02
#       8
#     2   2   2   2   2   2   2   2
#     4  11  23  41  65  92 135 180 221 269 318 396
#     4  11  23  44  71 102 132 174 225 287 334 396
#     4  10  25  49  71  98 137 168 227 291 339 403
#     4  11  22  40  67  97 136 181 219 269 329 392
#     4  11  23  41  60  92 138 179 217 267 324 382
#     4  11  24  48  73  98 132 178 222 281 351 403
#     4  12  23  41  72 102 134 176 232 273 338 405
#     4  11  22  41  66  96 138 182 223 265 320 405
#
# _framework density 21.731380999999999
#
# number of rings (size 3 to 8) (size 9 to 14) (size 15 to 20)
#    0.000    1.000    5.000    1.875    0.000    2.500 
#    4.500    0.000    0.000    0.000    0.000    0.000 
#    0.000    0.000    0.000    0.000    0.000    0.000 
#
# Total GULP energy -89432.009764 kJ/mol
# GULP energy per Si atom -5589.500610 kJ/mol
# Density = 2.168192 g / cm^3
# Si number density = 21.731381 Si / 1000 Ang^3
#
#
#
# Elastic Constant Matrix: (Units=GPa)
#
#
# Indices 1 2 3 4 5 6 
#
# 1 58.2438 14.6666 28.7083 4.7282 -30.2730 -9.0412
# 2 14.6666 66.6792 18.9860 8.6793 -14.9123 -2.6681
# 3 28.7083 18.9860 83.2273 -4.7258 -25.6971 7.2687
# 4 4.7282 8.6793 -4.7258 40.0253 -6.0791 -10.0116
# 5 -30.2730 -14.9123 -25.6971 -6.0791 36.9687 -7.8177
# 6 -9.0412 -2.6681 7.2687 -10.0116 -7.8177 34.7147
#
#
#
# Elastic Compliance Matrix: (Units=1/GPa)
#
#
# Indices 1 2 3 4 5 6 
#
# 1 0.040749 0.000518 -0.004726 0.005223 0.035629 0.021172
# 2 0.000518 0.017378 -0.002790 -0.002673 0.005593 0.002543
# 3 -0.004726 -0.002790 0.016777 0.003565 0.006742 -0.002412
# 4 0.005223 -0.002673 0.003565 0.030424 0.013252 0.012167
# 5 0.035629 0.005593 0.006742 0.013252 0.071306 0.028177
# 6 0.021172 0.002543 -0.002412 0.012167 0.028177 0.044875
#
#
# Mechanical properties :
#
#
# Convention : Reuss Voigt Hill
#
# Bulk Modulus (GPa) = 16.41825 36.98579 26.70202
# Shear Modulus (GPa) = 19.54592 32.06103 25.80348
#
# Velocity S-wave (km/s) = 3.00231 3.84517 3.44958
# Velocity P-wave (km/s) = 4.42606 6.06385 5.30850
#
# Compressibility (1/GPa) = 0.06090784
#
# Stress axis : x y z
#
# Youngs Moduli (GPa) = 24.54041 57.54317 59.60635
#
# Poissons Ratio (x) = -0.02980 0.28170
# Poissons Ratio (y) = -0.01271 0.16631
# Poissons Ratio (z) = 0.11598 0.16055
#
# Static dielectric constant tensor:
#      x y z
#    x 1.774890 0.004730 -0.021620 
#    y 0.004730 1.834040 0.007670 
#    z -0.021620 0.007670 1.809360 
# 
# From -- ./inp_files/447032.got.cif
#   From: 2010.05.17/outbox.cif.g08.bks.cpg/sg2_224_cif.got.tgz:447032.got - 2010.06.03 11:33:40.
