data_PCOD9051194
_publ_section_title
;
Structure prediction by ZEFSAII (Michael W. Deem and Ramdas Pophale) SiO2 
 PCOD9051194
Probable space group: P -1
;
_chemical_formula_sum "Si O2"
_cell_formula_units_Z 12
_cell_length_a 11.366687
_cell_length_b 5.568811
_cell_length_c 10.213245
_cell_angle_alpha 113.748599
_cell_angle_beta 123.664018
_cell_angle_gamma 91.795988
_cell_volume 464.196579
_symmetry_space_group_name_H-M "P -1"
_symmetry_group_IT_number 2
_symmetry_cell_setting 'triclinic'
loop_
_space_group_symop_operation_xyz
x,y,z
-x,-y,-z
loop_
_atom_site_type_symbol
_atom_site_label
_atom_site_fract_x
_atom_site_fract_y
_atom_site_fract_z
Si Si1 0.880387 0.129834 0.197627
Si Si2 0.871624 0.629095 0.913904
Si Si3 0.413133 0.186679 0.423160
Si Si4 0.664916 0.278868 0.919534
Si Si5 0.203744 0.432322 0.450938
Si Si6 0.618276 0.980606 0.179706
O O1 0.762010 0.942295 0.189113
O O2 0.041964 0.310734 0.391432
O O3 0.789075 0.316523 0.117629
O O4 0.918824 0.942291 0.066798
O O5 0.728332 0.478571 0.882305
O O6 0.829642 0.554820 0.721690
O O7 0.000000 0.500000 0.000000
O O8 0.500000 0.500000 0.500000
O O9 0.290113 0.209886 0.455404
O O10 0.500000 0.000000 0.500000
O O11 0.348550 0.023530 0.214489
O O12 0.497239 0.253050 0.852777
O O13 0.308285 0.727125 0.635418
O O14 0.500000 0.000000 0.000000
#
# Coordination Sequence:
#
# PCOD9051194 Si02
#       6
#     2   2   2   2   2   2
#     4  11  24  46  71 105 147 194 247 313 382 461
#     4  12  24  42  76 111 147 188 253 324 383 449
#     4  12  25  42  73 117 149 196 256 323 383 455
#     4  11  23  44  70 105 147 189 247 314 380 450
#     4  12  23  47  76 109 146 195 253 316 383 454
#     4  10  25  45  72 100 151 201 249 306 381 464
#
# _framework density 25.851116000000001
#
# number of rings (size 3 to 8) (size 9 to 14) (size 15 to 20)
#    0.000    0.667    5.000    3.000    0.000    0.667 
#    0.000    2.500    0.000    0.000    0.000    0.000 
#    0.000    0.000    0.000    0.000    0.000    0.000 
#
# Total GULP energy -67170.905931 kJ/mol
# GULP energy per Si atom -5597.575494 kJ/mol
# Density = 2.579228 g / cm^3
# Si number density = 25.851116 Si / 1000 Ang^3
#
#
#
# Elastic Constant Matrix: (Units=GPa)
#
#
# Indices 1 2 3 4 5 6 
#
# 1 210.4813 34.7698 56.7208 6.6880 20.6359 2.9036
# 2 34.7698 90.1100 39.4297 -7.7741 14.1473 -13.3750
# 3 56.7208 39.4297 142.9281 11.0106 9.9052 -15.3873
# 4 6.6880 -7.7741 11.0106 37.5525 -4.4557 7.1065
# 5 20.6359 14.1473 9.9052 -4.4557 55.7418 11.6442
# 6 2.9036 -13.3750 -15.3873 7.1065 11.6442 51.5951
#
#
#
# Elastic Compliance Matrix: (Units=1/GPa)
#
#
# Indices 1 2 3 4 5 6 
#
# 1 0.005623 -0.001365 -0.001792 -0.000762 -0.001310 -0.000804
# 2 -0.001365 0.014154 -0.003074 0.003149 -0.002928 0.003056
# 3 -0.001792 -0.003074 0.009215 -0.003676 -0.001073 0.002801
# 4 -0.000762 0.003149 -0.003676 0.029901 0.003606 -0.005170
# 5 -0.001310 -0.002928 -0.001073 0.003606 0.020948 -0.006229
# 6 -0.000804 0.003056 0.002801 -0.005170 -0.006229 0.023172
#
#
# Mechanical properties :
#
#
# Convention : Reuss Voigt Hill
#
# Bulk Modulus (GPa) = 60.49448 78.37333 69.43391
# Shear Modulus (GPa) = 41.32742 49.81781 45.57261
#
# Velocity S-wave (km/s) = 4.00268 4.39464 4.20323
# Velocity P-wave (km/s) = 6.69431 7.49223 7.10448
#
# Compressibility (1/GPa) = 0.01653043
#
# Stress axis : x y z
#
# Youngs Moduli (GPa) = 177.83613 70.65071 108.52220
#
# Poissons Ratio (x) = 0.09644 0.19448
# Poissons Ratio (y) = 0.24276 0.33356
# Poissons Ratio (z) = 0.31870 0.21715
#
# Static dielectric constant tensor:
#      x y z
#    x 2.132650 0.040620 -0.003310 
#    y 0.040620 2.048530 -0.013750 
#    z -0.003310 -0.013750 2.098700 
# 
# From -- ./inp_files/408085.got.cif
#   From: 2010.05.17/outbox.cif.g08.bks.cpg/sg2_205_cif.got.tgz:408085.got - 2010.06.03 11:33:40.
