data_PCOD9051889
_publ_section_title
;
Structure prediction by ZEFSAII (Michael W. Deem and Ramdas Pophale) SiO2 
 PCOD9051889
Probable space group: P -1
;
_chemical_formula_sum "Si O2"
_cell_formula_units_Z 16
_cell_length_a 9.351033
_cell_length_b 14.984310
_cell_length_c 10.575390
_cell_angle_alpha 39.436487
_cell_angle_beta 73.676331
_cell_angle_gamma 49.431317
_cell_volume 635.445131
_symmetry_space_group_name_H-M "P -1"
_symmetry_group_IT_number 2
_symmetry_cell_setting 'triclinic'
loop_
_space_group_symop_operation_xyz
x,y,z
-x,-y,-z
loop_
_atom_site_type_symbol
_atom_site_label
_atom_site_fract_x
_atom_site_fract_y
_atom_site_fract_z
Si Si1 0.652209 0.506544 0.887087
Si Si2 0.224824 0.416345 0.000442
Si Si3 0.530598 0.007131 0.637156
Si Si4 0.078375 0.057420 0.312378
Si Si5 0.837855 0.270880 0.497889
Si Si6 0.763044 0.728553 0.339250
Si Si7 0.025168 0.149793 0.833070
Si Si8 0.420867 0.428057 0.453722
O O1 0.662133 0.629576 0.844095
O O2 0.888530 0.285982 0.067461
O O3 0.500000 0.500000 0.000000
O O4 0.555694 0.598176 0.675339
O O5 0.183551 0.594396 0.749250
O O6 0.370273 0.212977 0.106837
O O7 0.000000 0.500000 0.000000
O O8 0.727386 0.981754 0.640673
O O9 0.500000 0.000000 0.500000
O O10 0.341972 0.178647 0.594338
O O11 0.122152 0.917253 0.344336
O O12 0.000000 0.000000 0.500000
O O13 0.012059 0.199380 0.633245
O O14 0.609510 0.403877 0.472465
O O15 0.610421 0.710430 0.337706
O O16 0.000000 0.500000 0.500000
O O17 0.797209 0.866801 0.133801
O O18 0.804401 0.348475 0.725530
O O19 0.000000 0.000000 0.000000
#
# Coordination Sequence:
#
# PCOD9051889 Si02
#       8
#     2   2   2   2   2   2   2   2
#     4  12  24  42  72 105 153 191 240 306 385 450
#     4  12  26  43  68 117 155 192 239 309 382 446
#     4  12  27  44  76 113 153 195 249 308 377 449
#     4  12  24  43  66 105 151 193 240 297 380 449
#     4  12  25  45  73 102 149 192 247 304 373 445
#     4  10  25  48  74 101 145 193 249 303 369 445
#     4  11  27  47  72 102 138 192 257 308 361 435
#     4  11  23  47  70 101 140 196 244 303 368 443
#
# _framework density 25.179198
#
# number of rings (size 3 to 8) (size 9 to 14) (size 15 to 20)
#    0.000    0.500    5.000    1.875    8.750    0.000 
#    0.000    0.625    0.000    0.000    0.000    0.000 
#    0.000    0.000    0.000    0.000    0.000    0.000 
#
# Total GULP energy -89258.768567 kJ/mol
# GULP energy per Si atom -5578.673035 kJ/mol
# Density = 2.512189 g / cm^3
# Si number density = 25.179198 Si / 1000 Ang^3
#
#
#
# Elastic Constant Matrix: (Units=GPa)
#
#
# Indices 1 2 3 4 5 6 
#
# 1 150.1172 15.0811 30.1336 -4.3038 -28.3905 -29.4861
# 2 15.0811 115.3376 29.0375 -25.7241 -8.0539 0.4339
# 3 30.1336 29.0375 83.0854 -26.3150 -20.8999 3.0542
# 4 -4.3038 -25.7241 -26.3150 33.6595 8.4506 -6.4602
# 5 -28.3905 -8.0539 -20.8999 8.4506 53.1556 2.2779
# 6 -29.4861 0.4339 3.0542 -6.4602 2.2779 32.8642
#
#
#
# Elastic Compliance Matrix: (Units=1/GPa)
#
#
# Indices 1 2 3 4 5 6 
#
# 1 0.009654 -0.000450 -0.002957 -0.000702 0.003670 0.008550
# 2 -0.000450 0.010679 -0.001384 0.007317 -0.000375 0.001048
# 3 -0.002957 -0.001384 0.018222 0.011445 0.003656 -0.002332
# 4 -0.000702 0.007317 0.011445 0.046201 -0.002431 0.007460
# 5 0.003670 -0.000375 0.003656 -0.002431 0.022501 0.000921
# 6 0.008550 0.001048 -0.002332 0.007460 0.000921 0.039705
#
#
# Mechanical properties :
#
#
# Convention : Reuss Voigt Hill
#
# Bulk Modulus (GPa) = 34.51667 55.22718 44.87192
# Shear Modulus (GPa) = 30.08368 42.22171 36.15269
#
# Velocity S-wave (km/s) = 3.46031 4.09938 3.79333
# Velocity P-wave (km/s) = 5.45006 6.66242 6.08650
#
# Compressibility (1/GPa) = 0.02897151
#
# Stress axis : x y z
#
# Youngs Moduli (GPa) = 103.58756 93.63781 54.87768
#
# Poissons Ratio (x) = 0.04216 0.16229
# Poissons Ratio (y) = 0.04664 0.07597
# Poissons Ratio (z) = 0.30634 0.12963
#
# Static dielectric constant tensor:
#      x y z
#    x 1.972480 0.091170 0.020460 
#    y 0.091170 2.225450 -0.019420 
#    z 0.020460 -0.019420 2.062150 
# 
# From -- ./inp_files/398399.got.cif
#   From: 2010.05.17/outbox.cif.g08.bks.cpg/sg2_200_cif.got.tgz:398399.got - 2010.06.03 11:33:40.
