data_PCOD9051073
_publ_section_title
;
Structure prediction by ZEFSAII (Michael W. Deem and Ramdas Pophale) SiO2 
 PCOD9051073
Probable space group: P -1
;
_chemical_formula_sum "Si O2"
_cell_formula_units_Z 16
_cell_length_a 21.801502
_cell_length_b 12.859346
_cell_length_c 8.887000
_cell_angle_alpha 40.459528
_cell_angle_beta 49.528408
_cell_angle_gamma 28.453818
_cell_volume 768.711089
_symmetry_space_group_name_H-M "P -1"
_symmetry_group_IT_number 2
_symmetry_cell_setting 'triclinic'
loop_
_space_group_symop_operation_xyz
x,y,z
-x,-y,-z
loop_
_atom_site_type_symbol
_atom_site_label
_atom_site_fract_x
_atom_site_fract_y
_atom_site_fract_z
Si Si1 0.217323 0.180455 0.684755
Si Si2 0.285710 0.126690 0.287464
Si Si3 0.768328 0.432576 0.061630
Si Si4 0.950168 0.650660 0.757547
Si Si5 0.270440 0.457067 0.351665
Si Si6 0.439186 0.448580 0.564123
Si Si7 0.996731 0.938618 0.405019
Si Si8 0.371451 0.625875 0.137785
O O1 0.240421 0.148847 0.503584
O O2 0.290915 0.229790 0.576005
O O3 0.067439 0.438117 0.686294
O O4 0.265369 0.930518 0.938610
O O5 0.185559 0.203615 0.246311
O O6 0.435797 0.855491 0.328627
O O7 0.270035 0.338887 0.060758
O O8 0.671544 0.456508 0.262611
O O9 0.751677 0.469745 0.868929
O O10 0.914298 0.174319 0.163833
O O11 0.933131 0.863887 0.580243
O O12 0.000000 0.500000 0.000000
O O13 0.140149 0.691053 0.392168
O O14 0.358126 0.465980 0.266392
O O15 0.500000 0.500000 0.500000
O O16 0.383596 0.585779 0.340819
O O17 0.000000 0.000000 0.500000
O O18 0.500000 0.500000 0.000000
#
# Coordination Sequence:
#
# PCOD9051073 Si02
#       8
#     2   2   2   2   2   2   2   2
#     4  10  25  46  69 103 133 179 227 279 343 398
#     4  11  24  46  67  97 138 176 225 278 341 405
#     4  11  24  43  68  98 135 179 221 283 339 403
#     4  11  25  41  69 101 133 175 222 284 337 400
#     4  10  25  45  69 101 136 178 227 282 338 403
#     4  12  26  45  66 100 136 180 226 275 340 410
#     4  11  23  42  66 100 136 174 227 278 340 401
#     4  12  25  45  73  99 136 181 228 277 338 410
#
# _framework density 20.814060999999999
#
# number of rings (size 3 to 8) (size 9 to 14) (size 15 to 20)
#    0.000    1.000    1.250    4.125    8.750    1.500 
#    2.250    0.000    0.000    0.000    0.000    0.000 
#    0.000    0.000    0.000    0.000    0.000    0.000 
#
# Total GULP energy -89382.628616 kJ/mol
# GULP energy per Si atom -5586.414288 kJ/mol
# Density = 2.076669 g / cm^3
# Si number density = 20.814061 Si / 1000 Ang^3
#
#
#
# Elastic Constant Matrix: (Units=GPa)
#
#
# Indices 1 2 3 4 5 6 
#
# 1 99.2577 -9.2491 2.8321 5.9087 -9.5394 3.0660
# 2 -9.2491 45.0418 -26.5361 -3.6697 -0.2516 8.8396
# 3 2.8321 -26.5361 33.4552 -12.4129 -4.8412 4.4521
# 4 5.9087 -3.6697 -12.4129 44.6358 -0.1111 0.5874
# 5 -9.5394 -0.2516 -4.8412 -0.1111 24.9227 1.5414
# 6 3.0660 8.8396 4.4521 0.5874 1.5414 25.6728
#
#
#
# Elastic Compliance Matrix: (Units=1/GPa)
#
#
# Indices 1 2 3 4 5 6 
#
# 1 0.011330 0.008305 0.007888 0.001471 0.006330 -0.005994
# 2 0.008305 0.096587 0.100192 0.035483 0.027118 -0.054063
# 3 0.007888 0.100192 0.139562 0.046919 0.035236 -0.062831
# 4 0.001471 0.035483 0.046919 0.038493 0.011574 -0.022105
# 5 0.006330 0.027118 0.035236 0.011574 0.050924 -0.019526
# 6 -0.005994 -0.054063 -0.062831 -0.022105 -0.019526 0.070857
#
#
# Mechanical properties :
#
#
# Convention : Reuss Voigt Hill
#
# Bulk Modulus (GPa) = 2.08225 12.42763 7.25494
# Shear Modulus (GPa) = 14.92248 33.09343 24.00795
#
# Velocity S-wave (km/s) = 2.68048 3.99175 3.39993
# Velocity P-wave (km/s) = 3.25308 5.21816 4.34809
#
# Compressibility (1/GPa) = 0.48024979
#
# Stress axis : x y z
#
# Youngs Moduli (GPa) = 88.26476 10.35337 7.16527
#
# Poissons Ratio (x) = -0.08599 -0.05652
# Poissons Ratio (y) = -0.73307 -0.71790
# Poissons Ratio (z) = -0.69625 -1.03733
#
# Static dielectric constant tensor:
#      x y z
#    x 1.726210 0.021380 -0.060720 
#    y 0.021380 1.704190 0.020350 
#    z -0.060720 0.020350 1.731830 
# 
# From -- ./inp_files/280056.got.cif
#   From: 2010.05.17/outbox.cif.g08.bks.cpg/sg2_141_cif.got.tgz:280056.got - 2010.06.03 11:33:40.
