data_PCOD9051509
_publ_section_title
;
Structure prediction by ZEFSAII (Michael W. Deem and Ramdas Pophale) SiO2 
 PCOD9051509
Probable space group: P -1
;
_chemical_formula_sum "Si O2"
_cell_formula_units_Z 16
_cell_length_a 6.307004
_cell_length_b 19.092392
_cell_length_c 9.528766
_cell_angle_alpha 53.386976
_cell_angle_beta 51.523839
_cell_angle_gamma 55.642639
_cell_volume 686.075785
_symmetry_space_group_name_H-M "P -1"
_symmetry_group_IT_number 2
_symmetry_cell_setting 'triclinic'
loop_
_space_group_symop_operation_xyz
x,y,z
-x,-y,-z
loop_
_atom_site_type_symbol
_atom_site_label
_atom_site_fract_x
_atom_site_fract_y
_atom_site_fract_z
Si Si1 0.774498 0.033901 0.337138
Si Si2 0.883588 0.383632 0.771502
Si Si3 0.842001 0.466163 0.402310
Si Si4 0.585523 0.077990 0.070743
Si Si5 0.433078 0.779056 0.632938
Si Si6 0.266074 0.379034 0.096958
Si Si7 0.894108 0.735969 0.926919
Si Si8 0.367041 0.908113 0.279496
O O1 0.810803 0.052423 0.134889
O O2 0.719118 0.129731 0.323372
O O3 0.500000 0.000000 0.500000
O O4 0.034020 0.955950 0.390167
O O5 0.912542 0.385546 0.588801
O O6 0.025934 0.458007 0.680746
O O7 0.549062 0.410214 0.923316
O O8 0.036904 0.291122 0.906002
O O9 0.500000 0.500000 0.500000
O O10 0.991426 0.442455 0.216662
O O11 0.324663 0.163884 0.127378
O O12 0.500023 0.988004 0.171813
O O13 0.646816 0.113131 0.852797
O O14 0.645842 0.708866 0.730016
O O15 0.529239 0.819892 0.406959
O O16 0.194994 0.733554 0.740291
O O17 0.208157 0.340322 0.018063
#
# Coordination Sequence:
#
# PCOD9051509 Si02
#       8
#     2   2   2   2   2   2   2   2
#     4  12  21  39  62  86 125 176 228 269 325 387
#     4  10  25  46  73 103 139 175 220 279 334 414
#     4  11  25  48  76 105 135 175 222 274 341 416
#     4  11  23  40  62  91 132 175 222 279 330 382
#     4  11  23  40  61  94 129 176 226 275 329 398
#     4  11  25  45  70 103 138 181 222 276 344 405
#     4  11  23  43  65  98 135 173 220 280 335 393
#     4  11  24  39  61  93 129 176 229 276 326 384
#
# _framework density 23.321037
#
# number of rings (size 3 to 8) (size 9 to 14) (size 15 to 20)
#    0.000    1.000    3.750    2.625    1.750    6.000 
#    2.250    0.000    0.000    0.000    0.000    0.000 
#    0.000    0.000    0.000    0.000    0.000    0.000 
#
# Total GULP energy -89388.206512 kJ/mol
# GULP energy per Si atom -5586.762907 kJ/mol
# Density = 2.326796 g / cm^3
# Si number density = 23.321037 Si / 1000 Ang^3
#
#
#
# Elastic Constant Matrix: (Units=GPa)
#
#
# Indices 1 2 3 4 5 6 
#
# 1 97.1714 20.8166 24.4067 3.2435 -1.5236 5.0123
# 2 20.8166 33.1115 12.5638 3.9245 -7.5742 -1.8698
# 3 24.4067 12.5638 108.0047 2.5942 16.9980 3.3251
# 4 3.2435 3.9245 2.5942 39.5953 0.0573 8.5890
# 5 -1.5236 -7.5742 16.9980 0.0573 53.5525 -4.7396
# 6 5.0123 -1.8698 3.3251 8.5890 -4.7396 29.8699
#
#
#
# Elastic Compliance Matrix: (Units=1/GPa)
#
#
# Indices 1 2 3 4 5 6 
#
# 1 0.012446 -0.007392 -0.001832 0.000378 -0.000332 -0.002509
# 2 -0.007392 0.038931 -0.004083 -0.004415 0.007175 0.006540
# 3 -0.001832 -0.004083 0.010869 0.000263 -0.004249 -0.001908
# 4 0.000378 -0.004415 0.000263 0.027493 -0.001480 -0.008509
# 5 -0.000332 0.007175 -0.004249 -0.001480 0.021454 0.004808
# 6 -0.002509 0.006540 -0.001908 -0.008509 0.004808 0.037731
#
#
# Mechanical properties :
#
#
# Convention : Reuss Voigt Hill
#
# Bulk Modulus (GPa) = 28.06445 39.31796 33.69120
# Shear Modulus (GPa) = 26.67854 36.63690 31.65772
#
# Velocity S-wave (km/s) = 3.38593 3.96786 3.68839
# Velocity P-wave (km/s) = 5.22935 6.15532 5.71113
#
# Compressibility (1/GPa) = 0.03563227
#
# Stress axis : x y z
#
# Youngs Moduli (GPa) = 80.34414 25.68627 92.00525
#
# Poissons Ratio (x) = 0.18987 0.16858
# Poissons Ratio (y) = 0.59391 0.37565
# Poissons Ratio (z) = 0.14721 0.10487
#
# Static dielectric constant tensor:
#      x y z
#    x 1.852120 -0.015850 0.028870 
#    y -0.015850 1.880530 0.036560 
#    z 0.028870 0.036560 1.982020 
# 
# From -- ./inp_files/107481.got.cif
#   From: 2010.05.17/outbox.cif.g08.bks.cpg/sg2_54_cif.got.tgz:107481.got - 2010.06.03 11:33:40.
