data_PCOD9051108
_publ_section_title
;
Structure prediction by ZEFSAII (Michael W. Deem and Ramdas Pophale) SiO2 
 PCOD9051108
Probable space group: P -1
;
_chemical_formula_sum "Si O2"
_cell_formula_units_Z 10
_cell_length_a 15.669983
_cell_length_b 9.293289
_cell_length_c 5.456787
_cell_angle_alpha 135.926457
_cell_angle_beta 133.366281
_cell_angle_gamma 48.147925
_cell_volume 377.328684
_symmetry_space_group_name_H-M "P -1"
_symmetry_group_IT_number 2
_symmetry_cell_setting 'triclinic'
loop_
_space_group_symop_operation_xyz
x,y,z
-x,-y,-z
loop_
_atom_site_type_symbol
_atom_site_label
_atom_site_fract_x
_atom_site_fract_y
_atom_site_fract_z
Si Si1 0.706376 0.372544 0.666668
Si Si2 0.078224 0.945726 0.842070
Si Si3 0.859595 0.505244 0.787509
Si Si4 0.281158 0.030662 0.122189
Si Si5 0.523988 0.211382 0.434145
O O1 0.827267 0.445182 0.926161
O O2 0.627876 0.311631 0.656758
O O3 0.599401 0.575785 0.572080
O O4 0.745408 0.138340 0.321617
O O5 0.150795 0.684633 0.646195
O O6 0.000000 0.000000 0.500000
O O7 0.179721 0.065763 0.182051
O O8 0.000000 0.000000 0.000000
O O9 0.757095 0.735161 0.790858
O O10 0.000000 0.500000 0.000000
O O11 0.417582 0.896907 0.326870
O O12 0.500000 0.000000 0.000000
#
# Coordination Sequence:
#
# PCOD9051108 Si02
#       5
#     2   2   2   2   2
#     4  10  25  45  70 100 148 182 245 302 380 436
#     4  11  26  47  73 107 153 200 251 313 379 451
#     4  11  24  46  72 107 145 193 247 309 374 455
#     4  11  25  44  71 102 143 191 244 305 375 447
#     4  11  25  45  72 104 140 191 245 309 370 449
#
# _framework density 26.502095000000001
#
# number of rings (size 3 to 8) (size 9 to 14) (size 15 to 20)
#    0.000    1.200    2.000    1.800    5.600   12.000 
#    3.600    0.000    0.000    0.000    0.000    0.000 
#    0.000    0.000    0.000    0.000    0.000    0.000 
#
# Total GULP energy -55787.646022 kJ/mol
# GULP energy per Si atom -5578.764602 kJ/mol
# Density = 2.644178 g / cm^3
# Si number density = 26.502095 Si / 1000 Ang^3
#
#
#
# Elastic Constant Matrix: (Units=GPa)
#
#
# Indices 1 2 3 4 5 6 
#
# 1 201.5427 35.1643 11.9260 2.1419 36.9828 30.2348
# 2 35.1643 223.3943 33.2559 22.0843 -4.3176 18.0715
# 3 11.9260 33.2559 43.3051 16.2429 19.1484 9.2928
# 4 2.1419 22.0843 16.2429 50.6120 -4.3540 2.8314
# 5 36.9828 -4.3176 19.1484 -4.3540 40.2521 12.6263
# 6 30.2348 18.0715 9.2928 2.8314 12.6263 45.2565
#
#
#
# Elastic Compliance Matrix: (Units=1/GPa)
#
#
# Indices 1 2 3 4 5 6 
#
# 1 0.006739 -0.001389 0.003484 -0.001287 -0.007343 -0.002534
# 2 -0.001389 0.005838 -0.006114 0.000023 0.005326 -0.001635
# 3 0.003484 -0.006114 0.043499 -0.013614 -0.025780 -0.000774
# 4 -0.001287 0.000023 -0.013614 0.025140 0.010664 -0.000902
# 5 -0.007343 0.005326 -0.025780 0.010664 0.047404 -0.005821
# 6 -0.002534 -0.001635 -0.000774 -0.000902 -0.005821 0.026281
#
#
# Mechanical properties :
#
#
# Convention : Reuss Voigt Hill
#
# Bulk Modulus (GPa) = 20.81653 69.88160 45.34906
# Shear Modulus (GPa) = 27.94048 53.08384 40.51216
#
# Velocity S-wave (km/s) = 3.25048 4.48035 3.91402
# Velocity P-wave (km/s) = 4.68607 7.29317 6.12983
#
# Compressibility (1/GPa) = 0.04803875
#
# Stress axis : x y z
#
# Youngs Moduli (GPa) = 148.38811 171.28791 22.98895
#
# Poissons Ratio (x) = 0.23794 -0.08009
# Poissons Ratio (y) = 0.20613 0.14055
# Poissons Ratio (z) = -0.51699 1.04721
#
# Static dielectric constant tensor:
#      x y z
#    x 2.208300 0.032980 0.011950 
#    y 0.032980 2.091390 -0.120760 
#    z 0.011950 -0.120760 2.166170 
# 
# From -- ./inp_files/2368.got.cif
#   From: 2010.05.17/outbox.cif.g08.bks.cpg/sg2_2_cif.got.tgz:2368.got - 2010.06.03 11:33:40.
