data_PCOD9051739
_publ_section_title
;
Structure prediction by ZEFSAII (Michael W. Deem and Ramdas Pophale) SiO2 
 PCOD9051739
Probable space group: P -1
;
_chemical_formula_sum "Si O2"
_cell_formula_units_Z 14
_cell_length_a 11.738272
_cell_length_b 10.512347
_cell_length_c 11.351028
_cell_angle_alpha 61.799680
_cell_angle_beta 63.556262
_cell_angle_gamma 25.020795
_cell_volume 521.544411
_symmetry_space_group_name_H-M "P -1"
_symmetry_group_IT_number 2
_symmetry_cell_setting 'triclinic'
loop_
_space_group_symop_operation_xyz
x,y,z
-x,-y,-z
loop_
_atom_site_type_symbol
_atom_site_label
_atom_site_fract_x
_atom_site_fract_y
_atom_site_fract_z
Si Si1 0.123336 0.572801 0.784526
Si Si2 0.347327 0.862012 0.392041
Si Si3 0.353699 0.521679 0.981230
Si Si4 0.420321 0.667805 0.693143
Si Si5 0.293160 0.108843 0.966469
Si Si6 0.261792 0.234521 0.415863
Si Si7 0.079966 0.714308 0.233470
O O1 0.413404 0.349181 0.717282
O O2 0.955554 0.710223 0.922463
O O3 0.174466 0.349172 0.826554
O O4 0.926473 0.876027 0.669462
O O5 0.405442 0.697113 0.546731
O O6 0.298167 0.063133 0.391743
O O7 0.311538 0.634315 0.823869
O O8 0.533722 0.198523 0.025711
O O9 0.500000 0.500000 0.000000
O O10 0.087471 0.761304 0.075916
O O11 0.722145 0.395617 0.720433
O O12 0.212834 0.992101 0.702673
O O13 0.500000 0.000000 0.000000
O O14 0.229880 0.413503 0.283003
O O15 0.000000 0.500000 0.500000
O O16 0.500000 0.000000 0.500000
#
# Coordination Sequence:
#
# PCOD9051739 Si02
#       7
#     2   2   2   2   2   2   2
#     4  11  25  44  74 102 136 193 238 294 356 428
#     4  12  22  40  66 101 142 186 238 286 362 428
#     4  10  25  47  74 105 141 192 242 295 362 425
#     4  11  23  43  62 100 146 180 231 291 352 426
#     4  11  24  52  74 107 142 183 246 306 348 424
#     4  12  21  35  59  98 143 185 228 294 353 411
#     4  11  21  41  62  99 138 191 229 291 353 421
#
# _framework density 26.843349
#
# number of rings (size 3 to 8) (size 9 to 14) (size 15 to 20)
#    0.000    0.857    4.286    3.000    0.000    2.286 
#   15.429    1.429    0.000    0.000    0.000    0.000 
#    0.000    0.000    0.000    0.000    0.000    0.000 
#
# Total GULP energy -78343.560574 kJ/mol
# GULP energy per Si atom -5595.968612 kJ/mol
# Density = 2.678225 g / cm^3
# Si number density = 26.843349 Si / 1000 Ang^3
#
#
#
# Elastic Constant Matrix: (Units=GPa)
#
#
# Indices 1 2 3 4 5 6 
#
# 1 64.0521 55.5697 24.0983 8.6748 9.8836 7.3242
# 2 55.5697 162.7809 50.8061 15.1834 6.0936 -5.4219
# 3 24.0983 50.8061 171.5502 -15.2172 -8.3640 21.0872
# 4 8.6748 15.1834 -15.2172 42.6018 6.6983 7.2696
# 5 9.8836 6.0936 -8.3640 6.6983 31.5656 -1.5674
# 6 7.3242 -5.4219 21.0872 7.2696 -1.5674 54.8584
#
#
#
# Elastic Compliance Matrix: (Units=1/GPa)
#
#
# Indices 1 2 3 4 5 6 
#
# 1 0.024258 -0.007748 -0.001056 -0.000931 -0.006364 -0.003657
# 2 -0.007748 0.010031 -0.002603 -0.003647 0.000749 0.003531
# 3 -0.001056 -0.002603 0.007646 0.004200 0.001791 -0.003561
# 4 -0.000931 -0.003647 0.004200 0.028084 -0.004134 -0.005690
# 5 -0.006364 0.000749 0.001791 -0.004134 0.034968 0.001782
# 6 -0.003657 0.003531 -0.003561 -0.005690 0.001782 0.021240
#
#
# Mechanical properties :
#
#
# Convention : Reuss Voigt Hill
#
# Bulk Modulus (GPa) = 52.30337 73.25904 62.78121
# Shear Modulus (GPa) = 32.17188 43.66577 37.91883
#
# Velocity S-wave (km/s) = 3.46570 4.03760 3.76253
# Velocity P-wave (km/s) = 5.96169 7.00620 6.50494
#
# Compressibility (1/GPa) = 0.01911923
#
# Stress axis : x y z
#
# Youngs Moduli (GPa) = 41.22358 99.69470 130.78468
#
# Poissons Ratio (x) = 0.77246 0.13813
# Poissons Ratio (y) = 0.31941 0.34047
# Poissons Ratio (z) = 0.04354 0.25954
#
# Static dielectric constant tensor:
#      x y z
#    x 2.216870 0.069360 -0.035350 
#    y 0.069360 2.150900 -0.256560 
#    z -0.035350 -0.256560 2.422430 
# 
# From -- ./inp_files/452188.got.cif
#   From: 2010.05.17/outbox.cif.g08.bks.cpg/sg2_227_cif.got.tgz:452188.got - 2010.06.03 11:33:40.
