data_PCOD9051907
_publ_section_title
;
Structure prediction by ZEFSAII (Michael W. Deem and Ramdas Pophale) SiO2 
 PCOD9051907
Probable space group: P -1
;
_chemical_formula_sum "Si O2"
_cell_formula_units_Z 14
_cell_length_a 11.339994
_cell_length_b 10.177462
_cell_length_c 7.883464
_cell_angle_alpha 134.390302
_cell_angle_beta 89.618253
_cell_angle_gamma 115.444693
_cell_volume 522.677094
_symmetry_space_group_name_H-M "P -1"
_symmetry_group_IT_number 2
_symmetry_cell_setting 'triclinic'
loop_
_space_group_symop_operation_xyz
x,y,z
-x,-y,-z
loop_
_atom_site_type_symbol
_atom_site_label
_atom_site_fract_x
_atom_site_fract_y
_atom_site_fract_z
Si Si1 0.770708 0.067883 0.781117
Si Si2 0.732922 0.461654 0.687434
Si Si3 0.155126 0.282766 0.427775
Si Si4 0.322846 0.649538 0.046619
Si Si5 0.097948 0.939197 0.534291
Si Si6 0.343486 0.939574 0.894899
Si Si7 0.592143 0.666228 0.964241
O O1 0.783013 0.860580 0.640705
O O2 0.646655 0.102694 0.746866
O O3 0.881079 0.189139 0.731406
O O4 0.781746 0.159631 0.052059
O O5 0.825542 0.653622 0.714406
O O6 0.772540 0.476216 0.897598
O O7 0.710268 0.237280 0.416271
O O8 0.588175 0.457425 0.700790
O O9 0.988887 0.167993 0.386890
O O10 0.246375 0.507327 0.747739
O O11 0.461635 0.641363 0.044401
O O12 0.259639 0.163266 0.776175
O O13 0.000000 0.000000 0.500000
O O14 0.385335 0.181605 0.058541
O O15 0.500000 0.000000 0.000000
#
# Coordination Sequence:
#
# PCOD9051907 Si02
#       7
#     2   2   2   2   2   2   2
#     4  11  23  47  72 103 152 191 239 303 367 438
#     4  12  26  43  73 110 147 188 249 303 358 448
#     4  11  25  51  75 105 148 200 244 304 371 435
#     4  12  27  46  78 113 143 194 249 306 375 431
#     4  10  25  48  75 102 146 203 244 298 372 437
#     4  12  25  43  72 113 150 195 237 304 384 431
#     4  12  26  47  74 111 147 192 248 305 369 441
#
# _framework density 26.785177999999998
#
# number of rings (size 3 to 8) (size 9 to 14) (size 15 to 20)
#    0.000    0.571    4.286    3.000    4.000    3.429 
#    2.571    4.286    0.000    0.000    0.000    0.000 
#    0.000    0.000    0.000    0.000    0.000    0.000 
#
# Total GULP energy -78069.942894 kJ/mol
# GULP energy per Si atom -5576.424492 kJ/mol
# Density = 2.672421 g / cm^3
# Si number density = 26.785178 Si / 1000 Ang^3
#
#
#
# Elastic Constant Matrix: (Units=GPa)
#
#
# Indices 1 2 3 4 5 6 
#
# 1 88.4909 36.0860 50.2426 -18.4178 -16.4573 12.8312
# 2 36.0860 154.4005 50.1601 -33.4155 -32.2420 6.9693
# 3 50.2426 50.1601 107.4805 -8.7014 -47.4963 17.1543
# 4 -18.4178 -33.4155 -8.7014 48.7031 4.8322 -21.3642
# 5 -16.4573 -32.2420 -47.4963 4.8322 55.1772 5.7136
# 6 12.8312 6.9693 17.1543 -21.3642 5.7136 55.6276
#
#
#
# Elastic Compliance Matrix: (Units=1/GPa)
#
#
# Indices 1 2 3 4 5 6 
#
# 1 0.016916 -0.000731 -0.009015 0.005259 -0.003744 0.001374
# 2 -0.000731 0.009280 -0.003017 0.006326 0.001828 0.002178
# 3 -0.009015 -0.003017 0.023513 -0.007080 0.017371 -0.009297
# 4 0.005259 0.006326 -0.007080 0.031734 -0.004941 0.012873
# 5 -0.003744 0.001828 0.017371 -0.004941 0.034513 -0.010165
# 6 0.001374 0.002178 -0.009297 0.012873 -0.010165 0.026242
#
#
# Mechanical properties :
#
#
# Convention : Reuss Voigt Hill
#
# Bulk Modulus (GPa) = 41.34868 69.26104 55.30486
# Shear Modulus (GPa) = 28.44421 46.16044 37.30233
#
# Velocity S-wave (km/s) = 3.26228 4.15584 3.73587
# Velocity P-wave (km/s) = 5.44615 6.99586 6.26908
#
# Compressibility (1/GPa) = 0.02418457
#
# Stress axis : x y z
#
# Youngs Moduli (GPa) = 59.11629 107.75835 42.53000
#
# Poissons Ratio (x) = 0.07873 0.38339
# Poissons Ratio (y) = 0.04319 0.12831
# Poissons Ratio (z) = 0.53290 0.32510
#
# Static dielectric constant tensor:
#      x y z
#    x 2.099420 0.000060 0.006630 
#    y 0.000060 2.285380 0.021470 
#    z 0.006630 0.021470 2.067690 
# 
# From -- ./inp_files/260906.got.cif
#   From: 2010.05.17/outbox.cif.g08.bks.cpg/sg2_131_cif.got.tgz:260906.got - 2010.06.03 11:33:40.
