data_PCOD9051233
_publ_section_title
;
Structure prediction by ZEFSAII (Michael W. Deem and Ramdas Pophale) SiO2 
 PCOD9051233
Probable space group: P -1
;
_chemical_formula_sum "Si O2"
_cell_formula_units_Z 16
_cell_length_a 13.059424
_cell_length_b 16.009096
_cell_length_c 8.138816
_cell_angle_alpha 95.881387
_cell_angle_beta 111.848076
_cell_angle_gamma 143.196371
_cell_volume 656.443633
_symmetry_space_group_name_H-M "P -1"
_symmetry_group_IT_number 2
_symmetry_cell_setting 'triclinic'
loop_
_space_group_symop_operation_xyz
x,y,z
-x,-y,-z
loop_
_atom_site_type_symbol
_atom_site_label
_atom_site_fract_x
_atom_site_fract_y
_atom_site_fract_z
Si Si1 0.638283 0.341251 0.238757
Si Si2 0.778064 0.437203 0.692224
Si Si3 0.152926 0.101669 0.819595
Si Si4 0.329939 0.786432 0.018810
Si Si5 0.601011 0.747337 0.344449
Si Si6 0.851413 0.202118 0.357663
Si Si7 0.157015 0.323222 0.328684
Si Si8 0.326448 0.386997 0.119760
O O1 0.708671 0.346537 0.457306
O O2 0.644236 0.281292 0.080079
O O3 0.866919 0.567119 0.372520
O O4 0.363770 0.199577 0.077167
O O5 0.558431 0.287454 0.672585
O O6 0.783120 0.539715 0.665132
O O7 0.076321 0.617392 0.950338
O O8 0.235761 0.121812 0.696235
O O9 0.223712 0.249760 0.899656
O O10 0.843375 0.880781 0.629099
O O11 0.250706 0.797479 0.828752
O O12 0.614528 0.014125 0.298602
O O13 0.401652 0.533079 0.140579
O O14 0.914401 0.164367 0.274825
O O15 0.123492 0.251987 0.123833
O O16 0.405802 0.462501 0.607019
#
# Coordination Sequence:
#
# PCOD9051233 Si02
#       8
#     2   2   2   2   2   2   2   2
#     4  10  19  32  54  79 104 130 175 215 256 306
#     4   9  17  37  51  77 108 131 171 220 256 304
#     4  11  22  37  51  79 105 140 181 209 257 317
#     4   9  18  30  54  76 104 137 164 210 270 302
#     4  10  24  36  53  73 107 145 175 213 260 310
#     4   9  16  31  48  80 107 129 163 213 261 310
#     4   8  16  28  52  81 104 124 170 216 252 306
#     4  10  17  35  52  73 106 138 168 214 259 302
#
# _framework density 24.373760000000001
#
# number of rings (size 3 to 8) (size 9 to 14) (size 15 to 20)
#    0.000    2.750    2.500    1.875    1.750    1.500 
#    0.000    3.125    0.000    0.750    0.000    0.000 
#    0.000    0.000    0.000    0.000    0.000    0.000 
#
# Total GULP energy -89231.813538 kJ/mol
# GULP energy per Si atom -5576.988346 kJ/mol
# Density = 2.431828 g / cm^3
# Si number density = 24.373760 Si / 1000 Ang^3
#
#
#
# Elastic Constant Matrix: (Units=GPa)
#
#
# Indices 1 2 3 4 5 6 
#
# 1 93.6313 29.5641 31.4416 20.5417 4.2686 26.4345
# 2 29.5641 82.8106 32.1560 20.3653 1.1840 19.0207
# 3 31.4416 32.1560 59.1599 27.1348 -2.1559 13.6857
# 4 20.5417 20.3653 27.1348 32.3172 4.8961 5.0675
# 5 4.2686 1.1840 -2.1559 4.8961 27.7084 7.5539
# 6 26.4345 19.0207 13.6857 5.0675 7.5539 36.3563
#
#
#
# Elastic Compliance Matrix: (Units=1/GPa)
#
#
# Indices 1 2 3 4 5 6 
#
# 1 0.015818 -0.000956 -0.003254 -0.005402 0.000811 -0.009192
# 2 -0.000956 0.016943 -0.004821 -0.005334 0.001612 -0.005946
# 3 -0.003254 -0.004821 0.034068 -0.023890 0.009366 -0.006552
# 4 -0.005402 -0.005334 -0.023890 0.058266 -0.013954 0.010489
# 5 0.000811 0.001612 0.009366 -0.013954 0.042309 -0.011804
# 6 -0.009192 -0.005946 -0.006552 0.010489 -0.011804 0.040757
#
#
# Mechanical properties :
#
#
# Convention : Reuss Voigt Hill
#
# Bulk Modulus (GPa) = 20.50503 46.88056 33.69280
# Shear Modulus (GPa) = 20.62051 28.77237 24.69644
#
# Velocity S-wave (km/s) = 2.91179 3.43952 3.18659
# Velocity P-wave (km/s) = 4.44248 5.92026 5.23379
#
# Compressibility (1/GPa) = 0.04876852
#
# Stress axis : x y z
#
# Youngs Moduli (GPa) = 63.22032 59.02023 29.35345
#
# Poissons Ratio (x) = 0.05639 0.09551
# Poissons Ratio (y) = 0.06041 0.14151
# Poissons Ratio (z) = 0.20570 0.28453
#
# Static dielectric constant tensor:
#      x y z
#    x 1.996940 -0.005580 0.042780 
#    y -0.005580 2.078970 -0.033380 
#    z 0.042780 -0.033380 2.051760 
# 
# From -- ./inp_files/278162.got.cif
#   From: 2010.05.17/outbox.cif.g08.bks.cpg/sg2_140_cif.got.tgz:278162.got - 2010.06.03 11:33:40.
