data_PCOD9051978
_publ_section_title
;
Structure prediction by ZEFSAII (Michael W. Deem and Ramdas Pophale) SiO2 
 PCOD9051978
Probable space group: P -1
;
_chemical_formula_sum "Si O2"
_cell_formula_units_Z 14
_cell_length_a 5.332310
_cell_length_b 18.280956
_cell_length_c 15.966965
_cell_angle_alpha 152.269923
_cell_angle_beta 125.790586
_cell_angle_gamma 49.687286
_cell_volume 551.917817
_symmetry_space_group_name_H-M "P -1"
_symmetry_group_IT_number 2
_symmetry_cell_setting 'triclinic'
loop_
_space_group_symop_operation_xyz
x,y,z
-x,-y,-z
loop_
_atom_site_type_symbol
_atom_site_label
_atom_site_fract_x
_atom_site_fract_y
_atom_site_fract_z
Si Si1 0.056366 0.767624 0.560385
Si Si2 0.138372 0.500921 0.850373
Si Si3 0.035411 0.210539 0.016253
Si Si4 0.116768 0.056823 0.465706
Si Si5 0.249304 0.992771 0.119800
Si Si6 0.116937 0.724773 0.208107
Si Si7 0.299772 0.393308 0.394468
O O1 0.425440 0.740256 0.632283
O O2 0.036206 0.599040 0.342785
O O3 0.942484 0.901686 0.600210
O O4 0.841028 0.833749 0.669159
O O5 0.489185 0.366434 0.807819
O O6 0.165885 0.653939 0.954172
O O7 0.977710 0.599138 0.003569
O O8 0.163319 0.309451 0.210706
O O9 0.377231 0.088136 0.919300
O O10 0.827014 0.124838 0.943354
O O11 0.963112 0.224102 0.659773
O O12 0.500000 0.000000 0.500000
O O13 0.004780 0.905796 0.323653
O O14 0.000000 0.000000 0.000000
O O15 0.500000 0.500000 0.500000
O O16 0.000000 0.500000 0.500000
#
# Coordination Sequence:
#
# PCOD9051978 Si02
#       7
#     2   2   2   2   2   2   2
#     4  12  27  46  78 110 148 205 251 319 381 456
#     4  11  25  46  75 110 145 200 253 313 388 447
#     4  12  27  49  76 110 151 202 250 313 376 457
#     4  11  24  46  73 106 145 195 251 312 377 450
#     4  12  28  50  75 109 155 198 255 309 376 449
#     4  10  25  49  72 105 150 192 255 317 376 455
#     4  12  27  47  76 115 156 195 255 317 379 453
#
# _framework density 25.366094
#
# number of rings (size 3 to 8) (size 9 to 14) (size 15 to 20)
#    0.000    0.571    4.286    2.143    4.000    1.714 
#    0.000    0.000    0.000    0.000    0.000    0.000 
#    0.000    0.000    0.000    0.000    0.000    0.000 
#
# Total GULP energy -78459.672003 kJ/mol
# GULP energy per Si atom -5604.262286 kJ/mol
# Density = 2.530836 g / cm^3
# Si number density = 25.366094 Si / 1000 Ang^3
#
#
#
# Elastic Constant Matrix: (Units=GPa)
#
#
# Indices 1 2 3 4 5 6 
#
# 1 117.4468 17.8360 46.5571 11.1929 -28.7248 10.3547
# 2 17.8360 144.8899 15.1853 -1.0710 -16.7797 19.1458
# 3 46.5571 15.1853 202.8084 -27.1023 -37.5820 7.5940
# 4 11.1929 -1.0710 -27.1023 47.3128 7.2507 -1.7701
# 5 -28.7248 -16.7797 -37.5820 7.2507 50.1032 7.5873
# 6 10.3547 19.1458 7.5940 -1.7701 7.5873 36.6003
#
#
#
# Elastic Compliance Matrix: (Units=1/GPa)
#
#
# Indices 1 2 3 4 5 6 
#
# 1 0.011846 0.000113 -0.001983 -0.005151 0.006793 -0.004657
# 2 0.000113 0.007957 0.000186 -0.000495 0.003702 -0.005025
# 3 -0.001983 0.000186 0.006571 0.003639 0.003548 -0.001459
# 4 -0.005151 -0.000495 0.003639 0.025236 -0.004514 0.003118
# 5 0.006793 0.003702 0.003548 -0.004514 0.030081 -0.011049
# 6 -0.004657 -0.005025 -0.001459 0.003118 -0.011049 0.034012
#
#
# Mechanical properties :
#
#
# Convention : Reuss Voigt Hill
#
# Bulk Modulus (GPa) = 43.46532 69.36687 56.41610
# Shear Modulus (GPa) = 39.45108 52.50771 45.97939
#
# Velocity S-wave (km/s) = 3.94797 4.55466 4.26212
# Velocity P-wave (km/s) = 6.16071 7.42061 6.81982
#
# Compressibility (1/GPa) = 0.02300685
#
# Stress axis : x y z
#
# Youngs Moduli (GPa) = 84.41515 125.66958 152.19507
#
# Poissons Ratio (x) = -0.01426 0.30184
# Poissons Ratio (y) = -0.00958 -0.02833
# Poissons Ratio (z) = 0.16741 -0.02339
#
# Static dielectric constant tensor:
#      x y z
#    x 1.998570 0.064250 0.052620 
#    y 0.064250 2.002140 0.049860 
#    z 0.052620 0.049860 2.040010 
# 
# From -- ./inp_files/340215.got.cif
#   From: 2010.05.17/outbox.cif.g08.bks.cpg/sg2_171_cif.got.tgz:340215.got - 2010.06.03 11:33:40.
