data_PCOD9051307
_publ_section_title
;
Structure prediction by ZEFSAII (Michael W. Deem and Ramdas Pophale) SiO2 
 PCOD9051307
Probable space group: P -1
;
_chemical_formula_sum "Si O2"
_cell_formula_units_Z 12
_cell_length_a 9.109351
_cell_length_b 8.543262
_cell_length_c 13.639584
_cell_angle_alpha 77.401274
_cell_angle_beta 69.117477
_cell_angle_gamma 134.309453
_cell_volume 507.731342
_symmetry_space_group_name_H-M "P -1"
_symmetry_group_IT_number 2
_symmetry_cell_setting 'triclinic'
loop_
_space_group_symop_operation_xyz
x,y,z
-x,-y,-z
loop_
_atom_site_type_symbol
_atom_site_label
_atom_site_fract_x
_atom_site_fract_y
_atom_site_fract_z
Si Si1 0.509949 0.235936 0.061867
Si Si2 0.909890 0.074959 0.176634
Si Si3 0.571819 0.849033 0.690969
Si Si4 0.649887 0.528396 0.375000
Si Si5 0.391066 0.805550 0.458703
Si Si6 0.132686 0.779858 0.033475
O O1 0.373206 0.163356 0.210267
O O2 0.701136 0.000731 0.943374
O O3 0.701285 0.238661 0.034895
O O4 0.754872 0.579503 0.923577
O O5 0.855070 0.838715 0.231432
O O6 0.666170 0.958507 0.316082
O O7 0.863993 0.093962 0.074071
O O8 0.597697 0.748792 0.607468
O O9 0.727655 0.154690 0.588300
O O10 0.209620 0.558190 0.812887
O O11 0.500000 0.500000 0.500000
O O12 0.784922 0.492330 0.405734
O O13 0.500000 0.000000 0.500000
#
# Coordination Sequence:
#
# PCOD9051307 Si02
#       6
#     2   2   2   2   2   2
#     4  10  19  31  55  82 103 132 169 216 262 303
#     4  10  17  35  52  77 107 134 164 216 261 300
#     4  10  17  35  56  79 103 133 173 212 253 308
#     4   9  20  32  55  78 102 141 175 204 257 305
#     4   9  16  30  55  74  96 139 176 204 246 300
#     4  10  19  31  55  82 103 132 169 216 262 303
#
# _framework density 23.634544999999999
#
# number of rings (size 3 to 8) (size 9 to 14) (size 15 to 20)
#    0.000    2.333    3.333    1.000    0.000    2.667 
#    0.000    3.333    0.000   40.000    0.000    0.000 
#    0.000    0.000    0.000    0.000    0.000    0.000 
#
# Total GULP energy -67015.472645 kJ/mol
# GULP energy per Si atom -5584.622720 kJ/mol
# Density = 2.358075 g / cm^3
# Si number density = 23.634545 Si / 1000 Ang^3
#
#
#
# Elastic Constant Matrix: (Units=GPa)
#
#
# Indices 1 2 3 4 5 6 
#
# 1 58.8954 29.8958 26.9444 -9.3423 27.1707 -12.7464
# 2 29.8958 139.2132 49.3250 -4.6797 11.4709 -0.8656
# 3 26.9444 49.3250 115.6193 -9.4016 43.6485 -6.4941
# 4 -9.3423 -4.6797 -9.4016 59.4704 -18.6160 6.7785
# 5 27.1707 11.4709 43.6485 -18.6160 41.2154 -8.9951
# 6 -12.7464 -0.8656 -6.4941 6.7785 -8.9951 42.0709
#
#
#
# Elastic Compliance Matrix: (Units=1/GPa)
#
#
# Indices 1 2 3 4 5 6 
#
# 1 0.028828 -0.005906 0.004105 -0.002692 -0.021831 0.005013
# 2 -0.005906 0.009861 -0.005604 0.001431 0.007495 -0.001080
# 3 0.004105 -0.005604 0.018098 -0.003826 -0.022081 -0.000182
# 4 -0.002692 0.001431 -0.003826 0.020583 0.014372 -0.001620
# 5 -0.021831 0.007495 -0.022081 0.014372 0.066907 0.002121
# 6 0.005013 -0.001080 -0.000182 -0.001620 0.002121 0.025952
#
#
# Mechanical properties :
#
#
# Convention : Reuss Voigt Hill
#
# Bulk Modulus (GPa) = 23.82235 58.45094 41.13665
# Shear Modulus (GPa) = 25.12165 42.38886 33.75525
#
# Velocity S-wave (km/s) = 3.26378 4.23958 3.78328
# Velocity P-wave (km/s) = 4.92995 6.98214 6.04378
#
# Compressibility (1/GPa) = 0.04197738
#
# Stress axis : x y z
#
# Youngs Moduli (GPa) = 34.68846 101.40956 55.25549
#
# Poissons Ratio (x) = 0.59892 -0.22685
# Poissons Ratio (y) = 0.20487 0.30966
# Poissons Ratio (z) = -0.14241 0.56832
#
# Static dielectric constant tensor:
#      x y z
#    x 1.953390 -0.016600 -0.026390 
#    y -0.016600 1.905460 0.007040 
#    z -0.026390 0.007040 1.970750 
# 
# From -- ./inp_files/390308.got.cif
#   From: 2010.05.17/outbox.cif.g08.bks.cpg/sg2_196_cif.got.tgz:390308.got - 2010.06.03 11:33:40.
