data_PCOD9051744
_publ_section_title
;
Structure prediction by ZEFSAII (Michael W. Deem and Ramdas Pophale) SiO2 
 PCOD9051744
Probable space group: P -1
;
_chemical_formula_sum "Si O2"
_cell_formula_units_Z 16
_cell_length_a 8.530787
_cell_length_b 10.327339
_cell_length_c 10.629146
_cell_angle_alpha 124.278079
_cell_angle_beta 123.328601
_cell_angle_gamma 62.261914
_cell_volume 629.808134
_symmetry_space_group_name_H-M "P -1"
_symmetry_group_IT_number 2
_symmetry_cell_setting 'triclinic'
loop_
_space_group_symop_operation_xyz
x,y,z
-x,-y,-z
loop_
_atom_site_type_symbol
_atom_site_label
_atom_site_fract_x
_atom_site_fract_y
_atom_site_fract_z
Si Si1 0.904398 0.482899 0.585533
Si Si2 0.218834 0.501015 0.059479
Si Si3 0.246174 0.061218 0.397556
Si Si4 0.228906 0.245238 0.721953
Si Si5 0.453699 0.656924 0.701833
Si Si6 0.828040 0.080438 0.125374
Si Si7 0.432136 0.909342 0.620288
Si Si8 0.980932 0.238616 0.049084
O O1 0.696819 0.453881 0.448497
O O2 0.935223 0.634550 0.762667
O O3 0.000000 0.500000 0.500000
O O4 0.009963 0.331233 0.636674
O O5 0.358092 0.449923 0.209488
O O6 0.292505 0.372333 0.909534
O O7 0.000000 0.500000 0.000000
O O8 0.179777 0.673165 0.070979
O O9 0.301064 0.202252 0.586596
O O10 0.367814 0.054044 0.321056
O O11 0.020733 0.093105 0.293837
O O12 0.313447 0.911192 0.439220
O O13 0.297942 0.067520 0.715054
O O14 0.354429 0.802556 0.831379
O O15 0.471397 0.753661 0.635970
O O16 0.867730 0.148473 0.044816
O O17 0.849134 0.889918 0.014469
#
# Coordination Sequence:
#
# PCOD9051744 Si02
#       8
#     2   2   2   2   2   2   2   2
#     4  11  21  47  73 109 159 206 248 316 382 459
#     4  11  28  49  70 114 162 203 242 330 396 447
#     4   9  19  44  73 115 150 194 245 334 380 440
#     4   9  20  44  76 102 152 202 245 314 387 440
#     4  12  25  46  83 114 149 211 264 306 385 466
#     4  11  23  45  82 113 139 207 265 317 375 457
#     4   9  22  41  73 121 146 192 265 317 374 460
#     4  10  25  47  74 107 161 197 257 315 388 451
#
# _framework density 25.404561999999999
#
# number of rings (size 3 to 8) (size 9 to 14) (size 15 to 20)
#    0.750    1.000    2.500    0.000    3.500    5.000 
#    4.500    2.500    0.000    0.750    0.000    0.000 
#    0.000    0.000    0.000    0.000    0.000    0.000 
#
# Total GULP energy -89395.982799 kJ/mol
# GULP energy per Si atom -5587.248925 kJ/mol
# Density = 2.534674 g / cm^3
# Si number density = 25.404562 Si / 1000 Ang^3
#
#
#
# Elastic Constant Matrix: (Units=GPa)
#
#
# Indices 1 2 3 4 5 6 
#
# 1 79.5708 50.2267 46.3223 -10.8152 -5.5909 -11.4695
# 2 50.2267 165.7073 88.0707 -20.6919 -6.1303 -18.1212
# 3 46.3223 88.0707 123.0832 -19.1498 3.4148 4.7929
# 4 -10.8152 -20.6919 -19.1498 65.4716 -12.5379 -10.7091
# 5 -5.5909 -6.1303 3.4148 -12.5379 33.1714 -4.2552
# 6 -11.4695 -18.1212 4.7929 -10.7091 -4.2552 38.1263
#
#
#
# Elastic Compliance Matrix: (Units=1/GPa)
#
#
# Indices 1 2 3 4 5 6 
#
# 1 0.018810 -0.000784 -0.006459 0.003371 0.005954 0.007709
# 2 -0.000784 0.012330 -0.008426 0.003718 0.005489 0.008341
# 3 -0.006459 -0.008426 0.016884 -0.001461 -0.006111 -0.009163
# 4 0.003371 0.003718 -0.001461 0.020144 0.010273 0.009770
# 5 0.005954 0.005489 -0.006111 0.010273 0.038257 0.012324
# 6 0.007709 0.008341 -0.009163 0.009770 0.012324 0.037784
#
#
# Mechanical properties :
#
#
# Convention : Reuss Voigt Hill
#
# Bulk Modulus (GPa) = 59.93226 81.95560 70.94393
# Shear Modulus (GPa) = 27.60749 39.60329 33.60539
#
# Velocity S-wave (km/s) = 3.30011 3.95258 3.64099
# Velocity P-wave (km/s) = 6.17765 7.29114 6.75737
#
# Compressibility (1/GPa) = 0.01668550
#
# Stress axis : x y z
#
# Youngs Moduli (GPa) = 53.16215 81.09996 59.22862
#
# Poissons Ratio (x) = 0.06362 0.38254
# Poissons Ratio (y) = 0.04171 0.49908
# Poissons Ratio (z) = 0.34336 0.68337
#
# Static dielectric constant tensor:
#      x y z
#    x 2.029880 -0.029080 -0.025960 
#    y -0.029080 2.108930 0.008020 
#    z -0.025960 0.008020 2.010420 
# 
# From -- ./inp_files/387936.got.cif
#   From: 2010.05.17/outbox.cif.g08.bks.cpg/sg2_194_cif.got.tgz:387936.got - 2010.06.03 11:33:40.
