data_PCOD9051190
_publ_section_title
;
Structure prediction by ZEFSAII (Michael W. Deem and Ramdas Pophale) SiO2 
 PCOD9051190
Probable space group: P -1
;
_chemical_formula_sum "Si O2"
_cell_formula_units_Z 14
_cell_length_a 9.611904
_cell_length_b 9.694209
_cell_length_c 8.039893
_cell_angle_alpha 131.104911
_cell_angle_beta 88.574722
_cell_angle_gamma 86.365628
_cell_volume 561.148519
_symmetry_space_group_name_H-M "P -1"
_symmetry_group_IT_number 2
_symmetry_cell_setting 'triclinic'
loop_
_space_group_symop_operation_xyz
x,y,z
-x,-y,-z
loop_
_atom_site_type_symbol
_atom_site_label
_atom_site_fract_x
_atom_site_fract_y
_atom_site_fract_z
Si Si1 0.804815 0.808639 0.448522
Si Si2 0.088421 0.101195 0.949518
Si Si3 0.833596 0.577184 0.579556
Si Si4 0.415900 0.080354 0.724759
Si Si5 0.315868 0.797255 0.089590
Si Si6 0.699712 0.220434 0.320717
Si Si7 0.067968 0.687801 0.166149
O O1 0.785334 0.646508 0.451687
O O2 0.723418 0.815159 0.278155
O O3 0.971986 0.790983 0.393783
O O4 0.748597 0.997095 0.691010
O O5 0.174282 0.247211 0.158276
O O6 0.981289 0.207075 0.915337
O O7 0.181529 0.931198 0.732654
O O8 0.000000 0.000000 0.000000
O O9 0.740704 0.421355 0.525612
O O10 0.000000 0.500000 0.500000
O O11 0.516597 0.219754 0.908714
O O12 0.500000 0.000000 0.500000
O O13 0.421346 0.896629 0.698824
O O14 0.234703 0.677034 0.129090
O O15 0.294314 0.775527 0.876202
O O16 0.000000 0.500000 0.000000
#
# Coordination Sequence:
#
# PCOD9051190 Si02
#       7
#     2   2   2   2   2   2   2
#     4  11  23  42  68 104 139 175 228 288 341 404
#     4  12  22  42  67 103 137 180 224 280 349 406
#     4  12  24  40  70 106 140 175 233 283 337 417
#     4  10  25  45  71  97 136 185 232 282 349 408
#     4  11  23  44  72  97 138 188 231 276 347 414
#     4  12  23  45  71  96 137 187 228 278 342 415
#     4  12  24  41  67 104 138 175 231 288 344 399
#
# _framework density 24.948831999999999
#
# number of rings (size 3 to 8) (size 9 to 14) (size 15 to 20)
#    0.000    0.571    5.714    2.571    0.000    4.571 
#    0.000    5.714    6.286    0.000    0.000    0.000 
#    0.000    0.000    0.000    0.000    0.000    0.000 
#
# Total GULP energy -78097.670146 kJ/mol
# GULP energy per Si atom -5578.405010 kJ/mol
# Density = 2.489205 g / cm^3
# Si number density = 24.948832 Si / 1000 Ang^3
#
#
#
# Elastic Constant Matrix: (Units=GPa)
#
#
# Indices 1 2 3 4 5 6 
#
# 1 73.7324 33.9722 30.6086 5.9177 27.7643 14.5154
# 2 33.9722 159.0583 30.1484 18.7236 18.2693 16.1218
# 3 30.6086 30.1484 78.7570 19.1531 19.8573 0.6565
# 4 5.9177 18.7236 19.1531 40.0866 7.7957 7.2096
# 5 27.7643 18.2693 19.8573 7.7957 32.0522 -3.7461
# 6 14.5154 16.1218 0.6565 7.2096 -3.7461 42.9343
#
#
#
# Elastic Compliance Matrix: (Units=1/GPa)
#
#
# Indices 1 2 3 4 5 6 
#
# 1 0.026239 -0.001700 -0.005531 0.005606 -0.020973 -0.010919
# 2 -0.001700 0.007537 -0.001283 -0.001935 -0.001800 -0.002068
# 3 -0.005531 -0.001283 0.017900 -0.006980 -0.003525 0.002943
# 4 0.005606 -0.001935 -0.006980 0.031131 -0.007815 -0.006972
# 5 -0.020973 -0.001800 -0.003525 -0.007815 0.056116 0.014029
# 6 -0.010919 -0.002068 0.002943 -0.006972 0.014029 0.030109
#
#
# Mechanical properties :
#
#
# Convention : Reuss Voigt Hill
#
# Bulk Modulus (GPa) = 28.86193 55.66735 42.26464
# Shear Modulus (GPa) = 25.30218 37.46920 31.38569
#
# Velocity S-wave (km/s) = 3.18805 3.87956 3.55068
# Velocity P-wave (km/s) = 5.01449 6.51376 5.81267
#
# Compressibility (1/GPa) = 0.03464771
#
# Stress axis : x y z
#
# Youngs Moduli (GPa) = 38.11094 132.67210 55.86574
#
# Poissons Ratio (x) = 0.22555 0.30901
# Poissons Ratio (y) = 0.06479 0.07168
# Poissons Ratio (z) = 0.21080 0.17023
#
# Static dielectric constant tensor:
#      x y z
#    x 1.297710 -0.196100 -0.466420 
#    y -0.196100 1.736280 -0.002230 
#    z -0.466420 -0.002230 1.615520 
# 
# From -- ./inp_files/245993.got.cif
#   From: 2010.05.17/outbox.cif.g08.bks.cpg/sg2_123_cif.got.tgz:245993.got - 2010.06.03 11:33:40.
