data_PCOD9051170
_publ_section_title
;
Structure prediction by ZEFSAII (Michael W. Deem and Ramdas Pophale) SiO2 
 PCOD9051170
Probable space group: P -1
;
_chemical_formula_sum "Si O2"
_cell_formula_units_Z 13
_cell_length_a 5.168967
_cell_length_b 5.290545
_cell_length_c 22.436904
_cell_angle_alpha 73.697860
_cell_angle_beta 123.504644
_cell_angle_gamma 93.240899
_cell_volume 487.326569
_symmetry_space_group_name_H-M "P -1"
_symmetry_group_IT_number 2
_symmetry_cell_setting 'triclinic'
loop_
_space_group_symop_operation_xyz
x,y,z
-x,-y,-z
loop_
_atom_site_type_symbol
_atom_site_label
_atom_site_fract_x
_atom_site_fract_y
_atom_site_fract_z
Si Si1 0.117860 0.873950 0.349688
Si Si2 0.616435 0.013688 0.080869
Si Si3 0.500000 0.500000 0.500000
Si Si4 0.851574 0.283549 0.764565
Si Si5 0.352025 0.871609 0.548703
Si Si6 0.137343 0.309650 0.083150
Si Si7 0.498926 0.241722 0.244539
O O1 0.165856 0.660120 0.423155
O O2 0.037978 0.731624 0.288436
O O3 0.441139 0.009811 0.382839
O O4 0.855569 0.124680 0.307715
O O5 0.330481 0.069168 0.086486
O O6 0.839999 0.247563 0.088275
O O7 0.856273 0.769782 0.150415
O O8 0.500000 0.000000 0.000000
O O9 0.406535 0.570935 0.554431
O O10 0.635636 0.545751 0.738159
O O11 0.668058 0.025912 0.762066
O O12 0.500000 0.000000 0.500000
O O13 0.000000 0.000000 0.500000
O O14 0.396581 0.380139 0.158743
O O15 0.000000 0.500000 0.000000
#
# Coordination Sequence:
#
# PCOD9051170 Si02
#       7
#     2   2   1   2   2   2   2
#     4  11  26  47  72 108 148 202 258 324 393 469
#     4  11  23  45  72 115 156 209 262 323 389 464
#     4  10  26  46  74 106 144 194 256 318 392 464
#     4  11  27  47  76 108 156 206 260 324 391 466
#     4  10  25  45  71 106 143 188 248 314 386 460
#     4  11  23  45  72 114 155 208 262 323 387 467
#     4  11  27  48  73 112 152 204 260 323 391 464
#
# _framework density 26.676155000000001
#
# number of rings (size 3 to 8) (size 9 to 14) (size 15 to 20)
#    0.000    1.231    1.538    1.846    8.615    4.923 
#    0.000    0.000    0.000    0.000    0.000    0.000 
#    0.000    0.000    0.000    0.000    0.000    0.000 
#
# Total GULP energy -72487.285930 kJ/mol
# GULP energy per Si atom -5575.945072 kJ/mol
# Density = 2.661544 g / cm^3
# Si number density = 26.676155 Si / 1000 Ang^3
#
#
#
# Elastic Constant Matrix: (Units=GPa)
#
#
# Indices 1 2 3 4 5 6 
#
# 1 82.0662 39.6556 21.5548 -9.9566 14.9374 -7.5762
# 2 39.6556 165.6878 49.3352 -10.2968 12.1079 -41.8170
# 3 21.5548 49.3352 189.1170 -23.2195 7.7854 -14.4488
# 4 -9.9566 -10.2968 -23.2195 44.0766 -13.0051 0.2606
# 5 14.9374 12.1079 7.7854 -13.0051 50.8066 -5.9484
# 6 -7.5762 -41.8170 -14.4488 0.2606 -5.9484 54.3548
#
#
#
# Elastic Compliance Matrix: (Units=1/GPa)
#
#
# Indices 1 2 3 4 5 6 
#
# 1 0.014555 -0.003239 -0.000600 0.001276 -0.003204 -0.000979
# 2 -0.003239 0.008754 -0.001397 0.000514 -0.000098 0.005899
# 3 -0.000600 -0.001397 0.006093 0.002852 0.000363 0.000487
# 4 0.001276 0.000514 0.002852 0.026368 0.006033 0.001865
# 5 -0.003204 -0.000098 0.000363 0.006033 0.022370 0.001994
# 6 -0.000979 0.005899 0.000487 0.001865 0.001994 0.023138
#
#
# Mechanical properties :
#
#
# Convention : Reuss Voigt Hill
#
# Bulk Modulus (GPa) = 52.82287 73.10691 62.96489
# Shear Modulus (GPa) = 42.35103 51.60264 46.97683
#
# Velocity S-wave (km/s) = 3.98879 4.40297 4.20099
# Velocity P-wave (km/s) = 6.40769 7.30157 6.86919
#
# Compressibility (1/GPa) = 0.01893119
#
# Stress axis : x y z
#
# Youngs Moduli (GPa) = 68.70283 114.22751 164.12221
#
# Poissons Ratio (x) = 0.36994 0.09854
# Poissons Ratio (y) = 0.22250 0.22925
# Poissons Ratio (z) = 0.04125 0.15956
#
# Static dielectric constant tensor:
#      x y z
#    x 2.105150 0.153350 -0.035170 
#    y 0.153350 2.265650 -0.007270 
#    z -0.035170 -0.007270 2.116710 
# 
# From -- ./inp_files/7128.got.cif
#   From: 2010.05.17/outbox.cif.g08.bks.cpg/sg2_4_cif.got.tgz:7128.got - 2010.06.03 11:33:40.
