data_PCOD9051644
_publ_section_title
;
Structure prediction by ZEFSAII (Michael W. Deem and Ramdas Pophale) SiO2 
 PCOD9051644
Probable space group: P -1
;
_chemical_formula_sum "Si O2"
_cell_formula_units_Z 12
_cell_length_a 9.257503
_cell_length_b 10.090173
_cell_length_c 8.779551
_cell_angle_alpha 95.291461
_cell_angle_beta 132.329176
_cell_angle_gamma 61.881262
_cell_volume 501.839258
_symmetry_space_group_name_H-M "P -1"
_symmetry_group_IT_number 2
_symmetry_cell_setting 'triclinic'
loop_
_space_group_symop_operation_xyz
x,y,z
-x,-y,-z
loop_
_atom_site_type_symbol
_atom_site_label
_atom_site_fract_x
_atom_site_fract_y
_atom_site_fract_z
Si Si1 0.004784 0.523189 0.685338
Si Si2 0.988093 0.190262 0.369609
Si Si3 0.723382 0.374724 0.507562
Si Si4 0.274171 0.403174 0.135683
Si Si5 0.061341 0.046694 0.889206
Si Si6 0.510751 0.954208 0.680585
O O1 0.993310 0.686964 0.714358
O O2 0.801637 0.498917 0.593535
O O3 0.000000 0.500000 0.500000
O O4 0.242290 0.396638 0.929805
O O5 0.828345 0.287401 0.409301
O O6 0.258760 0.064859 0.591766
O O7 0.908968 0.085693 0.221175
O O8 0.443220 0.462036 0.302888
O O9 0.410124 0.227217 0.279663
O O10 0.862809 0.225256 0.707748
O O11 0.000000 0.500000 0.000000
O O12 0.298126 0.036186 0.089565
O O13 0.000000 0.000000 0.000000
O O14 0.500000 0.000000 0.500000
#
# Coordination Sequence:
#
# PCOD9051644 Si02
#       6
#     2   2   2   2   2   2
#     4  10  25  47  70 107 146 189 239 295 364 428
#     4  11  25  45  75 106 149 185 242 303 355 433
#     4  11  25  48  72 107 145 194 244 288 371 432
#     4  12  26  45  74 100 149 191 244 303 355 430
#     4  12  24  43  74 107 143 191 238 299 366 422
#     4  12  24  45  71 109 145 184 249 298 356 429
#
# _framework density 23.912040000000001
#
# number of rings (size 3 to 8) (size 9 to 14) (size 15 to 20)
#    0.000    0.667    5.000    1.500    0.000    8.000 
#    0.000    0.000    0.000    0.000    0.000    0.000 
#    0.000    0.000    0.000    0.000    0.000    0.000 
#
# Total GULP energy -67142.380594 kJ/mol
# GULP energy per Si atom -5595.198383 kJ/mol
# Density = 2.385762 g / cm^3
# Si number density = 23.912040 Si / 1000 Ang^3
#
#
#
# Elastic Constant Matrix: (Units=GPa)
#
#
# Indices 1 2 3 4 5 6 
#
# 1 101.4696 27.2859 47.5319 -2.3185 16.9982 4.2863
# 2 27.2859 128.0789 34.9538 0.2437 10.4980 24.4890
# 3 47.5319 34.9538 165.6875 16.6176 23.7840 22.2047
# 4 -2.3185 0.2437 16.6176 51.3068 18.6227 4.4579
# 5 16.9982 10.4980 23.7840 18.6227 48.1458 0.4931
# 6 4.2863 24.4890 22.2047 4.4579 0.4931 44.2198
#
#
#
# Elastic Compliance Matrix: (Units=1/GPa)
#
#
# Indices 1 2 3 4 5 6 
#
# 1 0.012380 -0.001709 -0.003102 0.002767 -0.003547 0.001065
# 2 -0.001709 0.009402 -0.000757 0.001056 -0.001433 -0.004752
# 3 -0.003102 -0.000757 0.007954 -0.001731 -0.001968 -0.003078
# 4 0.002767 0.001056 -0.001731 0.023835 -0.009548 -0.002280
# 5 -0.003547 -0.001433 -0.001968 -0.009548 0.026972 0.002787
# 6 0.001065 -0.004752 -0.003078 -0.002280 0.002787 0.026887
#
#
# Mechanical properties :
#
#
# Convention : Reuss Voigt Hill
#
# Bulk Modulus (GPa) = 53.76193 68.30882 61.03538
# Shear Modulus (GPa) = 40.07506 47.76542 43.92024
#
# Velocity S-wave (km/s) = 4.09826 4.47424 4.29037
# Velocity P-wave (km/s) = 6.70271 7.43778 7.07979
#
# Compressibility (1/GPa) = 0.01860052
#
# Stress axis : x y z
#
# Youngs Moduli (GPa) = 80.77300 106.35722 125.72992
#
# Poissons Ratio (x) = 0.18177 0.39003
# Poissons Ratio (y) = 0.13804 0.09514
# Poissons Ratio (z) = 0.25057 0.08048
#
# Static dielectric constant tensor:
#      x y z
#    x 2.301360 0.301110 0.326040 
#    y 0.301110 2.232380 0.434710 
#    z 0.326040 0.434710 2.454620 
# 
# From -- ./inp_files/170047.got.cif
#   From: 2010.05.17/outbox.cif.g08.bks.cpg/sg2_86_cif.got.tgz:170047.got - 2010.06.03 11:33:40.
