data_PCOD9051981
_publ_section_title
;
Structure prediction by ZEFSAII (Michael W. Deem and Ramdas Pophale) SiO2 
 PCOD9051981
Probable space group: P -1
;
_chemical_formula_sum "Si O2"
_cell_formula_units_Z 16
_cell_length_a 24.462491
_cell_length_b 11.191051
_cell_length_c 12.190475
_cell_angle_alpha 121.555249
_cell_angle_beta 152.976269
_cell_angle_gamma 37.721105
_cell_volume 703.213499
_symmetry_space_group_name_H-M "P -1"
_symmetry_group_IT_number 2
_symmetry_cell_setting 'triclinic'
loop_
_space_group_symop_operation_xyz
x,y,z
-x,-y,-z
loop_
_atom_site_type_symbol
_atom_site_label
_atom_site_fract_x
_atom_site_fract_y
_atom_site_fract_z
Si Si1 0.684933 0.519467 0.378380
Si Si2 0.541985 0.960394 0.357535
Si Si3 0.517073 0.359739 0.704408
Si Si4 0.861748 0.503222 0.307211
Si Si5 0.794071 0.747332 0.500518
Si Si6 0.881658 0.768107 0.026230
Si Si7 0.824598 0.283633 0.278726
Si Si8 0.196996 0.516837 0.046721
O O1 0.530724 0.807799 0.243786
O O2 0.595889 0.517010 0.318799
O O3 0.699490 0.453761 0.248043
O O4 0.938416 0.316337 0.759541
O O5 0.744872 0.795923 0.720394
O O6 0.605679 0.964186 0.355861
O O7 0.331479 0.238251 0.167976
O O8 0.333729 0.494759 0.351614
O O9 0.699234 0.055089 0.883929
O O10 0.652734 0.369641 0.935242
O O11 0.940054 0.298857 0.428384
O O12 0.000000 0.500000 0.500000
O O13 0.725048 0.727706 0.260343
O O14 0.794772 0.481373 0.068910
O O15 0.959904 0.477804 0.731016
O O16 0.945322 0.733406 0.735776
O O17 0.000000 0.000000 0.500000
#
# Coordination Sequence:
#
# PCOD9051981 Si02
#       8
#     2   2   2   2   2   2   2   2
#     4  11  20  36  60  93 123 162 211 257 310 362
#     4  10  19  31  59  91 124 159 201 259 311 362
#     4  11  22  36  59  90 127 164 204 250 312 379
#     4  10  22  41  66  91 124 169 210 254 312 366
#     4  10  17  35  55  85 122 158 206 253 302 355
#     4  10  18  33  57  91 125 159 201 259 315 356
#     4  12  23  43  66  91 127 167 211 257 310 368
#     4  10  22  36  58  90 125 163 204 248 316 373
#
# _framework density 22.752690000000001
#
# number of rings (size 3 to 8) (size 9 to 14) (size 15 to 20)
#    0.000    1.500    3.750    4.125    0.000    4.000 
#    0.000    0.000    2.750    0.750    0.000    0.000 
#    0.000    0.000    0.000    0.000    0.000    0.000 
#
# Total GULP energy -89156.093132 kJ/mol
# GULP energy per Si atom -5572.255821 kJ/mol
# Density = 2.270090 g / cm^3
# Si number density = 22.752690 Si / 1000 Ang^3
#
#
#
# Elastic Constant Matrix: (Units=GPa)
#
#
# Indices 1 2 3 4 5 6 
#
# 1 114.1550 29.6493 36.7860 5.7386 5.3951 -2.7837
# 2 29.6493 55.4549 13.9990 24.7844 5.9288 -0.7825
# 3 36.7860 13.9990 67.0759 25.2851 -9.8974 6.1750
# 4 5.7386 24.7844 25.2851 33.8387 -13.0531 -1.5193
# 5 5.3951 5.9288 -9.8974 -13.0531 36.0435 1.4469
# 6 -2.7837 -0.7825 6.1750 -1.5193 1.4469 25.6890
#
#
#
# Elastic Compliance Matrix: (Units=1/GPa)
#
#
# Indices 1 2 3 4 5 6 
#
# 1 0.015201 -0.012952 -0.012230 0.017256 0.002543 0.005070
# 2 -0.012952 0.045353 0.013712 -0.048930 -0.019271 -0.005126
# 3 -0.012230 0.013712 0.031851 -0.033550 -0.003413 -0.010356
# 4 0.017256 -0.048930 -0.033550 0.100497 0.032143 0.012577
# 5 0.002543 -0.019271 -0.003413 0.032143 0.041233 0.000087
# 6 0.005070 -0.005126 -0.010356 0.012577 0.000087 0.042548
#
#
# Mechanical properties :
#
#
# Convention : Reuss Voigt Hill
#
# Bulk Modulus (GPa) = 14.39606 44.17272 29.28439
# Shear Modulus (GPa) = 15.49048 29.53101 22.51075
#
# Velocity S-wave (km/s) = 2.61208 3.60656 3.14883
# Velocity P-wave (km/s) = 3.92915 6.06626 5.11066
#
# Compressibility (1/GPa) = 0.06946344
#
# Stress axis : x y z
#
# Youngs Moduli (GPa) = 65.78452 22.04938 31.39647
#
# Poissons Ratio (x) = 0.28559 0.38397
# Poissons Ratio (y) = 0.85207 -0.43050
# Poissons Ratio (z) = 0.80453 -0.30233
#
# Static dielectric constant tensor:
#      x y z
#    x 1.897050 0.008850 -0.006330 
#    y 0.008850 1.841900 -0.003850 
#    z -0.006330 -0.003850 1.925850 
# 
# From -- ./inp_files/424068.got.cif
#   From: 2010.05.17/outbox.cif.g08.bks.cpg/sg2_213_cif.got.tgz:424068.got - 2010.06.03 11:33:40.
