data_PCOD9051906
_publ_section_title
;
Structure prediction by ZEFSAII (Michael W. Deem and Ramdas Pophale) SiO2 
 PCOD9051906
Probable space group: P -1
;
_chemical_formula_sum "Si O2"
_cell_formula_units_Z 16
_cell_length_a 11.800619
_cell_length_b 13.354039
_cell_length_c 5.835556
_cell_angle_alpha 68.025682
_cell_angle_beta 92.312433
_cell_angle_gamma 56.301474
_cell_volume 671.857478
_symmetry_space_group_name_H-M "P -1"
_symmetry_group_IT_number 2
_symmetry_cell_setting 'triclinic'
loop_
_space_group_symop_operation_xyz
x,y,z
-x,-y,-z
loop_
_atom_site_type_symbol
_atom_site_label
_atom_site_fract_x
_atom_site_fract_y
_atom_site_fract_z
Si Si1 0.847846 0.955044 0.040197
Si Si2 0.773199 0.579875 0.303584
Si Si3 0.079896 0.310398 0.506854
Si Si4 0.393917 0.664611 0.862853
Si Si5 0.308899 0.234453 0.263967
Si Si6 0.438230 0.963187 0.228483
Si Si7 0.917025 0.119834 0.204976
Si Si8 0.495492 0.633337 0.397847
O O1 0.873600 0.838741 0.309831
O O2 0.868001 0.058684 0.069318
O O3 0.966502 0.874113 0.918194
O O4 0.685858 0.040350 0.868502
O O5 0.842196 0.651196 0.345120
O O6 0.656982 0.587137 0.443829
O O7 0.910106 0.424021 0.407127
O O8 0.695003 0.663400 0.994060
O O9 0.148752 0.309593 0.277118
O O10 0.223113 0.742261 0.815173
O O11 0.418243 0.701786 0.579063
O O12 0.500000 0.500000 0.000000
O O13 0.432257 0.699380 0.081022
O O14 0.428549 0.172465 0.524087
O O15 0.358619 0.094495 0.271758
O O16 0.500000 0.000000 0.000000
O O17 0.000000 0.000000 0.500000
O O18 0.500000 0.500000 0.500000
#
# Coordination Sequence:
#
# PCOD9051906 Si02
#       8
#     2   2   2   2   2   2   2   2
#     4  11  26  48  71 108 152 200 254 312 399 460
#     4  11  25  45  72 109 148 193 258 309 388 459
#     4  11  25  46  73 103 151 195 244 319 381 465
#     4  10  25  50  78 109 151 199 261 318 387 452
#     4  11  23  43  70 112 139 195 250 308 383 457
#     4  11  23  45  71 102 149 193 243 309 386 455
#     4  11  29  48  76 110 146 204 259 324 385 476
#     4  10  25  48  74 113 151 201 248 319 384 458
#
# _framework density 23.814575000000001
#
# number of rings (size 3 to 8) (size 9 to 14) (size 15 to 20)
#    0.000    1.250    2.500    0.375   10.500    4.000 
#    0.000    0.000    0.000    0.000    0.000    0.000 
#    0.000    0.000    0.000    0.000    0.000    0.000 
#
# Total GULP energy -89441.460245 kJ/mol
# GULP energy per Si atom -5590.091265 kJ/mol
# Density = 2.376037 g / cm^3
# Si number density = 23.814575 Si / 1000 Ang^3
#
#
#
# Elastic Constant Matrix: (Units=GPa)
#
#
# Indices 1 2 3 4 5 6 
#
# 1 129.8395 33.6615 43.8883 13.1822 -5.2548 -26.3720
# 2 33.6615 116.0169 32.2053 6.6280 1.9574 -28.8007
# 3 43.8883 32.2053 111.1056 7.6636 -3.0717 -14.5603
# 4 13.1822 6.6280 7.6636 39.4063 -6.3666 -11.6736
# 5 -5.2548 1.9574 -3.0717 -6.3666 43.0230 -0.3785
# 6 -26.3720 -28.8007 -14.5603 -11.6736 -0.3785 43.0474
#
#
#
# Elastic Compliance Matrix: (Units=1/GPa)
#
#
# Indices 1 2 3 4 5 6 
#
# 1 0.009967 -0.000983 -0.003005 -0.001222 0.000903 0.004109
# 2 -0.000983 0.010992 -0.002042 0.000621 -0.000619 0.006224
# 3 -0.003005 -0.002042 0.010873 -0.000607 0.000415 0.000310
# 4 -0.001222 0.000621 -0.000607 0.028607 0.004076 0.007255
# 5 0.000903 -0.000619 0.000415 0.004076 0.024029 0.001596
# 6 0.004109 0.006224 0.000310 0.007255 0.001596 0.031998
#
#
# Mechanical properties :
#
#
# Convention : Reuss Voigt Hill
#
# Bulk Modulus (GPa) = 50.57558 64.05248 57.31403
# Shear Modulus (GPa) = 37.00529 41.57582 39.29056
#
# Velocity S-wave (km/s) = 3.94622 4.18283 4.06625
# Velocity P-wave (km/s) = 6.48436 7.09104 6.79447
#
# Compressibility (1/GPa) = 0.01977239
#
# Stress axis : x y z
#
# Youngs Moduli (GPa) = 100.32614 90.97894 91.96983
#
# Poissons Ratio (x) = 0.08947 0.27633
# Poissons Ratio (y) = 0.09866 0.18780
# Poissons Ratio (z) = 0.30144 0.18577
#
# Static dielectric constant tensor:
#      x y z
#    x 1.948190 0.054270 0.029000 
#    y 0.054270 1.920840 0.067380 
#    z 0.029000 0.067380 1.975390 
# 
# From -- ./inp_files/77396.got.cif
#   From: 2010.05.17/outbox.cif.g08.bks.cpg/sg2_39_cif.got.tgz:77396.got - 2010.06.03 11:33:40.
