data_PCOD9051321
_publ_section_title
;
Structure prediction by ZEFSAII (Michael W. Deem and Ramdas Pophale) SiO2 
 PCOD9051321
Probable space group: P -1
;
_chemical_formula_sum "Si O2"
_cell_formula_units_Z 14
_cell_length_a 8.008773
_cell_length_b 11.106896
_cell_length_c 18.909319
_cell_angle_alpha 41.529056
_cell_angle_beta 44.714002
_cell_angle_gamma 78.116181
_cell_volume 561.088288
_symmetry_space_group_name_H-M "P -1"
_symmetry_group_IT_number 2
_symmetry_cell_setting 'triclinic'
loop_
_space_group_symop_operation_xyz
x,y,z
-x,-y,-z
loop_
_atom_site_type_symbol
_atom_site_label
_atom_site_fract_x
_atom_site_fract_y
_atom_site_fract_z
Si Si1 0.675456 0.822512 0.126763
Si Si2 0.964548 0.218634 0.072933
Si Si3 0.224625 0.369433 0.229408
Si Si4 0.209400 0.812415 0.430160
Si Si5 0.073434 0.389482 0.115232
Si Si6 0.233303 0.428753 0.554737
Si Si7 0.645404 0.961546 0.863887
O O1 0.408592 0.577623 0.363230
O O2 0.566423 0.971428 0.083435
O O3 0.765152 0.755958 0.060156
O O4 0.000000 0.000000 0.000000
O O5 0.054360 0.475469 0.914043
O O6 0.596739 0.989259 0.254770
O O7 0.946407 0.202793 0.170228
O O8 0.526403 0.393489 0.113037
O O9 0.995377 0.208338 0.435894
O O10 0.021869 0.285362 0.254692
O O11 0.414942 0.662725 0.057896
O O12 0.078036 0.536429 0.579845
O O13 0.207668 0.921147 0.310190
O O14 0.500000 0.500000 0.500000
O O15 0.952838 0.134544 0.749169
#
# Coordination Sequence:
#
# PCOD9051321 Si02
#       7
#     2   2   2   2   2   2   2
#     4  11  21  43  74 100 146 181 219 291 358 410
#     4  11  23  45  71 100 144 185 231 284 348 408
#     4  11  25  46  72 100 139 182 241 288 336 411
#     4  11  24  43  72 102 140 184 227 282 359 415
#     4  10  25  46  66 100 138 188 239 283 336 407
#     4  11  27  42  67 111 138 180 232 282 363 432
#     4  11  25  48  69 108 144 178 228 292 356 424
#
# _framework density 24.951509999999999
#
# number of rings (size 3 to 8) (size 9 to 14) (size 15 to 20)
#    0.000    1.143    4.286    1.714   10.000    1.714 
#    0.000    0.000    0.000    0.000    0.000    0.000 
#    0.000    0.000    0.000    0.000    0.000    0.000 
#
# Total GULP energy -78498.239440 kJ/mol
# GULP energy per Si atom -5607.017103 kJ/mol
# Density = 2.489472 g / cm^3
# Si number density = 24.951510 Si / 1000 Ang^3
#
#
#
# Elastic Constant Matrix: (Units=GPa)
#
#
# Indices 1 2 3 4 5 6 
#
# 1 94.5711 42.6971 12.5905 8.1407 8.4127 14.3984
# 2 42.6971 154.5733 38.5527 20.7927 9.2612 -4.8995
# 3 12.5905 38.5527 82.3723 35.2808 16.2957 -6.8024
# 4 8.1407 20.7927 35.2808 54.3722 2.1539 -3.0424
# 5 8.4127 9.2612 16.2957 2.1539 23.7174 1.3098
# 6 14.3984 -4.8995 -6.8024 -3.0424 1.3098 61.0508
#
#
#
# Elastic Compliance Matrix: (Units=1/GPa)
#
#
# Indices 1 2 3 4 5 6 
#
# 1 0.012950 -0.003463 0.000421 -0.000941 -0.003265 -0.003262
# 2 -0.003463 0.008292 -0.002988 -0.000653 0.000041 0.001116
# 3 0.000421 -0.002988 0.021319 -0.012159 -0.012620 0.001701
# 4 -0.000941 -0.000653 -0.012159 0.026412 0.006544 -0.000009
# 5 -0.003265 0.000041 -0.012620 0.006544 0.051460 -0.001411
# 6 -0.003262 0.001116 0.001701 -0.000009 -0.001411 0.017458
#
#
# Mechanical properties :
#
#
# Convention : Reuss Voigt Hill
#
# Bulk Modulus (GPa) = 32.78677 57.68859 45.23768
# Shear Modulus (GPa) = 31.22715 43.67316 37.45016
#
# Velocity S-wave (km/s) = 3.54151 4.18822 3.87837
# Velocity P-wave (km/s) = 5.46734 6.82340 6.18266
#
# Compressibility (1/GPa) = 0.03050010
#
# Stress axis : x y z
#
# Youngs Moduli (GPa) = 77.22234 120.59793 46.90692
#
# Poissons Ratio (x) = 0.41766 -0.01975
# Poissons Ratio (y) = 0.26744 0.14015
# Poissons Ratio (z) = -0.03251 0.36034
#
# Static dielectric constant tensor:
#      x y z
#    x 1.997930 0.015610 0.004060 
#    y 0.015610 1.985910 -0.013820 
#    z 0.004060 -0.013820 1.934680 
# 
# From -- ./inp_files/498814.got.cif
#   From: 2010.05.17/outbox.cif.g08.bks.cpg/sg2_250_cif.got.tgz:498814.got - 2010.06.03 11:33:40.
