data_PCOD9051520
_publ_section_title
;
Structure prediction by ZEFSAII (Michael W. Deem and Ramdas Pophale) SiO2 
 PCOD9051520
Probable space group: P -1
;
_chemical_formula_sum "Si O2"
_cell_formula_units_Z 12
_cell_length_a 8.978312
_cell_length_b 14.525787
_cell_length_c 15.572723
_cell_angle_alpha 26.500932
_cell_angle_beta 147.294933
_cell_angle_gamma 137.761466
_cell_volume 488.972468
_symmetry_space_group_name_H-M "P -1"
_symmetry_group_IT_number 2
_symmetry_cell_setting 'triclinic'
loop_
_space_group_symop_operation_xyz
x,y,z
-x,-y,-z
loop_
_atom_site_type_symbol
_atom_site_label
_atom_site_fract_x
_atom_site_fract_y
_atom_site_fract_z
Si Si1 0.513903 0.069904 0.066422
Si Si2 0.438821 0.268018 0.195910
Si Si3 0.949519 0.407298 0.960132
Si Si4 0.235349 0.370578 0.479580
Si Si5 0.923724 0.239876 0.574141
Si Si6 0.713058 0.025967 0.788178
O O1 0.506122 0.018002 0.207788
O O2 0.660240 0.866308 0.267335
O O3 0.692844 0.261552 0.968242
O O4 0.197170 0.110243 0.847892
O O5 0.331470 0.136912 0.173835
O O6 0.721179 0.173240 0.455046
O O7 0.500000 0.500000 0.000000
O O8 0.212296 0.284797 0.147518
O O9 0.899484 0.581682 0.717373
O O10 0.000000 0.500000 0.000000
O O11 0.500000 0.500000 0.500000
O O12 0.054894 0.427652 0.429500
O O13 0.733078 0.243144 0.564217
O O14 0.000000 0.000000 0.000000
#
# Coordination Sequence:
#
# PCOD9051520 Si02
#       6
#     2   2   2   2   2   2
#     4  11  26  49  75 107 152 190 254 306 363 448
#     4  12  25  47  74 110 151 187 251 308 369 446
#     4  12  28  49  76 112 150 196 249 308 374 443
#     4  12  26  47  78 108 144 200 250 301 376 441
#     4  11  24  46  74 105 144 198 240 307 369 427
#     4  10  25  46  73 108 144 198 242 300 377 432
#
# _framework density 24.541257999999999
#
# number of rings (size 3 to 8) (size 9 to 14) (size 15 to 20)
#    0.000    0.667    3.333    3.000    7.000    0.667 
#    0.000    3.333    0.000    0.000    0.000    0.000 
#    0.000    0.000    0.000    0.000    0.000    0.000 
#
# Total GULP energy -66980.973475 kJ/mol
# GULP energy per Si atom -5581.747790 kJ/mol
# Density = 2.448540 g / cm^3
# Si number density = 24.541258 Si / 1000 Ang^3
#
#
#
# Elastic Constant Matrix: (Units=GPa)
#
#
# Indices 1 2 3 4 5 6 
#
# 1 210.6232 49.3328 34.1256 2.9509 -48.9450 15.6344
# 2 49.3328 111.2622 38.0910 24.8859 -1.7595 0.0911
# 3 34.1256 38.0910 124.3569 17.1183 -14.3688 1.4278
# 4 2.9509 24.8859 17.1183 37.9184 7.0453 -5.8675
# 5 -48.9450 -1.7595 -14.3688 7.0453 54.2409 -1.1086
# 6 15.6344 0.0911 1.4278 -5.8675 -1.1086 45.3534
#
#
#
# Elastic Compliance Matrix: (Units=1/GPa)
#
#
# Indices 1 2 3 4 5 6 
#
# 1 0.007090 -0.002943 -0.000308 0.000020 0.006171 -0.002275
# 2 -0.002943 0.012530 -0.002369 -0.006522 -0.002026 0.000171
# 3 -0.000308 -0.002369 0.009619 -0.003337 0.002616 -0.000560
# 4 0.000020 -0.006522 -0.003337 0.033832 -0.005383 0.004357
# 5 0.006171 -0.002026 0.002616 -0.005383 0.025285 -0.002284
# 6 -0.002275 0.000171 -0.000560 0.004357 -0.002284 0.023358
#
#
# Mechanical properties :
#
#
# Convention : Reuss Voigt Hill
#
# Bulk Modulus (GPa) = 55.55418 76.59344 66.07381
# Shear Modulus (GPa) = 38.77347 49.14873 43.96110
#
# Velocity S-wave (km/s) = 3.97915 4.48001 4.23698
# Velocity P-wave (km/s) = 6.61798 7.61830 7.13569
#
# Compressibility (1/GPa) = 0.01800045
#
# Stress axis : x y z
#
# Youngs Moduli (GPa) = 141.04850 79.80580 103.95759
#
# Poissons Ratio (x) = 0.23489 0.03197
# Poissons Ratio (y) = 0.41515 0.24624
# Poissons Ratio (z) = 0.04338 0.18903
#
# Static dielectric constant tensor:
#      x y z
#    x 2.029910 0.066590 -0.018680 
#    y 0.066590 1.936520 0.002630 
#    z -0.018680 0.002630 1.987250 
# 
# From -- ./inp_files/505191.got.cif
#   From: 2010.05.17/outbox.cif.g08.bks.cpg/sg2_253_cif.got.tgz:505191.got - 2010.06.03 11:33:40.
