data_PCOD9051954
_publ_section_title
;
Structure prediction by ZEFSAII (Michael W. Deem and Ramdas Pophale) SiO2 
 PCOD9051954
Probable space group: P -1
;
_chemical_formula_sum "Si O2"
_cell_formula_units_Z 14
_cell_length_a 9.167077
_cell_length_b 10.968175
_cell_length_c 10.233149
_cell_angle_alpha 103.932871
_cell_angle_beta 43.631904
_cell_angle_gamma 90.280480
_cell_volume 666.675514
_symmetry_space_group_name_H-M "P -1"
_symmetry_group_IT_number 2
_symmetry_cell_setting 'triclinic'
loop_
_space_group_symop_operation_xyz
x,y,z
-x,-y,-z
loop_
_atom_site_type_symbol
_atom_site_label
_atom_site_fract_x
_atom_site_fract_y
_atom_site_fract_z
Si Si1 0.158288 0.464863 0.759076
Si Si2 0.634935 0.851085 0.915434
Si Si3 0.020418 0.928857 0.832800
Si Si4 0.674631 0.231945 0.725076
Si Si5 0.673568 0.981940 0.497591
Si Si6 0.866457 0.752580 0.477380
Si Si7 0.654405 0.340092 0.489476
O O1 0.077405 0.375355 0.681529
O O2 0.399044 0.388453 0.634120
O O3 0.211733 0.578753 0.663275
O O4 0.000000 0.500000 0.000000
O O5 0.756685 0.765509 0.693873
O O6 0.817476 0.878437 0.902882
O O7 0.498412 0.758585 0.045453
O O8 0.500000 0.000000 0.000000
O O9 0.230334 0.806852 0.663632
O O10 0.083379 0.029188 0.717551
O O11 0.000000 0.000000 0.000000
O O12 0.666942 0.336152 0.639971
O O13 0.912547 0.204490 0.626462
O O14 0.631868 0.105886 0.648659
O O15 0.686791 0.855188 0.538285
O O16 0.500000 0.000000 0.500000
#
# Coordination Sequence:
#
# PCOD9051954 Si02
#       7
#     2   2   2   2   2   2   2
#     4  11  28  48  74  95 138 190 241 297 342 417
#     4  12  24  40  68 105 145 180 221 281 361 423
#     4  11  24  40  70 105 140 180 225 286 356 424
#     4  11  23  42  68 101 139 176 226 289 351 421
#     4  11  21  39  64 101 142 178 222 286 347 421
#     4  12  24  44  66 100 140 179 235 291 347 414
#     4  10  25  49  68 103 139 177 247 287 346 426
#
# _framework density 20.999722999999999
#
# number of rings (size 3 to 8) (size 9 to 14) (size 15 to 20)
#    0.000    0.857    4.286    3.857    6.000    2.857 
#    0.000    1.429    0.000    0.000    0.000    0.000 
#    0.000    0.000    0.000    0.000    0.000    0.000 
#
# Total GULP energy -78028.378671 kJ/mol
# GULP energy per Si atom -5573.455619 kJ/mol
# Density = 2.095193 g / cm^3
# Si number density = 20.999723 Si / 1000 Ang^3
#
#
#
# Elastic Constant Matrix: (Units=GPa)
#
#
# Indices 1 2 3 4 5 6 
#
# 1 127.7876 44.2773 55.5244 -5.6873 5.9244 2.9567
# 2 44.2773 63.7484 50.8489 -7.7868 8.6610 -0.6242
# 3 55.5244 50.8489 189.1940 -21.7855 8.7441 11.8334
# 4 -5.6873 -7.7868 -21.7855 38.9912 4.7022 4.9965
# 5 5.9244 8.6610 8.7441 4.7022 30.4343 0.2845
# 6 2.9567 -0.6242 11.8334 4.9965 0.2845 28.5513
#
#
#
# Elastic Compliance Matrix: (Units=1/GPa)
#
#
# Indices 1 2 3 4 5 6 
#
# 1 0.010626 -0.006317 -0.001451 -0.000479 0.000225 -0.000555
# 2 -0.006317 0.024546 -0.004507 0.001674 -0.004746 0.002813
# 3 -0.001451 -0.004507 0.007650 0.003788 -0.001183 -0.003770
# 4 -0.000479 0.001674 0.003788 0.029595 -0.005982 -0.006603
# 5 0.000225 -0.004746 -0.001183 -0.005982 0.035419 0.001057
# 6 -0.000555 0.002813 -0.003770 -0.006603 0.001057 0.037851
#
#
# Mechanical properties :
#
#
# Convention : Reuss Voigt Hill
#
# Bulk Modulus (GPa) = 54.73356 75.78123 65.25740
# Shear Modulus (GPa) = 28.35611 34.93397 31.64504
#
# Velocity S-wave (km/s) = 3.67864 4.08308 3.88613
# Velocity P-wave (km/s) = 6.64558 7.64159 7.16092
#
# Compressibility (1/GPa) = 0.01827033
#
# Stress axis : x y z
#
# Youngs Moduli (GPa) = 94.10756 40.73934 130.72728
#
# Poissons Ratio (x) = 0.25736 0.18975
# Poissons Ratio (y) = 0.59451 0.58919
# Poissons Ratio (z) = 0.13659 0.18361
#
# Static dielectric constant tensor:
#      x y z
#    x 1.769000 -0.043780 0.101450 
#    y -0.043780 1.861590 -0.145720 
#    z 0.101450 -0.145720 2.144010 
# 
# From -- ./inp_files/181020.got.cif
#   From: 2010.05.17/outbox.cif.g08.bks.cpg/sg2_91_cif.got.tgz:181020.got - 2010.06.03 11:33:40.
