data_PCOD9051116
_publ_section_title
;
Structure prediction by ZEFSAII (Michael W. Deem and Ramdas Pophale) SiO2 
 PCOD9051116
Probable space group: P -1
;
_chemical_formula_sum "Si O2"
_cell_formula_units_Z 11
_cell_length_a 5.807383
_cell_length_b 8.208485
_cell_length_c 11.413599
_cell_angle_alpha 55.628893
_cell_angle_beta 113.276872
_cell_angle_gamma 99.840924
_cell_volume 411.555041
_symmetry_space_group_name_H-M "P -1"
_symmetry_group_IT_number 2
_symmetry_cell_setting 'triclinic'
loop_
_space_group_symop_operation_xyz
x,y,z
-x,-y,-z
loop_
_atom_site_type_symbol
_atom_site_label
_atom_site_fract_x
_atom_site_fract_y
_atom_site_fract_z
Si Si1 0.488545 0.763477 0.731702
Si Si2 0.459172 0.782448 0.457127
Si Si3 0.730329 0.132574 0.125515
Si Si4 0.000000 0.500000 0.000000
Si Si5 0.108205 0.501816 0.390571
Si Si6 0.161845 0.166500 0.907097
O O1 0.390485 0.719778 0.600268
O O2 0.268870 0.797189 0.768983
O O3 0.709304 0.605115 0.876756
O O4 0.590179 0.983661 0.656482
O O5 0.317810 0.665713 0.377404
O O6 0.750550 0.704768 0.533206
O O7 0.814728 0.911773 0.191966
O O8 0.899235 0.285042 0.035439
O O9 0.438619 0.155132 0.021218
O O10 0.000000 0.500000 0.500000
O O11 0.932601 0.603770 0.213740
O O12 0.000000 0.000000 0.000000
#
# Coordination Sequence:
#
# PCOD9051116 Si02
#       6
#     2   2   2   1   2   2
#     4  11  25  46  69 104 140 189 231 301 351 428
#     4  10  25  45  70 101 144 179 241 285 361 426
#     4  11  25  44  72 106 144 185 237 301 357 423
#     4  12  26  42  70 102 146 182 240 284 362 418
#     4  11  24  43  73 100 139 190 236 289 357 435
#     4  11  25  45  75 106 144 185 245 299 360 423
#
# _framework density 26.727893000000002
#
# number of rings (size 3 to 8) (size 9 to 14) (size 15 to 20)
#    0.000    1.091    0.000    4.909    7.636    4.364 
#    0.000    4.545    0.000    0.000    0.000    0.000 
#    0.000    0.000    0.000    0.000    0.000    0.000 
#
# Total GULP energy -61373.851728 kJ/mol
# GULP energy per Si atom -5579.441066 kJ/mol
# Density = 2.666706 g / cm^3
# Si number density = 26.727893 Si / 1000 Ang^3
#
#
#
# Elastic Constant Matrix: (Units=GPa)
#
#
# Indices 1 2 3 4 5 6 
#
# 1 43.8667 5.3190 17.9171 3.4160 1.2413 -1.3917
# 2 5.3190 98.7760 1.9803 0.7145 -3.1194 2.1250
# 3 17.9171 1.9803 90.4885 -11.3964 -1.4064 -17.7213
# 4 3.4160 0.7145 -11.3964 37.1889 -11.0186 -0.8224
# 5 1.2413 -3.1194 -1.4064 -11.0186 36.2202 5.4895
# 6 -1.3917 2.1250 -17.7213 -0.8224 5.4895 61.3704
#
#
#
# Elastic Compliance Matrix: (Units=1/GPa)
#
#
# Indices 1 2 3 4 5 6 
#
# 1 0.025803 -0.001297 -0.005923 -0.004949 -0.002593 -0.000915
# 2 -0.001297 0.010237 -0.000017 0.000223 0.001066 -0.000481
# 3 -0.005923 -0.000017 0.013654 0.005342 0.001793 0.003720
# 4 -0.004949 0.000223 0.005342 0.031953 0.009971 0.000959
# 5 -0.002593 0.001066 0.001793 0.009971 0.031232 -0.002238
# 6 -0.000915 -0.000481 0.003720 0.000959 -0.002238 0.017578
#
#
# Mechanical properties :
#
#
# Convention : Reuss Voigt Hill
#
# Bulk Modulus (GPa) = 28.39440 31.50708 29.95074
# Shear Modulus (GPa) = 31.91447 40.81688 36.36568
#
# Velocity S-wave (km/s) = 3.45925 3.91209 3.69262
# Velocity P-wave (km/s) = 5.15769 5.67623 5.42316
#
# Compressibility (1/GPa) = 0.03521821
#
# Stress axis : x y z
#
# Youngs Moduli (GPa) = 38.75559 97.68955 73.24113
#
# Poissons Ratio (x) = 0.12671 0.43383
# Poissons Ratio (y) = 0.05027 0.00123
# Poissons Ratio (z) = 0.22956 0.00164
#
# Static dielectric constant tensor:
#      x y z
#    x 2.052800 -0.029670 -0.003620 
#    y -0.029670 2.030520 0.063320 
#    z -0.003620 0.063320 2.058420 
# 
# From -- ./inp_files/17251.got.cif
#   From: 2010.05.17/outbox.cif.g08.bks.cpg/sg2_9_cif.got.tgz:17251.got - 2010.06.03 11:33:40.
