data_PCOD9051135
_publ_section_title
;
Structure prediction by ZEFSAII (Michael W. Deem and Ramdas Pophale) SiO2 
 PCOD9051135
Probable space group: P -1
;
_chemical_formula_sum "Si O2"
_cell_formula_units_Z 14
_cell_length_a 23.553137
_cell_length_b 4.929759
_cell_length_c 16.801677
_cell_angle_alpha 111.078553
_cell_angle_beta 162.852746
_cell_angle_gamma 67.022317
_cell_volume 528.891603
_symmetry_space_group_name_H-M "P -1"
_symmetry_group_IT_number 2
_symmetry_cell_setting 'triclinic'
loop_
_space_group_symop_operation_xyz
x,y,z
-x,-y,-z
loop_
_atom_site_type_symbol
_atom_site_label
_atom_site_fract_x
_atom_site_fract_y
_atom_site_fract_z
Si Si1 0.500000 0.500000 0.500000
Si Si2 0.565491 0.889309 0.164550
Si Si3 0.131727 0.591078 0.114836
Si Si4 0.214534 0.422946 0.860175
Si Si5 0.769785 0.435159 0.278995
Si Si6 0.234907 0.113079 0.413578
Si Si7 0.500000 0.000000 0.500000
Si Si8 0.604414 0.039756 0.822454
O O1 0.331846 0.379271 0.332666
O O2 0.345488 0.753376 0.275045
O O3 0.716958 0.598919 0.308550
O O4 0.689057 0.013880 0.412258
O O5 0.376096 0.795997 0.941563
O O6 0.500000 0.000000 0.000000
O O7 0.204665 0.867873 0.282401
O O8 0.000000 0.500000 0.000000
O O9 0.970337 0.669289 0.838115
O O10 0.276891 0.388307 0.847740
O O11 0.000395 0.340492 0.572628
O O12 0.226626 0.763851 0.931330
O O13 0.346741 0.227614 0.079659
O O14 0.410767 0.244865 0.620148
O O15 0.446126 0.110021 0.343270
#
# Coordination Sequence:
#
# PCOD9051135 Si02
#       8
#     1   2   2   2   2   2   1   2
#     4  12  26  50  76 112 158 204 260 332 388 470
#     4  11  24  46  74 104 154 200 255 318 392 466
#     4  11  27  49  79 112 157 210 263 328 396 482
#     4  11  26  46  78 109 149 198 260 315 395 458
#     4  10  25  45  70 111 144 197 257 323 380 470
#     4  11  25  48  73 112 151 210 254 314 397 476
#     4  12  26  46  72 114 154 192 262 314 392 462
#     4  12  25  46  75 108 155 204 245 324 388 465
#
# _framework density 26.470452999999999
#
# number of rings (size 3 to 8) (size 9 to 14) (size 15 to 20)
#    0.000    0.857    2.857    2.571    6.000    5.714 
#    0.000    0.000    0.000    0.000    0.000    0.000 
#    0.000    0.000    0.000    0.000    0.000    0.000 
#
# Total GULP energy -77954.502148 kJ/mol
# GULP energy per Si atom -5568.178725 kJ/mol
# Density = 2.641021 g / cm^3
# Si number density = 26.470453 Si / 1000 Ang^3
#
#
#
# Elastic Constant Matrix: (Units=GPa)
#
#
# Indices 1 2 3 4 5 6 
#
# 1 140.5871 45.8578 89.6831 -6.7991 -6.6163 14.5803
# 2 45.8578 86.3716 25.0913 -5.6324 4.1072 29.3922
# 3 89.6831 25.0913 157.4336 -6.6174 -6.8470 14.7024
# 4 -6.7991 -5.6324 -6.6174 27.4266 14.9338 -13.9875
# 5 -6.6163 4.1072 -6.8470 14.9338 60.6719 8.8259
# 6 14.5803 29.3922 14.7024 -13.9875 8.8259 50.7859
#
#
#
# Elastic Compliance Matrix: (Units=1/GPa)
#
#
# Indices 1 2 3 4 5 6 
#
# 1 0.013052 -0.005480 -0.006637 0.000955 0.000591 0.001506
# 2 -0.005480 0.017191 0.001177 -0.002606 0.000395 -0.009503
# 3 -0.006637 0.001177 0.010141 -0.000316 0.000698 -0.001920
# 4 0.000955 -0.002606 -0.000316 0.054523 -0.015956 0.019115
# 5 0.000591 0.000395 0.000698 -0.015956 0.021804 -0.008784
# 6 0.001506 -0.009503 -0.001920 0.019115 -0.008784 0.032105
#
#
# Mechanical properties :
#
#
# Convention : Reuss Voigt Hill
#
# Bulk Modulus (GPa) = 54.04027 78.40632 66.22330
# Shear Modulus (GPa) = 28.27043 42.69423 35.48233
#
# Velocity S-wave (km/s) = 3.27157 4.02045 3.66519
# Velocity P-wave (km/s) = 5.89326 7.15798 6.55619
#
# Compressibility (1/GPa) = 0.01850472
#
# Stress axis : x y z
#
# Youngs Moduli (GPa) = 76.61676 58.17122 98.60749
#
# Poissons Ratio (x) = 0.31879 0.65441
# Poissons Ratio (y) = 0.41987 -0.11607
# Poissons Ratio (z) = 0.50847 -0.06848
#
# Static dielectric constant tensor:
#      x y z
#    x 2.170860 0.029880 0.095680 
#    y 0.029880 0.925130 -0.025000 
#    z 0.095680 -0.025000 1.960740 
# 
# From -- ./inp_files/229662.got.cif
#   From: 2010.05.17/outbox.cif.g08.bks.cpg/sg2_115_cif.got.tgz:229662.got - 2010.06.03 11:33:40.
