data_PCOD9051537
_publ_section_title
;
Structure prediction by ZEFSAII (Michael W. Deem and Ramdas Pophale) SiO2 
 PCOD9051537
Probable space group: P -1
;
_chemical_formula_sum "Si O2"
_cell_formula_units_Z 16
_cell_length_a 23.724044
_cell_length_b 5.211453
_cell_length_c 13.083998
_cell_angle_alpha 63.333582
_cell_angle_beta 27.055911
_cell_angle_gamma 71.288529
_cell_volume 645.045929
_symmetry_space_group_name_H-M "P -1"
_symmetry_group_IT_number 2
_symmetry_cell_setting 'triclinic'
loop_
_space_group_symop_operation_xyz
x,y,z
-x,-y,-z
loop_
_atom_site_type_symbol
_atom_site_label
_atom_site_fract_x
_atom_site_fract_y
_atom_site_fract_z
Si Si1 0.828452 0.999047 0.813888
Si Si2 0.222335 0.384955 0.233016
Si Si3 0.143462 0.682432 0.764445
Si Si4 0.617678 0.271588 0.779392
Si Si5 0.062483 0.287283 0.127957
Si Si6 0.082611 0.208285 0.686039
Si Si7 0.539202 0.843515 0.365018
Si Si8 0.459770 0.721952 0.877187
O O1 0.817342 0.847754 0.749081
O O2 0.911454 0.844543 0.782299
O O3 0.853131 0.349391 0.706156
O O4 0.689522 0.918993 0.100320
O O5 0.190622 0.250539 0.419105
O O6 0.371248 0.520841 0.973144
O O7 0.255888 0.704615 0.496498
O O8 0.124367 0.017786 0.744379
O O9 0.170576 0.519946 0.853288
O O10 0.000000 0.500000 0.000000
O O11 0.564999 0.561152 0.781261
O O12 0.630861 0.249272 0.884746
O O13 0.500000 0.000000 0.000000
O O14 0.957490 0.488924 0.277482
O O15 0.027179 0.009675 0.159240
O O16 0.500000 0.500000 0.500000
O O17 0.500000 0.000000 0.500000
O O18 0.490483 0.978725 0.316191
#
# Coordination Sequence:
#
# PCOD9051537 Si02
#       8
#     2   2   2   2   2   2   2   2
#     4  11  25  43  67 105 138 189 237 302 363 436
#     4  11  24  43  74  99 146 183 244 295 368 440
#     4  10  25  46  74 105 151 194 247 302 382 436
#     4  11  25  47  76 111 146 193 253 314 368 442
#     4  11  25  45  66 104 145 184 248 296 357 445
#     4  11  24  43  73 100 141 193 239 302 368 429
#     4  11  25  43  70  99 143 188 238 291 368 438
#     4  10  26  44  72 109 143 191 245 306 372 439
#
# _framework density 24.804435000000002
#
# number of rings (size 3 to 8) (size 9 to 14) (size 15 to 20)
#    0.000    1.250    0.000    4.125   14.000    3.000 
#   11.250    0.000    0.000    0.000    0.000    0.000 
#    0.000    0.000    0.000    0.000    0.000    0.000 
#
# Total GULP energy -89487.817850 kJ/mol
# GULP energy per Si atom -5592.988616 kJ/mol
# Density = 2.474798 g / cm^3
# Si number density = 24.804435 Si / 1000 Ang^3
#
#
#
# Elastic Constant Matrix: (Units=GPa)
#
#
# Indices 1 2 3 4 5 6 
#
# 1 86.4915 46.0622 17.2145 -11.9698 15.4804 0.8137
# 2 46.0622 143.8904 48.1205 -2.1349 13.3417 -11.1109
# 3 17.2145 48.1205 149.7844 3.6800 12.4678 6.9901
# 4 -11.9698 -2.1349 3.6800 43.6499 -4.4111 19.8578
# 5 15.4804 13.3417 12.4678 -4.4111 33.5456 -3.3370
# 6 0.8137 -11.1109 6.9901 19.8578 -3.3370 40.8944
#
#
#
# Elastic Compliance Matrix: (Units=1/GPa)
#
#
# Indices 1 2 3 4 5 6 
#
# 1 0.015971 -0.005031 0.000304 0.005859 -0.005210 -0.005007
# 2 -0.005031 0.009810 -0.002675 -0.002788 -0.000501 0.004536
# 3 0.000304 -0.002675 0.007787 0.000122 -0.002183 -0.002301
# 4 0.005859 -0.002788 0.000122 0.031879 0.000930 -0.016299
# 5 -0.005210 -0.000501 -0.002183 0.000930 0.033609 0.002632
# 6 -0.005007 0.004536 -0.002301 -0.016299 0.002632 0.034308
#
#
# Mechanical properties :
#
#
# Convention : Reuss Voigt Hill
#
# Bulk Modulus (GPa) = 53.29204 66.99562 60.14383
# Shear Modulus (GPa) = 32.37876 41.53594 36.95735
#
# Velocity S-wave (km/s) = 3.61690 4.09655 3.86417
# Velocity P-wave (km/s) = 6.24293 7.03163 6.64898
#
# Compressibility (1/GPa) = 0.01876453
#
# Stress axis : x y z
#
# Youngs Moduli (GPa) = 62.61310 101.93510 128.42248
#
# Poissons Ratio (x) = 0.51284 -0.03906
# Poissons Ratio (y) = 0.31501 0.34352
# Poissons Ratio (z) = -0.01904 0.27267
#
# Static dielectric constant tensor:
#      x y z
#    x 2.033920 -0.003910 -0.005510 
#    y -0.003910 1.994200 -0.014770 
#    z -0.005510 -0.014770 1.997130 
# 
# From -- ./inp_files/473360.got.cif
#   From: 2010.05.17/outbox.cif.g08.bks.cpg/sg2_237_cif.got.tgz:473360.got - 2010.06.03 11:33:40.
