data_PCOD9051483
_publ_section_title
;
Structure prediction by ZEFSAII (Michael W. Deem and Ramdas Pophale) SiO2 
 PCOD9051483
Probable space group: P -1
;
_chemical_formula_sum "Si O2"
_cell_formula_units_Z 15
_cell_length_a 9.266606
_cell_length_b 15.810376
_cell_length_c 10.347755
_cell_angle_alpha 25.852024
_cell_angle_beta 63.209599
_cell_angle_gamma 55.057592
_cell_volume 532.940252
_symmetry_space_group_name_H-M "P -1"
_symmetry_group_IT_number 2
_symmetry_cell_setting 'triclinic'
loop_
_space_group_symop_operation_xyz
x,y,z
-x,-y,-z
loop_
_atom_site_type_symbol
_atom_site_label
_atom_site_fract_x
_atom_site_fract_y
_atom_site_fract_z
Si Si1 0.294207 0.231766 0.573018
Si Si2 0.000000 0.000000 0.500000
Si Si3 0.439007 0.864155 0.612187
Si Si4 0.726459 0.416830 0.196958
Si Si5 0.027764 0.618906 0.647685
Si Si6 0.737540 0.487282 0.548859
Si Si7 0.404116 0.852662 0.187156
Si Si8 0.897081 0.073092 0.202018
O O1 0.489846 0.127819 0.570227
O O2 0.255725 0.389910 0.491202
O O3 0.170471 0.356722 0.330954
O O4 0.257450 0.031350 0.911812
O O5 0.131141 0.757897 0.715386
O O6 0.972357 0.884338 0.811979
O O7 0.222401 0.956877 0.587101
O O8 0.500000 0.000000 0.500000
O O9 0.543558 0.611576 0.952878
O O10 0.832210 0.513048 0.117424
O O11 0.658848 0.274495 0.511737
O O12 0.113862 0.563730 0.548483
O O13 0.984231 0.860314 0.378347
O O14 0.557082 0.654519 0.324385
O O15 0.765367 0.260343 0.908349
O O16 0.500000 0.000000 0.000000
#
# Coordination Sequence:
#
# PCOD9051483 Si02
#       8
#     2   1   2   2   2   2   2   2
#     4  11  26  46  70 110 143 190 247 302 360 434
#     4  10  26  44  74 112 142 192 238 302 372 434
#     4  12  26  48  75 105 148 194 248 296 360 444
#     4  11  26  49  75 106 149 197 242 304 369 437
#     4  11  26  44  70 108 148 188 241 305 369 426
#     4  11  24  45  73 101 142 192 242 304 360 432
#     4  10  25  46  72 107 137 187 250 299 358 433
#     4  11  24  47  72 103 143 194 239 301 362 440
#
# _framework density 28.145747
#
# number of rings (size 3 to 8) (size 9 to 14) (size 15 to 20)
#    0.000    1.067    2.667    1.600   11.200    2.133 
#    7.200    0.000    0.000    0.000    0.000    0.000 
#    0.000    0.000    0.000    0.000    0.000    0.000 
#
# Total GULP energy -83668.545864 kJ/mol
# GULP energy per Si atom -5577.903058 kJ/mol
# Density = 2.808169 g / cm^3
# Si number density = 28.145747 Si / 1000 Ang^3
#
#
#
# Elastic Constant Matrix: (Units=GPa)
#
#
# Indices 1 2 3 4 5 6 
#
# 1 64.5719 35.6594 -5.9517 -6.4783 2.7214 14.2584
# 2 35.6594 167.5789 42.6785 -6.6658 2.7776 -13.3689
# 3 -5.9517 42.6785 147.7110 -26.9910 15.2911 0.4011
# 4 -6.4783 -6.6658 -26.9910 45.2750 -8.5022 8.1189
# 5 2.7214 2.7776 15.2911 -8.5022 34.9380 4.4424
# 6 14.2584 -13.3689 0.4011 8.1189 4.4424 57.1737
#
#
#
# Elastic Compliance Matrix: (Units=1/GPa)
#
#
# Indices 1 2 3 4 5 6 
#
# 1 0.021253 -0.005809 0.003626 0.005593 -0.000473 -0.007442
# 2 -0.005809 0.008174 -0.002994 -0.002041 0.000151 0.003659
# 3 0.003626 -0.002994 0.009024 0.005412 -0.002391 -0.002251
# 4 0.005593 -0.002041 0.005412 0.027861 0.004932 -0.006250
# 5 -0.000473 0.000151 -0.002391 0.004932 0.031270 -0.002960
# 6 -0.007442 0.003659 -0.002251 -0.006250 -0.002960 0.021335
#
#
# Mechanical properties :
#
#
# Convention : Reuss Voigt Hill
#
# Bulk Modulus (GPa) = 35.59203 58.29270 46.94237
# Shear Modulus (GPa) = 36.06514 47.97570 42.02042
#
# Velocity S-wave (km/s) = 3.58351 4.13309 3.86807
# Velocity P-wave (km/s) = 5.45849 6.59792 6.05507
#
# Compressibility (1/GPa) = 0.02809618
#
# Stress axis : x y z
#
# Youngs Moduli (GPa) = 47.05147 122.33359 110.81776
#
# Poissons Ratio (x) = 0.71068 -0.40184
# Poissons Ratio (y) = 0.27334 0.33183
# Poissons Ratio (z) = -0.17061 0.36632
#
# Static dielectric constant tensor:
#      x y z
#    x 2.058270 -0.155990 0.020540 
#    y -0.155990 2.040640 0.027610 
#    z 0.020540 0.027610 2.273090 
# 
# From -- ./inp_files/213086.got.cif
#   From: 2010.05.17/outbox.cif.g08.bks.cpg/sg2_107_cif.got.tgz:213086.got - 2010.06.03 11:33:40.
