data_PCOD9051407
_publ_section_title
;
Structure prediction by ZEFSAII (Michael W. Deem and Ramdas Pophale) SiO2 
 PCOD9051407
Probable space group: P -1
;
_chemical_formula_sum "Si O2"
_cell_formula_units_Z 16
_cell_length_a 11.957774
_cell_length_b 13.857066
_cell_length_c 7.922431
_cell_angle_alpha 112.325996
_cell_angle_beta 65.077061
_cell_angle_gamma 57.939241
_cell_volume 624.627853
_symmetry_space_group_name_H-M "P -1"
_symmetry_group_IT_number 2
_symmetry_cell_setting 'triclinic'
loop_
_space_group_symop_operation_xyz
x,y,z
-x,-y,-z
loop_
_atom_site_type_symbol
_atom_site_label
_atom_site_fract_x
_atom_site_fract_y
_atom_site_fract_z
Si Si1 0.941395 0.986276 0.241357
Si Si2 0.093219 0.145172 0.574079
Si Si3 0.347446 0.801931 0.747047
Si Si4 0.910311 0.659777 0.053657
Si Si5 0.300428 0.558830 0.182124
Si Si6 0.230315 0.368867 0.170846
Si Si7 0.770241 0.404255 0.351307
Si Si8 0.434025 0.928545 0.964666
O O1 0.132123 0.937925 0.092085
O O2 0.079608 0.791614 0.951167
O O3 0.836943 0.012532 0.492571
O O4 0.750506 0.148042 0.341890
O O5 0.841612 0.308545 0.801676
O O6 0.190700 0.098531 0.299322
O O7 0.158778 0.198819 0.682617
O O8 0.532879 0.592910 0.548526
O O9 0.435235 0.859142 0.749479
O O10 0.747354 0.729640 0.061864
O O11 0.100213 0.581410 0.771711
O O12 0.000000 0.500000 0.000000
O O13 0.268485 0.454980 0.118815
O O14 0.240311 0.609588 0.452781
O O15 0.500000 0.500000 0.000000
O O16 0.000000 0.500000 0.500000
O O17 0.414652 0.235244 0.106220
O O18 0.500000 0.000000 0.000000
#
# Coordination Sequence:
#
# PCOD9051407 Si02
#       8
#     2   2   2   2   2   2   2   2
#     4  10  25  46  70 103 142 184 231 303 362 433
#     4  11  26  45  68 102 146 178 240 299 359 427
#     4  11  23  46  71 100 139 187 236 286 374 429
#     4  11  24  42  72 101 135 185 237 300 356 425
#     4  12  24  44  73 108 143 188 242 294 363 439
#     4  12  24  48  74 100 140 192 244 290 365 442
#     4  11  23  45  74 103 142 188 239 301 364 436
#     4  12  28  44  70 100 139 191 242 302 359 430
#
# _framework density 25.615252999999999
#
# number of rings (size 3 to 8) (size 9 to 14) (size 15 to 20)
#    0.000    0.750    3.750    2.625    5.250    3.000 
#    4.500    0.000    0.000    0.000    0.000    0.000 
#    0.000    0.000    0.000    0.000    0.000    0.000 
#
# Total GULP energy -89365.686124 kJ/mol
# GULP energy per Si atom -5585.355383 kJ/mol
# Density = 2.555695 g / cm^3
# Si number density = 25.615253 Si / 1000 Ang^3
#
#
#
# Elastic Constant Matrix: (Units=GPa)
#
#
# Indices 1 2 3 4 5 6 
#
# 1 159.6608 34.6758 30.6070 11.1635 -10.6816 16.3810
# 2 34.6758 104.1645 12.4007 -9.9516 -6.3368 1.1714
# 3 30.6070 12.4007 45.1068 -10.4489 -4.2471 0.7884
# 4 11.1635 -9.9516 -10.4489 39.5197 3.1317 -19.9838
# 5 -10.6816 -6.3368 -4.2471 3.1317 31.6984 -5.4782
# 6 16.3810 1.1714 0.7884 -19.9838 -5.4782 50.9350
#
#
#
# Elastic Compliance Matrix: (Units=1/GPa)
#
#
# Indices 1 2 3 4 5 6 
#
# 1 0.009710 -0.003013 -0.007543 -0.008754 0.001450 -0.006215
# 2 -0.003013 0.011100 0.000224 0.005033 0.001223 0.002816
# 3 -0.007543 0.000224 0.030471 0.013962 0.001518 0.007590
# 4 -0.008754 0.005033 0.013962 0.042434 -0.000977 0.019027
# 5 0.001450 0.001223 0.001518 -0.000977 0.033039 0.002652
# 6 -0.006215 0.002816 0.007590 0.019027 0.002652 0.029200
#
#
# Mechanical properties :
#
#
# Convention : Reuss Voigt Hill
#
# Bulk Modulus (GPa) = 32.66062 51.58878 42.12470
# Shear Modulus (GPa) = 26.76324 39.84719 33.30522
#
# Velocity S-wave (km/s) = 3.23587 3.94839 3.60975
# Velocity P-wave (km/s) = 5.17100 6.40078 5.81847
#
# Compressibility (1/GPa) = 0.03061791
#
# Stress axis : x y z
#
# Youngs Moduli (GPa) = 102.98180 90.09041 32.81819
#
# Poissons Ratio (x) = 0.27142 0.24756
# Poissons Ratio (y) = 0.31026 -0.00737
# Poissons Ratio (z) = 0.77683 -0.02022
#
# Static dielectric constant tensor:
#      x y z
#    x 2.057650 0.020940 0.025260 
#    y 0.020940 1.565870 -0.056790 
#    z 0.025260 -0.056790 2.133500 
# 
# From -- ./inp_files/273620.got.cif
#   From: 2010.05.17/outbox.cif.g08.bks.cpg/sg2_137_cif.got.tgz:273620.got - 2010.06.03 11:33:40.
