data_PCOD9051775
_publ_section_title
;
Structure prediction by ZEFSAII (Michael W. Deem and Ramdas Pophale) SiO2 
 PCOD9051775
Probable space group: P -1
;
_chemical_formula_sum "Si O2"
_cell_formula_units_Z 11
_cell_length_a 6.933836
_cell_length_b 9.356260
_cell_length_c 8.267636
_cell_angle_alpha 120.518897
_cell_angle_beta 73.996412
_cell_angle_gamma 94.203535
_cell_volume 442.703881
_symmetry_space_group_name_H-M "P -1"
_symmetry_group_IT_number 2
_symmetry_cell_setting 'triclinic'
loop_
_space_group_symop_operation_xyz
x,y,z
-x,-y,-z
loop_
_atom_site_type_symbol
_atom_site_label
_atom_site_fract_x
_atom_site_fract_y
_atom_site_fract_z
Si Si1 0.186058 0.397881 0.986256
Si Si2 0.335946 0.018057 0.404839
Si Si3 0.604480 0.233634 0.273277
Si Si4 0.000000 0.000000 0.000000
Si Si5 0.023455 0.888506 0.233233
Si Si6 0.566419 0.457846 0.718257
O O1 0.386368 0.383974 0.820933
O O2 0.254417 0.489318 0.180918
O O3 0.000000 0.500000 0.000000
O O4 0.536025 0.373001 0.238971
O O5 0.429646 0.121358 0.303176
O O6 0.138781 0.109609 0.585507
O O7 0.500000 0.000000 0.500000
O O8 0.240368 0.859555 0.251603
O O9 0.357442 0.663821 0.512679
O O10 0.782784 0.109617 0.095817
O O11 0.012517 0.053577 0.224129
O O12 0.909439 0.777945 0.060994
#
# Coordination Sequence:
#
# PCOD9051775 Si02
#       6
#     2   2   2   1   2   2
#     4  11  24  45  75 108 146 193 249 302 362 450
#     4  11  24  46  73  96 150 192 239 303 373 432
#     4  11  24  49  73 111 146 197 244 308 363 441
#     4  12  26  44  74 112 146 186 254 304 368 430
#     4  11  26  42  70 109 138 193 245 303 364 438
#     4  10  25  47  76 105 151 196 242 300 376 431
#
# _framework density 24.847308999999999
#
# number of rings (size 3 to 8) (size 9 to 14) (size 15 to 20)
#    0.000    1.091    3.636    1.091    5.091    2.182 
#    0.000    2.727    0.000    0.000    0.000    0.000 
#    0.000    0.000    0.000    0.000    0.000    0.000 
#
# Total GULP energy -61250.495001 kJ/mol
# GULP energy per Si atom -5568.226818 kJ/mol
# Density = 2.479076 g / cm^3
# Si number density = 24.847309 Si / 1000 Ang^3
#
#
#
# Elastic Constant Matrix: (Units=GPa)
#
#
# Indices 1 2 3 4 5 6 
#
# 1 210.2610 55.2423 54.4835 9.2355 35.3278 23.1624
# 2 55.2423 43.6034 23.0539 12.1389 1.6710 7.5045
# 3 54.4835 23.0539 87.2075 -2.1190 -0.6270 4.6949
# 4 9.2355 12.1389 -2.1190 38.5316 1.4441 -10.4683
# 5 35.3278 1.6710 -0.6270 1.4441 49.3907 2.7926
# 6 23.1624 7.5045 4.6949 -10.4683 2.7926 44.0527
#
#
#
# Elastic Compliance Matrix: (Units=1/GPa)
#
#
# Indices 1 2 3 4 5 6 
#
# 1 0.009480 -0.009623 -0.003284 0.000121 -0.006356 -0.002564
# 2 -0.009623 0.042000 -0.005090 -0.012783 0.006053 -0.004974
# 3 -0.003284 -0.005090 0.014877 0.003576 0.002509 0.001699
# 4 0.000121 -0.012783 0.003576 0.032797 -0.001110 0.009597
# 5 -0.006356 0.006053 0.002509 -0.001110 0.024640 0.000217
# 6 -0.002564 -0.004974 0.001699 0.009597 0.000217 0.026981
#
#
# Mechanical properties :
#
#
# Convention : Reuss Voigt Hill
#
# Bulk Modulus (GPa) = 32.93407 67.40347 50.16877
# Shear Modulus (GPa) = 25.39483 40.28115 32.83799
#
# Velocity S-wave (km/s) = 3.20040 4.03072 3.63931
# Velocity P-wave (km/s) = 5.19038 6.98915 6.15582
#
# Compressibility (1/GPa) = 0.03036370
#
# Stress axis : x y z
#
# Youngs Moduli (GPa) = 105.48325 23.80948 67.21606
#
# Poissons Ratio (x) = 0.22913 0.22071
# Poissons Ratio (y) = 1.01510 0.34213
# Poissons Ratio (z) = 0.34636 0.12119
#
# Static dielectric constant tensor:
#      x y z
#    x 1.949140 -0.035510 0.098740 
#    y -0.035510 1.755360 0.063390 
#    z 0.098740 0.063390 2.072860 
# 
# From -- ./inp_files/129800.got.cif
#   From: 2010.05.17/outbox.cif.g08.bks.cpg/sg2_65_cif.got.tgz:129800.got - 2010.06.03 11:33:40.
