data_PCOD9051693
_publ_section_title
;
Structure prediction by ZEFSAII (Michael W. Deem and Ramdas Pophale) SiO2 
 PCOD9051693
Probable space group: P -1
;
_chemical_formula_sum "Si O2"
_cell_formula_units_Z 14
_cell_length_a 12.375538
_cell_length_b 8.834263
_cell_length_c 13.498030
_cell_angle_alpha 35.014604
_cell_angle_beta 39.834179
_cell_angle_gamma 51.297797
_cell_volume 542.372902
_symmetry_space_group_name_H-M "P -1"
_symmetry_group_IT_number 2
_symmetry_cell_setting 'triclinic'
loop_
_space_group_symop_operation_xyz
x,y,z
-x,-y,-z
loop_
_atom_site_type_symbol
_atom_site_label
_atom_site_fract_x
_atom_site_fract_y
_atom_site_fract_z
Si Si1 0.687901 0.307816 0.024621
Si Si2 0.244380 0.532578 0.461319
Si Si3 0.830838 0.458695 0.040415
Si Si4 0.863666 0.841356 0.081487
Si Si5 0.424667 0.376003 0.718704
Si Si6 0.991702 0.990781 0.391384
Si Si7 0.331175 0.241461 0.359181
O O1 0.731818 0.488881 0.990455
O O2 0.661178 0.479233 0.854417
O O3 0.961189 0.224154 0.058115
O O4 0.521884 0.141196 0.262955
O O5 0.176148 0.382851 0.687962
O O6 0.415875 0.686061 0.291520
O O7 0.284896 0.318342 0.462700
O O8 0.109793 0.747702 0.406546
O O9 0.846026 0.122606 0.993147
O O10 0.692168 0.431769 0.237213
O O11 0.939288 0.722169 0.840432
O O12 0.708978 0.837851 0.113141
O O13 0.500000 0.500000 0.500000
O O14 0.808899 0.925515 0.510887
O O15 0.000000 0.000000 0.500000
#
# Coordination Sequence:
#
# PCOD9051693 Si02
#       7
#     2   2   2   2   2   2   2
#     4  11  25  45  75 108 148 190 245 297 363 431
#     4  11  24  47  72 104 149 190 241 293 365 432
#     4  12  24  49  72 110 145 192 243 300 361 434
#     4  11  25  44  72 107 149 188 240 299 361 429
#     4  10  25  47  72 105 145 188 246 301 356 429
#     4  12  25  43  75 106 147 190 241 301 361 427
#     4  11  25  47  71 108 149 191 241 298 361 436
#
# _framework density 25.812498999999999
#
# number of rings (size 3 to 8) (size 9 to 14) (size 15 to 20)
#    0.000    0.857    4.286    1.286    4.000    2.286 
#    5.143    0.000    0.000    0.000    0.000    0.000 
#    0.000    0.000    0.000    0.000    0.000    0.000 
#
# Total GULP energy -78473.107337 kJ/mol
# GULP energy per Si atom -5605.221953 kJ/mol
# Density = 2.575375 g / cm^3
# Si number density = 25.812499 Si / 1000 Ang^3
#
#
#
# Elastic Constant Matrix: (Units=GPa)
#
#
# Indices 1 2 3 4 5 6 
#
# 1 106.4615 11.5540 30.3416 6.0654 -22.9789 28.0007
# 2 11.5540 94.5866 34.8742 29.0164 13.1067 -1.7888
# 3 30.3416 34.8742 105.6821 21.2358 -13.5342 6.6590
# 4 6.0654 29.0164 21.2358 45.3892 9.5697 3.6530
# 5 -22.9789 13.1067 -13.5342 9.5697 51.2976 2.4349
# 6 28.0007 -1.7888 6.6590 3.6530 2.4349 50.5740
#
#
#
# Elastic Compliance Matrix: (Units=1/GPa)
#
#
# Indices 1 2 3 4 5 6 
#
# 1 0.013562 -0.001859 -0.001863 -0.000514 0.006515 -0.007605
# 2 -0.001859 0.014965 -0.003787 -0.006817 -0.004515 0.002767
# 3 -0.001863 -0.003787 0.012660 -0.004099 0.004270 -0.000679
# 4 -0.000514 -0.006817 -0.004099 0.029539 -0.005018 -0.001309
# 5 0.006515 -0.004515 0.004270 -0.005018 0.025876 -0.005212
# 6 -0.007605 0.002767 -0.000679 -0.001309 -0.005212 0.024517
#
#
# Mechanical properties :
#
#
# Convention : Reuss Voigt Hill
#
# Bulk Modulus (GPa) = 38.21424 51.14107 44.67765
# Shear Modulus (GPa) = 34.51583 44.78286 39.64935
#
# Velocity S-wave (km/s) = 3.66071 4.16977 3.92350
# Velocity P-wave (km/s) = 5.71878 6.56035 6.15396
#
# Compressibility (1/GPa) = 0.02616826
#
# Stress axis : x y z
#
# Youngs Moduli (GPa) = 73.73721 66.82232 78.98654
#
# Poissons Ratio (x) = 0.12419 0.14719
# Poissons Ratio (y) = 0.13704 0.29916
# Poissons Ratio (z) = 0.13741 0.25309
#
# Static dielectric constant tensor:
#      x y z
#    x 2.070000 -0.019880 -0.013500 
#    y -0.019880 2.006180 0.009160 
#    z -0.013500 0.009160 2.018880 
# 
# From -- ./inp_files/512720.got.cif
#   From: 2010.05.17/outbox.cif.g08.bks.cpg/sg2_257_cif.got.tgz:512720.got - 2010.06.03 11:33:40.
