data_PCOD9051265
_publ_section_title
;
Structure prediction by ZEFSAII (Michael W. Deem and Ramdas Pophale) SiO2 
 PCOD9051265
Probable space group: P -1
;
_chemical_formula_sum "Si O2"
_cell_formula_units_Z 11
_cell_length_a 9.225085
_cell_length_b 10.456687
_cell_length_c 8.860347
_cell_angle_alpha 116.012180
_cell_angle_beta 147.669153
_cell_angle_gamma 72.425237
_cell_volume 406.588708
_symmetry_space_group_name_H-M "P -1"
_symmetry_group_IT_number 2
_symmetry_cell_setting 'triclinic'
loop_
_space_group_symop_operation_xyz
x,y,z
-x,-y,-z
loop_
_atom_site_type_symbol
_atom_site_label
_atom_site_fract_x
_atom_site_fract_y
_atom_site_fract_z
Si Si1 0.000000 0.500000 0.000000
Si Si2 0.693786 0.574067 0.074028
Si Si3 0.685918 0.698704 0.689549
Si Si4 0.919553 0.886802 0.739377
Si Si5 0.809971 0.133599 0.582114
Si Si6 0.245913 0.765963 0.736050
O O1 0.781128 0.497099 0.958335
O O2 0.764003 0.541994 0.701967
O O3 0.525974 0.702312 0.942848
O O4 0.500000 0.500000 0.000000
O O5 0.985549 0.641457 0.434086
O O6 0.756468 0.750753 0.608142
O O7 0.411070 0.762346 0.517334
O O8 0.917112 0.781183 0.054600
O O9 0.190768 0.847615 0.881280
O O10 0.766851 0.975878 0.532117
O O11 0.000000 0.000000 0.000000
O O12 0.799476 0.132911 0.393103
#
# Coordination Sequence:
#
# PCOD9051265 Si02
#       6
#     1   2   2   2   2   2
#     4  12  24  48  74 102 150 194 248 298 370 430
#     4  12  28  47  74 110 150 197 249 307 367 445
#     4  11  24  42  68 103 142 188 246 292 362 437
#     4  10  25  45  74 107 147 193 242 307 372 442
#     4  11  22  45  68 105 141 188 239 296 367 439
#     4  12  24  48  70 109 148 188 250 305 371 439
#
# _framework density 27.054366999999999
#
# number of rings (size 3 to 8) (size 9 to 14) (size 15 to 20)
#    0.000    0.727    3.636    2.727    0.000   10.182 
#    0.000    6.364    0.000    0.000    0.000    0.000 
#    0.000    0.000    0.000    0.000    0.000    0.000 
#
# Total GULP energy -61369.424874 kJ/mol
# GULP energy per Si atom -5579.038625 kJ/mol
# Density = 2.699279 g / cm^3
# Si number density = 27.054367 Si / 1000 Ang^3
#
#
#
# Elastic Constant Matrix: (Units=GPa)
#
#
# Indices 1 2 3 4 5 6 
#
# 1 235.7972 52.1362 28.4437 -21.6287 7.4999 -12.8661
# 2 52.1362 123.4222 -12.0577 -12.2748 -2.2380 13.3409
# 3 28.4437 -12.0577 140.5386 -43.0076 51.4319 -29.0007
# 4 -21.6287 -12.2748 -43.0076 59.7278 -31.3634 -3.8495
# 5 7.4999 -2.2380 51.4319 -31.3634 45.4325 -17.5566
# 6 -12.8661 13.3409 -29.0007 -3.8495 -17.5566 65.8896
#
#
#
# Elastic Compliance Matrix: (Units=1/GPa)
#
#
# Indices 1 2 3 4 5 6 
#
# 1 0.005050 -0.002196 -0.001128 0.001851 0.002247 0.001641
# 2 -0.002196 0.009577 0.001672 0.002212 -0.000125 -0.001536
# 3 -0.001128 0.001672 0.013240 0.003787 -0.011130 0.002524
# 4 0.001851 0.002212 0.003787 0.032472 0.021489 0.009203
# 5 0.002247 -0.000125 -0.011130 0.021489 0.053331 0.011031
# 6 0.001641 -0.001536 0.002524 0.009203 0.011031 0.020396
#
#
# Mechanical properties :
#
#
# Convention : Reuss Voigt Hill
#
# Bulk Modulus (GPa) = 40.71031 70.75584 55.73307
# Shear Modulus (GPa) = 34.35047 62.95902 48.65474
#
# Velocity S-wave (km/s) = 3.56713 4.82927 4.24536
# Velocity P-wave (km/s) = 5.66093 7.57006 6.68401
#
# Compressibility (1/GPa) = 0.02456380
#
# Stress axis : x y z
#
# Youngs Moduli (GPa) = 198.00265 104.41582 75.52711
#
# Poissons Ratio (x) = 0.22931 0.08517
# Poissons Ratio (y) = 0.43484 -0.12627
# Poissons Ratio (z) = 0.22328 -0.17456
#
# Static dielectric constant tensor:
#      x y z
#    x 2.138630 0.014930 0.013410 
#    y 0.014930 2.174460 0.128750 
#    z 0.013410 0.128750 2.135040 
# 
# From -- ./inp_files/33853.got.cif
#   From: 2010.05.17/outbox.cif.g08.bks.cpg/sg2_17_cif.got.tgz:33853.got - 2010.06.03 11:33:40.
