data_PCOD9051686
_publ_section_title
;
Structure prediction by ZEFSAII (Michael W. Deem and Ramdas Pophale) SiO2 
 PCOD9051686
Probable space group: P -1
;
_chemical_formula_sum "Si O2"
_cell_formula_units_Z 12
_cell_length_a 4.951651
_cell_length_b 11.563580
_cell_length_c 8.645491
_cell_angle_alpha 93.374788
_cell_angle_beta 99.325562
_cell_angle_gamma 111.338930
_cell_volume 451.244836
_symmetry_space_group_name_H-M "P -1"
_symmetry_group_IT_number 2
_symmetry_cell_setting 'triclinic'
loop_
_space_group_symop_operation_xyz
x,y,z
-x,-y,-z
loop_
_atom_site_type_symbol
_atom_site_label
_atom_site_fract_x
_atom_site_fract_y
_atom_site_fract_z
Si Si1 0.799247 0.625863 0.319535
Si Si2 0.785496 0.800556 0.080847
Si Si3 0.043071 0.210724 0.232440
Si Si4 0.182031 0.591635 0.888116
Si Si5 0.578828 0.256023 0.513526
Si Si6 0.731169 0.978600 0.355459
O O1 0.914991 0.717637 0.189957
O O2 0.718112 0.489182 0.232341
O O3 0.544354 0.662788 0.374957
O O4 0.075742 0.663669 0.463951
O O5 0.767610 0.905479 0.201061
O O6 0.958405 0.846833 0.942177
O O7 0.464987 0.701803 0.993168
O O8 0.347866 0.229682 0.349649
O O9 0.010044 0.340263 0.204839
O O10 0.777446 0.114350 0.303169
O O11 0.000000 0.500000 0.000000
O O12 0.535715 0.123596 0.583500
O O13 0.000000 0.000000 0.500000
#
# Coordination Sequence:
#
# PCOD9051686 Si02
#       6
#     2   2   2   2   2   2
#     4  11  24  46  73  99 144 192 229 284 349 414
#     4  11  24  43  73 100 138 183 235 290 349 413
#     4  11  25  43  70 105 137 182 237 287 347 413
#     4  12  25  43  69 103 143 182 235 288 349 412
#     4  10  25  47  72 103 143 185 233 286 351 410
#     4   9  21  47  69 101 137 181 230 291 352 415
#
# _framework density 26.593104
#
# number of rings (size 3 to 8) (size 9 to 14) (size 15 to 20)
#    0.000    1.333    1.667    3.000    4.667    2.000 
#    6.000    7.500    0.000    0.000    0.000    0.000 
#    0.000    0.000    0.000    0.000    0.000    0.000 
#
# Total GULP energy -67303.181229 kJ/mol
# GULP energy per Si atom -5608.598436 kJ/mol
# Density = 2.653258 g / cm^3
# Si number density = 26.593104 Si / 1000 Ang^3
#
#
#
# Elastic Constant Matrix: (Units=GPa)
#
#
# Indices 1 2 3 4 5 6 
#
# 1 93.7338 46.0696 27.7352 -5.9698 9.8453 0.2336
# 2 46.0696 156.5593 53.4524 -14.2343 2.8413 -13.8519
# 3 27.7352 53.4524 158.9332 -8.9107 -8.3941 -0.7645
# 4 -5.9698 -14.2343 -8.9107 62.4020 3.4646 -2.1915
# 5 9.8453 2.8413 -8.3941 3.4646 47.4552 -4.8129
# 6 0.2336 -13.8519 -0.7645 -2.1915 -4.8129 38.8764
#
#
#
# Elastic Compliance Matrix: (Units=1/GPa)
#
#
# Indices 1 2 3 4 5 6 
#
# 1 0.013088 -0.003485 -0.001253 0.000382 -0.002927 -0.001686
# 2 -0.003485 0.008558 -0.002174 0.001416 0.000038 0.003112
# 3 -0.001253 -0.002174 0.007344 0.000329 0.001624 -0.000403
# 4 0.000382 0.001416 0.000329 0.016543 -0.001182 0.001295
# 5 -0.002927 0.000038 0.001624 -0.001182 0.022331 0.002761
# 6 -0.001686 0.003112 -0.000403 0.001295 0.002761 0.027248
#
#
# Mechanical properties :
#
#
# Convention : Reuss Voigt Hill
#
# Bulk Modulus (GPa) = 65.93435 73.74894 69.84164
# Shear Modulus (GPa) = 43.86274 48.54467 46.20370
#
# Velocity S-wave (km/s) = 4.06569 4.27718 4.17277
# Velocity P-wave (km/s) = 6.84744 7.22391 7.03819
#
# Compressibility (1/GPa) = 0.01516660
#
# Stress axis : x y z
#
# Youngs Moduli (GPa) = 76.40554 116.84487 136.16469
#
# Poissons Ratio (x) = 0.40718 0.17065
# Poissons Ratio (y) = 0.26626 0.29600
# Poissons Ratio (z) = 0.09576 0.25400
#
# Static dielectric constant tensor:
#      x y z
#    x 2.069630 -0.008960 -0.057850 
#    y -0.008960 2.097530 0.015860 
#    z -0.057850 0.015860 2.079770 
# 
# From -- ./inp_files/28865.got.cif
#   From: 2010.05.17/outbox.cif.g08.bks.cpg/sg2_15_cif.got.tgz:28865.got - 2010.06.03 11:33:40.
