data_PCOD9051732
_publ_section_title
;
Structure prediction by ZEFSAII (Michael W. Deem and Ramdas Pophale) SiO2 
 PCOD9051732
Probable space group: P -1
;
_chemical_formula_sum "Si O2"
_cell_formula_units_Z 14
_cell_length_a 5.019181
_cell_length_b 11.771593
_cell_length_c 13.432294
_cell_angle_alpha 91.111730
_cell_angle_beta 99.539607
_cell_angle_gamma 127.708397
_cell_volume 611.722095
_symmetry_space_group_name_H-M "P -1"
_symmetry_group_IT_number 2
_symmetry_cell_setting 'triclinic'
loop_
_space_group_symop_operation_xyz
x,y,z
-x,-y,-z
loop_
_atom_site_type_symbol
_atom_site_label
_atom_site_fract_x
_atom_site_fract_y
_atom_site_fract_z
Si Si1 0.559104 0.801817 0.148738
Si Si2 0.791240 0.507708 0.574625
Si Si3 0.901869 0.189706 0.308262
Si Si4 0.686707 0.921468 0.588117
Si Si5 0.856651 0.092208 0.085752
Si Si6 0.566128 0.801706 0.375484
Si Si7 0.797781 0.668822 0.043039
O O1 0.505634 0.824659 0.259673
O O2 0.696321 0.711467 0.136786
O O3 0.179409 0.714489 0.075009
O O4 0.851298 0.961537 0.122738
O O5 0.500000 0.500000 0.500000
O O6 0.615632 0.366775 0.629265
O O7 0.000000 0.500000 0.500000
O O8 0.990048 0.654383 0.652923
O O9 0.548130 0.081885 0.344514
O O10 0.848067 0.162418 0.187353
O O11 0.168894 0.162878 0.363817
O O12 0.473864 0.843552 0.472258
O O13 0.018628 0.085245 0.589152
O O14 0.158301 0.223302 0.038579
O O15 0.500000 0.000000 0.000000
O O16 0.500000 0.500000 0.000000
#
# Coordination Sequence:
#
# PCOD9051732 Si02
#       7
#     2   2   2   2   2   2   2
#     4  11  25  45  73 100 136 181 228 282 347 403
#     4  12  25  46  66 100 144 187 221 279 345 414
#     4  12  24  47  68 103 136 186 231 278 351 406
#     4  11  26  43  72 101 140 180 229 280 333 421
#     4  10  25  47  73  98 137 180 235 291 340 405
#     4  11  25  45  70 104 141 180 228 283 338 415
#     4  11  26  48  70 104 136 177 230 288 345 408
#
# _framework density 22.886210999999999
#
# number of rings (size 3 to 8) (size 9 to 14) (size 15 to 20)
#    0.000    0.857    4.286    0.857    6.000    8.000 
#    2.571    0.000    0.000    0.000    0.000    0.000 
#    0.000    0.000    0.000    0.000    0.000    0.000 
#
# Total GULP energy -78272.183250 kJ/mol
# GULP energy per Si atom -5590.870232 kJ/mol
# Density = 2.283412 g / cm^3
# Si number density = 22.886211 Si / 1000 Ang^3
#
#
#
# Elastic Constant Matrix: (Units=GPa)
#
#
# Indices 1 2 3 4 5 6 
#
# 1 91.4072 18.5242 21.3917 8.2968 -17.8275 -6.4036
# 2 18.5242 168.1457 46.8323 12.1000 -9.1697 5.6956
# 3 21.3917 46.8323 146.2310 11.4630 -23.1973 -3.0773
# 4 8.2968 12.1000 11.4630 43.8469 -7.1882 -4.8560
# 5 -17.8275 -9.1697 -23.1973 -7.1882 32.4005 1.4510
# 6 -6.4036 5.6956 -3.0773 -4.8560 1.4510 24.1728
#
#
#
# Elastic Compliance Matrix: (Units=1/GPa)
#
#
# Indices 1 2 3 4 5 6 
#
# 1 0.012713 -0.000995 -0.000456 -0.000675 0.006101 0.003042
# 2 -0.000995 0.006788 -0.002008 -0.001472 -0.000284 -0.002397
# 3 -0.000456 -0.002008 0.008415 -0.000626 0.005022 0.000996
# 4 -0.000675 -0.001472 -0.000626 0.024697 0.004028 0.004808
# 5 0.006101 -0.000284 0.005022 0.004028 0.038593 0.000815
# 6 0.003042 -0.002397 0.000996 0.004808 0.000815 0.043783
#
#
# Mechanical properties :
#
#
# Convention : Reuss Voigt Hill
#
# Bulk Modulus (GPa) = 47.62846 64.36449 55.99648
# Shear Modulus (GPa) = 33.57791 41.35308 37.46550
#
# Velocity S-wave (km/s) = 3.83452 4.25538 4.05042
# Velocity P-wave (km/s) = 6.36089 7.23388 6.81138
#
# Compressibility (1/GPa) = 0.02099585
#
# Stress axis : x y z
#
# Youngs Moduli (GPa) = 78.66134 147.32092 118.83355
#
# Poissons Ratio (x) = 0.14662 0.05422
# Poissons Ratio (y) = 0.07829 0.23866
# Poissons Ratio (z) = 0.03589 0.29588
#
# Static dielectric constant tensor:
#      x y z
#    x 1.850740 -0.082390 -0.015030 
#    y -0.082390 1.711630 -0.061360 
#    z -0.015030 -0.061360 1.876330 
# 
# From -- ./inp_files/364808.got.cif
#   From: 2010.05.17/outbox.cif.g08.bks.cpg/sg2_183_cif.got.tgz:364808.got - 2010.06.03 11:33:40.
