data_PCOD9051814
_publ_section_title
;
Structure prediction by ZEFSAII (Michael W. Deem and Ramdas Pophale) SiO2 
 PCOD9051814
Probable space group: P -1
;
_chemical_formula_sum "Si O2"
_cell_formula_units_Z 16
_cell_length_a 11.569179
_cell_length_b 6.820298
_cell_length_c 11.623712
_cell_angle_alpha 56.874750
_cell_angle_beta 70.157724
_cell_angle_gamma 74.754502
_cell_volume 719.007055
_symmetry_space_group_name_H-M "P -1"
_symmetry_group_IT_number 2
_symmetry_cell_setting 'triclinic'
loop_
_space_group_symop_operation_xyz
x,y,z
-x,-y,-z
loop_
_atom_site_type_symbol
_atom_site_label
_atom_site_fract_x
_atom_site_fract_y
_atom_site_fract_z
Si Si1 0.136916 0.002802 0.734063
Si Si2 0.400695 0.379976 0.873537
Si Si3 0.393304 0.827432 0.572473
Si Si4 0.288646 0.861634 0.347536
Si Si5 0.186705 0.630592 0.027017
Si Si6 0.897847 0.473902 0.447798
Si Si7 0.054282 0.206748 0.292014
Si Si8 0.352501 0.869974 0.063028
O O1 0.261972 0.926822 0.643331
O O2 0.016064 0.955813 0.716685
O O3 0.135182 0.274403 0.677832
O O4 0.133082 0.844659 0.898061
O O5 0.422871 0.571632 0.705821
O O6 0.522957 0.304426 0.930926
O O7 0.295848 0.497667 0.955802
O O8 0.361661 0.127952 0.922266
O O9 0.372439 0.821363 0.444193
O O10 0.500000 0.000000 0.500000
O O11 0.221930 0.625322 0.428781
O O12 0.343233 0.915282 0.188535
O O13 0.181543 0.073604 0.336846
O O14 0.090486 0.444561 0.144930
O O15 0.243115 0.740150 0.086558
O O16 0.000000 0.500000 0.500000
O O17 0.957907 0.287272 0.397022
#
# Coordination Sequence:
#
# PCOD9051814 Si02
#       8
#     2   2   2   2   2   2   2   2
#     4  11  26  46  68 106 142 187 234 290 352 416
#     4  10  25  48  69 101 144 182 237 292 345 415
#     4  11  27  47  74 103 145 186 233 296 356 410
#     4  12  25  45  71 106 142 185 236 291 350 421
#     4  11  25  43  74 101 143 184 237 288 352 418
#     4  12  24  42  71 101 143 185 235 284 350 424
#     4  12  24  46  70 103 144 187 232 291 351 414
#     4  11  25  45  74 101 139 190 237 286 352 418
#
# _framework density 22.252911000000001
#
# number of rings (size 3 to 8) (size 9 to 14) (size 15 to 20)
#    0.000    0.750    3.750    2.625    5.250    5.000 
#    0.000    0.000    0.000    0.000    0.000    0.000 
#    0.000    0.000    0.000    0.000    0.000    0.000 
#
# Total GULP energy -89511.639015 kJ/mol
# GULP energy per Si atom -5594.477438 kJ/mol
# Density = 2.220226 g / cm^3
# Si number density = 22.252911 Si / 1000 Ang^3
#
#
#
# Elastic Constant Matrix: (Units=GPa)
#
#
# Indices 1 2 3 4 5 6 
#
# 1 70.9677 10.3997 32.1525 -5.5445 -0.0024 24.7590
# 2 10.3997 41.9875 12.1960 -15.0873 9.0641 -9.7149
# 3 32.1525 12.1960 120.3383 -21.4739 -2.0525 -5.2647
# 4 -5.5445 -15.0873 -21.4739 41.9179 4.0090 2.3606
# 5 -0.0024 9.0641 -2.0525 4.0090 33.4169 -4.4465
# 6 24.7590 -9.7149 -5.2647 2.3606 -4.4465 28.7344
#
#
#
# Elastic Compliance Matrix: (Units=1/GPa)
#
#
# Indices 1 2 3 4 5 6 
#
# 1 0.031796 -0.014131 -0.009196 -0.003620 -0.000777 -0.033682
# 2 -0.014131 0.038372 0.003085 0.013041 -0.008684 0.023299
# 3 -0.009196 0.003085 0.011887 0.005308 0.000695 0.010816
# 4 -0.003620 0.013041 0.005308 0.031111 -0.006282 0.004973
# 5 -0.000777 -0.008684 0.000695 -0.006282 0.033552 0.003569
# 6 -0.033682 0.023299 0.010816 0.004973 0.003569 0.073827
#
#
# Mechanical properties :
#
#
# Convention : Reuss Voigt Hill
#
# Bulk Modulus (GPa) = 24.05541 38.08776 31.07159
# Shear Modulus (GPa) = 18.18944 32.71687 25.45316
#
# Velocity S-wave (km/s) = 2.86212 3.83852 3.38570
# Velocity P-wave (km/s) = 4.66431 6.06619 5.41084
#
# Compressibility (1/GPa) = 0.04157069
#
# Stress axis : x y z
#
# Youngs Moduli (GPa) = 31.45027 26.06072 84.12893
#
# Poissons Ratio (x) = 0.36825 0.77367
# Poissons Ratio (y) = 0.44441 -0.25952
# Poissons Ratio (z) = 0.28922 -0.08039
#
# Static dielectric constant tensor:
#      x y z
#    x 1.762020 -0.041430 0.010290 
#    y -0.041430 1.806470 0.002260 
#    z 0.010290 0.002260 1.823590 
# 
# From -- ./inp_files/409825.got.cif
#   From: 2010.05.17/outbox.cif.g08.bks.cpg/sg2_205_cif.got.tgz:409825.got - 2010.06.03 11:33:40.
