data_PCOD9051104
_publ_section_title
;
Structure prediction by ZEFSAII (Michael W. Deem and Ramdas Pophale) SiO2 
 PCOD9051104
Probable space group: P -1
;
_chemical_formula_sum "Si O2"
_cell_formula_units_Z 14
_cell_length_a 9.843247
_cell_length_b 7.475664
_cell_length_c 11.175513
_cell_angle_alpha 114.812826
_cell_angle_beta 113.571500
_cell_angle_gamma 42.506194
_cell_volume 498.817572
_symmetry_space_group_name_H-M "P -1"
_symmetry_group_IT_number 2
_symmetry_cell_setting 'triclinic'
loop_
_space_group_symop_operation_xyz
x,y,z
-x,-y,-z
loop_
_atom_site_type_symbol
_atom_site_label
_atom_site_fract_x
_atom_site_fract_y
_atom_site_fract_z
Si Si1 0.698660 0.399348 0.911168
Si Si2 0.767187 0.766203 0.023381
Si Si3 0.654817 0.978445 0.316966
Si Si4 0.762476 0.797263 0.773049
Si Si5 0.385305 0.568129 0.664453
Si Si6 0.071119 0.702327 0.436336
Si Si7 0.906265 0.177975 0.157040
O O1 0.644628 0.672010 0.939328
O O2 0.576158 0.378374 0.767406
O O3 0.716770 0.370848 0.053237
O O4 0.936049 0.138578 0.900653
O O5 0.719587 0.921229 0.926469
O O6 0.000000 0.500000 0.000000
O O7 0.726721 0.862519 0.172922
O O8 0.468595 0.013238 0.301999
O O9 0.582253 0.271984 0.363442
O O10 0.856847 0.792442 0.417082
O O11 0.853088 0.490919 0.707633
O O12 0.943030 0.769948 0.776830
O O13 0.273912 0.500806 0.531260
O O14 0.198176 0.782466 0.746729
O O15 0.000000 0.000000 0.500000
#
# Coordination Sequence:
#
# PCOD9051104 Si02
#       7
#     2   2   2   2   2   2   2
#     4  11  24  41  66  99 137 177 217 274 342 405
#     4  12  21  42  74  99 138 172 227 284 337 392
#     4  11  24  42  74 103 132 177 229 281 335 396
#     4  12  25  44  70 103 133 178 229 281 333 400
#     4  11  25  43  67  95 138 182 223 270 340 397
#     4  10  25  45  69  99 136 178 233 278 325 398
#     4  11  26  42  66 101 142 170 219 283 342 395
#
# _framework density 28.066372999999999
#
# number of rings (size 3 to 8) (size 9 to 14) (size 15 to 20)
#    0.000    0.857    4.286    1.714    4.000    6.286 
#    0.000    1.429    0.000    0.000    0.000    0.000 
#    0.000    0.000    0.000    0.000    0.000    0.000 
#
# Total GULP energy -78066.859004 kJ/mol
# GULP energy per Si atom -5576.204215 kJ/mol
# Density = 2.800249 g / cm^3
# Si number density = 28.066373 Si / 1000 Ang^3
#
#
#
# Elastic Constant Matrix: (Units=GPa)
#
#
# Indices 1 2 3 4 5 6 
#
# 1 138.4929 50.9697 29.1084 -20.3777 52.4419 -7.2899
# 2 50.9697 72.4415 41.7271 -13.2437 30.7171 -15.2239
# 3 29.1084 41.7271 106.1864 -24.9032 49.1716 -12.2896
# 4 -20.3777 -13.2437 -24.9032 67.6915 -24.4995 21.5729
# 5 52.4419 30.7171 49.1716 -24.4995 50.2895 -12.6923
# 6 -7.2899 -15.2239 -12.2896 21.5729 -12.6923 49.6576
#
#
#
# Elastic Compliance Matrix: (Units=1/GPa)
#
#
# Indices 1 2 3 4 5 6 
#
# 1 0.015943 -0.007732 0.007641 -0.000218 -0.020296 -0.003232
# 2 -0.007732 0.023856 -0.007788 -0.001639 0.001668 0.005390
# 3 0.007641 -0.007788 0.021706 0.000586 -0.024776 -0.002481
# 4 -0.000218 -0.001639 0.000586 0.019901 0.008627 -0.006830
# 5 -0.020296 0.001668 -0.024776 0.008627 0.069849 0.005505
# 6 -0.003232 0.005390 -0.002481 -0.006830 0.005505 0.025076
#
#
# Mechanical properties :
#
#
# Convention : Reuss Voigt Hill
#
# Bulk Modulus (GPa) = 21.85874 62.30346 42.08110
# Shear Modulus (GPa) = 24.11501 46.54876 35.33188
#
# Velocity S-wave (km/s) = 2.93441 4.07692 3.55190
# Velocity P-wave (km/s) = 4.39160 6.66397 5.64334
#
# Compressibility (1/GPa) = 0.04574830
#
# Stress axis : x y z
#
# Youngs Moduli (GPa) = 62.72164 41.91779 46.06927
#
# Poissons Ratio (x) = 0.32411 -0.35203
# Poissons Ratio (y) = 0.48497 0.35880
# Poissons Ratio (z) = -0.47928 0.32646
#
# Static dielectric constant tensor:
#      x y z
#    x 2.185900 0.023350 -0.037380 
#    y 0.023350 2.214010 -0.054080 
#    z -0.037380 -0.054080 2.499800 
# 
# From -- ./inp_files/418231.got.cif
#   From: 2010.05.17/outbox.cif.g08.bks.cpg/sg2_210_cif.got.tgz:418231.got - 2010.06.03 11:33:40.
