data_PCOD9051679
_publ_section_title
;
Structure prediction by ZEFSAII (Michael W. Deem and Ramdas Pophale) SiO2 
 PCOD9051679
Probable space group: P -1
;
_chemical_formula_sum "Si O2"
_cell_formula_units_Z 15
_cell_length_a 9.417732
_cell_length_b 12.961872
_cell_length_c 8.536750
_cell_angle_alpha 102.798008
_cell_angle_beta 132.420445
_cell_angle_gamma 87.061472
_cell_volume 743.170139
_symmetry_space_group_name_H-M "P -1"
_symmetry_group_IT_number 2
_symmetry_cell_setting 'triclinic'
loop_
_space_group_symop_operation_xyz
x,y,z
-x,-y,-z
loop_
_atom_site_type_symbol
_atom_site_label
_atom_site_fract_x
_atom_site_fract_y
_atom_site_fract_z
Si Si1 0.454870 0.039490 0.808244
Si Si2 0.531979 0.755271 0.267423
Si Si3 0.971043 0.119642 0.832364
Si Si4 0.000000 0.000000 0.500000
Si Si5 0.291839 0.441722 0.760199
Si Si6 0.917244 0.497872 0.687815
Si Si7 0.699670 0.919382 0.715040
Si Si8 0.835099 0.341712 0.858516
O O1 0.541598 0.163229 0.885037
O O2 0.540626 0.965106 0.719386
O O3 0.225235 0.028551 0.620128
O O4 0.500000 0.000000 0.000000
O O5 0.681689 0.682581 0.282871
O O6 0.618032 0.836231 0.494421
O O7 0.359586 0.675514 0.189562
O O8 0.873622 0.225990 0.792402
O O9 0.158473 0.136795 0.088563
O O10 0.039165 0.083789 0.703982
O O11 0.827376 0.023542 0.772114
O O12 0.227036 0.483641 0.555840
O O13 0.111791 0.458710 0.745110
O O14 0.500000 0.500000 0.000000
O O15 0.825978 0.414939 0.723680
O O16 0.995732 0.603854 0.881430
#
# Coordination Sequence:
#
# PCOD9051679 Si02
#       8
#     2   2   2   1   2   2   2   2
#     4  12  25  45  64 100 140 177 225 277 331 406
#     4  12  24  44  70  98 135 184 223 279 337 412
#     4  11  23  41  69  98 138 183 219 280 336 410
#     4  12  24  42  62  96 138 176 220 278 328 396
#     4  11  24  49  69  99 134 177 228 282 349 397
#     4  10  25  47  71  99 139 172 227 299 329 406
#     4  11  23  43  66  97 141 180 226 271 337 406
#     4  11  23  45  70 103 133 180 232 277 349 396
#
# _framework density 20.183803000000001
#
# number of rings (size 3 to 8) (size 9 to 14) (size 15 to 20)
#    0.000    0.800    5.333    2.000    1.867    0.533 
#    9.600    0.000    0.000    0.000    0.000    0.000 
#    0.000    0.000    0.000    0.000    0.000    0.000 
#
# Total GULP energy -83546.810335 kJ/mol
# GULP energy per Si atom -5569.787356 kJ/mol
# Density = 2.013786 g / cm^3
# Si number density = 20.183803 Si / 1000 Ang^3
#
#
#
# Elastic Constant Matrix: (Units=GPa)
#
#
# Indices 1 2 3 4 5 6 
#
# 1 100.1999 24.8609 28.1506 -5.0273 -7.8634 -4.3153
# 2 24.8609 91.8124 39.3132 2.6636 -14.1844 -1.4718
# 3 28.1506 39.3132 86.9653 0.2717 -14.4953 5.1336
# 4 -5.0273 2.6636 0.2717 18.8592 1.7645 -2.9732
# 5 -7.8634 -14.1844 -14.4953 1.7645 36.9481 9.3091
# 6 -4.3153 -1.4718 5.1336 -2.9732 9.3091 28.7721
#
#
#
# Elastic Compliance Matrix: (Units=1/GPa)
#
#
# Indices 1 2 3 4 5 6 
#
# 1 0.011620 -0.001936 -0.003120 0.003879 -0.000364 0.002719
# 2 -0.001936 0.014240 -0.005295 -0.002723 0.003081 0.000104
# 3 -0.003120 -0.005295 0.016068 -0.001640 0.005048 -0.005408
# 4 0.003879 -0.002723 -0.001640 0.056319 -0.005666 0.008388
# 5 -0.000364 0.003081 0.005048 -0.005666 0.033501 -0.012222
# 6 0.002719 0.000104 -0.005408 0.008388 -0.012222 0.040955
#
#
# Mechanical properties :
#
#
# Convention : Reuss Voigt Hill
#
# Bulk Modulus (GPa) = 47.10886 51.51412 49.31149
# Shear Modulus (GPa) = 24.94025 29.35939 27.14982
#
# Velocity S-wave (km/s) = 3.51900 3.81806 3.67158
# Velocity P-wave (km/s) = 6.31679 6.70930 6.51600
#
# Compressibility (1/GPa) = 0.02122743
#
# Stress axis : x y z
#
# Youngs Moduli (GPa) = 86.05927 70.22581 62.23577
#
# Poissons Ratio (x) = 0.13595 0.19415
# Poissons Ratio (y) = 0.16660 0.32952
# Poissons Ratio (z) = 0.26847 0.37182
#
# Static dielectric constant tensor:
#      x y z
#    x 1.715660 0.013820 0.002750 
#    y 0.013820 1.715440 -0.020540 
#    z 0.002750 -0.020540 1.736700 
# 
# From -- ./inp_files/188921.got.cif
#   From: 2010.05.17/outbox.cif.g08.bks.cpg/sg2_95_cif.got.tgz:188921.got - 2010.06.03 11:33:40.
