data_PCOD9051055
_publ_section_title
;
Structure prediction by ZEFSAII (Michael W. Deem and Ramdas Pophale) SiO2 
 PCOD9051055
Probable space group: P -1
;
_chemical_formula_sum "Si O2"
_cell_formula_units_Z 15
_cell_length_a 21.043424
_cell_length_b 6.255759
_cell_length_c 5.345865
_cell_angle_alpha 93.420786
_cell_angle_beta 96.089710
_cell_angle_gamma 123.122173
_cell_volume 580.187903
_symmetry_space_group_name_H-M "P -1"
_symmetry_group_IT_number 2
_symmetry_cell_setting 'triclinic'
loop_
_space_group_symop_operation_xyz
x,y,z
-x,-y,-z
loop_
_atom_site_type_symbol
_atom_site_label
_atom_site_fract_x
_atom_site_fract_y
_atom_site_fract_z
Si Si1 0.941899 0.084238 0.431205
Si Si2 0.500000 0.500000 0.500000
Si Si3 0.169590 0.383629 0.994940
Si Si4 0.359182 0.370692 0.735454
Si Si5 0.695067 0.373008 0.628927
Si Si6 0.230888 0.817242 0.679806
Si Si7 0.920143 0.429925 0.710339
Si Si8 0.547042 0.218306 0.826536
O O1 0.923922 0.176451 0.690310
O O2 0.993366 0.337194 0.298846
O O3 0.872505 0.853911 0.229462
O O4 0.000000 0.000000 0.500000
O O5 0.410895 0.351469 0.547917
O O6 0.503629 0.248305 0.580063
O O7 0.228482 0.642672 0.885643
O O8 0.226005 0.374061 0.214737
O O9 0.112148 0.452961 0.101641
O O10 0.334410 0.547016 0.613974
O O11 0.281878 0.115980 0.781607
O O12 0.420030 0.511734 0.993751
O O13 0.725002 0.201913 0.537647
O O14 0.623903 0.240653 0.776867
O O15 0.142305 0.672525 0.549697
O O16 0.500000 0.000000 0.000000
#
# Coordination Sequence:
#
# PCOD9051055 Si02
#       8
#     2   1   2   2   2   2   2   2
#     4  11  23  47  73 102 154 196 249 309 377 458
#     4  10  26  46  70 108 146 192 252 310 378 456
#     4  11  24  47  76 106 148 202 248 315 380 449
#     4  11  26  46  72 104 147 194 243 312 377 455
#     4  10  26  46  69 107 144 193 247 312 373 456
#     4  11  25  46  70 106 148 186 250 312 372 456
#     4  10  25  45  68 111 145 194 251 309 376 458
#     4  11  26  47  77 107 149 201 253 317 389 461
#
# _framework density 25.853694000000001
#
# number of rings (size 3 to 8) (size 9 to 14) (size 15 to 20)
#    0.000    1.333    1.333    1.600    9.333    5.867 
#    2.400    0.000    0.000    0.000    0.000    0.000 
#    0.000    0.000    0.000    0.000    0.000    0.000 
#
# Total GULP energy -83578.871667 kJ/mol
# GULP energy per Si atom -5571.924778 kJ/mol
# Density = 2.579485 g / cm^3
# Si number density = 25.853694 Si / 1000 Ang^3
#
#
#
# Elastic Constant Matrix: (Units=GPa)
#
#
# Indices 1 2 3 4 5 6 
#
# 1 150.7600 14.5245 19.7412 3.5302 -24.9841 0.8217
# 2 14.5245 64.8966 9.1545 33.3689 -56.0533 36.6924
# 3 19.7412 9.1545 44.1157 21.1244 -32.6662 12.9151
# 4 3.5302 33.3689 21.1244 23.9972 24.4138 -6.8030
# 5 -24.9841 -56.0533 -32.6662 24.4138 9.2521 1.4683
# 6 0.8217 36.6924 12.9151 -6.8030 1.4683 39.6506
#
#
#
# Elastic Compliance Matrix: (Units=1/GPa)
#
#
# Indices 1 2 3 4 5 6 
#
# 1 0.007366 -0.000996 -0.002551 0.000969 0.002023 0.001692
# 2 -0.000996 0.007568 -0.009930 0.006476 -0.008620 -0.002318
# 3 -0.002551 -0.009930 0.019820 0.002797 -0.004997 0.003451
# 4 0.000969 0.006476 0.002797 0.014693 0.013737 -0.004912
# 5 0.002023 -0.008620 -0.004997 0.013737 0.005574 0.011713
# 6 0.001692 -0.002318 0.003451 -0.004912 0.011713 0.024930
#
#
# Mechanical properties :
#
#
# Convention : Reuss Voigt Hill
#
# Bulk Modulus (GPa) = 128.19771 38.51253 83.35512
# Shear Modulus (GPa) = 45.65951 29.00344 37.33148
#
# Velocity S-wave (km/s) = 4.20703 3.35301 3.80406
# Velocity P-wave (km/s) = 8.56109 5.46981 7.18370
#
# Compressibility (1/GPa) = 0.00780045
#
# Stress axis : x y z
#
# Youngs Moduli (GPa) = 135.75116 132.13241 50.45286
#
# Poissons Ratio (x) = 0.13166 0.12871
# Poissons Ratio (y) = 0.13526 0.50099
# Poissons Ratio (z) = 0.34631 1.31206
#
# Static dielectric constant tensor:
#      x y z
#    x 2.031870 -0.052100 0.010240 
#    y -0.052100 2.156500 0.028380 
#    z 0.010240 0.028380 2.213660 
# 
# From -- ./inp_files/114688.got.cif
#   From: 2010.05.17/outbox.cif.g08.bks.cpg/sg2_58_cif.got.tgz:114688.got - 2010.06.03 11:33:40.
