data_PCOD9051292
_publ_section_title
;
Structure prediction by ZEFSAII (Michael W. Deem and Ramdas Pophale) SiO2 
 PCOD9051292
Probable space group: P -1
;
_chemical_formula_sum "Si O2"
_cell_formula_units_Z 11
_cell_length_a 13.610393
_cell_length_b 5.660058
_cell_length_c 14.707870
_cell_angle_alpha 81.148986
_cell_angle_beta 160.343878
_cell_angle_gamma 99.557511
_cell_volume 375.821120
_symmetry_space_group_name_H-M "P -1"
_symmetry_group_IT_number 2
_symmetry_cell_setting 'triclinic'
loop_
_space_group_symop_operation_xyz
x,y,z
-x,-y,-z
loop_
_atom_site_type_symbol
_atom_site_label
_atom_site_fract_x
_atom_site_fract_y
_atom_site_fract_z
Si Si1 0.230667 0.048283 0.784779
Si Si2 0.500000 0.500000 0.000000
Si Si3 0.203688 0.600358 0.551259
Si Si4 0.002543 0.250325 0.241883
Si Si5 0.965329 0.643107 0.053582
Si Si6 0.419557 0.913918 0.558740
O O1 0.564365 0.193455 0.050834
O O2 0.114034 0.338393 0.687446
O O3 0.000000 0.000000 0.500000
O O4 0.183825 0.959029 0.855862
O O5 0.422232 0.542673 0.822246
O O6 0.144678 0.384665 0.444172
O O7 0.328498 0.815066 0.584874
O O8 0.840857 0.441181 0.029394
O O9 0.262126 0.160878 0.409382
O O10 0.260419 0.751918 0.351621
O O11 0.756270 0.862746 0.849204
O O12 0.000000 0.500000 0.000000
#
# Coordination Sequence:
#
# PCOD9051292 Si02
#       6
#     2   1   2   2   2   2
#     4  11  25  44  68  99 140 191 245 301 364 431
#     4  12  26  42  70  98 144 188 258 302 358 428
#     4  10  25  46  65 102 143 193 247 307 360 429
#     4  10  25  49  72 105 150 195 244 306 372 444
#     4  11  25  49  79 115 149 186 244 310 372 450
#     4  10  25  45  77 109 151 195 241 302 380 441
#
# _framework density 29.269241999999998
#
# number of rings (size 3 to 8) (size 9 to 14) (size 15 to 20)
#    0.000    1.455    0.000    2.182   10.182    8.727 
#    3.273    0.000    0.000    0.000    0.000    0.000 
#    0.000    0.000    0.000    0.000    0.000    0.000 
#
# Total GULP energy -61634.872906 kJ/mol
# GULP energy per Si atom -5603.170264 kJ/mol
# Density = 2.920262 g / cm^3
# Si number density = 29.269242 Si / 1000 Ang^3
#
#
#
# Elastic Constant Matrix: (Units=GPa)
#
#
# Indices 1 2 3 4 5 6 
#
# 1 169.8681 43.2031 74.3682 -1.3287 -19.8123 -15.1769
# 2 43.2031 180.1715 48.1604 -0.0503 -9.3114 -24.6424
# 3 74.3682 48.1604 226.4205 -16.3041 -17.5043 -14.7485
# 4 -1.3287 -0.0503 -16.3041 55.6560 -15.8062 -5.2502
# 5 -19.8123 -9.3114 -17.5043 -15.8062 62.7460 -0.6095
# 6 -15.1769 -24.6424 -14.7485 -5.2502 -0.6095 65.7011
#
#
#
# Elastic Compliance Matrix: (Units=1/GPa)
#
#
# Indices 1 2 3 4 5 6 
#
# 1 0.007284 -0.001011 -0.001983 0.000142 0.001641 0.000885
# 2 -0.001011 0.006307 -0.000849 0.000032 0.000407 0.001948
# 3 -0.001983 -0.000849 0.005535 0.002004 0.001303 0.000638
# 4 0.000142 0.000032 0.002004 0.020402 0.005769 0.002178
# 5 0.001641 0.000407 0.001303 0.005769 0.018347 0.001455
# 6 0.000885 0.001948 0.000638 0.002178 0.001455 0.016486
#
#
# Mechanical properties :
#
#
# Convention : Reuss Voigt Hill
#
# Bulk Modulus (GPa) = 87.40431 100.88038 94.14235
# Shear Modulus (GPa) = 58.23553 64.20250 61.21902
#
# Velocity S-wave (km/s) = 4.46539 4.68858 4.57834
# Velocity P-wave (km/s) = 7.51753 7.99071 7.75773
#
# Compressibility (1/GPa) = 0.01144108
#
# Stress axis : x y z
#
# Youngs Moduli (GPa) = 137.29624 158.55432 180.67181
#
# Poissons Ratio (x) = 0.16025 0.35820
# Poissons Ratio (y) = 0.13876 0.15337
# Poissons Ratio (z) = 0.27220 0.13459
#
# Static dielectric constant tensor:
#      x y z
#    x 2.405850 0.216830 0.411970 
#    y 0.216830 2.684540 0.257340 
#    z 0.411970 0.257340 2.501530 
# 
# From -- ./inp_files/3291.got.cif
#   From: 2010.05.17/outbox.cif.g08.bks.cpg/sg2_2_cif.got.tgz:3291.got - 2010.06.03 11:33:40.
