data_PCOD9051437
_publ_section_title
;
Structure prediction by ZEFSAII (Michael W. Deem and Ramdas Pophale) SiO2 
 PCOD9051437
Probable space group: P -1
;
_chemical_formula_sum "Si O2"
_cell_formula_units_Z 14
_cell_length_a 16.296195
_cell_length_b 8.634348
_cell_length_c 5.125867
_cell_angle_alpha 102.614509
_cell_angle_beta 74.734589
_cell_angle_gamma 129.768002
_cell_volume 533.602684
_symmetry_space_group_name_H-M "P -1"
_symmetry_group_IT_number 2
_symmetry_cell_setting 'triclinic'
loop_
_space_group_symop_operation_xyz
x,y,z
-x,-y,-z
loop_
_atom_site_type_symbol
_atom_site_label
_atom_site_fract_x
_atom_site_fract_y
_atom_site_fract_z
Si Si1 0.273640 0.263406 0.888236
Si Si2 0.622782 0.497454 0.605279
Si Si3 0.126649 0.797207 0.895626
Si Si4 0.071191 0.227178 0.914165
Si Si5 0.185236 0.521692 0.500892
Si Si6 0.729599 0.141192 0.808822
Si Si7 0.577849 0.941111 0.366643
O O1 0.361340 0.400391 0.645469
O O2 0.185695 0.303460 0.963059
O O3 0.204537 0.025783 0.804563
O O4 0.328855 0.334922 0.149111
O O5 0.701823 0.433790 0.504970
O O6 0.503559 0.298891 0.691827
O O7 0.149938 0.647796 0.715098
O O8 0.167147 0.843532 0.180917
O O9 0.004118 0.710185 0.923115
O O10 0.098489 0.294758 0.608272
O O11 0.000000 0.000000 0.000000
O O12 0.214736 0.629078 0.234049
O O13 0.651812 0.008684 0.585680
O O14 0.651205 0.053158 0.092461
O O15 0.500000 0.000000 0.500000
#
# Coordination Sequence:
#
# PCOD9051437 Si02
#       7
#     2   2   2   2   2   2   2
#     4  10  25  46  71 101 143 188 237 288 354 421
#     4  11  24  45  72 101 138 186 241 293 348 417
#     4  11  24  48  70 105 147 189 233 297 351 424
#     4   9  22  48  73 106 140 190 237 288 354 429
#     4  11  24  42  74 106 141 183 238 292 356 414
#     4  12  25  41  69 107 145 178 239 294 353 408
#     4  12  24  43  71 106 140 189 238 292 349 423
#
# _framework density 26.236751000000002
#
# number of rings (size 3 to 8) (size 9 to 14) (size 15 to 20)
#    0.000    1.143    2.857    1.714    8.000    0.571 
#    5.143   10.714    0.000    0.000    0.000    0.000 
#    0.000    0.000    0.000    0.000    0.000    0.000 
#
# Total GULP energy -78206.759184 kJ/mol
# GULP energy per Si atom -5586.197085 kJ/mol
# Density = 2.617704 g / cm^3
# Si number density = 26.236751 Si / 1000 Ang^3
#
#
#
# Elastic Constant Matrix: (Units=GPa)
#
#
# Indices 1 2 3 4 5 6 
#
# 1 156.1779 29.2011 35.5240 8.0998 -14.4822 -14.9601
# 2 29.2011 174.2053 57.3307 -41.4662 -7.2003 10.6732
# 3 35.5240 57.3307 124.8730 -21.6791 -5.9699 11.0773
# 4 8.0998 -41.4662 -21.6791 54.7642 1.6741 0.2100
# 5 -14.4822 -7.2003 -5.9699 1.6741 30.8254 1.4438
# 6 -14.9601 10.6732 11.0773 0.2100 1.4438 38.1919
#
#
#
# Elastic Compliance Matrix: (Units=1/GPa)
#
#
# Indices 1 2 3 4 5 6 
#
# 1 0.008091 -0.001500 -0.002435 -0.003403 0.002968 0.004201
# 2 -0.001500 0.008184 -0.002131 0.005566 0.000600 -0.002310
# 3 -0.002435 -0.002131 0.010508 0.002907 0.000396 -0.003437
# 4 -0.003403 0.005566 0.002907 0.024170 -0.000869 -0.003832
# 5 0.002968 0.000600 0.000396 -0.000869 0.034118 -0.000405
# 6 0.004201 -0.002310 -0.003437 -0.003832 -0.000405 0.029508
#
#
# Mechanical properties :
#
#
# Convention : Reuss Voigt Hill
#
# Bulk Modulus (GPa) = 68.24995 77.70755 72.97875
# Shear Modulus (GPa) = 37.99552 46.96963 42.48257
#
# Velocity S-wave (km/s) = 3.80962 4.23569 4.02830
# Velocity P-wave (km/s) = 6.73948 7.32145 7.03648
#
# Compressibility (1/GPa) = 0.01465203
#
# Stress axis : x y z
#
# Youngs Moduli (GPa) = 123.58935 122.18707 95.16795
#
# Poissons Ratio (x) = 0.18325 0.23172
# Poissons Ratio (y) = 0.18536 0.20280
# Poissons Ratio (z) = 0.30093 0.26037
#
# Static dielectric constant tensor:
#      x y z
#    x 2.031440 -0.027130 -0.039350 
#    y -0.027130 2.089220 0.074260 
#    z -0.039350 0.074260 2.187750 
# 
# From -- ./inp_files/105355.got.cif
#   From: 2010.05.17/outbox.cif.g08.bks.cpg/sg2_53_cif.got.tgz:105355.got - 2010.06.03 11:33:40.
