data_PCOD9051834
_publ_section_title
;
Structure prediction by ZEFSAII (Michael W. Deem and Ramdas Pophale) SiO2 
 PCOD9051834
Probable space group: P -1
;
_chemical_formula_sum "Si O2"
_cell_formula_units_Z 16
_cell_length_a 18.360843
_cell_length_b 5.144334
_cell_length_c 11.404277
_cell_angle_alpha 64.414820
_cell_angle_beta 44.531989
_cell_angle_gamma 88.625513
_cell_volume 608.898084
_symmetry_space_group_name_H-M "P -1"
_symmetry_group_IT_number 2
_symmetry_cell_setting 'triclinic'
loop_
_space_group_symop_operation_xyz
x,y,z
-x,-y,-z
loop_
_atom_site_type_symbol
_atom_site_label
_atom_site_fract_x
_atom_site_fract_y
_atom_site_fract_z
Si Si1 0.590204 0.325747 0.187580
Si Si2 0.826990 0.814068 0.537942
Si Si3 0.918871 0.652399 0.104789
Si Si4 0.898449 0.771974 0.847456
Si Si5 0.801458 0.284035 0.840906
Si Si6 0.706692 0.444178 0.532328
Si Si7 0.405900 0.631924 0.563974
Si Si8 0.598872 0.790937 0.904563
O O1 0.644261 0.402928 0.240287
O O2 0.466552 0.016049 0.397172
O O3 0.669512 0.211388 0.040005
O O4 0.578643 0.629439 0.087405
O O5 0.827284 0.488970 0.652772
O O6 0.765396 0.735867 0.497715
O O7 0.731423 0.851696 0.719196
O O8 0.961056 0.058882 0.341504
O O9 0.821129 0.427065 0.351998
O O10 0.862465 0.682840 0.041592
O O11 0.000000 0.500000 0.000000
O O12 0.000000 0.000000 0.000000
O O13 0.866957 0.501728 0.836430
O O14 0.845290 0.015286 0.826626
O O15 0.657130 0.516703 0.456211
O O16 0.613079 0.135030 0.772457
O O17 0.500000 0.500000 0.500000
O O18 0.500000 0.500000 0.000000
#
# Coordination Sequence:
#
# PCOD9051834 Si02
#       8
#     2   2   2   2   2   2   2   2
#     4  10  25  48  70 111 146 206 255 323 378 468
#     4  11  27  44  74 109 149 197 255 310 388 460
#     4  12  26  48  76 112 156 201 259 318 387 462
#     4  12  25  49  75 111 154 203 253 320 383 461
#     4  11  27  45  77 109 154 199 255 312 390 455
#     4  12  27  46  77 110 150 206 252 326 387 465
#     4  11  26  46  76 107 153 194 264 316 393 460
#     4  11  25  48  73 107 150 201 259 318 385 460
#
# _framework density 26.276973999999999
#
# number of rings (size 3 to 8) (size 9 to 14) (size 15 to 20)
#    0.000    0.750    2.500    3.000   10.500    1.500 
#    0.000    0.000    0.000    0.000    0.000    0.000 
#    0.000    0.000    0.000    0.000    0.000    0.000 
#
# Total GULP energy -89564.845146 kJ/mol
# GULP energy per Si atom -5597.802822 kJ/mol
# Density = 2.621717 g / cm^3
# Si number density = 26.276974 Si / 1000 Ang^3
#
#
#
# Elastic Constant Matrix: (Units=GPa)
#
#
# Indices 1 2 3 4 5 6 
#
# 1 138.0119 20.3926 23.6540 -11.8660 16.7880 26.5981
# 2 20.3926 93.2012 17.5859 -6.2120 -7.6659 13.9976
# 3 23.6540 17.5859 123.0781 -9.1215 12.4218 11.1970
# 4 -11.8660 -6.2120 -9.1215 26.3198 1.8226 -2.5575
# 5 16.7880 -7.6659 12.4218 1.8226 33.7555 0.5683
# 6 26.5981 13.9976 11.1970 -2.5575 0.5683 58.8343
#
#
#
# Elastic Compliance Matrix: (Units=1/GPa)
#
#
# Indices 1 2 3 4 5 6 
#
# 1 0.009120 -0.001548 -0.000461 0.003586 -0.004853 -0.003464
# 2 -0.001548 0.012055 -0.001581 0.001138 0.004060 -0.001857
# 3 -0.000461 -0.001581 0.009096 0.002725 -0.003608 -0.000993
# 4 0.003586 0.001138 0.002725 0.041096 -0.004737 -0.000578
# 5 -0.004853 0.004060 -0.003608 -0.004737 0.034520 0.001375
# 6 -0.003464 -0.001857 -0.000993 -0.000578 0.001375 0.019155
#
#
# Mechanical properties :
#
#
# Convention : Reuss Voigt Hill
#
# Bulk Modulus (GPa) = 43.30932 53.06181 48.18556
# Shear Modulus (GPa) = 35.73474 43.29250 39.51362
#
# Velocity S-wave (km/s) = 3.69172 4.06340 3.88201
# Velocity P-wave (km/s) = 5.88977 6.50016 6.20248
#
# Compressibility (1/GPa) = 0.02308972
#
# Stress axis : x y z
#
# Youngs Moduli (GPa) = 109.65204 82.95128 109.94072
#
# Poissons Ratio (x) = 0.12844 0.05066
# Poissons Ratio (y) = 0.16978 0.17386
# Poissons Ratio (z) = 0.05052 0.13118
#
# Static dielectric constant tensor:
#      x y z
#    x 2.072520 -0.030470 0.018240 
#    y -0.030470 2.097210 -0.014800 
#    z 0.018240 -0.014800 2.170620 
# 
# From -- ./inp_files/123767.got.cif
#   From: 2010.05.17/outbox.cif.g08.bks.cpg/sg2_62_cif.got.tgz:123767.got - 2010.06.03 11:33:40.
