data_PCOD9051293
_publ_section_title
;
Structure prediction by ZEFSAII (Michael W. Deem and Ramdas Pophale) SiO2 
 PCOD9051293
Probable space group: P -1
;
_chemical_formula_sum "Si O2"
_cell_formula_units_Z 13
_cell_length_a 13.408734
_cell_length_b 8.045964
_cell_length_c 11.316302
_cell_angle_alpha 128.895407
_cell_angle_beta 132.795102
_cell_angle_gamma 34.360316
_cell_volume 498.945588
_symmetry_space_group_name_H-M "P -1"
_symmetry_group_IT_number 2
_symmetry_cell_setting 'triclinic'
loop_
_space_group_symop_operation_xyz
x,y,z
-x,-y,-z
loop_
_atom_site_type_symbol
_atom_site_label
_atom_site_fract_x
_atom_site_fract_y
_atom_site_fract_z
Si Si1 0.000000 0.500000 0.000000
Si Si2 0.581372 0.034620 0.968766
Si Si3 0.791419 0.564765 0.299546
Si Si4 0.926120 0.841416 0.859561
Si Si5 0.161540 0.892377 0.703067
Si Si6 0.760726 0.377490 0.608396
Si Si7 0.646820 0.120363 0.566931
O O1 0.933387 0.730874 0.941988
O O2 0.234279 0.296660 0.071765
O O3 0.660176 0.173903 0.138248
O O4 0.416820 0.249148 0.837797
O O5 0.500000 0.000000 0.000000
O O6 0.853253 0.309400 0.325211
O O7 0.931015 0.425173 0.237964
O O8 0.770724 0.808778 0.460046
O O9 0.718346 0.054365 0.728371
O O10 0.000000 0.000000 0.000000
O O11 0.185720 0.830064 0.555380
O O12 0.972905 0.244626 0.740319
O O13 0.693921 0.297053 0.623823
O O14 0.573165 0.696962 0.550522
#
# Coordination Sequence:
#
# PCOD9051293 Si02
#       7
#     1   2   2   2   2   2   2
#     4  12  30  48  80 120 160 210 278 332 414 490
#     4  12  27  49  78 113 161 213 275 338 409 483
#     4  12  26  49  79 116 165 209 275 339 411 487
#     4  12  28  51  81 121 165 214 274 342 414 497
#     4  11  25  46  76 113 160 216 270 334 411 488
#     4  10  25  45  77 113 162 212 271 327 411 492
#     4  11  26  49  79 117 163 213 268 338 414 485
#
# _framework density 26.054946000000001
#
# number of rings (size 3 to 8) (size 9 to 14) (size 15 to 20)
#    0.000    0.615    3.077    2.769    6.462    3.077 
#    0.000    0.000    0.000    0.000    0.000    0.000 
#    0.000    0.000    0.000    0.000    0.000    0.000 
#
# Total GULP energy -72774.807912 kJ/mol
# GULP energy per Si atom -5598.062147 kJ/mol
# Density = 2.599564 g / cm^3
# Si number density = 26.054946 Si / 1000 Ang^3
#
#
#
# Elastic Constant Matrix: (Units=GPa)
#
#
# Indices 1 2 3 4 5 6 
#
# 1 149.6873 40.1153 38.6582 -14.4051 -13.1270 14.0587
# 2 40.1153 121.8291 28.9163 -21.7915 -6.0583 -12.1039
# 3 38.6582 28.9163 117.7372 -57.5050 1.1749 10.3239
# 4 -14.4051 -21.7915 -57.5050 57.3183 3.1983 -0.3935
# 5 -13.1270 -6.0583 1.1749 3.1983 52.0369 -4.4099
# 6 14.0587 -12.1039 10.3239 -0.3935 -4.4099 57.9146
#
#
#
# Elastic Compliance Matrix: (Units=1/GPa)
#
#
# Indices 1 2 3 4 5 6 
#
# 1 0.008235 -0.002461 -0.002852 -0.001841 0.001809 -0.001880
# 2 -0.002461 0.009938 -0.000696 0.002445 0.000644 0.002864
# 3 -0.002852 -0.000696 0.018540 0.017742 -0.002549 -0.002832
# 4 -0.001841 0.002445 0.017742 0.035864 -0.002970 -0.002187
# 5 0.001809 0.000644 -0.002549 -0.002970 0.020130 0.001663
# 6 -0.001880 0.002864 -0.002832 -0.002187 0.001663 0.018938
#
#
# Mechanical properties :
#
#
# Convention : Reuss Voigt Hill
#
# Bulk Modulus (GPa) = 40.49392 67.18146 53.83769
# Shear Modulus (GPa) = 37.90969 52.22488 45.06728
#
# Velocity S-wave (km/s) = 3.81857 4.48192 4.16348
# Velocity P-wave (km/s) = 5.91756 7.25424 6.61972
#
# Compressibility (1/GPa) = 0.02469507
#
# Stress axis : x y z
#
# Youngs Moduli (GPa) = 121.43954 100.62803 53.93727
#
# Poissons Ratio (x) = 0.24761 0.15382
# Poissons Ratio (y) = 0.29882 0.03755
# Poissons Ratio (z) = 0.34633 0.07005
#
# Static dielectric constant tensor:
#      x y z
#    x 1.882530 0.011600 0.163000 
#    y 0.011600 1.741890 -0.370770 
#    z 0.163000 -0.370770 1.734810 
# 
# From -- ./inp_files/448244.got.cif
#   From: 2010.05.17/outbox.cif.g08.bks.cpg/sg2_225_cif.got.tgz:448244.got - 2010.06.03 11:33:40.
