data_PCOD9051111
_publ_section_title
;
Structure prediction by ZEFSAII (Michael W. Deem and Ramdas Pophale) SiO2 
 PCOD9051111
Probable space group: P -1
;
_chemical_formula_sum "Si O2"
_cell_formula_units_Z 10
_cell_length_a 18.113921
_cell_length_b 5.345846
_cell_length_c 4.755852
_cell_angle_alpha 124.744595
_cell_angle_beta 96.051056
_cell_angle_gamma 78.894595
_cell_volume 371.325750
_symmetry_space_group_name_H-M "P -1"
_symmetry_group_IT_number 2
_symmetry_cell_setting 'triclinic'
loop_
_space_group_symop_operation_xyz
x,y,z
-x,-y,-z
loop_
_atom_site_type_symbol
_atom_site_label
_atom_site_fract_x
_atom_site_fract_y
_atom_site_fract_z
Si Si1 0.944730 0.110049 0.798421
Si Si2 0.450463 0.291388 0.016531
Si Si3 0.252511 0.069901 0.210219
Si Si4 0.650247 0.149547 0.408856
Si Si5 0.163572 0.282043 0.748279
O O1 0.871115 0.957140 0.616186
O O2 0.907459 0.460154 0.049182
O O3 0.000000 0.000000 0.500000
O O4 0.000000 0.000000 0.000000
O O5 0.402640 0.526476 0.365761
O O6 0.500000 0.500000 0.000000
O O7 0.500000 0.000000 0.000000
O O8 0.394277 0.127075 0.696905
O O9 0.224684 0.371420 0.602611
O O10 0.195243 0.150975 0.974171
O O11 0.324065 0.948337 0.958696
O O12 0.720857 0.151854 0.649407
#
# Coordination Sequence:
#
# PCOD9051111 Si02
#       5
#     2   2   2   2   2
#     4  12  24  41  66  98 136 180 231 290 353 424
#     4  12  27  49  76 110 149 194 245 308 375 446
#     4  10  25  45  70 101 139 186 238 296 358 430
#     4  11  26  46  74 105 143 188 243 302 365 438
#     4  11  24  43  68  98 137 182 233 292 355 424
#
# _framework density 26.930529
#
# number of rings (size 3 to 8) (size 9 to 14) (size 15 to 20)
#    0.000    0.800    0.000    6.000    0.000   14.400 
#    0.000    0.000    0.000    0.000    0.000    0.000 
#    0.000    0.000    0.000    0.000    0.000    0.000 
#
# Total GULP energy -55779.066637 kJ/mol
# GULP energy per Si atom -5577.906664 kJ/mol
# Density = 2.686923 g / cm^3
# Si number density = 26.930529 Si / 1000 Ang^3
#
#
#
# Elastic Constant Matrix: (Units=GPa)
#
#
# Indices 1 2 3 4 5 6 
#
# 1 119.3302 63.0646 70.7828 2.1861 -1.7757 -31.5680
# 2 63.0646 127.9315 86.6857 -20.8617 -17.8796 -21.9706
# 3 70.7828 86.6857 218.3962 -46.9964 -28.7044 -17.9396
# 4 2.1861 -20.8617 -46.9964 55.6272 4.2130 4.3368
# 5 -1.7757 -17.8796 -28.7044 4.2130 64.5419 16.7581
# 6 -31.5680 -21.9706 -17.9396 4.3368 16.7581 47.5787
#
#
#
# Elastic Compliance Matrix: (Units=1/GPa)
#
#
# Indices 1 2 3 4 5 6 
#
# 1 0.016267 -0.005149 -0.004593 -0.006782 -0.004925 0.009037
# 2 -0.005149 0.012919 -0.002574 0.002675 0.001950 0.000648
# 3 -0.004593 -0.002574 0.008707 0.006532 0.003311 -0.002715
# 4 -0.006782 0.002675 0.006532 0.024864 0.002898 -0.004089
# 5 -0.004925 0.001950 0.003311 0.002898 0.019307 -0.008183
# 6 0.009037 0.000648 -0.002715 -0.004089 -0.008183 0.029544
#
#
# Mechanical properties :
#
#
# Convention : Reuss Voigt Hill
#
# Bulk Modulus (GPa) = 75.40884 100.74710 88.07797
# Shear Modulus (GPa) = 35.54635 49.89122 42.71879
#
# Velocity S-wave (km/s) = 3.63702 4.30884 3.98711
# Velocity P-wave (km/s) = 6.76012 7.88962 7.34661
#
# Compressibility (1/GPa) = 0.01326104
#
# Stress axis : x y z
#
# Youngs Moduli (GPa) = 61.47256 77.40489 114.85146
#
# Poissons Ratio (x) = 0.39859 0.52751
# Poissons Ratio (y) = 0.31654 0.29561
# Poissons Ratio (z) = 0.28234 0.19923
#
# Static dielectric constant tensor:
#      x y z
#    x 2.635570 0.259070 -0.054040 
#    y 0.259070 2.147360 0.011700 
#    z -0.054040 0.011700 2.070890 
# 
# From -- ./inp_files/7360.got.cif
#   From: 2010.05.17/outbox.cif.g08.bks.cpg/sg2_4_cif.got.tgz:7360.got - 2010.06.03 11:33:40.
