data_PCOD9051338
_publ_section_title
;
Structure prediction by ZEFSAII (Michael W. Deem and Ramdas Pophale) SiO2 
 PCOD9051338
Probable space group: P -1
;
_chemical_formula_sum "Si O2"
_cell_formula_units_Z 14
_cell_length_a 15.676718
_cell_length_b 4.981312
_cell_length_c 13.594438
_cell_angle_alpha 75.300628
_cell_angle_beta 144.217845
_cell_angle_gamma 94.650863
_cell_volume 585.613676
_symmetry_space_group_name_H-M "P -1"
_symmetry_group_IT_number 2
_symmetry_cell_setting 'triclinic'
loop_
_space_group_symop_operation_xyz
x,y,z
-x,-y,-z
loop_
_atom_site_type_symbol
_atom_site_label
_atom_site_fract_x
_atom_site_fract_y
_atom_site_fract_z
Si Si1 0.106405 0.196062 0.116800
Si Si2 0.924153 0.606790 0.236040
Si Si3 0.589153 0.956634 0.689002
Si Si4 0.869335 0.859376 0.432106
Si Si5 0.512567 0.578962 0.297680
Si Si6 0.174805 0.269990 0.389663
Si Si7 0.272100 0.858530 0.906423
O O1 0.977676 0.488471 0.760124
O O2 0.000000 0.500000 0.000000
O O3 0.175086 0.128684 0.297184
O O4 0.000000 0.000000 0.000000
O O5 0.840257 0.927563 0.145297
O O6 0.052369 0.474777 0.449321
O O7 0.800119 0.416414 0.146511
O O8 0.758506 0.824938 0.830697
O O9 0.519608 0.733906 0.707216
O O10 0.500000 0.000000 0.500000
O O11 0.572742 0.251459 0.703900
O O12 0.826114 0.936563 0.497848
O O13 0.739704 0.962963 0.222425
O O14 0.000000 0.000000 0.500000
O O15 0.682787 0.593276 0.473336
O O16 0.434374 0.755963 0.114674
#
# Coordination Sequence:
#
# PCOD9051338 Si02
#       7
#     2   2   2   2   2   2   2
#     4  12  29  46  72 105 134 176 239 298 336 409
#     4   9  22  39  67  94 138 180 231 276 332 401
#     4  12  27  50  71  95 144 188 227 282 367 415
#     4   8  19  41  71  99 143 183 231 283 348 404
#     4  12  27  44  72 104 141 187 228 287 351 426
#     4  10  25  46  67 108 139 185 235 286 350 417
#     4  11  21  42  67 103 135 184 229 278 345 407
#
# _framework density 23.906542999999999
#
# number of rings (size 3 to 8) (size 9 to 14) (size 15 to 20)
#    0.857    0.571    1.429    2.571    8.000    1.714 
#    0.000    0.000    0.000    4.286    0.000    0.000 
#    0.000    0.000    0.000    0.000    0.000    0.000 
#
# Total GULP energy -78274.183116 kJ/mol
# GULP energy per Si atom -5591.013080 kJ/mol
# Density = 2.385213 g / cm^3
# Si number density = 23.906543 Si / 1000 Ang^3
#
#
#
# Elastic Constant Matrix: (Units=GPa)
#
#
# Indices 1 2 3 4 5 6 
#
# 1 90.6882 5.8825 8.0585 9.5474 0.8259 11.1870
# 2 5.8825 94.4491 12.0528 3.7962 7.3309 9.3919
# 3 8.0585 12.0528 130.6691 10.9830 1.4581 10.7530
# 4 9.5474 3.7962 10.9830 31.8226 -3.9011 3.8648
# 5 0.8259 7.3309 1.4581 -3.9011 35.2390 8.3092
# 6 11.1870 9.3919 10.7530 3.8648 8.3092 28.3369
#
#
#
# Elastic Compliance Matrix: (Units=1/GPa)
#
#
# Indices 1 2 3 4 5 6 
#
# 1 0.011887 -0.000215 -0.000118 -0.002919 0.000465 -0.004315
# 2 -0.000215 0.011131 -0.000695 -0.000909 -0.001745 -0.002705
# 3 -0.000118 -0.000695 0.008129 -0.002362 0.000146 -0.002528
# 4 -0.002919 -0.000909 -0.002362 0.034306 0.005051 -0.003810
# 5 0.000465 -0.001745 0.000146 0.005051 0.031547 -0.009600
# 6 -0.004315 -0.002705 -0.002528 -0.003810 -0.009600 0.042184
#
#
# Mechanical properties :
#
#
# Convention : Reuss Voigt Hill
#
# Bulk Modulus (GPa) = 34.37536 40.86602 37.62069
# Shear Modulus (GPa) = 33.12677 38.40054 35.76366
#
# Velocity S-wave (km/s) = 3.72651 4.01219 3.87198
# Velocity P-wave (km/s) = 5.73813 6.21246 5.98000
#
# Compressibility (1/GPa) = 0.02909060
#
# Stress axis : x y z
#
# Youngs Moduli (GPa) = 84.12878 89.84153 123.01172
#
# Poissons Ratio (x) = 0.01932 0.01452
# Poissons Ratio (y) = 0.01809 0.08549
# Poissons Ratio (z) = 0.00993 0.06244
#
# Static dielectric constant tensor:
#      x y z
#    x 1.918140 -0.026920 -0.047910 
#    y -0.026920 1.865710 0.009200 
#    z -0.047910 0.009200 2.005180 
# 
# From -- ./inp_files/101563.got.cif
#   From: 2010.05.17/outbox.cif.g08.bks.cpg/sg2_51_cif.got.tgz:101563.got - 2010.06.03 11:33:40.
