data_PCOD9051435
_publ_section_title
;
Structure prediction by ZEFSAII (Michael W. Deem and Ramdas Pophale) SiO2 
 PCOD9051435
Probable space group: P -1
;
_chemical_formula_sum "Si O2"
_cell_formula_units_Z 16
_cell_length_a 8.801074
_cell_length_b 24.985493
_cell_length_c 25.762135
_cell_angle_alpha 11.572782
_cell_angle_beta 138.679547
_cell_angle_gamma 139.120533
_cell_volume 741.497675
_symmetry_space_group_name_H-M "P -1"
_symmetry_group_IT_number 2
_symmetry_cell_setting 'triclinic'
loop_
_space_group_symop_operation_xyz
x,y,z
-x,-y,-z
loop_
_atom_site_type_symbol
_atom_site_label
_atom_site_fract_x
_atom_site_fract_y
_atom_site_fract_z
Si Si1 0.109493 0.142612 0.945872
Si Si2 0.660272 0.381913 0.610404
Si Si3 0.876046 0.758983 0.732546
Si Si4 0.065645 0.491884 0.230945
Si Si5 0.124039 0.918311 0.747638
Si Si6 0.348327 0.622941 0.687969
Si Si7 0.529422 0.766312 0.127371
Si Si8 0.352406 0.035949 0.204151
O O1 0.360374 0.276168 0.860593
O O2 0.920844 0.323068 0.746002
O O3 0.180649 0.954594 0.188694
O O4 0.000000 0.000000 0.000000
O O5 0.500000 0.500000 0.500000
O O6 0.670531 0.603075 0.357754
O O7 0.544325 0.081775 0.846237
O O8 0.608863 0.694772 0.708538
O O9 0.927649 0.846880 0.721407
O O10 0.000000 0.000000 0.500000
O O11 0.000000 0.500000 0.000000
O O12 0.826679 0.413410 0.274440
O O13 0.264174 0.627485 0.192339
O O14 0.129026 0.214558 0.489621
O O15 0.072373 0.701451 0.986311
O O16 0.377554 0.930971 0.774618
O O17 0.306773 0.844963 0.423735
O O18 0.315568 0.336254 0.923731
#
# Coordination Sequence:
#
# PCOD9051435 Si02
#       8
#     2   2   2   2   2   2   2   2
#     4  10  25  46  71 101 138 182 242 289 346 429
#     4  11  25  45  69 103 136 182 233 297 362 414
#     4  12  23  44  74 108 144 184 244 293 348 421
#     4  12  27  45  69 107 148 186 236 296 361 418
#     4  12  24  45  76 102 140 198 236 287 355 434
#     4  12  27  47  71 108 146 183 235 306 356 421
#     4  11  24  46  69  95 143 184 231 291 353 425
#     4  12  25  46  75 102 137 193 242 285 361 428
#
# _framework density 21.577950999999999
#
# number of rings (size 3 to 8) (size 9 to 14) (size 15 to 20)
#    0.000    0.500    3.750    3.750    3.500    3.000 
#    0.000    0.000    0.000    0.000    0.000    0.000 
#    0.000    0.000    0.000    0.000    0.000    0.000 
#
# Total GULP energy -89493.053284 kJ/mol
# GULP energy per Si atom -5593.315830 kJ/mol
# Density = 2.152884 g / cm^3
# Si number density = 21.577951 Si / 1000 Ang^3
#
#
#
# Elastic Constant Matrix: (Units=GPa)
#
#
# Indices 1 2 3 4 5 6 
#
# 1 62.6167 -11.3241 41.4826 21.0426 -18.6026 -11.2565
# 2 -11.3241 106.5720 36.8495 23.0347 -14.4114 -13.2163
# 3 41.4826 36.8495 129.3279 -7.5233 -20.7689 -1.2733
# 4 21.0426 23.0347 -7.5233 21.9099 -0.6633 13.1331
# 5 -18.6026 -14.4114 -20.7689 -0.6633 39.2205 -8.8580
# 6 -11.2565 -13.2163 -1.2733 13.1331 -8.8580 16.4653
#
#
#
# Elastic Compliance Matrix: (Units=1/GPa)
#
#
# Indices 1 2 3 4 5 6 
#
# 1 0.002684 -0.007213 0.001196 0.017681 -0.005125 -0.020722
# 2 -0.007213 0.003754 0.001082 0.010859 -0.004161 -0.012734
# 3 0.001196 0.001082 0.008029 -0.006030 0.007651 0.011233
# 4 0.017681 0.010859 -0.006030 -0.003421 0.016317 0.031845
# 5 -0.005125 -0.004161 0.007651 0.016317 0.024489 -0.006093
# 6 -0.020722 -0.012734 0.011233 0.031845 -0.006093 0.008537
#
#
# Mechanical properties :
#
#
# Convention : Reuss Voigt Hill
#
# Bulk Modulus (GPa) = 217.52583 48.05916 132.79249
# Shear Modulus (GPa) = 90.13229 30.95303 60.54266
#
# Velocity S-wave (km/s) = 6.47003 3.79156 5.30269
# Velocity P-wave (km/s) = 12.52370 6.44116 9.95820
#
# Compressibility (1/GPa) = 0.00459716
#
# Stress axis : x y z
#
# Youngs Moduli (GPa) = 372.53299 266.39545 124.54790
#
# Poissons Ratio (x) = 1.92140 -0.14891
# Poissons Ratio (y) = 2.68692 -0.13476
# Poissons Ratio (z) = -0.44539 -0.28823
#
# Static dielectric constant tensor:
#      x y z
#    x 1.710720 0.015610 -0.063860 
#    y 0.015610 1.854130 0.005650 
#    z -0.063860 0.005650 1.717370 
# 
# From -- ./inp_files/617692.got.cif
#   From: 2010.05.17/outbox.cif.g08.bks.cpg/sg2_309_cif.got.tgz:617692.got - 2010.06.03 11:33:40.
