data_PCOD9051456
_publ_section_title
;
Structure prediction by ZEFSAII (Michael W. Deem and Ramdas Pophale) SiO2 
 PCOD9051456
Probable space group: P -1
;
_chemical_formula_sum "Si O2"
_cell_formula_units_Z 14
_cell_length_a 5.045262
_cell_length_b 8.567031
_cell_length_c 16.819418
_cell_angle_alpha 54.202190
_cell_angle_beta 95.586462
_cell_angle_gamma 109.404993
_cell_volume 551.663398
_symmetry_space_group_name_H-M "P -1"
_symmetry_group_IT_number 2
_symmetry_cell_setting 'triclinic'
loop_
_space_group_symop_operation_xyz
x,y,z
-x,-y,-z
loop_
_atom_site_type_symbol
_atom_site_label
_atom_site_fract_x
_atom_site_fract_y
_atom_site_fract_z
Si Si1 0.828914 0.481633 0.081777
Si Si2 0.157688 0.017191 0.413789
Si Si3 0.810637 0.421985 0.440026
Si Si4 0.618291 0.364045 0.670718
Si Si5 0.280068 0.116735 0.024956
Si Si6 0.373521 0.923010 0.710188
Si Si7 0.723466 0.282881 0.852630
O O1 0.666659 0.245821 0.170690
O O2 0.002619 0.557135 0.147578
O O3 0.710944 0.667118 0.006390
O O4 0.000000 0.500000 0.000000
O O5 0.245029 0.815065 0.488170
O O6 0.447308 0.140227 0.336162
O O7 0.000000 0.000000 0.500000
O O8 0.918266 0.054492 0.338442
O O9 0.041101 0.533380 0.347093
O O10 0.000000 0.500000 0.500000
O O11 0.536146 0.487038 0.413746
O O12 0.541249 0.358731 0.763141
O O13 0.527913 0.151995 0.683002
O O14 0.266512 0.918988 0.134273
O O15 0.546618 0.192225 0.952645
O O16 0.000000 0.000000 0.000000
#
# Coordination Sequence:
#
# PCOD9051456 Si02
#       7
#     2   2   2   2   2   2   2
#     4  11  28  47  74 107 158 201 245 317 381 448
#     4  12  28  50  76 111 155 195 246 322 382 455
#     4  12  24  49  76 106 145 196 249 302 385 443
#     4  12  26  44  82 106 148 194 257 315 358 463
#     4   9  22  45  72  98 144 183 258 299 372 437
#     4  12  27  48  74 117 150 198 258 308 385 449
#     4  10  25  46  71 109 137 199 256 305 375 445
#
# _framework density 25.377794000000002
#
# number of rings (size 3 to 8) (size 9 to 14) (size 15 to 20)
#    0.000    0.857    2.857    1.714   14.000    1.714 
#    0.000    0.000    0.000    0.000    0.000    0.000 
#    0.000    0.000    0.000    0.000    0.000    0.000 
#
# Total GULP energy -77942.845844 kJ/mol
# GULP energy per Si atom -5567.346132 kJ/mol
# Density = 2.532003 g / cm^3
# Si number density = 25.377794 Si / 1000 Ang^3
#
#
#
# Elastic Constant Matrix: (Units=GPa)
#
#
# Indices 1 2 3 4 5 6 
#
# 1 108.5101 26.8193 27.6587 -6.4904 4.0115 -11.0788
# 2 26.8193 104.1664 47.5421 -19.1043 1.3391 -24.8541
# 3 27.6587 47.5421 129.4691 -11.4830 6.6861 -14.5734
# 4 -6.4904 -19.1043 -11.4830 40.7450 11.2877 1.6872
# 5 4.0115 1.3391 6.6861 11.2877 37.7571 -1.9418
# 6 -11.0788 -24.8541 -14.5734 1.6872 -1.9418 39.1553
#
#
#
# Elastic Compliance Matrix: (Units=1/GPa)
#
#
# Indices 1 2 3 4 5 6 
#
# 1 0.010151 -0.001543 -0.001342 0.000719 -0.000934 0.001316
# 2 -0.001543 0.014332 -0.003609 0.005434 -0.000968 0.007035
# 3 -0.001342 -0.003609 0.009626 0.001266 -0.001773 0.000770
# 4 0.000719 0.005434 0.001266 0.030057 -0.009357 0.002365
# 5 -0.000934 -0.000968 -0.001773 -0.009357 0.029748 0.000340
# 6 0.001316 0.007035 0.000770 0.002365 0.000340 0.030579
#
#
# Mechanical properties :
#
#
# Convention : Reuss Voigt Hill
#
# Bulk Modulus (GPa) = 47.34628 60.68731 54.01680
# Shear Modulus (GPa) = 34.59682 39.53983 37.06832
#
# Velocity S-wave (km/s) = 3.69626 3.95149 3.82600
# Velocity P-wave (km/s) = 6.07565 6.69213 6.39132
#
# Compressibility (1/GPa) = 0.02112098
#
# Stress axis : x y z
#
# Youngs Moduli (GPa) = 98.51186 69.77199 103.88100
#
# Poissons Ratio (x) = 0.10768 0.13938
# Poissons Ratio (y) = 0.15203 0.37495
# Poissons Ratio (z) = 0.13218 0.25184
#
# Static dielectric constant tensor:
#      x y z
#    x 2.113730 -0.020150 -0.113470 
#    y -0.020150 2.223050 -0.129470 
#    z -0.113470 -0.129470 2.191110 
# 
# From -- ./inp_files/547768.got.cif
#   From: 2010.05.17/outbox.cif.g08.bks.cpg/sg2_274_cif.got.tgz:547768.got - 2010.06.03 11:33:40.
