data_PCOD9051475
_publ_section_title
;
Structure prediction by ZEFSAII (Michael W. Deem and Ramdas Pophale) SiO2 
 PCOD9051475
Probable space group: P -1
;
_chemical_formula_sum "Si O2"
_cell_formula_units_Z 16
_cell_length_a 11.822337
_cell_length_b 9.407968
_cell_length_c 9.120316
_cell_angle_alpha 56.386664
_cell_angle_beta 126.656687
_cell_angle_gamma 104.860585
_cell_volume 673.535071
_symmetry_space_group_name_H-M "P -1"
_symmetry_group_IT_number 2
_symmetry_cell_setting 'triclinic'
loop_
_space_group_symop_operation_xyz
x,y,z
-x,-y,-z
loop_
_atom_site_type_symbol
_atom_site_label
_atom_site_fract_x
_atom_site_fract_y
_atom_site_fract_z
Si Si1 0.909675 0.379120 0.407622
Si Si2 0.206290 0.855905 0.001241
Si Si3 0.503322 0.314962 0.676656
Si Si4 0.963183 0.677666 0.782357
Si Si5 0.380548 0.385764 0.021510
Si Si6 0.148231 0.916072 0.241678
Si Si7 0.327823 0.192137 0.378199
Si Si8 0.383417 0.135764 0.915665
O O1 0.989440 0.334691 0.341687
O O2 0.764868 0.498368 0.193495
O O3 0.883954 0.215360 0.580828
O O4 0.000000 0.500000 0.500000
O O5 0.338858 0.732836 0.110176
O O6 0.218796 0.827176 0.201658
O O7 0.057731 0.812294 0.853045
O O8 0.241477 0.044229 0.873591
O O9 0.500000 0.500000 0.500000
O O10 0.462177 0.177006 0.600708
O O11 0.389656 0.302359 0.724397
O O12 0.800119 0.733847 0.657127
O O13 0.000000 0.500000 0.000000
O O14 0.409712 0.208834 0.053692
O O15 0.500000 0.500000 0.000000
O O16 0.368435 0.327099 0.212288
O O17 0.256434 0.042318 0.321566
O O18 0.000000 0.000000 0.000000
O O19 0.500000 0.000000 0.000000
#
# Coordination Sequence:
#
# PCOD9051475 Si02
#       8
#     2   2   2   2   2   2   2   2
#     4  12  30  47  78 111 149 200 253 312 381 450
#     4  11  25  46  75  99 153 199 246 311 374 454
#     4  11  26  44  70 109 145 193 254 308 376 444
#     4  12  25  47  75 107 149 197 257 307 380 453
#     4  12  27  49  76 111 153 195 252 311 376 451
#     4  12  26  49  72 110 151 197 252 314 383 443
#     4  12  26  46  74 105 151 199 244 316 378 445
#     4  10  25  46  72 103 151 198 242 306 379 446
#
# _framework density 23.755258999999999
#
# number of rings (size 3 to 8) (size 9 to 14) (size 15 to 20)
#    0.000    0.500    3.750    3.000   10.500    2.000 
#    0.000    0.000    0.000    0.000    0.000    0.000 
#    0.000    0.000    0.000    0.000    0.000    0.000 
#
# Total GULP energy -89452.717135 kJ/mol
# GULP energy per Si atom -5590.794821 kJ/mol
# Density = 2.370119 g / cm^3
# Si number density = 23.755259 Si / 1000 Ang^3
#
#
#
# Elastic Constant Matrix: (Units=GPa)
#
#
# Indices 1 2 3 4 5 6 
#
# 1 149.2269 42.9970 43.2105 5.9335 -37.7959 8.4998
# 2 42.9970 104.7822 15.2868 4.9415 -22.1327 8.5566
# 3 43.2105 15.2868 90.6958 0.8898 -34.7162 2.8673
# 4 5.9335 4.9415 0.8898 44.5764 9.2308 -12.2761
# 5 -37.7959 -22.1327 -34.7162 9.2308 54.8497 -3.9438
# 6 8.4998 8.5566 2.8673 -12.2761 -3.9438 47.7341
#
#
#
# Elastic Compliance Matrix: (Units=1/GPa)
#
#
# Indices 1 2 3 4 5 6 
#
# 1 0.009296 -0.002370 -0.002346 -0.002162 0.004235 -0.001295
# 2 -0.002370 0.011456 0.000684 -0.002265 0.003664 -0.001952
# 3 -0.002346 0.000684 0.015394 -0.001990 0.008708 -0.000422
# 4 -0.002162 -0.002265 -0.001990 0.026547 -0.007620 0.007108
# 5 0.004235 0.003664 0.008708 -0.007620 0.029316 -0.001471
# 6 -0.001295 -0.001952 -0.000422 0.007108 -0.001471 0.023262
#
#
# Mechanical properties :
#
#
# Convention : Reuss Voigt Hill
#
# Bulk Modulus (GPa) = 35.60879 60.85485 48.23182
# Shear Modulus (GPa) = 37.68017 45.64609 41.66313
#
# Velocity S-wave (km/s) = 3.98701 4.38826 4.19244
# Velocity P-wave (km/s) = 6.01809 7.16581 6.61688
#
# Compressibility (1/GPa) = 0.02808295
#
# Stress axis : x y z
#
# Youngs Moduli (GPa) = 107.57584 87.28794 64.95943
#
# Poissons Ratio (x) = 0.20687 0.15241
# Poissons Ratio (y) = 0.25495 -0.04446
# Poissons Ratio (z) = 0.25239 -0.05975
#
# Static dielectric constant tensor:
#      x y z
#    x 1.991100 0.050110 0.035200 
#    y 0.050110 2.116360 0.033140 
#    z 0.035200 0.033140 1.906390 
# 
# From -- ./inp_files/242705.got.cif
#   From: 2010.05.17/outbox.cif.g08.bks.cpg/sg2_122_cif.got.tgz:242705.got - 2010.06.03 11:33:40.
