data_PCOD9051272
_publ_section_title
;
Structure prediction by ZEFSAII (Michael W. Deem and Ramdas Pophale) SiO2 
 PCOD9051272
Probable space group: P -1
;
_chemical_formula_sum "Si O2"
_cell_formula_units_Z 12
_cell_length_a 21.793559
_cell_length_b 5.881668
_cell_length_c 12.808311
_cell_angle_alpha 115.761697
_cell_angle_beta 160.668575
_cell_angle_gamma 61.360666
_cell_volume 476.114804
_symmetry_space_group_name_H-M "P -1"
_symmetry_group_IT_number 2
_symmetry_cell_setting 'triclinic'
loop_
_space_group_symop_operation_xyz
x,y,z
-x,-y,-z
loop_
_atom_site_type_symbol
_atom_site_label
_atom_site_fract_x
_atom_site_fract_y
_atom_site_fract_z
Si Si1 0.641860 0.674304 0.732894
Si Si2 0.902592 0.775174 0.343975
Si Si3 0.320669 0.190776 0.807810
Si Si4 0.055179 0.995715 0.210010
Si Si5 0.321668 0.143522 0.378371
Si Si6 0.593236 0.485267 0.261402
O O1 0.500000 0.500000 0.500000
O O2 0.706968 0.632112 0.709754
O O3 0.517072 0.958184 0.620058
O O4 0.817444 0.661480 0.085383
O O5 0.754209 0.902627 0.223112
O O6 0.000000 0.500000 0.500000
O O7 0.000000 0.000000 0.500000
O O8 0.151108 0.216822 0.456242
O O9 0.415559 0.431426 0.033370
O O10 0.500000 0.000000 0.000000
O O11 0.215377 0.737832 0.451111
O O12 0.854836 0.988997 0.940449
O O13 0.000000 0.000000 0.000000
O O14 0.348626 0.255412 0.556704
O O15 0.500000 0.500000 0.000000
#
# Coordination Sequence:
#
# PCOD9051272 Si02
#       6
#     2   2   2   2   2   2
#     4  11  28  48  76 106 150 205 254 320 390 464
#     4  12  30  50  81 115 160 208 270 330 399 481
#     4  10  25  45  74 111 153 204 258 325 399 471
#     4  11  25  43  73 108 146 192 249 314 391 466
#     4  11  26  47  75 107 151 191 258 312 389 466
#     4  11  25  45  74 111 152 201 250 324 395 472
#
# _framework density 25.204007000000001
#
# number of rings (size 3 to 8) (size 9 to 14) (size 15 to 20)
#    0.000    1.000    0.000    3.500   21.000    1.333 
#    0.000    0.000    0.000    0.000    0.000    0.000 
#    0.000    0.000    0.000    0.000    0.000    0.000 
#
# Total GULP energy -66993.553836 kJ/mol
# GULP energy per Si atom -5582.796153 kJ/mol
# Density = 2.514664 g / cm^3
# Si number density = 25.204007 Si / 1000 Ang^3
#
#
#
# Elastic Constant Matrix: (Units=GPa)
#
#
# Indices 1 2 3 4 5 6 
#
# 1 132.6800 20.6178 40.8529 -7.1866 -2.7109 18.1768
# 2 20.6178 73.6299 45.8888 -5.6324 -2.4138 4.3529
# 3 40.8529 45.8888 177.1517 4.4614 -23.6558 7.5489
# 4 -7.1866 -5.6324 4.4614 53.7661 4.5723 8.4141
# 5 -2.7109 -2.4138 -23.6558 4.5723 50.2617 7.7555
# 6 18.1768 4.3529 7.5489 8.4141 7.7555 48.2009
#
#
#
# Elastic Compliance Matrix: (Units=1/GPa)
#
#
# Indices 1 2 3 4 5 6 
#
# 1 0.008748 -0.001109 -0.001636 0.001696 -0.000006 -0.003238
# 2 -0.001109 0.016720 -0.004290 0.002167 -0.001384 -0.000575
# 3 -0.001636 -0.004290 0.007664 -0.001526 0.003529 -0.000497
# 4 0.001696 0.002167 -0.001526 0.019922 -0.001750 -0.003792
# 5 -0.000006 -0.001384 0.003529 -0.001750 0.022219 -0.003695
# 6 -0.003238 -0.000575 -0.000497 -0.003792 -0.003695 0.023354
#
#
# Mechanical properties :
#
#
# Convention : Reuss Voigt Hill
#
# Bulk Modulus (GPa) = 52.45956 66.46451 59.46204
# Shear Modulus (GPa) = 41.99844 48.85255 45.42550
#
# Velocity S-wave (km/s) = 4.08651 4.40737 4.24997
# Velocity P-wave (km/s) = 6.56698 7.23379 6.90844
#
# Compressibility (1/GPa) = 0.01906230
#
# Stress axis : x y z
#
# Youngs Moduli (GPa) = 114.30869 59.80741 130.47637
#
# Poissons Ratio (x) = 0.06635 0.21341
# Poissons Ratio (y) = 0.12681 0.55978
# Poissons Ratio (z) = 0.18696 0.25659
#
# Static dielectric constant tensor:
#      x y z
#    x 2.106860 0.071210 -0.043570 
#    y 0.071210 2.303010 -0.115060 
#    z -0.043570 -0.115060 2.002070 
# 
# From -- ./inp_files/468421.got.cif
#   From: 2010.05.17/outbox.cif.g08.bks.cpg/sg2_235_cif.got.tgz:468421.got - 2010.06.03 11:33:40.
