data_PCOD9051828
_publ_section_title
;
Structure prediction by ZEFSAII (Michael W. Deem and Ramdas Pophale) SiO2 
 PCOD9051828
Probable space group: P -1
;
_chemical_formula_sum "Si O2"
_cell_formula_units_Z 14
_cell_length_a 14.407879
_cell_length_b 23.670261
_cell_length_c 10.827675
_cell_angle_alpha 32.032491
_cell_angle_beta 147.442872
_cell_angle_gamma 162.967112
_cell_volume 561.179642
_symmetry_space_group_name_H-M "P -1"
_symmetry_group_IT_number 2
_symmetry_cell_setting 'triclinic'
loop_
_space_group_symop_operation_xyz
x,y,z
-x,-y,-z
loop_
_atom_site_type_symbol
_atom_site_label
_atom_site_fract_x
_atom_site_fract_y
_atom_site_fract_z
Si Si1 0.492522 0.405672 0.998897
Si Si2 0.772920 0.149762 0.427601
Si Si3 0.310936 0.681409 0.104447
Si Si4 0.694113 0.920028 0.320383
Si Si5 0.491540 0.560731 0.502521
Si Si6 0.434423 0.135820 0.428293
Si Si7 0.024705 0.747593 0.145664
O O1 0.632543 0.563160 0.765017
O O2 0.147612 0.264696 0.926231
O O3 0.470276 0.274966 0.164799
O O4 0.732433 0.533573 0.146325
O O5 0.106906 0.361621 0.470070
O O6 0.500000 0.000000 0.500000
O O7 0.824207 0.066740 0.565166
O O8 0.645047 0.172110 0.148741
O O9 0.379708 0.715027 0.267878
O O10 0.569169 0.725779 0.271019
O O11 0.000000 0.500000 0.000000
O O12 0.629116 0.895407 0.438469
O O13 0.000000 0.000000 0.500000
O O14 0.801343 0.087242 0.067765
O O15 0.500000 0.500000 0.500000
O O16 0.748885 0.226226 0.596082
#
# Coordination Sequence:
#
# PCOD9051828 Si02
#       7
#     2   2   2   2   2   2   2
#     4  11  26  46  69 107 148 187 244 313 369 443
#     4  11  26  48  73 104 143 195 249 306 371 445
#     4  10  25  48  70 102 149 195 241 301 378 445
#     4  12  24  44  76 110 149 191 249 310 369 443
#     4  11  27  45  71 101 144 196 243 299 375 446
#     4  12  26  45  76 107 143 195 246 306 375 444
#     4  11  24  45  70 105 147 189 238 304 380 438
#
# _framework density 24.947447
#
# number of rings (size 3 to 8) (size 9 to 14) (size 15 to 20)
#    0.000    0.857    2.857    2.571    8.000    1.714 
#    5.143    0.000    0.000    0.000    0.000    0.000 
#    0.000    0.000    0.000    0.000    0.000    0.000 
#
# Total GULP energy -78211.817883 kJ/mol
# GULP energy per Si atom -5586.558420 kJ/mol
# Density = 2.489067 g / cm^3
# Si number density = 24.947447 Si / 1000 Ang^3
#
#
#
# Elastic Constant Matrix: (Units=GPa)
#
#
# Indices 1 2 3 4 5 6 
#
# 1 88.1829 11.8748 13.7177 5.3234 7.7309 -17.1479
# 2 11.8748 78.7707 14.6198 17.4952 4.0233 -14.9457
# 3 13.7177 14.6198 127.7695 -3.3637 27.2812 -17.2182
# 4 5.3234 17.4952 -3.3637 33.0711 -15.0360 4.8734
# 5 7.7309 4.0233 27.2812 -15.0360 47.5540 0.1397
# 6 -17.1479 -14.9457 -17.2182 4.8734 0.1397 36.1110
#
#
#
# Elastic Compliance Matrix: (Units=1/GPa)
#
#
# Indices 1 2 3 4 5 6 
#
# 1 0.013365 0.000828 0.000232 -0.005573 -0.004160 0.007568
# 2 0.000828 0.017727 0.000116 -0.013674 -0.006053 0.009654
# 3 0.000232 0.000116 0.009834 -0.002882 -0.006616 0.005262
# 4 -0.005573 -0.013674 -0.002882 0.049291 0.019349 -0.016407
# 5 -0.004160 -0.006053 -0.006616 0.019349 0.032161 -0.010371
# 6 0.007568 0.009654 0.005262 -0.016407 -0.010371 0.040045
#
#
# Mechanical properties :
#
#
# Convention : Reuss Voigt Hill
#
# Bulk Modulus (GPa) = 23.10609 41.68307 32.39458
# Shear Modulus (GPa) = 28.65380 40.31460 34.48420
#
# Velocity S-wave (km/s) = 3.39273 4.02429 3.72193
# Velocity P-wave (km/s) = 4.96281 6.19175 5.61103
#
# Compressibility (1/GPa) = 0.04327863
#
# Stress axis : x y z
#
# Youngs Moduli (GPa) = 74.82053 56.41239 101.68534
#
# Poissons Ratio (x) = -0.04673 -0.02356
# Poissons Ratio (y) = -0.06198 -0.01181
# Poissons Ratio (z) = -0.01734 -0.00655
#
# Static dielectric constant tensor:
#      x y z
#    x 1.977280 0.070800 0.136600 
#    y 0.070800 2.220210 0.202480 
#    z 0.136600 0.202480 2.383830 
# 
# From -- ./inp_files/279587.got.cif
#   From: 2010.05.17/outbox.cif.g08.bks.cpg/sg2_140_cif.got.tgz:279587.got - 2010.06.03 11:33:40.
