data_PCOD9051411
_publ_section_title
;
Structure prediction by ZEFSAII (Michael W. Deem and Ramdas Pophale) SiO2 
 PCOD9051411
Probable space group: P -1
;
_chemical_formula_sum "Si O2"
_cell_formula_units_Z 16
_cell_length_a 8.631578
_cell_length_b 15.701919
_cell_length_c 5.480885
_cell_angle_alpha 101.726131
_cell_angle_beta 80.226861
_cell_angle_gamma 71.211024
_cell_volume 666.040079
_symmetry_space_group_name_H-M "P -1"
_symmetry_group_IT_number 2
_symmetry_cell_setting 'triclinic'
loop_
_space_group_symop_operation_xyz
x,y,z
-x,-y,-z
loop_
_atom_site_type_symbol
_atom_site_label
_atom_site_fract_x
_atom_site_fract_y
_atom_site_fract_z
Si Si1 0.126329 0.868617 0.208706
Si Si2 0.335253 0.584188 0.766602
Si Si3 0.749148 0.005958 0.471742
Si Si4 0.536011 0.915711 0.752268
Si Si5 0.856553 0.243034 0.353235
Si Si6 0.306205 0.448358 0.330687
Si Si7 0.036081 0.586453 0.157100
Si Si8 0.196743 0.280564 0.359239
O O1 0.242091 0.928432 0.269183
O O2 0.145253 0.804232 0.410163
O O3 0.155065 0.817561 0.913402
O O4 0.936175 0.944967 0.301694
O O5 0.296488 0.658605 0.599050
O O6 0.343922 0.483456 0.605606
O O7 0.508191 0.575892 0.849231
O O8 0.165327 0.618528 0.989703
O O9 0.635603 0.071372 0.332026
O O10 0.661473 0.934572 0.532322
O O11 0.639159 0.812597 0.757429
O O12 0.500000 0.000000 0.000000
O O13 0.035849 0.258080 0.298047
O O14 0.149065 0.537076 0.331247
O O15 0.244228 0.362884 0.275632
O O16 0.870111 0.673010 0.329592
O O17 0.000000 0.500000 0.000000
#
# Coordination Sequence:
#
# PCOD9051411 Si02
#       8
#     2   2   2   2   2   2   2   2
#     4  11  26  46  77 106 144 198 249 309 381 446
#     4  11  25  44  70 101 149 187 244 308 368 438
#     4  10  25  46  70 104 146 192 245 317 374 445
#     4  11  25  47  72 107 150 192 250 315 376 449
#     4  12  25  45  73 111 146 193 256 304 371 464
#     4  11  25  45  67 106 143 194 243 310 369 444
#     4  12  23  46  72 104 145 199 245 304 375 457
#     4  12  24  46  74 106 146 197 255 304 383 453
#
# _framework density 24.022579
#
# number of rings (size 3 to 8) (size 9 to 14) (size 15 to 20)
#    0.000    0.750    3.750    3.000    3.500    1.000 
#    6.750    0.000    0.000    0.000    0.000    0.000 
#    0.000    0.000    0.000    0.000    0.000    0.000 
#
# Total GULP energy -89447.988837 kJ/mol
# GULP energy per Si atom -5590.499302 kJ/mol
# Density = 2.396790 g / cm^3
# Si number density = 24.022579 Si / 1000 Ang^3
#
#
#
# Elastic Constant Matrix: (Units=GPa)
#
#
# Indices 1 2 3 4 5 6 
#
# 1 83.0412 26.0312 27.3615 -6.1972 8.9254 3.5698
# 2 26.0312 114.4232 24.0165 10.1972 0.1975 -10.6390
# 3 27.3615 24.0165 84.8393 19.8193 15.7419 1.0194
# 4 -6.1972 10.1972 19.8193 39.3962 10.1230 -6.7014
# 5 8.9254 0.1975 15.7419 10.1230 35.7311 6.5020
# 6 3.5698 -10.6390 1.0194 -6.7014 6.5020 44.8553
#
#
#
# Elastic Compliance Matrix: (Units=1/GPa)
#
#
# Indices 1 2 3 4 5 6 
#
# 1 0.015553 -0.003098 -0.005037 0.006607 -0.003453 -0.000371
# 2 -0.003098 0.010201 -0.001684 -0.002374 0.001751 0.002096
# 3 -0.005037 -0.001684 0.016396 -0.007872 -0.003537 -0.001034
# 4 0.006607 -0.002374 -0.007872 0.034206 -0.008858 0.005484
# 5 -0.003453 0.001751 -0.003537 -0.008858 0.033903 -0.005467
# 6 -0.000371 0.002096 -0.001034 0.005484 -0.005467 0.024456
#
#
# Mechanical properties :
#
#
# Convention : Reuss Voigt Hill
#
# Bulk Modulus (GPa) = 44.42196 48.56911 46.49554
# Shear Modulus (GPa) = 30.89116 37.65615 34.27366
#
# Velocity S-wave (km/s) = 3.58987 3.96350 3.78130
# Velocity P-wave (km/s) = 5.97618 6.41933 6.20172
#
# Compressibility (1/GPa) = 0.02251139
#
# Stress axis : x y z
#
# Youngs Moduli (GPa) = 64.29467 98.02720 60.99038
#
# Poissons Ratio (x) = 0.30373 0.30723
# Poissons Ratio (y) = 0.19921 0.10270
# Poissons Ratio (z) = 0.32387 0.16507
#
# Static dielectric constant tensor:
#      x y z
#    x 1.920010 0.004140 -0.022090 
#    y 0.004140 1.945410 -0.009750 
#    z -0.022090 -0.009750 2.005410 
# 
# From -- ./inp_files/37952.got.cif
#   From: 2010.05.17/outbox.cif.g08.bks.cpg/sg2_19_cif.got.tgz:37952.got - 2010.06.03 11:33:40.
