data_PCOD9051733
_publ_section_title
;
Structure prediction by ZEFSAII (Michael W. Deem and Ramdas Pophale) SiO2 
 PCOD9051733
Probable space group: P -1
;
_chemical_formula_sum "Si O2"
_cell_formula_units_Z 16
_cell_length_a 28.026890
_cell_length_b 5.098143
_cell_length_c 12.463576
_cell_angle_alpha 54.609191
_cell_angle_beta 29.596486
_cell_angle_gamma 64.999666
_cell_volume 702.378051
_symmetry_space_group_name_H-M "P -1"
_symmetry_group_IT_number 2
_symmetry_cell_setting 'triclinic'
loop_
_space_group_symop_operation_xyz
x,y,z
-x,-y,-z
loop_
_atom_site_type_symbol
_atom_site_label
_atom_site_fract_x
_atom_site_fract_y
_atom_site_fract_z
Si Si1 0.889568 0.518599 0.480735
Si Si2 0.784363 0.952133 0.431089
Si Si3 0.549161 0.684222 0.966550
Si Si4 0.203549 0.293236 0.765507
Si Si5 0.402438 0.343514 0.493304
Si Si6 0.806496 0.751421 0.803422
Si Si7 0.601985 0.386953 0.338396
Si Si8 0.074895 0.281436 0.220289
O O1 0.850611 0.756847 0.418068
O O2 0.857866 0.606493 0.639928
O O3 0.005808 0.522332 0.257014
O O4 0.837928 0.143027 0.646660
O O5 0.667454 0.789334 0.709069
O O6 0.809293 0.921098 0.264850
O O7 0.803943 0.332554 0.335787
O O8 0.500000 0.500000 0.000000
O O9 0.507021 0.462658 0.203294
O O10 0.500000 0.000000 0.000000
O O11 0.313918 0.323508 0.587188
O O12 0.127748 0.168087 0.039828
O O13 0.383748 0.586243 0.566799
O O14 0.397358 0.969030 0.626703
O O15 0.841488 0.609126 0.879892
O O16 0.689919 0.639405 0.052223
O O17 0.500000 0.500000 0.500000
O O18 0.000000 0.000000 0.500000
#
# Coordination Sequence:
#
# PCOD9051733 Si02
#       8
#     2   2   2   2   2   2   2   2
#     4  11  26  45  69 101 136 182 223 293 343 395
#     4  12  26  44  68 103 140 178 228 280 338 405
#     4  12  23  41  65  95 131 177 225 261 325 401
#     4  12  25  45  72 100 136 180 228 280 337 410
#     4  12  24  44  66  98 138 182 223 279 333 407
#     4  11  24  45  70  98 139 177 233 279 344 412
#     4  12  27  41  66 103 136 179 222 281 349 395
#     4  10  25  47  74 100 132 178 235 283 349 406
#
# _framework density 22.779757
#
# number of rings (size 3 to 8) (size 9 to 14) (size 15 to 20)
#    0.000    0.500    3.750    3.750    5.250    3.000 
#    0.000    0.000    0.000    0.000    0.000    0.000 
#    0.000    0.000    0.000    0.000    0.000    0.000 
#
# Total GULP energy -89600.828033 kJ/mol
# GULP energy per Si atom -5600.051752 kJ/mol
# Density = 2.272791 g / cm^3
# Si number density = 22.779757 Si / 1000 Ang^3
#
#
#
# Elastic Constant Matrix: (Units=GPa)
#
#
# Indices 1 2 3 4 5 6 
#
# 1 58.9691 11.5047 6.4526 12.1614 -4.6128 -20.1528
# 2 11.5047 105.2829 6.9113 -1.2389 -13.4373 -7.4685
# 3 6.4526 6.9113 128.1186 15.8114 -7.8298 3.1215
# 4 12.1614 -1.2389 15.8114 40.9858 4.5303 2.1158
# 5 -4.6128 -13.4373 -7.8298 4.5303 33.9467 10.8066
# 6 -20.1528 -7.4685 3.1215 2.1158 10.8066 51.8641
#
#
#
# Elastic Compliance Matrix: (Units=1/GPa)
#
#
# Indices 1 2 3 4 5 6 
#
# 1 0.021639 -0.001778 -0.000331 -0.006824 0.000408 0.008366
# 2 -0.001778 0.010185 -0.000305 0.000550 0.003642 0.000013
# 3 -0.000331 -0.000305 0.008441 -0.003397 0.002578 -0.001079
# 4 -0.006824 0.000550 -0.003397 0.028377 -0.004453 -0.002598
# 5 0.000408 0.003642 0.002578 -0.004453 0.034186 -0.006414
# 6 0.008366 0.000013 -0.001079 -0.002598 -0.006414 0.024041
#
#
# Mechanical properties :
#
#
# Convention : Reuss Voigt Hill
#
# Bulk Modulus (GPa) = 28.21847 38.01197 33.11522
# Shear Modulus (GPa) = 34.84098 43.19279 39.01688
#
# Velocity S-wave (km/s) = 3.91509 4.35915 4.14307
# Velocity P-wave (km/s) = 5.73163 6.48531 6.12008
#
# Compressibility (1/GPa) = 0.03543779
#
# Stress axis : x y z
#
# Youngs Moduli (GPa) = 46.21226 98.18613 118.46288
#
# Poissons Ratio (x) = 0.17454 0.03917
# Poissons Ratio (y) = 0.08215 0.03619
# Poissons Ratio (z) = 0.01528 0.03000
#
# Static dielectric constant tensor:
#      x y z
#    x 1.867270 0.005650 0.003080 
#    y 0.005650 1.833670 -0.039620 
#    z 0.003080 -0.039620 1.845200 
# 
# From -- ./inp_files/475966.got.cif
#   From: 2010.05.17/outbox.cif.g08.bks.cpg/sg2_238_cif.got.tgz:475966.got - 2010.06.03 11:33:40.
