data_PCOD9051098
_publ_section_title
;
Structure prediction by ZEFSAII (Michael W. Deem and Ramdas Pophale) SiO2 
 PCOD9051098
Probable space group: P -1
;
_chemical_formula_sum "Si O2"
_cell_formula_units_Z 16
_cell_length_a 18.370197
_cell_length_b 11.735284
_cell_length_c 8.335598
_cell_angle_alpha 52.071180
_cell_angle_beta 126.551118
_cell_angle_gamma 150.546152
_cell_volume 688.499215
_symmetry_space_group_name_H-M "P -1"
_symmetry_group_IT_number 2
_symmetry_cell_setting 'triclinic'
loop_
_space_group_symop_operation_xyz
x,y,z
-x,-y,-z
loop_
_atom_site_type_symbol
_atom_site_label
_atom_site_fract_x
_atom_site_fract_y
_atom_site_fract_z
Si Si1 0.051325 0.477854 0.927863
Si Si2 0.350699 0.608371 0.372325
Si Si3 0.431672 0.325042 0.207378
Si Si4 0.979277 0.803016 0.651644
Si Si5 0.760080 0.043896 0.316406
Si Si6 0.569986 0.121807 0.310893
Si Si7 0.422845 0.592439 0.146405
Si Si8 0.197876 0.812196 0.397096
O O1 0.956216 0.394534 0.718660
O O2 0.213069 0.753951 0.875753
O O3 0.019122 0.271850 0.107069
O O4 0.000000 0.500000 0.000000
O O5 0.439597 0.600218 0.596076
O O6 0.464247 0.886148 0.267582
O O7 0.327982 0.522021 0.237035
O O8 0.196599 0.450736 0.398111
O O9 0.369675 0.372056 0.200174
O O10 0.311106 0.052684 0.229321
O O11 0.500000 0.500000 0.000000
O O12 0.111308 0.893547 0.646776
O O13 0.000000 0.000000 0.500000
O O14 0.789090 0.086825 0.506352
O O15 0.594125 0.790872 0.263495
O O16 0.500000 0.000000 0.500000
O O17 0.732823 0.256245 0.419784
O O18 0.576573 0.287430 0.098400
#
# Coordination Sequence:
#
# PCOD9051098 Si02
#       8
#     2   2   2   2   2   2   2   2
#     4  10  25  45  69  94 136 187 225 279 350 412
#     4  11  24  44  68 103 138 178 234 279 348 409
#     4  11  25  42  71 104 141 183 223 290 351 421
#     4  11  26  42  69  99 139 182 227 278 342 417
#     4  11  24  45  73  99 138 187 227 283 345 418
#     4  11  25  40  71 107 138 174 234 296 336 403
#     4  12  23  44  75 104 140 178 232 286 353 407
#     4  11  25  46  67 104 137 181 237 282 347 415
#
# _framework density 23.238952000000001
#
# number of rings (size 3 to 8) (size 9 to 14) (size 15 to 20)
#    0.000    1.000    2.500    4.125   15.750    0.000 
#    0.000    0.625    0.000    0.000    0.000    0.000 
#    0.000    0.000    0.000    0.000    0.000    0.000 
#
# Total GULP energy -89411.350324 kJ/mol
# GULP energy per Si atom -5588.209395 kJ/mol
# Density = 2.318606 g / cm^3
# Si number density = 23.238952 Si / 1000 Ang^3
#
#
#
# Elastic Constant Matrix: (Units=GPa)
#
#
# Indices 1 2 3 4 5 6 
#
# 1 94.5837 6.5595 30.4774 7.9964 12.0711 8.5844
# 2 6.5595 60.5994 27.0706 -7.2746 16.1613 1.2758
# 3 30.4774 27.0706 128.2385 -12.8623 24.1052 -5.6849
# 4 7.9964 -7.2746 -12.8623 35.5448 3.9327 0.5667
# 5 12.0711 16.1613 24.1052 3.9327 35.3063 1.9963
# 6 8.5844 1.2758 -5.6849 0.5667 1.9963 32.6844
#
#
#
# Elastic Compliance Matrix: (Units=1/GPa)
#
#
# Indices 1 2 3 4 5 6 
#
# 1 0.012447 0.000125 -0.003245 -0.003727 -0.001474 -0.003684
# 2 0.000125 0.020231 -0.002402 0.004150 -0.008080 -0.000819
# 3 -0.003245 -0.002402 0.010791 0.004742 -0.005862 0.003099
# 4 -0.003727 0.004150 0.004742 0.032349 -0.007554 0.001542
# 5 -0.001474 -0.008080 -0.005862 -0.007554 0.037510 -0.002477
# 6 -0.003684 -0.000819 0.003099 0.001542 -0.002477 0.032259
#
#
# Mechanical properties :
#
#
# Convention : Reuss Voigt Hill
#
# Bulk Modulus (GPa) = 30.83791 45.73739 38.28765
# Shear Modulus (GPa) = 29.86181 35.32805 32.59493
#
# Velocity S-wave (km/s) = 3.58856 3.90321 3.74919
# Velocity P-wave (km/s) = 5.51988 6.32752 5.93745
#
# Compressibility (1/GPa) = 0.03242762
#
# Stress axis : x y z
#
# Youngs Moduli (GPa) = 80.34056 49.42795 92.66907
#
# Poissons Ratio (x) = -0.00620 0.30068
# Poissons Ratio (y) = -0.01008 0.22258
# Poissons Ratio (z) = 0.26067 0.11872
#
# Static dielectric constant tensor:
#      x y z
#    x 1.960430 0.027970 -0.009330 
#    y 0.027970 1.871990 -0.015360 
#    z -0.009330 -0.015360 1.944100 
# 
# From -- ./inp_files/262825.got.cif
#   From: 2010.05.17/outbox.cif.g08.bks.cpg/sg2_132_cif.got.tgz:262825.got - 2010.06.03 11:33:40.
