data_PCOD9051179
_publ_section_title
;
Structure prediction by ZEFSAII (Michael W. Deem and Ramdas Pophale) SiO2 
 PCOD9051179
Probable space group: P -1
;
_chemical_formula_sum "Si O2"
_cell_formula_units_Z 16
_cell_length_a 12.466726
_cell_length_b 12.891668
_cell_length_c 4.930884
_cell_angle_alpha 76.750909
_cell_angle_beta 102.968737
_cell_angle_gamma 129.622770
_cell_volume 590.919548
_symmetry_space_group_name_H-M "P -1"
_symmetry_group_IT_number 2
_symmetry_cell_setting 'triclinic'
loop_
_space_group_symop_operation_xyz
x,y,z
-x,-y,-z
loop_
_atom_site_type_symbol
_atom_site_label
_atom_site_fract_x
_atom_site_fract_y
_atom_site_fract_z
Si Si1 0.290820 0.989647 0.543572
Si Si2 0.678457 0.458057 0.309575
Si Si3 0.728213 0.716858 0.971299
Si Si4 0.651586 0.104009 0.883169
Si Si5 0.994279 0.887083 0.398337
Si Si6 0.796948 0.368263 0.101217
Si Si7 0.956343 0.629463 0.695002
Si Si8 0.584470 0.722585 0.390199
O O1 0.256706 0.918264 0.857986
O O2 0.153062 0.959360 0.351757
O O3 0.399321 0.146273 0.587842
O O4 0.346558 0.937299 0.394090
O O5 0.680562 0.566754 0.072663
O O6 0.667495 0.343742 0.199617
O O7 0.832719 0.538459 0.468992
O O8 0.565607 0.404354 0.514069
O O9 0.880964 0.823132 0.129832
O O10 0.625060 0.724492 0.103195
O O11 0.699976 0.731646 0.637725
O O12 0.724947 0.261561 0.876176
O O13 0.500000 0.000000 0.000000
O O14 0.963875 0.761754 0.633831
O O15 0.000000 0.000000 0.500000
O O16 0.899539 0.343957 0.317541
O O17 0.897144 0.526045 0.974576
#
# Coordination Sequence:
#
# PCOD9051179 Si02
#       8
#     2   2   2   2   2   2   2   2
#     4  12  27  47  76 110 147 194 253 300 370 444
#     4  11  26  42  74 102 148 192 248 299 377 436
#     4  11  27  45  74 107 148 193 247 307 368 439
#     4  12  28  49  76 111 152 196 245 305 371 442
#     4  11  24  49  77 107 150 193 253 308 375 435
#     4  11  25  45  75 103 152 192 250 304 365 443
#     4  10  25  45  71 108 143 192 248 301 370 431
#     4  12  26  47  72 107 150 192 244 307 371 440
#
# _framework density 27.076443999999999
#
# number of rings (size 3 to 8) (size 9 to 14) (size 15 to 20)
#    0.000    0.750    2.500    3.000    8.750    5.500 
#    0.000    0.000    0.000    0.000    0.000    0.000 
#    0.000    0.000    0.000    0.000    0.000    0.000 
#
# Total GULP energy -89703.815238 kJ/mol
# GULP energy per Si atom -5606.488452 kJ/mol
# Density = 2.701482 g / cm^3
# Si number density = 27.076444 Si / 1000 Ang^3
#
#
#
# Elastic Constant Matrix: (Units=GPa)
#
#
# Indices 1 2 3 4 5 6 
#
# 1 133.6098 35.4262 21.1546 18.9795 -1.1234 -8.8290
# 2 35.4262 132.4997 17.4212 -1.0846 0.4264 -21.3469
# 3 21.1546 17.4212 83.1283 4.6042 4.4292 -11.9012
# 4 18.9795 -1.0846 4.6042 39.7487 -4.9754 -1.0725
# 5 -1.1234 0.4264 4.4292 -4.9754 41.9053 4.0375
# 6 -8.8290 -21.3469 -11.9012 -1.0725 4.0375 43.5906
#
#
#
# Elastic Compliance Matrix: (Units=1/GPa)
#
#
# Indices 1 2 3 4 5 6 
#
# 1 0.008908 -0.002176 -0.001545 -0.004139 -0.000089 0.000223
# 2 -0.002176 0.008852 -0.000835 0.001447 -0.000247 0.003724
# 3 -0.001545 -0.000835 0.013181 -0.000960 -0.001831 0.003023
# 4 -0.004139 0.001447 -0.000960 0.027693 0.003265 -0.000013
# 5 -0.000089 -0.000247 -0.001831 0.003265 0.024719 -0.002848
# 6 0.000223 0.003724 0.003023 -0.000013 -0.002848 0.025899
#
#
# Mechanical properties :
#
#
# Convention : Reuss Voigt Hill
#
# Bulk Modulus (GPa) = 45.81159 55.24907 50.53033
# Shear Modulus (GPa) = 39.79613 43.39800 41.59707
#
# Velocity S-wave (km/s) = 3.83792 4.00784 3.92380
# Velocity P-wave (km/s) = 6.04943 6.47041 6.26345
#
# Compressibility (1/GPa) = 0.02182854
#
# Stress axis : x y z
#
# Youngs Moduli (GPa) = 112.25775 112.97507 75.86532
#
# Poissons Ratio (x) = 0.24586 0.11721
# Poissons Ratio (y) = 0.24430 0.06334
# Poissons Ratio (z) = 0.17343 0.09433
#
# Static dielectric constant tensor:
#      x y z
#    x 2.169980 0.006980 0.022480 
#    y 0.006980 2.120830 -0.035300 
#    z 0.022480 -0.035300 2.107550 
# 
# From -- ./inp_files/69997.got.cif
#   From: 2010.05.17/outbox.cif.g08.bks.cpg/sg2_35_cif.got.tgz:69997.got - 2010.06.03 11:33:40.
