data_PCOD9051631
_publ_section_title
;
Structure prediction by ZEFSAII (Michael W. Deem and Ramdas Pophale) SiO2 
 PCOD9051631
Probable space group: P -1
;
_chemical_formula_sum "Si O2"
_cell_formula_units_Z 14
_cell_length_a 15.719274
_cell_length_b 6.416407
_cell_length_c 21.104751
_cell_angle_alpha 60.753347
_cell_angle_beta 18.354560
_cell_angle_gamma 54.098769
_cell_volume 523.324056
_symmetry_space_group_name_H-M "P -1"
_symmetry_group_IT_number 2
_symmetry_cell_setting 'triclinic'
loop_
_space_group_symop_operation_xyz
x,y,z
-x,-y,-z
loop_
_atom_site_type_symbol
_atom_site_label
_atom_site_fract_x
_atom_site_fract_y
_atom_site_fract_z
Si Si1 0.258821 0.224538 0.829933
Si Si2 0.468536 0.846314 0.903841
Si Si3 0.792526 0.108155 0.562105
Si Si4 0.657065 0.666551 0.605921
Si Si5 0.412948 0.300760 0.499451
Si Si6 0.087408 0.591462 0.793608
Si Si7 0.265154 0.735448 0.199574
O O1 0.561703 0.209753 0.650199
O O2 0.163658 0.304072 0.812807
O O3 0.360781 0.907778 0.810020
O O4 0.000000 0.500000 0.000000
O O5 0.504997 0.560236 0.895158
O O6 0.735760 0.890988 0.674887
O O7 0.407295 0.812372 0.026794
O O8 0.201387 0.132574 0.031034
O O9 0.700220 0.370513 0.630642
O O10 0.123094 0.966399 0.317967
O O11 0.610752 0.692088 0.559572
O O12 0.965673 0.694128 0.397350
O O13 0.116970 0.530446 0.707429
O O14 0.661729 0.356000 0.353348
O O15 0.500000 0.000000 0.500000
#
# Coordination Sequence:
#
# PCOD9051631 Si02
#       7
#     2   2   2   2   2   2   2
#     4  11  22  41  61  97 141 172 217 274 337 407
#     4  11  23  45  70  95 134 182 225 279 335 398
#     4  11  23  44  70  98 135 178 225 281 337 395
#     4  11  23  42  69  98 136 179 222 281 335 401
#     4  11  21  37  62  97 133 176 217 269 338 397
#     4  11  22  38  64  95 135 174 217 270 337 401
#     4  10  25  47  69  95 134 179 232 277 335 395
#
# _framework density 26.752068000000001
#
# number of rings (size 3 to 8) (size 9 to 14) (size 15 to 20)
#    0.000    1.143    4.286    2.143    4.000    1.143 
#    2.571   12.143    0.000    0.000    0.000    0.000 
#    0.000    0.000    0.000    0.000    0.000    0.000 
#
# Total GULP energy -78069.167594 kJ/mol
# GULP energy per Si atom -5576.369114 kJ/mol
# Density = 2.669118 g / cm^3
# Si number density = 26.752068 Si / 1000 Ang^3
#
#
#
# Elastic Constant Matrix: (Units=GPa)
#
#
# Indices 1 2 3 4 5 6 
#
# 1 86.7516 30.7164 26.7374 14.9796 9.6832 -10.8109
# 2 30.7164 139.4369 54.7402 22.3859 1.5218 -15.7647
# 3 26.7374 54.7402 110.0215 40.7339 21.2606 -1.4847
# 4 14.9796 22.3859 40.7339 65.4282 3.0000 5.7189
# 5 9.6832 1.5218 21.2606 3.0000 45.3740 10.4355
# 6 -10.8109 -15.7647 -1.4847 5.7189 10.4355 48.1713
#
#
#
# Elastic Compliance Matrix: (Units=1/GPa)
#
#
# Indices 1 2 3 4 5 6 
#
# 1 0.013589 -0.001872 -0.001012 -0.001991 -0.002988 0.003290
# 2 -0.001872 0.009650 -0.004518 -0.000336 0.001693 0.002272
# 3 -0.001012 -0.004518 0.015826 -0.007868 -0.006802 0.001189
# 4 -0.001991 -0.000336 -0.007868 0.020941 0.003677 -0.004082
# 5 -0.002988 0.001693 -0.006802 0.003677 0.027089 -0.006631
# 6 0.003290 0.002272 0.001189 -0.004082 -0.006631 0.024199
#
#
# Mechanical properties :
#
#
# Convention : Reuss Voigt Hill
#
# Bulk Modulus (GPa) = 41.21845 62.28867 51.75356
# Shear Modulus (GPa) = 37.26147 46.72910 41.99528
#
# Velocity S-wave (km/s) = 3.73613 4.18394 3.96636
# Velocity P-wave (km/s) = 5.83546 6.83189 6.35324
#
# Compressibility (1/GPa) = 0.02426098
#
# Stress axis : x y z
#
# Youngs Moduli (GPa) = 73.58782 103.62341 63.18556
#
# Poissons Ratio (x) = 0.19399 0.06395
# Poissons Ratio (y) = 0.13776 0.28550
# Poissons Ratio (z) = 0.07447 0.46821
#
# Static dielectric constant tensor:
#      x y z
#    x 2.179700 -0.071260 0.118650 
#    y -0.071260 2.214480 -0.112560 
#    z 0.118650 -0.112560 2.387850 
# 
# From -- ./inp_files/456678.got.cif
#   From: 2010.05.17/outbox.cif.g08.bks.cpg/sg2_229_cif.got.tgz:456678.got - 2010.06.03 11:33:40.
