data_PCOD9051017
_publ_section_title
;
Structure prediction by ZEFSAII (Michael W. Deem and Ramdas Pophale) SiO2 
 PCOD9051017
Probable space group: P -1
;
_chemical_formula_sum "Si O2"
_cell_formula_units_Z 16
_cell_length_a 9.920180
_cell_length_b 22.329705
_cell_length_c 9.160165
_cell_angle_alpha 122.775420
_cell_angle_beta 120.239010
_cell_angle_gamma 26.851598
_cell_volume 769.464006
_symmetry_space_group_name_H-M "P -1"
_symmetry_group_IT_number 2
_symmetry_cell_setting 'triclinic'
loop_
_space_group_symop_operation_xyz
x,y,z
-x,-y,-z
loop_
_atom_site_type_symbol
_atom_site_label
_atom_site_fract_x
_atom_site_fract_y
_atom_site_fract_z
Si Si1 0.542925 0.553607 0.998582
Si Si2 0.117144 0.341306 0.844669
Si Si3 0.840002 0.578281 0.306817
Si Si4 0.682533 0.117228 0.557691
Si Si5 0.459116 0.288046 0.218467
Si Si6 0.646727 0.879666 0.511318
Si Si7 0.903734 0.211864 0.164616
Si Si8 0.937754 0.994717 0.119744
O O1 0.798734 0.444519 0.872866
O O2 0.255920 0.688368 0.926584
O O3 0.500000 0.500000 0.000000
O O4 0.661942 0.573724 0.186407
O O5 0.100422 0.410057 0.805672
O O6 0.242571 0.223224 0.676987
O O7 0.307362 0.296837 0.024766
O O8 0.607208 0.725142 0.442348
O O9 0.182814 0.429507 0.345850
O O10 0.591041 0.070607 0.455123
O O11 0.770542 0.111274 0.760385
O O12 0.000000 0.000000 0.500000
O O13 0.659799 0.267701 0.212152
O O14 0.679679 0.147931 0.238291
O O15 0.908337 0.808105 0.660037
O O16 0.500000 0.000000 0.500000
O O17 0.114260 0.068092 0.020519
O O18 0.000000 0.000000 0.000000
#
# Coordination Sequence:
#
# PCOD9051017 Si02
#       8
#     2   2   2   2   2   2   2   2
#     4  11  21  36  60  94 130 166 204 262 315 367
#     4  10  19  38  63  87 122 166 211 252 314 371
#     4  10  18  40  65  85 116 168 218 249 309 380
#     4  11  24  44  64  86 130 171 202 262 335 379
#     4  10  17  34  68  95 112 160 223 261 288 380
#     4  11  23  39  63  94 126 162 209 267 323 377
#     4  11  19  37  63  96 128 156 211 267 307 368
#     4  10  19  37  67  92 116 166 220 252 302 387
#
# _framework density 20.793693999999999
#
# number of rings (size 3 to 8) (size 9 to 14) (size 15 to 20)
#    0.000    1.500    3.750    5.250    0.000    1.500 
#    4.500    1.250    0.000    0.000    0.000    0.000 
#    0.000    0.000    0.000    0.000    0.000    0.000 
#
# Total GULP energy -89286.678693 kJ/mol
# GULP energy per Si atom -5580.417418 kJ/mol
# Density = 2.074637 g / cm^3
# Si number density = 20.793694 Si / 1000 Ang^3
#
#
#
# Elastic Constant Matrix: (Units=GPa)
#
#
# Indices 1 2 3 4 5 6 
#
# 1 145.7602 58.0534 28.1621 12.5916 19.2910 6.4207
# 2 58.0534 131.6637 12.4559 14.7340 -1.6233 2.5026
# 3 28.1621 12.4559 47.5053 -0.7069 14.6858 -2.7345
# 4 12.5916 14.7340 -0.7069 27.8026 -1.4290 2.1406
# 5 19.2910 -1.6233 14.6858 -1.4290 31.3904 3.7934
# 6 6.4207 2.5026 -2.7345 2.1406 3.7934 32.9994
#
#
#
# Elastic Compliance Matrix: (Units=1/GPa)
#
#
# Indices 1 2 3 4 5 6 
#
# 1 0.009963 -0.003778 -0.003604 -0.002743 -0.004607 -0.001243
# 2 -0.003778 0.009819 -0.001451 -0.003331 0.003393 -0.000304
# 3 -0.003604 -0.001451 0.027246 0.002205 -0.011013 0.004192
# 4 -0.002743 -0.003331 0.002205 0.039304 0.002497 -0.001868
# 5 -0.004607 0.003393 -0.011013 0.002497 0.040748 -0.005120
# 6 -0.001243 -0.000304 0.004192 -0.001868 -0.005120 0.031626
#
#
# Mechanical properties :
#
#
# Convention : Reuss Voigt Hill
#
# Bulk Modulus (GPa) = 34.05776 58.03022 46.04399
# Shear Modulus (GPa) = 26.85890 33.52234 30.19062
#
# Velocity S-wave (km/s) = 3.59790 4.01950 3.81453
# Velocity P-wave (km/s) = 5.80296 7.03634 6.44920
#
# Compressibility (1/GPa) = 0.02936189
#
# Stress axis : x y z
#
# Youngs Moduli (GPa) = 100.37089 101.84678 36.70278
#
# Poissons Ratio (x) = 0.38480 0.13227
# Poissons Ratio (y) = 0.37922 0.05325
# Poissons Ratio (z) = 0.36172 0.14776
#
# Static dielectric constant tensor:
#      x y z
#    x 1.755860 -0.012510 -0.042980 
#    y -0.012510 1.858860 0.050300 
#    z -0.042980 0.050300 1.758810 
# 
# From -- ./inp_files/202102.got.cif
#   From: 2010.05.17/outbox.cif.g08.bks.cpg/sg2_102_cif.got.tgz:202102.got - 2010.06.03 11:33:40.
