data_PCOD9051773
_publ_section_title
;
Structure prediction by ZEFSAII (Michael W. Deem and Ramdas Pophale) SiO2 
 PCOD9051773
Probable space group: P -1
;
_chemical_formula_sum "Si O2"
_cell_formula_units_Z 10
_cell_length_a 11.218071
_cell_length_b 9.622447
_cell_length_c 8.598489
_cell_angle_alpha 147.563330
_cell_angle_beta 62.670705
_cell_angle_gamma 121.166245
_cell_volume 425.480453
_symmetry_space_group_name_H-M "P -1"
_symmetry_group_IT_number 2
_symmetry_cell_setting 'triclinic'
loop_
_space_group_symop_operation_xyz
x,y,z
-x,-y,-z
loop_
_atom_site_type_symbol
_atom_site_label
_atom_site_fract_x
_atom_site_fract_y
_atom_site_fract_z
Si Si1 0.481486 0.615525 0.450964
Si Si2 0.910606 0.412621 0.816028
Si Si3 0.017648 0.981604 0.154689
Si Si4 0.349033 0.001618 0.518549
Si Si5 0.692765 0.958729 0.074490
O O1 0.500000 0.500000 0.500000
O O2 0.613035 0.746056 0.383712
O O3 0.405053 0.852584 0.735542
O O4 0.385408 0.356405 0.177353
O O5 0.748700 0.240166 0.752360
O O6 0.989003 0.224462 0.497869
O O7 0.000000 0.500000 0.000000
O O8 0.922889 0.694295 0.992369
O O9 0.180400 0.986554 0.070493
O O10 0.000000 0.000000 0.000000
O O11 0.500000 0.000000 0.500000
O O12 0.266384 0.983900 0.714435
#
# Coordination Sequence:
#
# PCOD9051773 Si02
#       5
#     2   2   2   2   2
#     4  11  25  45  73 107 149 191 245 310 373 435
#     4  12  28  49  75 111 153 195 246 314 377 438
#     4  12  26  48  78 106 150 198 251 305 370 452
#     4  10  25  47  76 105 148 195 251 299 371 448
#     4  11  24  46  73 107 143 195 249 302 367 448
#
# _framework density 23.502841
#
# number of rings (size 3 to 8) (size 9 to 14) (size 15 to 20)
#    0.000    0.800    2.000    3.600    8.400    3.200 
#   10.800    0.000    0.000    0.000    0.000    0.000 
#    0.000    0.000    0.000    0.000    0.000    0.000 
#
# Total GULP energy -55872.227626 kJ/mol
# GULP energy per Si atom -5587.222763 kJ/mol
# Density = 2.344935 g / cm^3
# Si number density = 23.502841 Si / 1000 Ang^3
#
#
#
# Elastic Constant Matrix: (Units=GPa)
#
#
# Indices 1 2 3 4 5 6 
#
# 1 98.1312 50.1423 41.5873 -4.9634 14.3027 6.4922
# 2 50.1423 107.7559 16.7899 18.2189 9.2545 -9.8312
# 3 41.5873 16.7899 119.7682 -0.5998 7.8129 18.2914
# 4 -4.9634 18.2189 -0.5998 58.6672 5.4789 18.5528
# 5 14.3027 9.2545 7.8129 5.4789 60.9307 -6.9333
# 6 6.4922 -9.8312 18.2914 18.5528 -6.9333 57.2885
#
#
#
# Elastic Compliance Matrix: (Units=1/GPa)
#
#
# Indices 1 2 3 4 5 6 
#
# 1 0.017255 -0.008528 -0.003873 0.005784 -0.003285 -0.004453
# 2 -0.008528 0.014998 -0.000189 -0.007427 0.001115 0.006141
# 3 -0.003873 -0.000189 0.010282 0.000954 -0.000841 -0.003287
# 4 0.005784 -0.007427 0.000954 0.023435 -0.003627 -0.010263
# 5 -0.003285 0.001115 -0.000841 -0.003627 0.017923 0.004176
# 6 -0.004453 0.006141 -0.003287 -0.010263 0.004176 0.023893
#
#
# Mechanical properties :
#
#
# Convention : Reuss Voigt Hill
#
# Bulk Modulus (GPa) = 57.61596 60.29939 58.95767
# Shear Modulus (GPa) = 36.03558 49.85301 42.94429
#
# Velocity S-wave (km/s) = 3.91991 4.61059 4.27921
# Velocity P-wave (km/s) = 6.71233 7.35223 7.03955
#
# Compressibility (1/GPa) = 0.01735630
#
# Stress axis : x y z
#
# Youngs Moduli (GPa) = 57.95352 66.67406 97.25393
#
# Poissons Ratio (x) = 0.56860 0.37663
# Poissons Ratio (y) = 0.49423 0.01840
# Poissons Ratio (z) = 0.22443 0.01261
#
# Static dielectric constant tensor:
#      x y z
#    x 2.072620 0.074550 -0.024940 
#    y 0.074550 1.887810 -0.054230 
#    z -0.024940 -0.054230 1.865370 
# 
# From -- ./inp_files/25999.got.cif
#   From: 2010.05.17/outbox.cif.g08.bks.cpg/sg2_13_cif.got.tgz:25999.got - 2010.06.03 11:33:40.
