data_PCOD9051214
_publ_section_title
;
Structure prediction by ZEFSAII (Michael W. Deem and Ramdas Pophale) SiO2 
 PCOD9051214
Probable space group: P -1
;
_chemical_formula_sum "Si O2"
_cell_formula_units_Z 11
_cell_length_a 7.716247
_cell_length_b 13.018800
_cell_length_c 8.019652
_cell_angle_alpha 111.356286
_cell_angle_beta 146.521675
_cell_angle_gamma 69.599169
_cell_volume 412.305293
_symmetry_space_group_name_H-M "P -1"
_symmetry_group_IT_number 2
_symmetry_cell_setting 'triclinic'
loop_
_space_group_symop_operation_xyz
x,y,z
-x,-y,-z
loop_
_atom_site_type_symbol
_atom_site_label
_atom_site_fract_x
_atom_site_fract_y
_atom_site_fract_z
Si Si1 0.069873 0.524583 0.761337
Si Si2 0.245870 0.768659 0.114668
Si Si3 0.000000 0.000000 0.500000
Si Si4 0.544288 0.391385 0.295574
Si Si5 0.012796 0.238206 0.753462
Si Si6 0.764853 0.907091 0.594529
O O1 0.148755 0.649627 0.915384
O O2 0.000000 0.500000 0.500000
O O3 0.752417 0.491748 0.585925
O O4 0.366328 0.449542 0.028878
O O5 0.984909 0.860618 0.892735
O O6 0.572971 0.802895 0.325039
O O7 0.251084 0.769178 0.319496
O O8 0.850339 0.885384 0.246112
O O9 0.956979 0.957570 0.631805
O O10 0.834177 0.295158 0.483434
O O11 0.259689 0.317444 0.073986
O O12 0.500000 0.000000 0.500000
#
# Coordination Sequence:
#
# PCOD9051214 Si02
#       6
#     2   2   1   2   2   2
#     4  11  25  45  71 110 151 201 243 317 375 447
#     4  12  27  49  78 109 157 193 255 315 382 445
#     4  12  30  48  82 108 156 202 252 312 390 444
#     4  10  25  45  72 106 151 191 257 299 376 454
#     4  11  26  46  74 113 145 203 246 314 375 448
#     4  12  28  51  76 115 150 201 254 317 377 457
#
# _framework density 26.679259999999999
#
# number of rings (size 3 to 8) (size 9 to 14) (size 15 to 20)
#    0.000    0.727    1.818    3.273    7.636    5.818 
#    0.000    0.000    0.000    0.000    0.000    0.000 
#    0.000    0.000    0.000    0.000    0.000    0.000 
#
# Total GULP energy -61237.389833 kJ/mol
# GULP energy per Si atom -5567.035439 kJ/mol
# Density = 2.661854 g / cm^3
# Si number density = 26.679260 Si / 1000 Ang^3
#
#
#
# Elastic Constant Matrix: (Units=GPa)
#
#
# Indices 1 2 3 4 5 6 
#
# 1 67.6183 59.0864 38.3972 -5.0814 3.3912 29.5677
# 2 59.0864 173.1318 72.8038 19.5501 -3.2478 35.6828
# 3 38.3972 72.8038 156.7052 -4.0816 16.5717 16.1004
# 4 -5.0814 19.5501 -4.0816 63.0337 2.1306 8.3450
# 5 3.3912 -3.2478 16.5717 2.1306 38.5274 19.4736
# 6 29.5677 35.6828 16.1004 8.3450 19.4736 32.2805
#
#
#
# Elastic Compliance Matrix: (Units=1/GPa)
#
#
# Indices 1 2 3 4 5 6 
#
# 1 0.040481 -0.001909 -0.006278 0.009016 0.022656 -0.047835
# 2 -0.001909 0.012106 -0.004831 -0.002576 0.011128 -0.015270
# 3 -0.006278 -0.004831 0.010012 0.000368 -0.010381 0.012265
# 4 0.009016 -0.002576 0.000368 0.019010 0.004447 -0.013192
# 5 0.022656 0.011128 -0.010381 0.004447 0.062998 -0.067029
# 6 -0.047835 -0.015270 0.012265 -0.013192 -0.067029 0.129402
#
#
# Mechanical properties :
#
#
# Convention : Reuss Voigt Hill
#
# Bulk Modulus (GPa) = 27.35209 82.00335 54.67772
# Shear Modulus (GPa) = 16.01368 41.91285 28.96326
#
# Velocity S-wave (km/s) = 2.45262 3.96787 3.29843
# Velocity P-wave (km/s) = 4.27725 7.19691 5.91990
#
# Compressibility (1/GPa) = 0.03656027
#
# Stress axis : x y z
#
# Youngs Moduli (GPa) = 24.70317 82.60269 99.88434
#
# Poissons Ratio (x) = 0.15773 0.62709
# Poissons Ratio (y) = 0.04717 0.48259
# Poissons Ratio (z) = 0.15509 0.39909
#
# Static dielectric constant tensor:
#      x y z
#    x 2.238610 -0.059600 0.022040 
#    y -0.059600 2.080790 0.048790 
#    z 0.022040 0.048790 2.048950 
# 
# From -- ./inp_files/182142.got.cif
#   From: 2010.05.17/outbox.cif.g08.bks.cpg/sg2_92_cif.got.tgz:182142.got - 2010.06.03 11:33:40.
