data_PCOD9051405
_publ_section_title
;
Structure prediction by ZEFSAII (Michael W. Deem and Ramdas Pophale) SiO2 
 PCOD9051405
Probable space group: P -1
;
_chemical_formula_sum "Si O2"
_cell_formula_units_Z 12
_cell_length_a 11.545200
_cell_length_b 5.804854
_cell_length_c 8.623685
_cell_angle_alpha 90.705042
_cell_angle_beta 110.264301
_cell_angle_gamma 108.425959
_cell_volume 509.538511
_symmetry_space_group_name_H-M "P -1"
_symmetry_group_IT_number 2
_symmetry_cell_setting 'triclinic'
loop_
_space_group_symop_operation_xyz
x,y,z
-x,-y,-z
loop_
_atom_site_type_symbol
_atom_site_label
_atom_site_fract_x
_atom_site_fract_y
_atom_site_fract_z
Si Si1 0.429205 0.638044 0.355990
Si Si2 0.027196 0.963321 0.247714
Si Si3 0.380975 0.862179 0.633408
Si Si4 0.793379 0.749544 0.944890
Si Si5 0.900113 0.237575 0.408880
Si Si6 0.545267 0.776778 0.955492
O O1 0.500000 0.500000 0.500000
O O2 0.363430 0.779383 0.446389
O O3 0.312976 0.487506 0.185674
O O4 0.547313 0.846038 0.326580
O O5 0.953865 0.141944 0.282686
O O6 0.096578 0.916040 0.434420
O O7 0.909832 0.737819 0.113210
O O8 0.130737 0.083966 0.162063
O O9 0.247860 0.770378 0.666807
O O10 0.479749 0.746127 0.755843
O O11 0.700659 0.859255 0.002650
O O12 0.000000 0.500000 0.500000
O O13 0.500000 0.500000 0.000000
O O14 0.500000 0.000000 0.000000
#
# Coordination Sequence:
#
# PCOD9051405 Si02
#       6
#     2   2   2   2   2   2
#     4  11  22  43  71 106 141 190 239 312 372 444
#     4  10  25  46  70 102 142 191 246 299 360 452
#     4  11  25  42  71 107 142 188 251 303 377 443
#     4  11  23  48  73 102 143 192 246 302 372 442
#     4  11  24  46  71 101 143 189 241 301 369 439
#     4  12  27  46  73 110 150 193 244 317 378 445
#
# _framework density 23.550723000000001
#
# number of rings (size 3 to 8) (size 9 to 14) (size 15 to 20)
#    0.000    1.000    1.667    4.000    4.667    1.333 
#    6.000    2.500    0.000    0.000    0.000    0.000 
#    0.000    0.000    0.000    0.000    0.000    0.000 
#
# Total GULP energy -67001.191837 kJ/mol
# GULP energy per Si atom -5583.432653 kJ/mol
# Density = 2.349712 g / cm^3
# Si number density = 23.550723 Si / 1000 Ang^3
#
#
#
# Elastic Constant Matrix: (Units=GPa)
#
#
# Indices 1 2 3 4 5 6 
#
# 1 92.9575 25.3122 -4.6646 6.1662 -14.2547 27.1673
# 2 25.3122 105.4014 27.3276 15.7893 -4.2010 12.3477
# 3 -4.6646 27.3276 69.0563 20.6351 -3.1686 -1.6125
# 4 6.1662 15.7893 20.6351 56.2083 1.7555 -1.4513
# 5 -14.2547 -4.2010 -3.1686 1.7555 43.4890 5.8754
# 6 27.1673 12.3477 -1.6125 -1.4513 5.8754 33.9144
#
#
#
# Elastic Compliance Matrix: (Units=1/GPa)
#
#
# Indices 1 2 3 4 5 6 
#
# 1 0.017044 -0.002499 0.003019 -0.002875 0.007578 -0.014036
# 2 -0.002499 0.011785 -0.004429 -0.001491 0.000413 -0.002635
# 3 0.003019 -0.004429 0.018284 -0.005883 0.002209 -0.000571
# 4 -0.002875 -0.001491 -0.005883 0.020878 -0.002893 0.003961
# 5 0.007578 0.000413 0.002209 -0.002893 0.027277 -0.010965
# 6 -0.014036 -0.002635 -0.000571 0.003961 -0.010965 0.043731
#
#
# Mechanical properties :
#
#
# Convention : Reuss Voigt Hill
#
# Bulk Modulus (GPa) = 25.44874 40.37395 32.91134
# Shear Modulus (GPa) = 31.26684 41.35167 36.30925
#
# Velocity S-wave (km/s) = 3.64763 4.19484 3.93077
# Velocity P-wave (km/s) = 5.34506 6.37517 5.88271
#
# Compressibility (1/GPa) = 0.03929467
#
# Stress axis : x y z
#
# Youngs Moduli (GPa) = 58.67040 84.85700 54.69370
#
# Poissons Ratio (x) = 0.21206 -0.16514
# Poissons Ratio (y) = 0.14662 0.24226
# Poissons Ratio (z) = -0.17715 0.37586
#
# Static dielectric constant tensor:
#      x y z
#    x 1.862510 -0.029680 -0.072210 
#    y -0.029680 1.902160 0.021500 
#    z -0.072210 0.021500 2.001190 
# 
# From -- ./inp_files/229666.got.cif
#   From: 2010.05.17/outbox.cif.g08.bks.cpg/sg2_115_cif.got.tgz:229666.got - 2010.06.03 11:33:40.
