data_PCOD9051581
_publ_section_title
;
Structure prediction by ZEFSAII (Michael W. Deem and Ramdas Pophale) SiO2 
 PCOD9051581
Probable space group: P -1
;
_chemical_formula_sum "Si O2"
_cell_formula_units_Z 10
_cell_length_a 5.586797
_cell_length_b 8.061395
_cell_length_c 9.573248
_cell_angle_alpha 60.087819
_cell_angle_beta 83.273335
_cell_angle_gamma 89.098404
_cell_volume 370.691316
_symmetry_space_group_name_H-M "P -1"
_symmetry_group_IT_number 2
_symmetry_cell_setting 'triclinic'
loop_
_space_group_symop_operation_xyz
x,y,z
-x,-y,-z
loop_
_atom_site_type_symbol
_atom_site_label
_atom_site_fract_x
_atom_site_fract_y
_atom_site_fract_z
Si Si1 0.477708 0.647238 0.313629
Si Si2 0.401090 0.034238 0.644943
Si Si3 0.907157 0.627594 0.579505
Si Si4 0.043184 0.707353 0.840776
Si Si5 0.245170 0.104331 0.000175
O O1 0.500000 0.500000 0.500000
O O2 0.416386 0.838360 0.322673
O O3 0.706969 0.709353 0.180227
O O4 0.293742 0.527350 0.278623
O O5 0.192646 0.184020 0.564718
O O6 0.500000 0.000000 0.500000
O O7 0.824681 0.824273 0.871554
O O8 0.000000 0.500000 0.500000
O O9 0.051550 0.693829 0.678141
O O10 0.283717 0.840933 0.801259
O O11 0.000000 0.500000 0.000000
O O12 0.500000 0.000000 0.000000
O O13 0.000000 0.000000 0.000000
#
# Coordination Sequence:
#
# PCOD9051581 Si02
#       5
#     2   2   2   2   2
#     4  10  25  46  79 109 160 212 274 328 414 484
#     4  11  25  48  76 109 157 214 277 331 409 496
#     4  11  27  47  79 114 158 215 272 340 409 497
#     4  12  30  48  79 120 167 211 281 338 419 485
#     4  12  30  54  83 118 170 222 273 348 420 488
#
# _framework density 26.976624999999999
#
# number of rings (size 3 to 8) (size 9 to 14) (size 15 to 20)
#    0.000    0.800    2.000    1.800   19.600    0.800 
#    0.000    0.000    0.000    0.000    0.000    0.000 
#    0.000    0.000    0.000    0.000    0.000    0.000 
#
# Total GULP energy -55870.798659 kJ/mol
# GULP energy per Si atom -5587.079866 kJ/mol
# Density = 2.691523 g / cm^3
# Si number density = 26.976625 Si / 1000 Ang^3
#
#
#
# Elastic Constant Matrix: (Units=GPa)
#
#
# Indices 1 2 3 4 5 6 
#
# 1 137.5369 39.5781 14.5656 -22.3636 -25.4877 19.5342
# 2 39.5781 157.5929 41.6548 -3.5790 1.0492 -13.8573
# 3 14.5656 41.6548 102.5524 -8.1023 -29.4580 -8.3019
# 4 -22.3636 -3.5790 -8.1023 62.6056 6.3168 -10.3954
# 5 -25.4877 1.0492 -29.4580 6.3168 58.4244 -8.1425
# 6 19.5342 -13.8573 -8.3019 -10.3954 -8.1425 66.9100
#
#
#
# Elastic Compliance Matrix: (Units=1/GPa)
#
#
# Indices 1 2 3 4 5 6 
#
# 1 0.009480 -0.002815 0.000981 0.002553 0.004079 -0.002336
# 2 -0.002815 0.008176 -0.003672 -0.000445 -0.002951 0.001631
# 3 0.000981 -0.003672 0.013477 0.001430 0.007378 0.001745
# 4 0.002553 -0.000445 0.001430 0.017362 0.000254 0.002068
# 5 0.004079 -0.002951 0.007378 0.000254 0.022912 0.001941
# 6 -0.002336 0.001631 0.001745 0.002068 0.001941 0.016739
#
#
# Mechanical properties :
#
#
# Convention : Reuss Voigt Hill
#
# Bulk Modulus (GPa) = 49.69746 65.47547 57.58646
# Shear Modulus (GPa) = 47.23091 57.71359 52.47225
#
# Velocity S-wave (km/s) = 4.18881 4.63037 4.41511
# Velocity P-wave (km/s) = 6.46971 7.27400 6.88361
#
# Compressibility (1/GPa) = 0.02012175
#
# Stress axis : x y z
#
# Youngs Moduli (GPa) = 105.48982 122.31182 74.20263
#
# Poissons Ratio (x) = 0.34426 -0.07281
# Poissons Ratio (y) = 0.29692 0.27245
# Poissons Ratio (z) = -0.10351 0.44910
#
# Static dielectric constant tensor:
#      x y z
#    x 2.512900 -0.040960 0.223860 
#    y -0.040960 2.250990 -0.295570 
#    z 0.223860 -0.295570 2.734410 
# 
# From -- ./inp_files/359741.got.cif
#   From: 2010.05.17/outbox.cif.g08.bks.cpg/sg2_180_cif.got.tgz:359741.got - 2010.06.03 11:33:40.
