data_PCOD9051587
_publ_section_title
;
Structure prediction by ZEFSAII (Michael W. Deem and Ramdas Pophale) SiO2 
 PCOD9051587
Probable space group: P -1
;
_chemical_formula_sum "Si O2"
_cell_formula_units_Z 16
_cell_length_a 9.186130
_cell_length_b 9.355866
_cell_length_c 14.797752
_cell_angle_alpha 36.264676
_cell_angle_beta 104.818167
_cell_angle_gamma 84.640182
_cell_volume 619.439967
_symmetry_space_group_name_H-M "P -1"
_symmetry_group_IT_number 2
_symmetry_cell_setting 'triclinic'
loop_
_space_group_symop_operation_xyz
x,y,z
-x,-y,-z
loop_
_atom_site_type_symbol
_atom_site_label
_atom_site_fract_x
_atom_site_fract_y
_atom_site_fract_z
Si Si1 0.471828 0.547701 0.814283
Si Si2 0.671221 0.018054 0.001633
Si Si3 0.901432 0.177737 0.649763
Si Si4 0.535363 0.254182 0.560737
Si Si5 0.728772 0.786276 0.594213
Si Si6 0.018116 0.481146 0.385165
Si Si7 0.183114 0.543248 0.036996
Si Si8 0.288022 0.256168 0.029009
O O1 0.357992 0.875753 0.601238
O O2 0.628710 0.483098 0.941369
O O3 0.347728 0.440971 0.888519
O O4 0.594319 0.333462 0.862833
O O5 0.741085 0.929457 0.955865
O O6 0.828484 0.771179 0.210015
O O7 0.500000 0.000000 0.000000
O O8 0.725196 0.187529 0.587117
O O9 0.862627 0.426923 0.587815
O O10 0.997311 0.242204 0.551963
O O11 0.036724 0.867138 0.868626
O O12 0.500000 0.500000 0.500000
O O13 0.401846 0.279738 0.449695
O O14 0.561053 0.994169 0.758647
O O15 0.910013 0.621191 0.650846
O O16 0.764651 0.665459 0.762747
O O17 0.857429 0.554737 0.014957
#
# Coordination Sequence:
#
# PCOD9051587 Si02
#       8
#     2   2   2   2   2   2   2   2
#     4  11  24  49  80 114 152 210 264 315 388 479
#     4  10  25  46  80 117 152 196 264 325 382 455
#     4  11  27  47  80 111 164 204 265 327 386 473
#     4  12  28  44  75 119 161 199 262 332 392 456
#     4  12  28  49  81 114 160 213 260 325 398 464
#     4  11  25  50  80 115 154 216 262 313 399 471
#     4  12  26  48  76 114 156 205 262 319 395 461
#     4  11  27  46  79 111 158 202 261 317 396 455
#
# _framework density 25.829782999999999
#
# number of rings (size 3 to 8) (size 9 to 14) (size 15 to 20)
#    0.000    0.750    3.750    1.500    8.750    2.000 
#    0.000    3.125    0.000    0.000    0.000    0.000 
#    0.000    0.000    0.000    0.000    0.000    0.000 
#
# Total GULP energy -89539.376771 kJ/mol
# GULP energy per Si atom -5596.211048 kJ/mol
# Density = 2.577099 g / cm^3
# Si number density = 25.829783 Si / 1000 Ang^3
#
#
#
# Elastic Constant Matrix: (Units=GPa)
#
#
# Indices 1 2 3 4 5 6 
#
# 1 105.3057 39.2289 65.0800 -11.6654 -4.9318 7.2802
# 2 39.2289 166.7941 51.3317 -9.3991 -15.0298 -7.0297
# 3 65.0800 51.3317 145.4811 -14.1859 -17.1075 3.9574
# 4 -11.6654 -9.3991 -14.1859 45.8655 -0.0735 -0.1300
# 5 -4.9318 -15.0298 -17.1075 -0.0735 42.7573 1.3882
# 6 7.2802 -7.0297 3.9574 -0.1300 1.3882 42.8900
#
#
#
# Elastic Compliance Matrix: (Units=1/GPa)
#
#
# Indices 1 2 3 4 5 6 
#
# 1 0.013767 -0.001648 -0.005512 0.001451 -0.001128 -0.002057
# 2 -0.001648 0.007109 -0.001566 0.000560 0.001633 0.001538
# 3 -0.005512 -0.001566 0.010400 0.001497 0.002989 -0.000373
# 4 0.001451 0.000560 0.001497 0.022751 0.001011 -0.000256
# 5 -0.001128 0.001633 0.002989 0.001011 0.025050 -0.000624
# 6 -0.002057 0.001538 -0.000373 -0.000256 -0.000624 0.023971
#
#
# Mechanical properties :
#
#
# Convention : Reuss Voigt Hill
#
# Bulk Modulus (GPa) = 72.34497 80.98467 76.66482
# Shear Modulus (GPa) = 39.96586 43.76523 41.86555
#
# Velocity S-wave (km/s) = 3.93781 4.12074 4.03031
# Velocity P-wave (km/s) = 6.98171 7.35268 7.16960
#
# Compressibility (1/GPa) = 0.01382266
#
# Stress axis : x y z
#
# Youngs Moduli (GPa) = 72.63838 140.67545 96.15523
#
# Poissons Ratio (x) = 0.23184 0.53002
# Poissons Ratio (y) = 0.11971 0.15059
# Poissons Ratio (z) = 0.40039 0.22032
#
# Static dielectric constant tensor:
#      x y z
#    x 2.057410 0.039590 0.013260 
#    y 0.039590 2.244820 0.030990 
#    z 0.013260 0.030990 1.971770 
# 
# From -- ./inp_files/608232.got.cif
#   From: 2010.05.17/outbox.cif.g08.bks.cpg/sg2_305_cif.got.tgz:608232.got - 2010.06.03 11:33:40.
