data_PCOD9051018
_publ_section_title
;
Structure prediction by ZEFSAII (Michael W. Deem and Ramdas Pophale) SiO2 
 PCOD9051018
Probable space group: P -1
;
_chemical_formula_sum "Si O2"
_cell_formula_units_Z 16
_cell_length_a 18.530177
_cell_length_b 8.544896
_cell_length_c 13.302559
_cell_angle_alpha 58.734856
_cell_angle_beta 22.053517
_cell_angle_gamma 59.406183
_cell_volume 673.443877
_symmetry_space_group_name_H-M "P -1"
_symmetry_group_IT_number 2
_symmetry_cell_setting 'triclinic'
loop_
_space_group_symop_operation_xyz
x,y,z
-x,-y,-z
loop_
_atom_site_type_symbol
_atom_site_label
_atom_site_fract_x
_atom_site_fract_y
_atom_site_fract_z
Si Si1 0.242165 0.768318 0.849180
Si Si2 0.865810 0.399787 0.281346
Si Si3 0.530058 0.668513 0.662260
Si Si4 0.639766 0.977015 0.550274
Si Si5 0.794155 0.996404 0.851003
Si Si6 0.692758 0.396464 0.832953
Si Si7 0.931324 0.971639 0.327623
Si Si8 0.948874 0.590187 0.745102
O O1 0.438703 0.786077 0.649727
O O2 0.258617 0.859762 0.689394
O O3 0.205047 0.554886 0.982503
O O4 0.073112 0.878725 0.092395
O O5 0.648749 0.489238 0.526401
O O6 0.904299 0.188551 0.280229
O O7 0.924806 0.419603 0.313941
O O8 0.000000 0.500000 0.000000
O O9 0.665689 0.794693 0.508466
O O10 0.363530 0.621184 0.971497
O O11 0.721063 0.923866 0.574399
O O12 0.411098 0.034185 0.823694
O O13 0.733438 0.187059 0.807323
O O14 0.860863 0.802486 0.777052
O O15 0.958666 0.050788 0.699667
O O16 0.897175 0.474696 0.519218
O O17 0.500000 0.500000 0.000000
#
# Coordination Sequence:
#
# PCOD9051018 Si02
#       8
#     2   2   2   2   2   2   2   2
#     4  12  24  41  67 104 134 184 225 271 340 404
#     4  11  23  40  65 101 138 173 222 278 338 400
#     4  11  24  43  68  99 136 181 227 281 331 395
#     4  11  23  42  71  97 144 177 226 272 337 411
#     4  10  25  45  67 104 131 179 222 284 340 393
#     4  11  22  47  73  94 131 179 235 274 333 401
#     4  11  23  41  65  98 137 177 220 273 338 398
#     4  11  25  42  70  96 138 178 224 278 336 398
#
# _framework density 23.758476000000002
#
# number of rings (size 3 to 8) (size 9 to 14) (size 15 to 20)
#    0.000    1.000    3.750    3.375    7.000    1.000 
#    0.000    0.000    0.000    8.250    0.000    0.000 
#    0.000    0.000    0.000    0.000    0.000    0.000 
#
# Total GULP energy -89310.077099 kJ/mol
# GULP energy per Si atom -5581.879819 kJ/mol
# Density = 2.370440 g / cm^3
# Si number density = 23.758476 Si / 1000 Ang^3
#
#
#
# Elastic Constant Matrix: (Units=GPa)
#
#
# Indices 1 2 3 4 5 6 
#
# 1 95.6776 31.5592 19.1900 0.3583 -19.6150 -7.9668
# 2 31.5592 105.9633 40.1899 18.9764 -4.4169 -31.1886
# 3 19.1900 40.1899 84.3541 2.0459 10.9997 -14.8746
# 4 0.3583 18.9764 2.0459 36.9726 -0.0618 -10.1216
# 5 -19.6150 -4.4169 10.9997 -0.0618 35.4750 0.6604
# 6 -7.9668 -31.1886 -14.8746 -10.1216 0.6604 18.0814
#
#
#
# Elastic Compliance Matrix: (Units=1/GPa)
#
#
# Indices 1 2 3 4 5 6 
#
# 1 0.013646 -0.003389 -0.002884 0.001294 0.008053 -0.001776
# 2 -0.003389 0.021671 -0.004227 -0.002358 0.001553 0.031033
# 3 -0.002884 -0.004227 0.016695 0.003249 -0.007427 0.007262
# 4 0.001294 -0.002358 0.003249 0.032886 -0.000856 0.017616
# 5 0.008053 0.001553 -0.007427 -0.000856 0.035167 -0.001646
# 6 -0.001776 0.031033 0.007262 0.017616 -0.001646 0.123947
#
#
# Mechanical properties :
#
#
# Convention : Reuss Voigt Hill
#
# Bulk Modulus (GPa) = 32.24615 51.98590 42.11603
# Shear Modulus (GPa) = 18.15864 31.10954 24.63409
#
# Velocity S-wave (km/s) = 2.76760 3.62250 3.22352
# Velocity P-wave (km/s) = 4.88004 6.27895 5.62316
#
# Compressibility (1/GPa) = 0.03101145
#
# Stress axis : x y z
#
# Youngs Moduli (GPa) = 73.27911 46.14502 59.89726
#
# Poissons Ratio (x) = 0.15639 0.17277
# Poissons Ratio (y) = 0.24835 0.25319
# Poissons Ratio (z) = 0.21137 0.19506
#
# Static dielectric constant tensor:
#      x y z
#    x 1.896550 0.021290 -0.074640 
#    y 0.021290 1.925690 -0.043820 
#    z -0.074640 -0.043820 1.967210 
# 
# From -- ./inp_files/540438.got.cif
#   From: 2010.05.17/outbox.cif.g08.bks.cpg/sg2_271_cif.got.tgz:540438.got - 2010.06.03 11:33:40.
