data_PCOD9051921
_publ_section_title
;
Structure prediction by ZEFSAII (Michael W. Deem and Ramdas Pophale) SiO2 
 PCOD9051921
Probable space group: P -1
;
_chemical_formula_sum "Si O2"
_cell_formula_units_Z 12
_cell_length_a 12.512595
_cell_length_b 9.029660
_cell_length_c 18.116534
_cell_angle_alpha 49.617639
_cell_angle_beta 18.948751
_cell_angle_gamma 53.473904
_cell_volume 505.022752
_symmetry_space_group_name_H-M "P -1"
_symmetry_group_IT_number 2
_symmetry_cell_setting 'triclinic'
loop_
_space_group_symop_operation_xyz
x,y,z
-x,-y,-z
loop_
_atom_site_type_symbol
_atom_site_label
_atom_site_fract_x
_atom_site_fract_y
_atom_site_fract_z
Si Si1 0.761412 0.302985 0.710581
Si Si2 0.781442 0.971175 0.580559
Si Si3 0.576806 0.278074 0.513153
Si Si4 0.830680 0.933929 0.267407
Si Si5 0.346451 0.701433 0.052231
Si Si6 0.131996 0.312529 0.015737
O O1 0.582926 0.253586 0.921920
O O2 0.000000 0.500000 0.500000
O O3 0.004134 0.136711 0.584581
O O4 0.493426 0.327964 0.812598
O O5 0.684313 0.177170 0.549302
O O6 0.483567 0.830452 0.851737
O O7 0.000000 0.000000 0.500000
O O8 0.500000 0.500000 0.500000
O O9 0.276318 0.140822 0.719317
O O10 0.880834 0.274831 0.259666
O O11 0.962113 0.743793 0.283238
O O12 0.500000 0.000000 0.500000
O O13 0.077596 0.123730 0.059496
O O14 0.500000 0.500000 0.000000
O O15 0.000000 0.500000 0.000000
#
# Coordination Sequence:
#
# PCOD9051921 Si02
#       6
#     2   2   2   2   2   2
#     4  12  27  48  80 116 158 207 264 327 399 475
#     4  12  28  48  79 112 158 203 264 327 396 472
#     4  11  28  47  76 113 157 200 263 326 391 469
#     4  10  25  48  76 107 158 204 262 323 398 469
#     4  12  27  47  79 115 153 205 267 325 403 471
#     4  11  27  47  79 110 155 210 259 320 405 469
#
# _framework density 23.761305
#
# number of rings (size 3 to 8) (size 9 to 14) (size 15 to 20)
#    0.000    0.667    1.667    4.000   16.333    2.667 
#    0.000    0.000    0.000    0.000    0.000    0.000 
#    0.000    0.000    0.000    0.000    0.000    0.000 
#
# Total GULP energy -67087.449656 kJ/mol
# GULP energy per Si atom -5590.620805 kJ/mol
# Density = 2.370722 g / cm^3
# Si number density = 23.761305 Si / 1000 Ang^3
#
#
#
# Elastic Constant Matrix: (Units=GPa)
#
#
# Indices 1 2 3 4 5 6 
#
# 1 144.3702 67.2906 38.9557 0.3500 -11.3975 -15.7890
# 2 67.2906 205.6936 54.3763 25.5615 1.0203 -14.5397
# 3 38.9557 54.3763 95.5499 7.3797 -0.3593 -1.4139
# 4 0.3500 25.5615 7.3797 41.2525 2.9009 3.0717
# 5 -11.3975 1.0203 -0.3593 2.9009 57.7592 1.1799
# 6 -15.7890 -14.5397 -1.4139 3.0717 1.1799 58.9128
#
#
#
# Elastic Compliance Matrix: (Units=1/GPa)
#
#
# Indices 1 2 3 4 5 6 
#
# 1 0.009002 -0.002403 -0.002396 0.001600 0.001690 0.001645
# 2 -0.002403 0.006911 -0.002640 -0.003849 -0.000444 0.001208
# 3 -0.002396 -0.002640 0.012974 -0.000573 -0.000297 -0.000946
# 4 0.001600 -0.003849 -0.000573 0.026923 -0.000933 -0.001920
# 5 0.001690 -0.000444 -0.000297 -0.000933 0.017699 0.000030
# 6 0.001645 0.001208 -0.000946 -0.001920 0.000030 0.017790
#
#
# Mechanical properties :
#
#
# Convention : Reuss Voigt Hill
#
# Bulk Modulus (GPa) = 71.37402 85.20654 78.29028
# Shear Modulus (GPa) = 45.10696 50.58432 47.84564
#
# Velocity S-wave (km/s) = 4.36172 4.61895 4.49218
# Velocity P-wave (km/s) = 7.44777 8.02394 7.74121
#
# Compressibility (1/GPa) = 0.01401070
#
# Stress axis : x y z
#
# Youngs Moduli (GPa) = 111.08155 144.68879 77.07617
#
# Poissons Ratio (x) = 0.34763 0.18466
# Poissons Ratio (y) = 0.26688 0.20350
# Poissons Ratio (z) = 0.26613 0.38201
#
# Static dielectric constant tensor:
#      x y z
#    x 1.957640 -0.027920 -0.013890 
#    y -0.027920 1.900170 0.008390 
#    z -0.013890 0.008390 1.927110 
# 
# From -- ./inp_files/377840.got.cif
#   From: 2010.05.17/outbox.cif.g08.bks.cpg/sg2_189_cif.got.tgz:377840.got - 2010.06.03 11:33:40.
