data_PCOD9051743
_publ_section_title
;
Structure prediction by ZEFSAII (Michael W. Deem and Ramdas Pophale) SiO2 
 PCOD9051743
Probable space group: P -1
;
_chemical_formula_sum "Si O2"
_cell_formula_units_Z 12
_cell_length_a 8.155501
_cell_length_b 14.675082
_cell_length_c 10.252702
_cell_angle_alpha 151.351783
_cell_angle_beta 106.478560
_cell_angle_gamma 64.676885
_cell_volume 519.723474
_symmetry_space_group_name_H-M "P -1"
_symmetry_group_IT_number 2
_symmetry_cell_setting 'triclinic'
loop_
_space_group_symop_operation_xyz
x,y,z
-x,-y,-z
loop_
_atom_site_type_symbol
_atom_site_label
_atom_site_fract_x
_atom_site_fract_y
_atom_site_fract_z
Si Si1 0.904777 0.052176 0.683908
Si Si2 0.539015 0.452378 0.600526
Si Si3 0.859248 0.003972 0.090558
Si Si4 0.865943 0.640266 0.254920
Si Si5 0.492113 0.233639 0.801925
Si Si6 0.831578 0.614242 0.507306
O O1 0.872511 0.861876 0.506316
O O2 0.027877 0.097986 0.880191
O O3 0.700547 0.214580 0.809550
O O4 0.000000 0.000000 0.500000
O O5 0.500000 0.500000 0.500000
O O6 0.714063 0.234397 0.379006
O O7 0.348007 0.440136 0.591448
O O8 0.572656 0.636376 0.915537
O O9 0.761689 0.857310 0.830786
O O10 0.000000 0.000000 0.000000
O O11 0.660065 0.650060 0.193508
O O12 0.914632 0.576913 0.333966
O O13 0.000000 0.500000 0.000000
O O14 0.500000 0.000000 0.500000
O O15 0.000000 0.500000 0.500000
#
# Coordination Sequence:
#
# PCOD9051743 Si02
#       6
#     2   2   2   2   2   2
#     4  11  25  44  76 105 144 193 246 311 375 440
#     4  12  28  47  80 109 151 201 253 313 380 448
#     4  12  25  50  75 109 153 197 253 312 378 450
#     4  11  26  46  72 106 151 193 251 309 375 447
#     4  10  25  47  74 107 147 192 252 309 382 444
#     4  12  28  47  75 111 153 203 254 309 377 448
#
# _framework density 23.089203000000001
#
# number of rings (size 3 to 8) (size 9 to 14) (size 15 to 20)
#    0.000    0.667    1.667    4.500   11.667    2.000 
#    0.000    0.000    0.000    0.000    0.000    0.000 
#    0.000    0.000    0.000    0.000    0.000    0.000 
#
# Total GULP energy -67108.023773 kJ/mol
# GULP energy per Si atom -5592.335314 kJ/mol
# Density = 2.303665 g / cm^3
# Si number density = 23.089203 Si / 1000 Ang^3
#
#
#
# Elastic Constant Matrix: (Units=GPa)
#
#
# Indices 1 2 3 4 5 6 
#
# 1 103.8674 56.9391 48.8488 -6.7527 -15.2144 -5.8056
# 2 56.9391 152.3653 53.2115 -35.7168 -16.1327 -6.0686
# 3 48.8488 53.2115 180.1079 -13.8887 1.9117 -2.4332
# 4 -6.7527 -35.7168 -13.8887 49.8073 1.7722 -8.0106
# 5 -15.2144 -16.1327 1.9117 1.7722 45.9286 3.2065
# 6 -5.8056 -6.0686 -2.4332 -8.0106 3.2065 43.8082
#
#
#
# Elastic Compliance Matrix: (Units=1/GPa)
#
#
# Indices 1 2 3 4 5 6 
#
# 1 0.013545 -0.004271 -0.002592 -0.001986 0.003139 0.000467
# 2 -0.004271 0.010538 -0.001424 0.006820 0.001949 0.001919
# 3 -0.002592 -0.001424 0.006739 0.000576 -0.001666 0.000061
# 4 -0.001986 0.006820 0.000576 0.025714 0.000345 0.005390
# 5 0.003139 0.001949 -0.001666 0.000345 0.023628 -0.001073
# 6 0.000467 0.001919 0.000061 0.005390 -0.001073 0.024222
#
#
# Mechanical properties :
#
#
# Convention : Reuss Voigt Hill
#
# Bulk Modulus (GPa) = 70.18580 83.81548 77.00064
# Shear Modulus (GPa) = 39.77457 46.39823 43.08640
#
# Velocity S-wave (km/s) = 4.15498 4.48763 4.32451
# Velocity P-wave (km/s) = 7.31315 7.95181 7.63916
#
# Compressibility (1/GPa) = 0.01424790
#
# Stress axis : x y z
#
# Youngs Moduli (GPa) = 73.82967 94.89420 148.39562
#
# Poissons Ratio (x) = 0.40530 0.38462
# Poissons Ratio (y) = 0.31533 0.21129
# Poissons Ratio (z) = 0.19136 0.13511
#
# Static dielectric constant tensor:
#      x y z
#    x 1.878040 -0.002720 0.042850 
#    y -0.002720 1.857240 0.057500 
#    z 0.042850 0.057500 1.908590 
# 
# From -- ./inp_files/160202.got.cif
#   From: 2010.05.17/outbox.cif.g08.bks.cpg/sg2_81_cif.got.tgz:160202.got - 2010.06.03 11:33:40.
