data_PCOD9051286
_publ_section_title
;
Structure prediction by ZEFSAII (Michael W. Deem and Ramdas Pophale) SiO2 
 PCOD9051286
Probable space group: P -1
;
_chemical_formula_sum "Si O2"
_cell_formula_units_Z 16
_cell_length_a 14.794727
_cell_length_b 6.755813
_cell_length_c 9.196154
_cell_angle_alpha 77.928266
_cell_angle_beta 115.893667
_cell_angle_gamma 82.206607
_cell_volume 781.229429
_symmetry_space_group_name_H-M "P -1"
_symmetry_group_IT_number 2
_symmetry_cell_setting 'triclinic'
loop_
_space_group_symop_operation_xyz
x,y,z
-x,-y,-z
loop_
_atom_site_type_symbol
_atom_site_label
_atom_site_fract_x
_atom_site_fract_y
_atom_site_fract_z
Si Si1 0.103649 0.947610 0.867265
Si Si2 0.559859 0.169206 0.565779
Si Si3 0.645772 0.570503 0.054847
Si Si4 0.950128 0.374438 0.684368
Si Si5 0.514858 0.545420 0.252446
Si Si6 0.119597 0.508457 0.096705
Si Si7 0.727810 0.877930 0.901577
Si Si8 0.886662 0.353533 0.317847
O O1 0.086284 0.872762 0.704574
O O2 0.121660 0.732921 0.001277
O O3 0.008619 0.141352 0.815649
O O4 0.204185 0.031907 0.950608
O O5 0.555620 0.328811 0.404579
O O6 0.508154 0.288658 0.657627
O O7 0.500000 0.000000 0.500000
O O8 0.674210 0.047500 0.718808
O O9 0.591378 0.578742 0.172405
O O10 0.767208 0.458149 0.177932
O O11 0.588747 0.459399 0.912038
O O12 0.643707 0.793657 0.946400
O O13 0.863935 0.489919 0.719739
O O14 0.901897 0.349273 0.500111
O O15 0.036450 0.507647 0.705971
O O16 0.197861 0.318342 0.101020
O O17 0.000000 0.500000 0.000000
#
# Coordination Sequence:
#
# PCOD9051286 Si02
#       8
#     2   2   2   2   2   2   2   2
#     4  12  21  41  67  90 126 183 216 268 328 384
#     4  11  24  46  68 102 132 170 218 277 337 393
#     4  11  21  48  66  98 131 175 219 274 335 396
#     4  11  24  40  64  96 132 179 216 272 328 383
#     4  10  25  45  75  93 136 172 216 283 337 394
#     4  12  23  43  65  95 134 173 224 272 316 396
#     4  12  25  40  73  98 132 177 225 270 333 398
#     4  11  23  42  63  94 138 166 219 279 322 390
#
# _framework density 20.480537000000002
#
# number of rings (size 3 to 8) (size 9 to 14) (size 15 to 20)
#    0.000    0.750    6.250    1.500    0.000    2.500 
#    2.250    0.000    0.000    0.000    0.000    0.000 
#    0.000    0.000    0.000    0.000    0.000    0.000 
#
# Total GULP energy -89352.563596 kJ/mol
# GULP energy per Si atom -5584.535225 kJ/mol
# Density = 2.043392 g / cm^3
# Si number density = 20.480537 Si / 1000 Ang^3
#
#
#
# Elastic Constant Matrix: (Units=GPa)
#
#
# Indices 1 2 3 4 5 6 
#
# 1 78.1878 40.3566 54.6928 9.1587 -16.3011 2.9272
# 2 40.3566 117.6970 54.3673 14.9509 -10.4666 2.8551
# 3 54.6928 54.3673 140.9567 19.0501 -18.2876 -6.5149
# 4 9.1587 14.9509 19.0501 42.3194 -4.3690 6.1667
# 5 -16.3011 -10.4666 -18.2876 -4.3690 37.8343 0.8025
# 6 2.9272 2.8551 -6.5149 6.1667 0.8025 21.4652
#
#
#
# Elastic Compliance Matrix: (Units=1/GPa)
#
#
# Indices 1 2 3 4 5 6 
#
# 1 0.019971 -0.003621 -0.006041 0.000835 0.004875 -0.004497
# 2 -0.003621 0.011274 -0.002762 -0.001755 0.000050 -0.001341
# 3 -0.006041 -0.002762 0.011452 -0.003521 0.001643 0.005617
# 4 0.000835 -0.001755 -0.003521 0.027088 0.001487 -0.008787
# 5 0.004875 0.000050 0.001643 0.001487 0.029547 -0.001704
# 6 -0.004497 -0.001341 0.005617 -0.008787 -0.001704 0.051672
#
#
# Mechanical properties :
#
#
# Convention : Reuss Voigt Hill
#
# Bulk Modulus (GPa) = 56.02142 70.63054 63.32598
# Shear Modulus (GPa) = 27.50276 32.81877 30.16076
#
# Velocity S-wave (km/s) = 3.66850 4.00739 3.84168
# Velocity P-wave (km/s) = 6.73474 7.48156 7.11795
#
# Compressibility (1/GPa) = 0.01785032
#
# Stress axis : x y z
#
# Youngs Moduli (GPa) = 50.07261 88.70330 87.32090
#
# Poissons Ratio (x) = 0.32119 0.52747
# Poissons Ratio (y) = 0.18131 0.24115
# Poissons Ratio (z) = 0.30247 0.24496
#
# Static dielectric constant tensor:
#      x y z
#    x 1.727210 -0.000460 -0.007350 
#    y -0.000460 1.743660 -0.000340 
#    z -0.007350 -0.000340 1.778280 
# 
# From -- ./inp_files/288900.got.cif
#   From: 2010.05.17/outbox.cif.g08.bks.cpg/sg2_145_cif.got.tgz:288900.got - 2010.06.03 11:33:40.
