data_PCOD9051671
_publ_section_title
;
Structure prediction by ZEFSAII (Michael W. Deem and Ramdas Pophale) SiO2 
 PCOD9051671
Probable space group: P -1
;
_chemical_formula_sum "Si O2"
_cell_formula_units_Z 14
_cell_length_a 11.515735
_cell_length_b 8.041655
_cell_length_c 16.285817
_cell_angle_alpha 33.185604
_cell_angle_beta 39.496824
_cell_angle_gamma 55.166661
_cell_volume 512.843579
_symmetry_space_group_name_H-M "P -1"
_symmetry_group_IT_number 2
_symmetry_cell_setting 'triclinic'
loop_
_space_group_symop_operation_xyz
x,y,z
-x,-y,-z
loop_
_atom_site_type_symbol
_atom_site_label
_atom_site_fract_x
_atom_site_fract_y
_atom_site_fract_z
Si Si1 0.377860 0.309141 0.529797
Si Si2 0.218498 0.003383 0.889009
Si Si3 0.205702 0.842189 0.399580
Si Si4 0.754500 0.279652 0.260421
Si Si5 0.830939 0.341157 0.773869
Si Si6 0.548259 0.704747 0.807760
Si Si7 0.131436 0.189591 0.143751
O O1 0.348830 0.634969 0.376728
O O2 0.579798 0.245008 0.429300
O O3 0.312132 0.308301 0.660533
O O4 0.249560 0.027043 0.665415
O O5 0.350647 0.793572 0.859015
O O6 0.234305 0.907782 0.014077
O O7 0.000000 0.000000 0.000000
O O8 0.003486 0.603483 0.607263
O O9 0.295051 0.999420 0.369495
O O10 0.194650 0.118724 0.228528
O O11 0.943184 0.322663 0.191545
O O12 0.747161 0.566036 0.086002
O O13 0.662130 0.506906 0.771960
O O14 0.892992 0.148465 0.745885
O O15 0.500000 0.500000 0.000000
#
# Coordination Sequence:
#
# PCOD9051671 Si02
#       7
#     2   2   2   2   2   2   2
#     4  11  25  45  74 107 145 195 249 308 367 438
#     4  11  23  48  74  99 153 190 245 305 367 434
#     4  12  25  47  74 111 145 199 242 305 369 443
#     4  10  25  47  71 113 143 193 254 299 375 432
#     4  11  24  48  71 113 148 193 247 301 372 445
#     4  10  27  45  68 108 148 193 244 296 374 440
#     4  11  25  47  80 106 151 192 246 311 367 436
#
# _framework density 27.298774000000002
#
# number of rings (size 3 to 8) (size 9 to 14) (size 15 to 20)
#    0.000    1.143    2.857    0.857   10.000    2.286 
#    0.000    0.000    0.000    0.000    0.000    0.000 
#    0.000    0.000    0.000    0.000    0.000    0.000 
#
# Total GULP energy -78302.969272 kJ/mol
# GULP energy per Si atom -5593.069234 kJ/mol
# Density = 2.723664 g / cm^3
# Si number density = 27.298774 Si / 1000 Ang^3
#
#
#
# Elastic Constant Matrix: (Units=GPa)
#
#
# Indices 1 2 3 4 5 6 
#
# 1 119.3430 56.9012 40.2039 -0.3954 10.7175 -24.3311
# 2 56.9012 121.0680 13.9557 3.1851 -13.2076 -24.5664
# 3 40.2039 13.9557 116.3714 3.7950 1.7279 9.1519
# 4 -0.3954 3.1851 3.7950 48.1850 -9.0528 -6.1601
# 5 10.7175 -13.2076 1.7279 -9.0528 39.7172 -1.7078
# 6 -24.3311 -24.5664 9.1519 -6.1601 -1.7078 45.1974
#
#
#
# Elastic Compliance Matrix: (Units=1/GPa)
#
#
# Indices 1 2 3 4 5 6 
#
# 1 0.014157 -0.005606 -0.004585 0.000574 -0.005122 0.005387
# 2 -0.005606 0.012335 0.000028 0.000769 0.005961 0.004011
# 3 -0.004585 0.000028 0.010593 -0.001438 0.000252 -0.004784
# 4 0.000574 0.000769 -0.001438 0.022391 0.005451 0.004276
# 5 -0.005122 0.005961 0.000252 0.005451 0.029873 0.002303
# 6 0.005387 0.004011 -0.004784 0.004276 0.002303 0.028844
#
#
# Mechanical properties :
#
#
# Convention : Reuss Voigt Hill
#
# Bulk Modulus (GPa) = 59.66452 64.32266 61.99359
# Shear Modulus (GPa) = 34.69683 43.00135 38.84909
#
# Velocity S-wave (km/s) = 3.56898 3.97320 3.77650
# Velocity P-wave (km/s) = 6.23595 6.68297 6.46332
#
# Compressibility (1/GPa) = 0.01676038
#
# Stress axis : x y z
#
# Youngs Moduli (GPa) = 70.63749 81.06813 94.40046
#
# Poissons Ratio (x) = 0.45446 0.43282
# Poissons Ratio (y) = 0.39599 -0.00268
# Poissons Ratio (z) = 0.32387 -0.00230
#
# Static dielectric constant tensor:
#      x y z
#    x 2.158190 -0.005740 -0.066290 
#    y -0.005740 2.079120 -0.066270 
#    z -0.066290 -0.066270 2.175370 
# 
# From -- ./inp_files/566344.got.cif
#   From: 2010.05.17/outbox.cif.g08.bks.cpg/sg2_284_cif.got.tgz:566344.got - 2010.06.03 11:33:40.
