data_PCOD9051820
_publ_section_title
;
Structure prediction by ZEFSAII (Michael W. Deem and Ramdas Pophale) SiO2 
 PCOD9051820
Probable space group: P -1
;
_chemical_formula_sum "Si O2"
_cell_formula_units_Z 12
_cell_length_a 11.408904
_cell_length_b 14.572902
_cell_length_c 8.357984
_cell_angle_alpha 47.087167
_cell_angle_beta 121.734348
_cell_angle_gamma 152.028976
_cell_volume 465.712156
_symmetry_space_group_name_H-M "P -1"
_symmetry_group_IT_number 2
_symmetry_cell_setting 'triclinic'
loop_
_space_group_symop_operation_xyz
x,y,z
-x,-y,-z
loop_
_atom_site_type_symbol
_atom_site_label
_atom_site_fract_x
_atom_site_fract_y
_atom_site_fract_z
Si Si1 0.236993 0.146122 0.113847
Si Si2 0.827032 0.142113 0.154546
Si Si3 0.191147 0.819343 0.556683
Si Si4 0.713271 0.668991 0.734175
Si Si5 0.602968 0.360298 0.578539
Si Si6 0.184961 0.571615 0.667543
O O1 0.223964 0.215795 0.187154
O O2 0.506988 0.399721 0.932727
O O3 0.241464 0.999611 0.316527
O O4 0.000000 0.000000 0.000000
O O5 0.748548 0.150849 0.248642
O O6 0.015259 0.175638 0.311516
O O7 0.005028 0.353155 0.911642
O O8 0.573465 0.889525 0.195791
O O9 0.877905 0.572029 0.605480
O O10 0.297504 0.776389 0.597447
O O11 0.572592 0.651671 0.528001
O O12 0.646795 0.378999 0.394355
O O13 0.000000 0.500000 0.500000
#
# Coordination Sequence:
#
# PCOD9051820 Si02
#       6
#     2   2   2   2   2   2
#     4  11  22  41  71 100 139 180 225 278 334 407
#     4  12  26  45  70 101 140 178 224 287 333 407
#     4  11  25  44  69 106 132 180 235 271 338 406
#     4  11  24  43  67 104 139 174 223 278 345 392
#     4  11  24  48  71  99 141 178 223 283 338 401
#     4  10  25  48  69  98 136 183 229 277 339 400
#
# _framework density 25.766991000000001
#
# number of rings (size 3 to 8) (size 9 to 14) (size 15 to 20)
#    0.000    1.000    3.333    3.000    2.333    5.333 
#    3.000    0.000    0.000    0.000    0.000    0.000 
#    0.000    0.000    0.000    0.000    0.000    0.000 
#
# Total GULP energy -67211.770505 kJ/mol
# GULP energy per Si atom -5600.980875 kJ/mol
# Density = 2.570834 g / cm^3
# Si number density = 25.766991 Si / 1000 Ang^3
#
#
#
# Elastic Constant Matrix: (Units=GPa)
#
#
# Indices 1 2 3 4 5 6 
#
# 1 83.3480 5.8544 13.3333 3.0850 7.2801 -3.5789
# 2 5.8544 145.8685 45.5165 -28.0100 20.5717 -11.6339
# 3 13.3333 45.5165 133.0662 -33.3413 14.0066 -4.8582
# 4 3.0850 -28.0100 -33.3413 56.8452 3.5278 14.6478
# 5 7.2801 20.5717 14.0066 3.5278 27.6837 -0.0358
# 6 -3.5789 -11.6339 -4.8582 14.6478 -0.0358 25.7016
#
#
#
# Elastic Compliance Matrix: (Units=1/GPa)
#
#
# Indices 1 2 3 4 5 6 
#
# 1 0.012624 0.000112 -0.001461 -0.002030 -0.002402 0.002686
# 2 0.000112 0.009041 -0.001479 0.003513 -0.006445 0.001817
# 3 -0.001461 -0.001479 0.010091 0.006187 -0.004414 -0.002497
# 4 -0.002030 0.003513 0.006187 0.026916 -0.008653 -0.012875
# 5 -0.002402 -0.006445 -0.004414 -0.008653 0.044880 0.000908
# 6 0.002686 0.001817 -0.002497 -0.012875 0.000908 0.046972
#
#
# Mechanical properties :
#
#
# Convention : Reuss Voigt Hill
#
# Bulk Modulus (GPa) = 38.31281 54.63235 46.47258
# Shear Modulus (GPa) = 30.32531 41.88467 36.10499
#
# Velocity S-wave (km/s) = 3.43433 4.03614 3.74734
# Velocity P-wave (km/s) = 5.53420 6.55508 6.06615
#
# Compressibility (1/GPa) = 0.02610093
#
# Stress axis : x y z
#
# Youngs Moduli (GPa) = 79.21432 110.60880 99.09955
#
# Poissons Ratio (x) = -0.01244 0.14479
# Poissons Ratio (y) = -0.00891 0.14655
# Poissons Ratio (z) = 0.11574 0.16357
#
# Static dielectric constant tensor:
#      x y z
#    x 1.855140 -0.171030 0.830170 
#    y -0.171030 1.945120 0.501130 
#    z 0.830170 0.501130 -0.786740 
# 
# From -- ./inp_files/264365.got.cif
#   From: 2010.05.17/outbox.cif.g08.bks.cpg/sg2_133_cif.got.tgz:264365.got - 2010.06.03 11:33:40.
