data_PCOD9051489
_publ_section_title
;
Structure prediction by ZEFSAII (Michael W. Deem and Ramdas Pophale) SiO2 
 PCOD9051489
Probable space group: P -1
;
_chemical_formula_sum "Si O2"
_cell_formula_units_Z 12
_cell_length_a 15.878482
_cell_length_b 7.617492
_cell_length_c 7.573888
_cell_angle_alpha 117.416152
_cell_angle_beta 37.881852
_cell_angle_gamma 115.007467
_cell_volume 496.370220
_symmetry_space_group_name_H-M "P -1"
_symmetry_group_IT_number 2
_symmetry_cell_setting 'triclinic'
loop_
_space_group_symop_operation_xyz
x,y,z
-x,-y,-z
loop_
_atom_site_type_symbol
_atom_site_label
_atom_site_fract_x
_atom_site_fract_y
_atom_site_fract_z
Si Si1 0.345429 0.550441 0.817619
Si Si2 0.865609 0.093470 0.341448
Si Si3 0.741143 0.867845 0.143372
Si Si4 0.074199 0.465857 0.678361
Si Si5 0.843659 0.139414 0.798368
Si Si6 0.632946 0.574355 0.920491
O O1 0.500000 0.500000 0.500000
O O2 0.241582 0.344899 0.889608
O O3 0.285238 0.728774 0.900816
O O4 0.349800 0.594125 0.038866
O O5 0.906675 0.327285 0.359921
O O6 0.835154 0.046051 0.574445
O O7 0.740824 0.014540 0.377896
O O8 0.000000 0.000000 0.000000
O O9 0.627071 0.773457 0.143421
O O10 0.844124 0.990446 0.892971
O O11 0.228332 0.403212 0.412380
O O12 0.977414 0.298541 0.659481
O O13 0.000000 0.500000 0.000000
O O14 0.500000 0.500000 0.000000
#
# Coordination Sequence:
#
# PCOD9051489 Si02
#       6
#     2   2   2   2   2   2
#     4  10  25  48  71 100 149 198 244 297 370 440
#     4  12  24  42  70 110 148 184 242 304 371 441
#     4  10  25  46  72 108 140 191 248 297 372 429
#     4  12  25  43  75 107 149 194 241 306 375 425
#     4  12  25  47  74 109 151 185 247 311 368 439
#     4  10  25  49  69 102 149 196 245 298 368 441
#
# _framework density 24.175502000000002
#
# number of rings (size 3 to 8) (size 9 to 14) (size 15 to 20)
#    1.000    0.000    3.333    2.500    4.667    3.333 
#    3.000    1.667    0.000    0.000    0.000    0.000 
#    0.000    0.000    0.000    0.000    0.000    0.000 
#
# Total GULP energy -66912.765134 kJ/mol
# GULP energy per Si atom -5576.063761 kJ/mol
# Density = 2.412048 g / cm^3
# Si number density = 24.175502 Si / 1000 Ang^3
#
#
#
# Elastic Constant Matrix: (Units=GPa)
#
#
# Indices 1 2 3 4 5 6 
#
# 1 107.8122 45.1178 55.7258 -3.9742 14.7367 41.4424
# 2 45.1178 119.2901 36.1762 -2.6913 -0.2102 7.6736
# 3 55.7258 36.1762 158.1620 2.3920 0.7366 0.0020
# 4 -3.9742 -2.6913 2.3920 19.6037 -0.6268 1.9416
# 5 14.7367 -0.2102 0.7366 -0.6268 53.4787 -4.6220
# 6 41.4424 7.6736 0.0020 1.9416 -4.6220 56.8813
#
#
#
# Elastic Compliance Matrix: (Units=1/GPa)
#
#
# Indices 1 2 3 4 5 6 
#
# 1 0.022675 -0.005311 -0.006832 0.006107 -0.007541 -0.016625
# 2 -0.005311 0.010389 -0.000516 0.000211 0.001739 0.002602
# 3 -0.006832 -0.000516 0.008883 -0.002997 0.002183 0.005326
# 4 0.006107 0.000211 -0.002997 0.053229 -0.001572 -0.006422
# 5 -0.007541 0.001739 0.002183 -0.001572 0.021344 0.007047
# 6 -0.016625 0.002602 0.005326 -0.006422 0.007047 0.030134
#
#
# Mechanical properties :
#
#
# Convention : Reuss Voigt Hill
#
# Bulk Modulus (GPa) = 60.13375 73.25598 66.69487
# Shear Modulus (GPa) = 28.16670 42.54237 35.35453
#
# Velocity S-wave (km/s) = 3.41705 4.19946 3.82830
# Velocity P-wave (km/s) = 6.36366 7.34040 6.86941
#
# Compressibility (1/GPa) = 0.01662960
#
# Stress axis : x y z
#
# Youngs Moduli (GPa) = 44.10082 96.26019 112.57633
#
# Poissons Ratio (x) = 0.51119 0.76908
# Poissons Ratio (y) = 0.23420 0.05813
# Poissons Ratio (z) = 0.30128 0.04971
#
# Static dielectric constant tensor:
#      x y z
#    x 1.961480 -0.003070 -0.055240 
#    y -0.003070 1.970500 0.000320 
#    z -0.055240 0.000320 2.107130 
# 
# From -- ./inp_files/325208.got.cif
#   From: 2010.05.17/outbox.cif.g08.bks.cpg/sg2_163_cif.got.tgz:325208.got - 2010.06.03 11:33:40.
