data_PCOD9051838
_publ_section_title
;
Structure prediction by ZEFSAII (Michael W. Deem and Ramdas Pophale) SiO2 
 PCOD9051838
Probable space group: P -1
;
_chemical_formula_sum "Si O2"
_cell_formula_units_Z 16
_cell_length_a 16.297470
_cell_length_b 7.809235
_cell_length_c 12.493355
_cell_angle_alpha 112.703717
_cell_angle_beta 134.791726
_cell_angle_gamma 103.972779
_cell_volume 645.961813
_symmetry_space_group_name_H-M "P -1"
_symmetry_group_IT_number 2
_symmetry_cell_setting 'triclinic'
loop_
_space_group_symop_operation_xyz
x,y,z
-x,-y,-z
loop_
_atom_site_type_symbol
_atom_site_label
_atom_site_fract_x
_atom_site_fract_y
_atom_site_fract_z
Si Si1 0.317399 0.290866 0.214030
Si Si2 0.740028 0.364060 0.734565
Si Si3 0.258585 0.145587 0.895429
Si Si4 0.135964 0.194651 0.485900
Si Si5 0.471056 0.148862 0.941939
Si Si6 0.562728 0.232014 0.813450
Si Si7 0.949347 0.565777 0.182065
Si Si8 0.931431 0.677712 0.761537
O O1 0.500000 0.500000 0.500000
O O2 0.297614 0.481778 0.209550
O O3 0.310595 0.158238 0.068670
O O4 0.140687 0.012313 0.054097
O O5 0.826885 0.533700 0.742127
O O6 0.565614 0.018407 0.457245
O O7 0.872959 0.431192 0.958405
O O8 0.313661 0.068511 0.838185
O O9 0.386765 0.487942 0.078529
O O10 0.039899 0.924730 0.646660
O O11 0.335221 0.491228 0.789254
O O12 0.141548 0.280564 0.389951
O O13 0.082991 0.911840 0.376463
O O14 0.451461 0.067372 0.781556
O O15 0.500000 0.000000 0.000000
O O16 0.763237 0.383452 0.032409
O O17 0.043900 0.502163 0.299502
#
# Coordination Sequence:
#
# PCOD9051838 Si02
#       8
#     2   2   2   2   2   2   2   2
#     4  11  24  40  71 101 145 191 225 300 358 426
#     4  12  23  43  69 106 148 179 237 293 356 440
#     4  10  25  48  71 104 142 189 243 292 364 416
#     4  10  25  50  71 104 146 183 243 303 343 436
#     4  12  28  47  75 103 138 191 246 295 359 428
#     4  11  25  46  68 105 142 186 242 293 351 434
#     4  11  24  44  71 105 141 190 232 291 372 419
#     4  11  24  41  69 105 142 185 233 290 368 419
#
# _framework density 24.769266999999999
#
# number of rings (size 3 to 8) (size 9 to 14) (size 15 to 20)
#    0.000    1.000    3.750    3.000   10.500    2.500 
#    4.500    0.000    0.000    0.000    0.000    0.000 
#    0.000    0.000    0.000    0.000    0.000    0.000 
#
# Total GULP energy -89650.603800 kJ/mol
# GULP energy per Si atom -5603.162738 kJ/mol
# Density = 2.471289 g / cm^3
# Si number density = 24.769267 Si / 1000 Ang^3
#
#
#
# Elastic Constant Matrix: (Units=GPa)
#
#
# Indices 1 2 3 4 5 6 
#
# 1 115.0722 29.6679 2.5557 5.8118 -21.6444 17.7012
# 2 29.6679 101.2655 -0.1979 21.3777 -1.2689 5.5879
# 3 2.5557 -0.1979 98.9860 13.7533 -5.1776 9.7628
# 4 5.8118 21.3777 13.7533 38.4304 5.2382 -2.2381
# 5 -21.6444 -1.2689 -5.1776 5.2382 27.5087 4.8244
# 6 17.7012 5.5879 9.7628 -2.2381 4.8244 42.4373
#
#
#
# Elastic Compliance Matrix: (Units=1/GPa)
#
#
# Indices 1 2 3 4 5 6 
#
# 1 0.012778 -0.002576 0.001385 -0.003025 0.011970 -0.006830
# 2 -0.002576 0.012159 0.001183 -0.006906 0.000281 -0.001195
# 3 0.001385 0.001183 0.011598 -0.005981 0.005222 -0.004311
# 4 -0.003025 -0.006906 -0.005981 0.034423 -0.011550 0.006675
# 5 0.011970 0.000281 0.005222 -0.011550 0.051185 -0.012659
# 6 -0.006830 -0.001195 -0.004311 0.006675 -0.012659 0.029353
#
#
# Mechanical properties :
#
#
# Convention : Reuss Voigt Hill
#
# Bulk Modulus (GPa) = 27.38216 42.15279 34.76748
# Shear Modulus (GPa) = 30.54611 40.56181 35.55396
#
# Velocity S-wave (km/s) = 3.51554 4.05110 3.79279
# Velocity P-wave (km/s) = 5.24953 6.23995 5.76605
#
# Compressibility (1/GPa) = 0.03652013
#
# Stress axis : x y z
#
# Youngs Moduli (GPa) = 78.25772 82.24231 86.21903
#
# Poissons Ratio (x) = 0.21182 -0.11940
# Poissons Ratio (y) = 0.20156 -0.10199
# Poissons Ratio (z) = -0.10838 -0.09728
#
# Static dielectric constant tensor:
#      x y z
#    x 1.987710 0.010750 -0.012050 
#    y 0.010750 1.987720 -0.024600 
#    z -0.012050 -0.024600 1.976540 
# 
# From -- ./inp_files/448083.got.cif
#   From: 2010.05.17/outbox.cif.g08.bks.cpg/sg2_225_cif.got.tgz:448083.got - 2010.06.03 11:33:40.
