data_PCOD9051312
_publ_section_title
;
Structure prediction by ZEFSAII (Michael W. Deem and Ramdas Pophale) SiO2 
 PCOD9051312
Probable space group: P -1
;
_chemical_formula_sum "Si O2"
_cell_formula_units_Z 14
_cell_length_a 7.943972
_cell_length_b 22.568517
_cell_length_c 11.267035
_cell_angle_alpha 32.656742
_cell_angle_beta 133.583206
_cell_angle_gamma 149.402089
_cell_volume 550.223807
_symmetry_space_group_name_H-M "P -1"
_symmetry_group_IT_number 2
_symmetry_cell_setting 'triclinic'
loop_
_space_group_symop_operation_xyz
x,y,z
-x,-y,-z
loop_
_atom_site_type_symbol
_atom_site_label
_atom_site_fract_x
_atom_site_fract_y
_atom_site_fract_z
Si Si1 0.116776 0.371559 0.991048
Si Si2 0.075415 0.928325 0.934929
Si Si3 0.601757 0.222805 0.833213
Si Si4 0.190732 0.174707 0.279054
Si Si5 0.677966 0.007309 0.685126
Si Si6 0.021902 0.545041 0.800722
Si Si7 0.195105 0.295433 0.595085
O O1 0.053226 0.220491 0.223818
O O2 0.500000 0.500000 0.000000
O O3 0.944679 0.408139 0.921260
O O4 0.998717 0.361797 0.816345
O O5 0.929565 0.837484 0.892404
O O6 0.897618 0.984231 0.777241
O O7 0.457962 0.102128 0.855807
O O8 0.942087 0.801694 0.185307
O O9 0.456060 0.296271 0.662097
O O10 0.471565 0.106426 0.079485
O O11 0.583571 0.295262 0.292352
O O12 0.000000 0.000000 0.500000
O O13 0.500000 0.000000 0.500000
O O14 0.890139 0.178681 0.552316
O O15 0.777419 0.563265 0.620602
O O16 0.000000 0.500000 0.000000
#
# Coordination Sequence:
#
# PCOD9051312 Si02
#       7
#     2   2   2   2   2   2   2
#     4  10  25  46  63  97 147 182 231 283 356 429
#     4   9  20  38  64 104 136 174 231 294 351 395
#     4   9  20  38  66 104 139 171 225 309 347 399
#     4  11  26  46  73 102 139 191 239 287 348 427
#     4   9  17  30  63 103 130 161 230 297 337 385
#     4  11  26  46  73 102 139 191 239 287 348 427
#     4   9  20  38  64 104 136 174 231 294 351 395
#
# _framework density 25.444192000000001
#
# number of rings (size 3 to 8) (size 9 to 14) (size 15 to 20)
#    0.000    2.286    0.000    2.571   12.000    2.286 
#    0.000    1.429    0.000    0.000    0.000    0.000 
#    0.000    0.000    0.000    0.000    0.000    0.000 
#
# Total GULP energy -78060.164794 kJ/mol
# GULP energy per Si atom -5575.726057 kJ/mol
# Density = 2.538628 g / cm^3
# Si number density = 25.444192 Si / 1000 Ang^3
#
#
#
# Elastic Constant Matrix: (Units=GPa)
#
#
# Indices 1 2 3 4 5 6 
#
# 1 69.8961 23.3195 41.4757 -17.7975 33.9770 -28.4638
# 2 23.3195 105.6641 20.7578 11.3717 8.7165 -12.4580
# 3 41.4757 20.7578 124.5644 0.5711 35.7857 -7.7211
# 4 -17.7975 11.3717 0.5711 47.1826 -12.9693 9.5035
# 5 33.9770 8.7165 35.7857 -12.9693 50.1454 -3.7040
# 6 -28.4638 -12.4580 -7.7211 9.5035 -3.7040 44.2193
#
#
#
# Elastic Compliance Matrix: (Units=1/GPa)
#
#
# Indices 1 2 3 4 5 6 
#
# 1 0.036264 -0.004041 -0.005395 0.006318 -0.017020 0.018479
# 2 -0.004041 0.011078 -0.000409 -0.004458 0.000055 0.001411
# 3 -0.005395 -0.000409 0.011352 -0.003264 -0.005318 -0.001350
# 4 0.006318 -0.004458 -0.003264 0.026830 0.005537 -0.003062
# 5 -0.017020 0.000055 -0.005318 0.005537 0.035950 -0.010047
# 6 0.018479 0.001411 -0.001350 -0.003062 -0.010047 0.034488
#
#
# Mechanical properties :
#
#
# Convention : Reuss Voigt Hill
#
# Bulk Modulus (GPa) = 25.63813 52.35896 38.99854
# Shear Modulus (GPa) = 26.50404 42.61422 34.55913
#
# Velocity S-wave (km/s) = 3.23097 4.09689 3.68942
# Velocity P-wave (km/s) = 4.90071 6.55759 5.78873
#
# Compressibility (1/GPa) = 0.03900441
#
# Stress axis : x y z
#
# Youngs Moduli (GPa) = 27.57570 90.27218 88.09310
#
# Poissons Ratio (x) = 0.36475 0.47529
# Poissons Ratio (y) = 0.11142 0.03599
# Poissons Ratio (z) = 0.14878 0.03688
#
# Static dielectric constant tensor:
#      x y z
#    x 2.002330 -0.337230 0.033440 
#    y -0.337230 -1.418230 0.597870 
#    z 0.033440 0.597870 1.792810 
# 
# From -- ./inp_files/406876.got.cif
#   From: 2010.05.17/outbox.cif.g08.bks.cpg/sg2_204_cif.got.tgz:406876.got - 2010.06.03 11:33:40.
