data_PCOD9051052
_publ_section_title
;
Structure prediction by ZEFSAII (Michael W. Deem and Ramdas Pophale) SiO2 
 PCOD9051052
Probable space group: P -1
;
_chemical_formula_sum "Si O2"
_cell_formula_units_Z 16
_cell_length_a 13.124337
_cell_length_b 8.194153
_cell_length_c 8.425582
_cell_angle_alpha 60.064128
_cell_angle_beta 115.260090
_cell_angle_gamma 91.657142
_cell_volume 690.282876
_symmetry_space_group_name_H-M "P -1"
_symmetry_group_IT_number 2
_symmetry_cell_setting 'triclinic'
loop_
_space_group_symop_operation_xyz
x,y,z
-x,-y,-z
loop_
_atom_site_type_symbol
_atom_site_label
_atom_site_fract_x
_atom_site_fract_y
_atom_site_fract_z
Si Si1 0.479926 0.190987 0.114649
Si Si2 0.233363 0.151973 0.963265
Si Si3 0.676548 0.479774 0.671478
Si Si4 0.294266 0.120808 0.648587
Si Si5 0.984540 0.544977 0.283461
Si Si6 0.892954 0.189897 0.943812
Si Si7 0.550326 0.442276 0.305562
Si Si8 0.940168 0.869805 0.633531
O O1 0.536926 0.273496 0.261559
O O2 0.582393 0.029720 0.184405
O O3 0.366144 0.118518 0.122194
O O4 0.436121 0.373291 0.878593
O O5 0.241591 0.160630 0.771489
O O6 0.150219 0.347450 0.881110
O O7 0.168817 0.983416 0.042920
O O8 0.686844 0.689908 0.520047
O O9 0.793521 0.353126 0.883570
O O10 0.647112 0.385423 0.532220
O O11 0.570630 0.491576 0.713112
O O12 0.197224 0.052703 0.513783
O O13 0.000000 0.500000 0.500000
O O14 0.063677 0.695007 0.224382
O O15 0.026665 0.352178 0.300675
O O16 0.003845 0.125154 0.160863
O O17 0.000000 0.000000 0.500000
#
# Coordination Sequence:
#
# PCOD9051052 Si02
#       8
#     2   2   2   2   2   2   2   2
#     4  11  26  46  74 103 141 186 244 293 354 428
#     4  12  25  45  72 106 143 189 239 297 359 418
#     4  11  24  45  71 100 149 184 237 293 364 424
#     4  12  24  47  69 105 147 188 234 299 360 421
#     4  12  25  48  71 105 143 187 241 295 357 429
#     4  12  26  47  72 105 142 195 237 296 363 424
#     4  10  25  45  68 107 137 192 234 293 358 427
#     4  12  26  47  74 105 142 190 239 294 360 427
#
# _framework density 23.178902999999998
#
# number of rings (size 3 to 8) (size 9 to 14) (size 15 to 20)
#    0.000    0.500    5.000    1.875    5.250    1.500 
#    4.500    0.000    0.000    0.000    0.000    0.000 
#    0.000    0.000    0.000    0.000    0.000    0.000 
#
# Total GULP energy -89586.129724 kJ/mol
# GULP energy per Si atom -5599.133108 kJ/mol
# Density = 2.312615 g / cm^3
# Si number density = 23.178903 Si / 1000 Ang^3
#
#
#
# Elastic Constant Matrix: (Units=GPa)
#
#
# Indices 1 2 3 4 5 6 
#
# 1 119.9168 44.6108 27.4076 -0.4617 12.5339 22.8608
# 2 44.6108 89.0645 21.0598 -9.8406 -0.7880 22.0710
# 3 27.4076 21.0598 48.3455 -1.7021 6.0944 17.6587
# 4 -0.4617 -9.8406 -1.7021 19.0172 0.6885 6.6716
# 5 12.5339 -0.7880 6.0944 0.6885 52.7874 -10.5596
# 6 22.8608 22.0710 17.6587 6.6716 -10.5596 44.9435
#
#
#
# Elastic Compliance Matrix: (Units=1/GPa)
#
#
# Indices 1 2 3 4 5 6 
#
# 1 0.011621 -0.004476 -0.003201 -0.001159 -0.003041 -0.002998
# 2 -0.004476 0.016808 -0.001915 0.010810 0.000029 -0.006823
# 3 -0.003201 -0.001915 0.027823 0.005169 -0.004591 -0.010209
# 4 -0.001159 0.010810 0.005169 0.064893 -0.004495 -0.017439
# 5 -0.003041 0.000029 -0.004591 -0.004495 0.022094 0.009195
# 6 -0.002998 -0.006823 -0.010209 -0.017439 0.009195 0.035886
#
#
# Mechanical properties :
#
#
# Convention : Reuss Voigt Hill
#
# Bulk Modulus (GPa) = 26.97739 49.27589 38.12664
# Shear Modulus (GPa) = 23.73450 34.29954 29.01702
#
# Velocity S-wave (km/s) = 3.20342 3.85096 3.54202
# Velocity P-wave (km/s) = 5.03454 6.40923 5.76302
#
# Compressibility (1/GPa) = 0.03706807
#
# Stress axis : x y z
#
# Youngs Moduli (GPa) = 86.05422 59.49586 35.94163
#
# Poissons Ratio (x) = 0.26629 0.11503
# Poissons Ratio (y) = 0.38516 0.06884
# Poissons Ratio (z) = 0.27542 0.11396
#
# Static dielectric constant tensor:
#      x y z
#    x 1.836700 -0.014420 0.016360 
#    y -0.014420 1.888230 0.018350 
#    z 0.016360 0.018350 1.861820 
# 
# From -- ./inp_files/242692.got.cif
#   From: 2010.05.17/outbox.cif.g08.bks.cpg/sg2_122_cif.got.tgz:242692.got - 2010.06.03 11:33:40.
