data_PCOD9051412
_publ_section_title
;
Structure prediction by ZEFSAII (Michael W. Deem and Ramdas Pophale) SiO2 
 PCOD9051412
Probable space group: P -1
;
_chemical_formula_sum "Si O2"
_cell_formula_units_Z 15
_cell_length_a 11.474590
_cell_length_b 11.333218
_cell_length_c 6.877191
_cell_angle_alpha 63.370172
_cell_angle_beta 79.130716
_cell_angle_gamma 50.734268
_cell_volume 613.088785
_symmetry_space_group_name_H-M "P -1"
_symmetry_group_IT_number 2
_symmetry_cell_setting 'triclinic'
loop_
_space_group_symop_operation_xyz
x,y,z
-x,-y,-z
loop_
_atom_site_type_symbol
_atom_site_label
_atom_site_fract_x
_atom_site_fract_y
_atom_site_fract_z
Si Si1 0.670497 0.532126 0.023306
Si Si2 0.164060 0.041190 0.102327
Si Si3 0.300446 0.242272 0.382899
Si Si4 0.000000 0.000000 0.500000
Si Si5 0.045450 0.316249 0.636174
Si Si6 0.461578 0.947439 0.244244
Si Si7 0.769380 0.357094 0.509307
Si Si8 0.666849 0.283576 0.944043
O O1 0.752769 0.587998 0.832518
O O2 0.696092 0.372664 0.032415
O O3 0.714248 0.495961 0.261160
O O4 0.487520 0.681691 0.969628
O O5 0.324032 0.946633 0.233886
O O6 0.034002 0.090824 0.255772
O O7 0.200205 0.912024 0.009977
O O8 0.118295 0.209957 0.888227
O O9 0.175588 0.222035 0.500244
O O10 0.402218 0.098251 0.300507
O O11 0.395576 0.213836 0.567596
O O12 0.147190 0.818890 0.499749
O O13 0.000000 0.500000 0.500000
O O14 0.902442 0.327880 0.617906
O O15 0.500000 0.000000 0.000000
O O16 0.647664 0.382002 0.679083
#
# Coordination Sequence:
#
# PCOD9051412 Si02
#       8
#     2   2   2   1   2   2   2   2
#     4  11  25  44  75 102 145 177 235 294 348 416
#     4  11  25  47  76  99 147 184 235 293 348 421
#     4  11  26  44  72 107 136 184 239 288 353 420
#     4  10  26  44  70 104 132 196 234 276 350 412
#     4  12  28  45  70 106 144 190 234 284 352 424
#     4  11  23  46  74 103 139 184 236 294 350 411
#     4  11  26  45  71 101 145 187 231 286 349 417
#     4  10  25  46  70 105 133 186 235 289 351 409
#
# _framework density 24.466277999999999
#
# number of rings (size 3 to 8) (size 9 to 14) (size 15 to 20)
#    0.000    1.067    1.333    2.800    9.333    9.067 
#    0.000    0.000    0.000    0.000    0.000    0.000 
#    0.000    0.000    0.000    0.000    0.000    0.000 
#
# Total GULP energy -83699.873496 kJ/mol
# GULP energy per Si atom -5579.991566 kJ/mol
# Density = 2.441059 g / cm^3
# Si number density = 24.466278 Si / 1000 Ang^3
#
#
#
# Elastic Constant Matrix: (Units=GPa)
#
#
# Indices 1 2 3 4 5 6 
#
# 1 65.4824 7.6959 17.6345 8.0465 -18.9989 -3.1094
# 2 7.6959 50.1657 12.6261 18.5139 2.8339 4.7656
# 3 17.6345 12.6261 111.2595 10.6407 -27.4180 -0.9060
# 4 8.0465 18.5139 10.6407 45.6716 -5.3983 -10.4454
# 5 -18.9989 2.8339 -27.4180 -5.3983 42.7062 3.5551
# 6 -3.1094 4.7656 -0.9060 -10.4454 3.5551 24.0037
#
#
#
# Elastic Compliance Matrix: (Units=1/GPa)
#
#
# Indices 1 2 3 4 5 6 
#
# 1 0.018160 -0.003008 -0.000568 -0.000586 0.007712 0.001531
# 2 -0.003008 0.027248 -0.002877 -0.012972 -0.005742 -0.010702
# 3 -0.000568 -0.002877 0.011205 -0.000595 0.007089 -0.000388
# 4 -0.000586 -0.012972 -0.000595 0.031322 0.002872 0.015681
# 5 0.007712 -0.005742 0.007089 0.002872 0.032235 -0.001118
# 6 0.001531 -0.010702 -0.000388 0.015681 -0.001118 0.050958
#
#
# Mechanical properties :
#
#
# Convention : Reuss Voigt Hill
#
# Bulk Modulus (GPa) = 22.87923 33.64671 28.26297
# Shear Modulus (GPa) = 25.17588 35.07304 30.12446
#
# Velocity S-wave (km/s) = 3.21129 3.79030 3.51274
# Velocity P-wave (km/s) = 4.80848 5.73910 5.29428
#
# Compressibility (1/GPa) = 0.04370776
#
# Stress axis : x y z
#
# Youngs Moduli (GPa) = 55.06575 36.70031 89.24336
#
# Poissons Ratio (x) = 0.11039 0.05068
# Poissons Ratio (y) = 0.16562 0.25676
# Poissons Ratio (z) = 0.03127 0.10559
#
# Static dielectric constant tensor:
#      x y z
#    x 1.955180 -0.023590 0.018910 
#    y -0.023590 2.017800 -0.024070 
#    z 0.018910 -0.024070 1.947480 
# 
# From -- ./inp_files/69099.got.cif
#   From: 2010.05.17/outbox.cif.g08.bks.cpg/sg2_35_cif.got.tgz:69099.got - 2010.06.03 11:33:40.
