data_PCOD9051040
_publ_section_title
;
Structure prediction by ZEFSAII (Michael W. Deem and Ramdas Pophale) SiO2 
 PCOD9051040
Probable space group: P -1
;
_chemical_formula_sum "Si O2"
_cell_formula_units_Z 14
_cell_length_a 18.798115
_cell_length_b 8.528511
_cell_length_c 8.586116
_cell_angle_alpha 33.763145
_cell_angle_beta 130.954143
_cell_angle_gamma 132.104854
_cell_volume 551.301833
_symmetry_space_group_name_H-M "P -1"
_symmetry_group_IT_number 2
_symmetry_cell_setting 'triclinic'
loop_
_space_group_symop_operation_xyz
x,y,z
-x,-y,-z
loop_
_atom_site_type_symbol
_atom_site_label
_atom_site_fract_x
_atom_site_fract_y
_atom_site_fract_z
Si Si1 0.848037 0.849797 0.316279
Si Si2 0.431881 0.454466 0.590963
Si Si3 0.909256 0.311156 0.421121
Si Si4 0.670416 0.089668 0.920566
Si Si5 0.390647 0.123339 0.340387
Si Si6 0.271116 0.551895 0.791793
Si Si7 0.950204 0.748874 0.853100
O O1 0.785830 0.585220 0.335544
O O2 0.895997 0.722546 0.632064
O O3 0.775062 0.028577 0.123304
O O4 0.935760 0.068805 0.161918
O O5 0.500000 0.500000 0.500000
O O6 0.501914 0.658304 0.653610
O O7 0.339713 0.586558 0.335453
O O8 0.395126 0.120062 0.869347
O O9 0.807031 0.355913 0.291067
O O10 0.000000 0.500000 0.500000
O O11 0.906900 0.972354 0.704785
O O12 0.936411 0.450638 0.173600
O O13 0.627592 0.968130 0.789790
O O14 0.362855 0.830755 0.646497
O O15 0.313227 0.300103 0.127715
#
# Coordination Sequence:
#
# PCOD9051040 Si02
#       7
#     2   2   2   2   2   2   2
#     4  10  25  45  68 102 133 180 230 276 335 385
#     4  12  26  45  69 100 134 168 216 283 339 400
#     4  12  25  42  67  98 139 181 226 270 339 387
#     4  11  24  43  72  95 133 174 222 271 333 408
#     4  11  24  44  69  98 132 175 226 269 333 399
#     4  11  24  42  69  98 136 178 224 274 323 406
#     4  11  26  43  68  98 141 179 226 283 325 395
#
# _framework density 25.394437
#
# number of rings (size 3 to 8) (size 9 to 14) (size 15 to 20)
#    0.000    0.857    1.429    5.143    4.000   10.286 
#    0.000    0.000    0.000    0.000    0.000    0.000 
#    0.000    0.000    0.000    0.000    0.000    0.000 
#
# Total GULP energy -78613.746213 kJ/mol
# GULP energy per Si atom -5615.267587 kJ/mol
# Density = 2.533664 g / cm^3
# Si number density = 25.394437 Si / 1000 Ang^3
#
#
#
# Elastic Constant Matrix: (Units=GPa)
#
#
# Indices 1 2 3 4 5 6 
#
# 1 114.8409 -17.2910 19.2398 2.2421 20.2893 -6.4287
# 2 -17.2910 60.0278 11.5633 0.2174 1.8403 4.3069
# 3 19.2398 11.5633 72.8981 -4.6280 -0.4931 -1.8536
# 4 2.2421 0.2174 -4.6280 25.9336 -0.0495 2.7701
# 5 20.2893 1.8403 -0.4931 -0.0495 48.7312 -6.2215
# 6 -6.4287 4.3069 -1.8536 2.7701 -6.2215 27.0522
#
#
#
# Elastic Compliance Matrix: (Units=1/GPa)
#
#
# Indices 1 2 3 4 5 6 
#
# 1 0.010777 0.003881 -0.003578 -0.001699 -0.004567 0.000822
# 2 0.003881 0.018876 -0.004170 -0.000933 -0.002743 -0.002904
# 3 -0.003578 -0.004170 0.015554 0.003015 0.001937 0.001016
# 4 -0.001699 -0.000933 0.003015 0.039685 0.000297 -0.004044
# 5 -0.004567 -0.002743 0.001937 0.000297 0.023156 0.004779
# 6 0.000822 -0.002904 0.001016 -0.004044 0.004779 0.039206
#
#
# Mechanical properties :
#
#
# Convention : Reuss Voigt Hill
#
# Bulk Modulus (GPa) = 26.68583 30.53234 28.60908
# Shear Modulus (GPa) = 29.85441 35.96040 32.90741
#
# Velocity S-wave (km/s) = 3.43246 3.76716 3.60370
# Velocity P-wave (km/s) = 5.12254 5.56519 5.34845
#
# Compressibility (1/GPa) = 0.03747307
#
# Stress axis : x y z
#
# Youngs Moduli (GPa) = 92.78629 52.97759 64.29252
#
# Poissons Ratio (x) = -0.20560 0.23003
# Poissons Ratio (y) = -0.36009 0.26810
# Poissons Ratio (z) = 0.33198 0.22092
#
# Static dielectric constant tensor:
#      x y z
#    x 1.975420 -0.022770 0.019930 
#    y -0.022770 2.003100 0.029040 
#    z 0.019930 0.029040 1.930790 
# 
# From -- ./inp_files/328294.got.cif
#   From: 2010.05.17/outbox.cif.g08.bks.cpg/sg2_165_cif.got.tgz:328294.got - 2010.06.03 11:33:40.
