data_PCOD9051088
_publ_section_title
;
Structure prediction by ZEFSAII (Michael W. Deem and Ramdas Pophale) SiO2 
 PCOD9051088
Probable space group: P -1
;
_chemical_formula_sum "Si O2"
_cell_formula_units_Z 16
_cell_length_a 11.372357
_cell_length_b 14.489344
_cell_length_c 10.743816
_cell_angle_alpha 30.387788
_cell_angle_beta 105.499971
_cell_angle_gamma 122.614714
_cell_volume 668.199169
_symmetry_space_group_name_H-M "P -1"
_symmetry_group_IT_number 2
_symmetry_cell_setting 'triclinic'
loop_
_space_group_symop_operation_xyz
x,y,z
-x,-y,-z
loop_
_atom_site_type_symbol
_atom_site_label
_atom_site_fract_x
_atom_site_fract_y
_atom_site_fract_z
Si Si1 0.399806 0.393814 0.943592
Si Si2 0.548097 0.850166 0.560304
Si Si3 0.380421 0.031238 0.207863
Si Si4 0.824758 0.265416 0.708213
Si Si5 0.694423 0.382262 0.742095
Si Si6 0.880617 0.910825 0.187186
Si Si7 0.889797 0.331884 0.049816
Si Si8 0.949888 0.861812 0.776918
O O1 0.486145 0.323011 0.136436
O O2 0.355785 0.216652 0.025652
O O3 0.236369 0.302299 0.064757
O O4 0.505444 0.675527 0.634354
O O5 0.444117 0.934244 0.431364
O O6 0.731884 0.077907 0.349358
O O7 0.226025 0.802844 0.368548
O O8 0.521118 0.176652 0.979497
O O9 0.720756 0.307466 0.706592
O O10 0.000000 0.500000 0.500000
O O11 0.814996 0.052850 0.005189
O O12 0.740737 0.635585 0.452527
O O13 0.815993 0.414278 0.842269
O O14 0.969691 0.970826 0.274421
O O15 0.000000 0.000000 0.000000
O O16 0.989412 0.286328 0.047943
O O17 0.000000 0.500000 0.000000
O O18 0.000000 0.000000 0.500000
#
# Coordination Sequence:
#
# PCOD9051088 Si02
#       8
#     2   2   2   2   2   2   2   2
#     4  11  25  44  73 107 148 197 249 309 379 444
#     4  10  25  45  69 104 150 190 245 304 376 443
#     4  11  27  46  72 105 149 198 249 306 380 447
#     4  12  26  46  71 106 149 190 253 310 369 443
#     4  11  26  46  73 104 149 198 249 304 375 449
#     4  12  26  46  75 109 147 195 247 309 374 442
#     4  11  24  45  73 109 152 194 245 312 374 445
#     4  12  25  45  74 110 150 191 250 313 369 443
#
# _framework density 23.944956000000001
#
# number of rings (size 3 to 8) (size 9 to 14) (size 15 to 20)
#    0.000    0.750    3.750    2.250    3.500    6.500 
#    0.000    0.000    0.000    0.000    0.000    0.000 
#    0.000    0.000    0.000    0.000    0.000    0.000 
#
# Total GULP energy -89546.692213 kJ/mol
# GULP energy per Si atom -5596.668263 kJ/mol
# Density = 2.389046 g / cm^3
# Si number density = 23.944956 Si / 1000 Ang^3
#
#
#
# Elastic Constant Matrix: (Units=GPa)
#
#
# Indices 1 2 3 4 5 6 
#
# 1 92.7913 22.8085 23.6765 -25.1694 -0.3897 -7.6683
# 2 22.8085 130.1651 28.1754 -32.9892 -5.2001 -8.3985
# 3 23.6765 28.1754 106.7924 -32.0816 16.7674 -1.5012
# 4 -25.1694 -32.9892 -32.0816 43.3447 -4.6488 3.2474
# 5 -0.3897 -5.2001 16.7674 -4.6488 36.6749 -4.1445
# 6 -7.6683 -8.3985 -1.5012 3.2474 -4.1445 39.5103
#
#
#
# Elastic Compliance Matrix: (Units=1/GPa)
#
#
# Indices 1 2 3 4 5 6 
#
# 1 0.013091 -0.000157 -0.001084 0.006705 0.001699 0.002093
# 2 -0.000157 0.009899 -0.000924 0.006938 0.002904 0.001773
# 3 -0.001084 -0.000924 0.012999 0.007811 -0.005220 -0.001102
# 4 0.006705 0.006938 0.007811 0.038266 0.002354 0.000175
# 5 0.001699 0.002904 -0.005220 0.002354 0.030809 0.003787
# 6 0.002093 0.001773 -0.001102 0.000175 0.003787 0.026434
#
#
# Mechanical properties :
#
#
# Convention : Reuss Voigt Hill
#
# Bulk Modulus (GPa) = 31.58640 53.22995 42.40818
# Shear Modulus (GPa) = 34.15788 40.91187 37.53487
#
# Velocity S-wave (km/s) = 3.78102 4.13798 3.96352
# Velocity P-wave (km/s) = 5.68167 6.71632 6.22054
#
# Compressibility (1/GPa) = 0.03165919
#
# Stress axis : x y z
#
# Youngs Moduli (GPa) = 76.38871 101.02375 76.93115
#
# Poissons Ratio (x) = 0.01585 0.08338
# Poissons Ratio (y) = 0.01199 0.07106
# Poissons Ratio (z) = 0.08280 0.09332
#
# Static dielectric constant tensor:
#      x y z
#    x 1.869830 -0.013360 0.019440 
#    y -0.013360 2.077030 0.010410 
#    z 0.019440 0.010410 1.897270 
# 
# From -- ./inp_files/433679.got.cif
#   From: 2010.05.17/outbox.cif.g08.bks.cpg/sg2_217_cif.got.tgz:433679.got - 2010.06.03 11:33:40.
