data_PCOD9051635
_publ_section_title
;
Structure prediction by ZEFSAII (Michael W. Deem and Ramdas Pophale) SiO2 
 PCOD9051635
Probable space group: P -1
;
_chemical_formula_sum "Si O2"
_cell_formula_units_Z 16
_cell_length_a 15.211737
_cell_length_b 7.934687
_cell_length_c 9.632591
_cell_angle_alpha 49.107503
_cell_angle_beta 77.164548
_cell_angle_gamma 54.039777
_cell_volume 685.929316
_symmetry_space_group_name_H-M "P -1"
_symmetry_group_IT_number 2
_symmetry_cell_setting 'triclinic'
loop_
_space_group_symop_operation_xyz
x,y,z
-x,-y,-z
loop_
_atom_site_type_symbol
_atom_site_label
_atom_site_fract_x
_atom_site_fract_y
_atom_site_fract_z
Si Si1 0.602982 0.841742 0.148793
Si Si2 0.933213 0.594706 0.115836
Si Si3 0.712153 0.037265 0.477662
Si Si4 0.628438 0.226662 0.103967
Si Si5 0.869554 0.426818 0.852194
Si Si6 0.530143 0.747669 0.516929
Si Si7 0.171474 0.683381 0.763435
Si Si8 0.758885 0.234790 0.845728
O O1 0.562009 0.789331 0.332970
O O2 0.702197 0.587753 0.163528
O O3 0.635332 0.036877 0.083779
O O4 0.500000 0.000000 0.000000
O O5 0.900946 0.384921 0.267443
O O6 0.015774 0.600594 0.188288
O O7 0.000000 0.500000 0.000000
O O8 0.825601 0.913242 0.958463
O O9 0.766304 0.753803 0.695385
O O10 0.683211 0.046539 0.319755
O O11 0.580309 0.248373 0.458493
O O12 0.806393 0.094656 0.412309
O O13 0.500000 0.500000 0.000000
O O14 0.707944 0.304205 0.982348
O O15 0.852003 0.288591 0.802322
O O16 0.867880 0.310606 0.067830
O O17 0.646559 0.459274 0.679585
O O18 0.500000 0.000000 0.500000
#
# Coordination Sequence:
#
# PCOD9051635 Si02
#       8
#     2   2   2   2   2   2   2   2
#     4  12  25  40  65 102 147 190 230 290 368 427
#     4  10  25  47  70 100 141 191 245 306 361 417
#     4  12  24  43  73 107 143 192 234 296 363 440
#     4  12  22  41  69 104 142 188 233 291 363 440
#     4  11  24  45  75 102 137 187 252 297 358 429
#     4  12  24  43  70 109 147 184 242 293 358 450
#     4  11  25  44  67 100 149 186 234 300 366 425
#     4  12  22  44  78 100 142 194 239 297 365 430
#
# _framework density 23.326018999999999
#
# number of rings (size 3 to 8) (size 9 to 14) (size 15 to 20)
#    0.000    0.500    6.250    1.875    0.000    3.000 
#    0.000    1.875    0.000    0.000    0.000    0.000 
#    0.000    0.000    0.000    0.000    0.000    0.000 
#
# Total GULP energy -89208.723671 kJ/mol
# GULP energy per Si atom -5575.545229 kJ/mol
# Density = 2.327293 g / cm^3
# Si number density = 23.326019 Si / 1000 Ang^3
#
#
#
# Elastic Constant Matrix: (Units=GPa)
#
#
# Indices 1 2 3 4 5 6 
#
# 1 142.4862 10.9619 29.6788 4.3205 -17.6432 -14.1384
# 2 10.9619 70.2008 23.8506 -16.1597 -1.5584 -15.6105
# 3 29.6788 23.8506 72.5152 -3.9466 3.7575 -6.4693
# 4 4.3205 -16.1597 -3.9466 23.2949 -3.7075 -6.4538
# 5 -17.6432 -1.5584 3.7575 -3.7075 28.2448 -8.7658
# 6 -14.1384 -15.6105 -6.4693 -6.4538 -8.7658 28.1739
#
#
#
# Elastic Compliance Matrix: (Units=1/GPa)
#
#
# Indices 1 2 3 4 5 6 
#
# 1 0.009927 0.003551 -0.004637 0.004387 0.010768 0.010240
# 2 0.003551 0.030124 -0.008082 0.029742 0.017855 0.028986
# 3 -0.004637 -0.008082 0.017948 -0.004800 -0.008339 -0.006378
# 4 0.004387 0.029742 -0.004800 0.079003 0.029290 0.044789
# 5 0.010768 0.017855 -0.008339 0.029290 0.060110 0.038793
# 6 0.010240 0.028986 -0.006378 0.044789 0.038793 0.077558
#
#
# Mechanical properties :
#
#
# Convention : Reuss Voigt Hill
#
# Bulk Modulus (GPa) = 25.21156 46.02053 35.61605
# Shear Modulus (GPa) = 16.32780 30.65678 23.49229
#
# Velocity S-wave (km/s) = 2.64859 3.62922 3.17697
# Velocity P-wave (km/s) = 4.49279 6.11014 5.36279
#
# Compressibility (1/GPa) = 0.03966435
#
# Stress axis : x y z
#
# Youngs Moduli (GPa) = 100.73453 33.19569 55.71658
#
# Poissons Ratio (x) = -0.11788 0.25833
# Poissons Ratio (y) = -0.35772 0.45031
# Poissons Ratio (z) = 0.46706 0.26829
#
# Static dielectric constant tensor:
#      x y z
#    x 2.461090 0.171160 -0.023360 
#    y 0.171160 1.944840 0.035400 
#    z -0.023360 0.035400 1.907440 
# 
# From -- ./inp_files/446794.got.cif
#   From: 2010.05.17/outbox.cif.g08.bks.cpg/sg2_224_cif.got.tgz:446794.got - 2010.06.03 11:33:40.
