data_PCOD9051000
_publ_section_title
;
Structure prediction by ZEFSAII (Michael W. Deem and Ramdas Pophale) SiO2 
 PCOD9051000
Probable space group: P -1
;
_chemical_formula_sum "Si O2"
_cell_formula_units_Z 16
_cell_length_a 14.835750
_cell_length_b 8.945503
_cell_length_c 7.678032
_cell_angle_alpha 69.528599
_cell_angle_beta 94.664480
_cell_angle_gamma 47.942783
_cell_volume 631.630871
_symmetry_space_group_name_H-M "P -1"
_symmetry_group_IT_number 2
_symmetry_cell_setting 'triclinic'
loop_
_space_group_symop_operation_xyz
x,y,z
-x,-y,-z
loop_
_atom_site_type_symbol
_atom_site_label
_atom_site_fract_x
_atom_site_fract_y
_atom_site_fract_z
Si Si1 0.289751 0.969639 0.547923
Si Si2 0.449199 0.040431 0.673460
Si Si3 0.231138 0.091288 0.071309
Si Si4 0.556768 0.443402 0.728945
Si Si5 0.961547 0.239868 0.905158
Si Si6 0.255580 0.416217 0.961057
Si Si7 0.151551 0.861158 0.580888
Si Si8 0.268088 0.554900 0.417766
O O1 0.330328 0.069117 0.622739
O O2 0.422833 0.678447 0.709808
O O3 0.168738 0.018745 0.579550
O O4 0.261916 0.053030 0.304674
O O5 0.584422 0.809724 0.883931
O O6 0.500000 0.000000 0.500000
O O7 0.385415 0.290801 0.624462
O O8 0.222044 0.286152 0.929399
O O9 0.356260 0.828683 0.110815
O O10 0.093035 0.176713 0.972535
O O11 0.500000 0.500000 0.500000
O O12 0.663133 0.451048 0.735732
O O13 0.856121 0.421205 0.968369
O O14 0.861958 0.383360 0.664981
O O15 0.000000 0.000000 0.000000
O O16 0.234871 0.611265 0.784839
O O17 0.212571 0.774442 0.431658
O O18 0.000000 0.000000 0.500000
#
# Coordination Sequence:
#
# PCOD9051000 Si02
#       8
#     2   2   2   2   2   2   2   2
#     4  11  21  42  70  98 139 181 224 280 352 402
#     4  12  22  42  72 106 134 164 232 306 337 381
#     4  11  21  38  67 100 131 177 237 280 329 403
#     4  10  17  34  67  98 121 171 231 275 328 392
#     4  12  22  39  67 101 131 180 239 284 324 402
#     4  12  26  43  67 104 139 177 231 285 342 411
#     4  12  28  48  66  96 150 190 218 269 353 430
#     4  12  22  43  69 100 138 179 224 291 339 398
#
# _framework density 25.331253
#
# number of rings (size 3 to 8) (size 9 to 14) (size 15 to 20)
#    0.000    0.500    7.500    2.625    0.000    2.000 
#    0.000    3.750    0.000    0.000    0.000    0.000 
#    0.000    0.000    0.000    0.000    0.000    0.000 
#
# Total GULP energy -89467.417125 kJ/mol
# GULP energy per Si atom -5591.713570 kJ/mol
# Density = 2.527360 g / cm^3
# Si number density = 25.331253 Si / 1000 Ang^3
#
#
#
# Elastic Constant Matrix: (Units=GPa)
#
#
# Indices 1 2 3 4 5 6 
#
# 1 170.0365 7.1032 23.9735 -2.1822 25.9041 22.5868
# 2 7.1032 80.4501 -3.2209 -16.0591 3.3888 8.8958
# 3 23.9735 -3.2209 73.4921 -22.7849 10.3662 0.8795
# 4 -2.1822 -16.0591 -22.7849 29.3315 1.6546 -0.1856
# 5 25.9041 3.3888 10.3662 1.6546 41.7111 -9.2526
# 6 22.5868 8.8958 0.8795 -0.1856 -9.2526 38.2218
#
#
#
# Elastic Compliance Matrix: (Units=1/GPa)
#
#
# Indices 1 2 3 4 5 6 
#
# 1 0.007786 0.000025 -0.001838 -0.000553 -0.005677 -0.005942
# 2 0.000025 0.015994 0.005443 0.013197 -0.004262 -0.004830
# 3 -0.001838 0.005443 0.021438 0.019815 -0.005857 -0.001995
# 4 -0.000553 0.013197 0.019815 0.057148 -0.009055 -0.005115
# 5 -0.005677 -0.004262 -0.005857 -0.009055 0.032384 0.012277
# 6 -0.005942 -0.004830 -0.001995 -0.005115 0.012277 0.033791
#
#
# Mechanical properties :
#
#
# Convention : Reuss Voigt Hill
#
# Bulk Modulus (GPa) = 19.05573 42.18779 30.62176
# Shear Modulus (GPa) = 27.96818 41.59441 34.78130
#
# Velocity S-wave (km/s) = 3.32640 4.05658 3.70950
# Velocity P-wave (km/s) = 4.72146 6.21544 5.51924
#
# Compressibility (1/GPa) = 0.05247766
#
# Stress axis : x y z
#
# Youngs Moduli (GPa) = 128.43218 62.52464 46.64541
#
# Poissons Ratio (x) = -0.00155 0.08575
# Poissons Ratio (y) = -0.00318 -0.25390
# Poissons Ratio (z) = 0.23610 -0.34034
#
# Static dielectric constant tensor:
#      x y z
#    x 2.110770 0.021030 -0.005240 
#    y 0.021030 2.034820 0.085960 
#    z -0.005240 0.085960 2.107840 
# 
# From -- ./inp_files/186509.got.cif
#   From: 2010.05.17/outbox.cif.g08.bks.cpg/sg2_94_cif.got.tgz:186509.got - 2010.06.03 11:33:40.
