data_PCOD9051322
_publ_section_title
;
Structure prediction by ZEFSAII (Michael W. Deem and Ramdas Pophale) SiO2 
 PCOD9051322
Probable space group: P -1
;
_chemical_formula_sum "Si O2"
_cell_formula_units_Z 12
_cell_length_a 20.220440
_cell_length_b 9.700838
_cell_length_c 16.051653
_cell_angle_alpha 142.213307
_cell_angle_beta 162.731386
_cell_angle_gamma 33.608974
_cell_volume 517.122438
_symmetry_space_group_name_H-M "P -1"
_symmetry_group_IT_number 2
_symmetry_cell_setting 'triclinic'
loop_
_space_group_symop_operation_xyz
x,y,z
-x,-y,-z
loop_
_atom_site_type_symbol
_atom_site_label
_atom_site_fract_x
_atom_site_fract_y
_atom_site_fract_z
Si Si1 0.390319 0.819558 0.822624
Si Si2 0.156080 0.779210 0.022086
Si Si3 0.837712 0.896667 0.966235
Si Si4 0.718261 0.217304 0.140674
Si Si5 0.688139 0.444117 0.545771
Si Si6 0.935019 0.544750 0.347852
O O1 0.307528 0.886834 0.849912
O O2 0.246863 0.712965 0.537907
O O3 0.655138 0.584212 0.034583
O O4 0.500000 0.000000 0.000000
O O5 0.390543 0.567809 0.251342
O O6 0.970002 0.672871 0.709025
O O7 0.234159 0.912334 0.104817
O O8 0.000000 0.000000 0.000000
O O9 0.136486 0.756853 0.272532
O O10 0.729344 0.046345 0.993570
O O11 0.756380 0.677118 0.744758
O O12 0.972970 0.250038 0.468872
O O13 0.500000 0.500000 0.000000
O O14 0.000000 0.500000 0.500000
#
# Coordination Sequence:
#
# PCOD9051322 Si02
#       6
#     2   2   2   2   2   2
#     4  11  25  44  68 102 140 177 233 293 343 419
#     4  11  25  42  70 100 139 184 228 292 345 416
#     4  11  24  46  69 100 144 180 232 289 349 426
#     4  12  24  42  76 102 137 191 233 287 354 418
#     4  10  25  46  66 101 138 181 231 284 353 418
#     4  11  22  43  65 102 133 175 237 278 346 413
#
# _framework density 23.205337
#
# number of rings (size 3 to 8) (size 9 to 14) (size 15 to 20)
#    0.000    1.000    3.333    2.500    4.667    3.333 
#    9.000    0.000    0.000    0.000    0.000    0.000 
#    0.000    0.000    0.000    0.000    0.000    0.000 
#
# Total GULP energy -66903.404374 kJ/mol
# GULP energy per Si atom -5575.283698 kJ/mol
# Density = 2.315252 g / cm^3
# Si number density = 23.205337 Si / 1000 Ang^3
#
#
#
# Elastic Constant Matrix: (Units=GPa)
#
#
# Indices 1 2 3 4 5 6 
#
# 1 142.6093 40.4199 33.1451 34.5215 -4.8449 -17.5429
# 2 40.4199 111.4366 23.5143 20.6646 -13.3751 -23.2266
# 3 33.1451 23.5143 92.5059 14.9408 -22.7101 -15.4550
# 4 34.5215 20.6646 14.9408 57.7312 -5.8623 -11.8665
# 5 -4.8449 -13.3751 -22.7101 -5.8623 37.0294 12.2687
# 6 -17.5429 -23.2266 -15.4550 -11.8665 12.2687 39.8530
#
#
#
# Elastic Compliance Matrix: (Units=1/GPa)
#
#
# Indices 1 2 3 4 5 6 
#
# 1 0.009245 -0.002051 -0.002420 -0.004102 -0.002118 0.001366
# 2 -0.002051 0.011278 -0.000741 -0.001544 0.001643 0.004417
# 3 -0.002420 -0.000741 0.014070 -0.000884 0.007439 0.001405
# 4 -0.004102 -0.001544 -0.000884 0.021258 0.000714 0.003061
# 5 -0.002118 0.001643 0.007439 0.000714 0.034479 -0.007492
# 6 0.001366 0.004417 0.001405 0.003061 -0.007492 0.032031
#
#
# Mechanical properties :
#
#
# Convention : Reuss Voigt Hill
#
# Bulk Modulus (GPa) = 41.37835 60.07894 50.72865
# Shear Modulus (GPa) = 35.50060 43.55420 39.52740
#
# Velocity S-wave (km/s) = 3.91557 4.33703 4.13167
# Velocity P-wave (km/s) = 6.18970 7.14325 6.68350
#
# Compressibility (1/GPa) = 0.02416722
#
# Stress axis : x y z
#
# Youngs Moduli (GPa) = 108.16448 88.66554 71.07535
#
# Poissons Ratio (x) = 0.18190 0.17202
# Poissons Ratio (y) = 0.22190 0.05268
# Poissons Ratio (z) = 0.26179 0.06572
#
# Static dielectric constant tensor:
#      x y z
#    x 2.723200 -1.372200 -0.979720 
#    y -1.372200 4.318890 1.418290 
#    z -0.979720 1.418290 3.033320 
# 
# From -- ./inp_files/302221.got.cif
#   From: 2010.05.17/outbox.cif.g08.bks.cpg/sg2_152_cif.got.tgz:302221.got - 2010.06.03 11:33:40.
