data_PCOD9051863
_publ_section_title
;
Structure prediction by ZEFSAII (Michael W. Deem and Ramdas Pophale) SiO2 
 PCOD9051863
Probable space group: P -1
;
_chemical_formula_sum "Si O2"
_cell_formula_units_Z 10
_cell_length_a 6.987240
_cell_length_b 7.842851
_cell_length_c 7.388520
_cell_angle_alpha 89.938142
_cell_angle_beta 89.696582
_cell_angle_gamma 83.247877
_cell_volume 402.076069
_symmetry_space_group_name_H-M "P -1"
_symmetry_group_IT_number 2
_symmetry_cell_setting 'triclinic'
loop_
_space_group_symop_operation_xyz
x,y,z
-x,-y,-z
loop_
_atom_site_type_symbol
_atom_site_label
_atom_site_fract_x
_atom_site_fract_y
_atom_site_fract_z
Si Si1 0.948720 0.804517 0.956448
Si Si2 0.413724 0.021217 0.200840
Si Si3 0.730509 0.497094 0.985972
Si Si4 0.560103 0.224381 0.501392
Si Si5 0.782681 0.524970 0.554098
O O1 0.788922 0.859122 0.804215
O O2 0.820045 0.667744 0.062443
O O3 0.146253 0.676148 0.937847
O O4 0.000000 0.000000 0.000000
O O5 0.566254 0.093637 0.335116
O O6 0.373350 0.851540 0.306036
O O7 0.500000 0.000000 0.000000
O O8 0.765606 0.502944 0.769606
O O9 0.500000 0.500000 0.000000
O O10 0.679630 0.377780 0.457606
O O11 0.338501 0.302189 0.513560
O O12 0.000000 0.500000 0.500000
#
# Coordination Sequence:
#
# PCOD9051863 Si02
#       5
#     2   2   2   2   2
#     4  11  26  44  75 117 150 203 268 323 391 475
#     4  11  25  48  75 108 153 202 256 327 392 467
#     4  11  27  49  77 115 158 207 271 330 396 480
#     4  10  25  48  72 110 150 198 257 318 395 472
#     4  11  25  46  76 105 154 201 252 327 396 469
#
# _framework density 24.870919000000001
#
# number of rings (size 3 to 8) (size 9 to 14) (size 15 to 20)
#    0.000    1.200    2.000    1.200    8.400    6.400 
#    0.000    5.000    0.000    0.000    0.000    0.000 
#    0.000    0.000    0.000    0.000    0.000    0.000 
#
# Total GULP energy -55800.117277 kJ/mol
# GULP energy per Si atom -5580.011728 kJ/mol
# Density = 2.481431 g / cm^3
# Si number density = 24.870919 Si / 1000 Ang^3
#
#
#
# Elastic Constant Matrix: (Units=GPa)
#
#
# Indices 1 2 3 4 5 6 
#
# 1 195.2279 64.0164 40.4881 -9.9679 -8.2228 -22.4777
# 2 64.0164 195.9872 36.0139 -9.8300 11.6600 -4.4049
# 3 40.4881 36.0139 134.7236 -7.9678 -8.9958 -17.6415
# 4 -9.9679 -9.8300 -7.9678 32.4973 -6.3571 35.9895
# 5 -8.2228 11.6600 -8.9958 -6.3571 37.6344 -6.1398
# 6 -22.4777 -4.4049 -17.6415 35.9895 -6.1398 57.7124
#
#
#
# Elastic Compliance Matrix: (Units=1/GPa)
#
#
# Indices 1 2 3 4 5 6 
#
# 1 0.006413 -0.002126 -0.000850 -0.003319 0.002007 0.004359
# 2 -0.002126 0.006392 -0.001503 0.005150 -0.002634 -0.004292
# 3 -0.000850 -0.001503 0.008634 -0.002676 0.002566 0.004135
# 4 -0.003319 0.005150 -0.002676 0.106230 0.003965 -0.067541
# 5 0.002007 -0.002634 0.002566 0.003965 0.029440 0.002025
# 6 0.004359 -0.004292 0.004135 -0.067541 0.002025 0.062296
#
#
# Mechanical properties :
#
#
# Convention : Reuss Voigt Hill
#
# Bulk Modulus (GPa) = 80.12892 89.66393 84.89643
# Shear Modulus (GPa) = 21.50326 51.26350 36.38338
#
# Velocity S-wave (km/s) = 2.94359 4.54495 3.82892
# Velocity P-wave (km/s) = 6.62124 7.97948 7.33188
#
# Compressibility (1/GPa) = 0.01247989
#
# Stress axis : x y z
#
# Youngs Moduli (GPa) = 155.94038 156.45439 115.81468
#
# Poissons Ratio (x) = 0.33267 0.09848
# Poissons Ratio (y) = 0.33157 0.17405
# Poissons Ratio (z) = 0.13260 0.23513
#
# Static dielectric constant tensor:
#      x y z
#    x 2.065070 -0.063920 -0.200750 
#    y -0.063920 2.230990 0.239250 
#    z -0.200750 0.239250 2.422140 
# 
# From -- ./inp_files/129089.got.cif
#   From: 2010.05.17/outbox.cif.g08.bks.cpg/sg2_65_cif.got.tgz:129089.got - 2010.06.03 11:33:40.
