data_PCOD9051975
_publ_section_title
;
Structure prediction by ZEFSAII (Michael W. Deem and Ramdas Pophale) SiO2 
 PCOD9051975
Probable space group: P -1
;
_chemical_formula_sum "Si O2"
_cell_formula_units_Z 14
_cell_length_a 5.815778
_cell_length_b 18.265808
_cell_length_c 8.626763
_cell_angle_alpha 144.063585
_cell_angle_beta 74.370874
_cell_angle_gamma 95.582276
_cell_volume 505.968642
_symmetry_space_group_name_H-M "P -1"
_symmetry_group_IT_number 2
_symmetry_cell_setting 'triclinic'
loop_
_space_group_symop_operation_xyz
x,y,z
-x,-y,-z
loop_
_atom_site_type_symbol
_atom_site_label
_atom_site_fract_x
_atom_site_fract_y
_atom_site_fract_z
Si Si1 0.898039 0.713047 0.457102
Si Si2 0.131765 0.605879 0.727199
Si Si3 0.619170 0.706691 0.072504
Si Si4 0.662009 0.479273 0.129989
Si Si5 0.152014 0.811014 0.859300
Si Si6 0.573996 0.089167 0.779116
Si Si7 0.512525 0.108665 0.323644
O O1 0.953236 0.763582 0.703210
O O2 0.705981 0.618950 0.329837
O O3 0.763166 0.833969 0.587961
O O4 0.137446 0.621604 0.180209
O O5 0.286172 0.547603 0.744063
O O6 0.252080 0.675567 0.693275
O O7 0.000000 0.500000 0.500000
O O8 0.903066 0.707716 0.015482
O O9 0.522344 0.769661 0.033215
O O10 0.461336 0.802250 0.384837
O O11 0.588826 0.571134 0.917853
O O12 0.300574 0.869493 0.802874
O O13 0.166917 0.903036 0.166666
O O14 0.500000 0.000000 0.500000
O O15 0.450108 0.029799 0.843881
#
# Coordination Sequence:
#
# PCOD9051975 Si02
#       7
#     2   2   2   2   2   2   2
#     4  11  25  41  72 107 139 184 231 283 352 414
#     4  12  26  43  67 110 141 186 233 277 351 427
#     4  11  24  47  73  96 147 188 226 290 345 406
#     4  11  23  44  68 105 145 184 230 279 351 422
#     4  12  25  44  70 104 142 174 239 291 341 411
#     4  10  25  49  72 101 137 185 236 288 351 411
#     4  11  25  47  70 102 139 185 238 286 344 409
#
# _framework density 27.669699000000001
#
# number of rings (size 3 to 8) (size 9 to 14) (size 15 to 20)
#    0.000    0.857    5.714    0.429    4.000    1.714 
#    2.571    2.143    0.000    0.000    0.000    0.000 
#    0.000    0.000    0.000    0.000    0.000    0.000 
#
# Total GULP energy -78014.173939 kJ/mol
# GULP energy per Si atom -5572.440996 kJ/mol
# Density = 2.760672 g / cm^3
# Si number density = 27.669699 Si / 1000 Ang^3
#
#
#
# Elastic Constant Matrix: (Units=GPa)
#
#
# Indices 1 2 3 4 5 6 
#
# 1 62.1855 43.7224 41.7295 -13.6950 17.9627 -3.1869
# 2 43.7224 181.2809 60.6368 -0.2218 12.0447 -3.4461
# 3 41.7295 60.6368 139.1089 0.8368 27.5449 6.9035
# 4 -13.6950 -0.2218 0.8368 36.7315 1.1388 4.5162
# 5 17.9627 12.0447 27.5449 1.1388 41.3698 -4.0806
# 6 -3.1869 -3.4461 6.9035 4.5162 -4.0806 59.9888
#
#
#
# Elastic Compliance Matrix: (Units=1/GPa)
#
#
# Indices 1 2 3 4 5 6 
#
# 1 0.026739 -0.004350 -0.004738 0.010227 -0.007427 0.000441
# 2 -0.004350 0.007195 -0.002112 -0.001649 0.001309 0.000639
# 3 -0.004738 -0.002112 0.010510 -0.001664 -0.004453 -0.001760
# 4 0.010227 -0.001649 -0.001664 0.031432 -0.003914 -0.001993
# 5 -0.007427 0.001309 -0.004453 -0.003914 0.030341 0.002552
# 6 0.000441 0.000639 -0.001760 -0.001993 0.002552 0.017256
#
#
# Mechanical properties :
#
#
# Convention : Reuss Voigt Hill
#
# Bulk Modulus (GPa) = 45.36432 74.97254 60.16843
# Shear Modulus (GPa) = 32.63281 43.38379 38.00830
#
# Velocity S-wave (km/s) = 3.43792 3.96399 3.71029
# Velocity P-wave (km/s) = 5.67359 6.93580 6.33620
#
# Compressibility (1/GPa) = 0.02204376
#
# Stress axis : x y z
#
# Youngs Moduli (GPa) = 37.39886 138.98187 95.15001
#
# Poissons Ratio (x) = 0.60457 0.45079
# Poissons Ratio (y) = 0.16268 0.20099
# Poissons Ratio (z) = 0.17718 0.29358
#
# Static dielectric constant tensor:
#      x y z
#    x 2.285040 0.055820 0.057480 
#    y 0.055820 2.084950 -0.026980 
#    z 0.057480 -0.026980 2.341530 
# 
# From -- ./inp_files/139681.got.cif
#   From: 2010.05.17/outbox.cif.g08.bks.cpg/sg2_70_cif.got.tgz:139681.got - 2010.06.03 11:33:40.
