data_PCOD9051340
_publ_section_title
;
Structure prediction by ZEFSAII (Michael W. Deem and Ramdas Pophale) SiO2 
 PCOD9051340
Probable space group: P -1
;
_chemical_formula_sum "Si O2"
_cell_formula_units_Z 16
_cell_length_a 14.670929
_cell_length_b 13.462495
_cell_length_c 11.829768
_cell_angle_alpha 55.219910
_cell_angle_beta 42.133306
_cell_angle_gamma 29.210216
_cell_volume 743.557661
_symmetry_space_group_name_H-M "P -1"
_symmetry_group_IT_number 2
_symmetry_cell_setting 'triclinic'
loop_
_space_group_symop_operation_xyz
x,y,z
-x,-y,-z
loop_
_atom_site_type_symbol
_atom_site_label
_atom_site_fract_x
_atom_site_fract_y
_atom_site_fract_z
Si Si1 0.934155 0.016961 0.421954
Si Si2 0.912373 0.907918 0.942575
Si Si3 0.170397 0.310154 0.878541
Si Si4 0.570392 0.716537 0.971771
Si Si5 0.620136 0.048988 0.766205
Si Si6 0.991715 0.586277 0.662741
Si Si7 0.253868 0.588298 0.283831
Si Si8 0.748801 0.329017 0.024273
O O1 0.694905 0.114901 0.586931
O O2 0.000000 0.000000 0.500000
O O3 0.128112 0.784954 0.343949
O O4 0.940068 0.130387 0.265050
O O5 0.918743 0.759283 0.019317
O O6 0.639868 0.137185 0.020398
O O7 0.022176 0.869986 0.984737
O O8 0.422591 0.125586 0.825612
O O9 0.161876 0.393605 0.717643
O O10 0.000000 0.500000 0.000000
O O11 0.792407 0.634077 0.780376
O O12 0.471710 0.847419 0.093263
O O13 0.648686 0.523340 0.049612
O O14 0.845864 0.797229 0.726576
O O15 0.132736 0.551787 0.457201
O O16 0.532879 0.392086 0.178078
O O17 0.205585 0.660313 0.152216
#
# Coordination Sequence:
#
# PCOD9051340 Si02
#       8
#     2   2   2   2   2   2   2   2
#     4  11  23  42  68  98 131 165 213 264 327 384
#     4  12  24  40  67  96 126 174 214 260 324 379
#     4  12  23  37  62 100 130 173 211 254 330 388
#     4  12  21  42  64  94 132 171 207 265 325 377
#     4  11  22  39  62  95 138 167 207 268 322 384
#     4  11  23  40  65  93 130 168 215 264 320 381
#     4  10  25  46  67  92 129 173 214 268 322 372
#     4  11  24  47  64  93 130 170 222 265 314 381
#
# _framework density 21.518170000000001
#
# number of rings (size 3 to 8) (size 9 to 14) (size 15 to 20)
#    0.000    0.750    6.250    1.125    3.500    1.000 
#    0.000    2.500    0.000    0.000    0.000    0.000 
#    0.000    0.000    0.000    0.000    0.000    0.000 
#
# Total GULP energy -89489.561939 kJ/mol
# GULP energy per Si atom -5593.097621 kJ/mol
# Density = 2.146919 g / cm^3
# Si number density = 21.518170 Si / 1000 Ang^3
#
#
#
# Elastic Constant Matrix: (Units=GPa)
#
#
# Indices 1 2 3 4 5 6 
#
# 1 116.1620 28.1889 52.0619 2.8503 -3.3570 -31.0795
# 2 28.1889 57.8172 17.8352 -6.1232 3.8841 -21.5228
# 3 52.0619 17.8352 165.2826 -9.2754 -23.8883 -18.4247
# 4 2.8503 -6.1232 -9.2754 25.1072 -0.4543 -3.0234
# 5 -3.3570 3.8841 -23.8883 -0.4543 32.7499 -2.1521
# 6 -31.0795 -21.5228 -18.4247 -3.0234 -2.1521 41.9948
#
#
#
# Elastic Compliance Matrix: (Units=1/GPa)
#
#
# Indices 1 2 3 4 5 6 
#
# 1 0.012419 -0.003111 -0.003083 -0.002584 -0.000245 0.006046
# 2 -0.003111 0.023592 -0.000445 0.007094 -0.002688 0.009966
# 3 -0.003083 -0.000445 0.008327 0.003632 0.005974 0.001711
# 4 -0.002584 0.007094 0.003632 0.044038 0.002589 0.006620
# 5 -0.000245 -0.002688 0.005974 0.002589 0.035423 0.003063
# 6 0.006046 0.009966 0.001711 0.006620 0.003063 0.034779
#
#
# Mechanical properties :
#
#
# Convention : Reuss Voigt Hill
#
# Bulk Modulus (GPa) = 32.19487 59.49263 45.84375
# Shear Modulus (GPa) = 27.44101 36.04877 31.74489
#
# Velocity S-wave (km/s) = 3.57494 4.09745 3.84508
# Velocity P-wave (km/s) = 5.65990 7.07765 6.40810
#
# Compressibility (1/GPa) = 0.03106085
#
# Stress axis : x y z
#
# Youngs Moduli (GPa) = 80.52196 42.38763 120.08728
#
# Poissons Ratio (x) = 0.13185 0.37019
# Poissons Ratio (y) = 0.25047 0.05349
# Poissons Ratio (z) = 0.24822 0.01888
#
# Static dielectric constant tensor:
#      x y z
#    x 1.800220 0.003380 -0.024200 
#    y 0.003380 1.802250 0.000860 
#    z -0.024200 0.000860 1.777040 
# 
# From -- ./inp_files/455534.got.cif
#   From: 2010.05.17/outbox.cif.g08.bks.cpg/sg2_228_cif.got.tgz:455534.got - 2010.06.03 11:33:40.
