data_PCOD9051453
_publ_section_title
;
Structure prediction by ZEFSAII (Michael W. Deem and Ramdas Pophale) SiO2 
 PCOD9051453
Probable space group: P -1
;
_chemical_formula_sum "Si O2"
_cell_formula_units_Z 14
_cell_length_a 8.349091
_cell_length_b 13.130887
_cell_length_c 7.615875
_cell_angle_alpha 76.910435
_cell_angle_beta 53.850467
_cell_angle_gamma 107.553630
_cell_volume 546.986656
_symmetry_space_group_name_H-M "P -1"
_symmetry_group_IT_number 2
_symmetry_cell_setting 'triclinic'
loop_
_space_group_symop_operation_xyz
x,y,z
-x,-y,-z
loop_
_atom_site_type_symbol
_atom_site_label
_atom_site_fract_x
_atom_site_fract_y
_atom_site_fract_z
Si Si1 0.073493 0.198036 0.910986
Si Si2 0.573561 0.374472 0.520985
Si Si3 0.656094 0.479486 0.044822
Si Si4 0.706065 0.008442 0.745115
Si Si5 0.877435 0.281014 0.436208
Si Si6 0.052549 0.626692 0.244317
Si Si7 0.149795 0.049683 0.643466
O O1 0.319412 0.299695 0.809457
O O2 0.946211 0.264997 0.904190
O O3 0.890645 0.063989 0.167232
O O4 0.180950 0.162769 0.691485
O O5 0.655057 0.277421 0.501566
O O6 0.204324 0.502749 0.575902
O O7 0.553011 0.422953 0.324815
O O8 0.899650 0.614599 0.857655
O O9 0.746433 0.396537 0.934642
O O10 0.500000 0.500000 0.000000
O O11 0.844262 0.148434 0.520904
O O12 0.658924 0.920635 0.642487
O O13 0.889823 0.995588 0.746642
O O14 0.500000 0.000000 0.000000
O O15 0.917891 0.333415 0.588068
#
# Coordination Sequence:
#
# PCOD9051453 Si02
#       7
#     2   2   2   2   2   2   2
#     4  11  23  46  69 106 147 191 237 309 361 432
#     4  11  24  41  70 106 140 188 240 291 375 439
#     4  11  25  42  66 105 142 188 239 294 371 440
#     4  11  24  47  73 104 140 197 246 307 367 422
#     4  11  23  45  67 102 146 180 245 300 356 439
#     4  11  23  43  69 102 146 189 237 299 362 445
#     4  10  25  46  71 106 146 186 256 300 360 434
#
# _framework density 25.594776
#
# number of rings (size 3 to 8) (size 9 to 14) (size 15 to 20)
#    0.000    1.143    1.429    5.571    4.000    2.286 
#    2.571    2.143    0.000    0.000    0.000    0.000 
#    0.000    0.000    0.000    0.000    0.000    0.000 
#
# Total GULP energy -78424.172368 kJ/mol
# GULP energy per Si atom -5601.726598 kJ/mol
# Density = 2.553652 g / cm^3
# Si number density = 25.594776 Si / 1000 Ang^3
#
#
#
# Elastic Constant Matrix: (Units=GPa)
#
#
# Indices 1 2 3 4 5 6 
#
# 1 119.4545 31.6620 8.2112 7.3233 0.9263 -34.0392
# 2 31.6620 133.2717 36.6684 14.4613 5.6124 -30.2137
# 3 8.2112 36.6684 55.4740 24.2538 -17.8912 -7.4302
# 4 7.3233 14.4613 24.2538 64.4309 -7.4592 12.3062
# 5 0.9263 5.6124 -17.8912 -7.4592 31.6475 -0.6375
# 6 -34.0392 -30.2137 -7.4302 12.3062 -0.6375 53.3586
#
#
#
# Elastic Compliance Matrix: (Units=1/GPa)
#
#
# Indices 1 2 3 4 5 6 
#
# 1 0.010750 -0.000980 0.001269 -0.002836 0.000052 0.007135
# 2 -0.000980 0.011672 -0.008799 -0.000958 -0.007143 0.004894
# 3 0.001269 -0.008799 0.034224 -0.009460 0.018702 0.002998
# 4 -0.002836 -0.000958 -0.009460 0.021224 -0.000265 -0.008567
# 5 0.000052 -0.007143 0.018702 -0.000265 0.043357 -0.000828
# 6 0.007135 0.004894 0.002998 -0.008567 -0.000828 0.028447
#
#
# Mechanical properties :
#
#
# Convention : Reuss Voigt Hill
#
# Bulk Modulus (GPa) = 25.23660 51.25372 38.24516
# Shear Modulus (GPa) = 27.79261 45.33130 36.56195
#
# Velocity S-wave (km/s) = 3.29883 4.21303 3.78364
# Velocity P-wave (km/s) = 4.93874 6.61322 5.83635
#
# Compressibility (1/GPa) = 0.03962498
#
# Stress axis : x y z
#
# Youngs Moduli (GPa) = 93.01937 85.67838 29.21910
#
# Poissons Ratio (x) = 0.08398 -0.03708
# Poissons Ratio (y) = 0.09117 0.25711
# Poissons Ratio (z) = -0.11804 0.75392
#
# Static dielectric constant tensor:
#      x y z
#    x 2.037430 0.048330 0.015120 
#    y 0.048330 2.042080 0.045690 
#    z 0.015120 0.045690 2.042280 
# 
# From -- ./inp_files/200616.got.cif
#   From: 2010.05.17/outbox.cif.g08.bks.cpg/sg2_101_cif.got.tgz:200616.got - 2010.06.03 11:33:40.
