data_PCOD9051574
_publ_section_title
;
Structure prediction by ZEFSAII (Michael W. Deem and Ramdas Pophale) SiO2 
 PCOD9051574
Probable space group: P -1
;
_chemical_formula_sum "Si O2"
_cell_formula_units_Z 13
_cell_length_a 8.808455
_cell_length_b 7.049719
_cell_length_c 10.661239
_cell_angle_alpha 61.267912
_cell_angle_beta 112.723151
_cell_angle_gamma 124.365185
_cell_volume 473.115519
_symmetry_space_group_name_H-M "P -1"
_symmetry_group_IT_number 2
_symmetry_cell_setting 'triclinic'
loop_
_space_group_symop_operation_xyz
x,y,z
-x,-y,-z
loop_
_atom_site_type_symbol
_atom_site_label
_atom_site_fract_x
_atom_site_fract_y
_atom_site_fract_z
Si Si1 0.457695 0.219149 0.581129
Si Si2 0.735420 0.037213 0.656441
Si Si3 0.902715 0.594716 0.244661
Si Si4 0.090178 0.902740 0.666455
Si Si5 0.492775 0.495557 0.146689
Si Si6 0.500000 0.000000 0.000000
Si Si7 0.062946 0.778674 0.970997
O O1 0.500000 0.500000 0.500000
O O2 0.346098 0.057577 0.477055
O O3 0.636114 0.177559 0.651724
O O4 0.311756 0.083208 0.687311
O O5 0.661386 0.775765 0.781830
O O6 0.017035 0.873391 0.794712
O O7 0.946031 0.246421 0.655617
O O8 0.922035 0.353517 0.298078
O O9 0.694720 0.527016 0.242619
O O10 0.963246 0.749980 0.083503
O O11 0.000000 0.000000 0.500000
O O12 0.500000 0.500000 0.000000
O O13 0.443441 0.708903 0.097481
O O14 0.286708 0.941044 0.000362
O O15 0.000000 0.500000 0.000000
#
# Coordination Sequence:
#
# PCOD9051574 Si02
#       7
#     2   2   2   2   2   1   2
#     4  11  26  49  78 113 161 215 266 332 408 493
#     4  11  27  50  77 114 160 211 269 334 411 483
#     4  11  25  50  80 116 166 215 272 346 410 490
#     4  11  24  45  78 121 162 215 275 332 408 496
#     4  12  27  48  77 117 160 207 268 335 412 482
#     4  12  28  44  78 110 150 212 266 328 396 482
#     4  10  25  46  77 116 158 207 272 332 404 481
#
# _framework density 27.477429999999998
#
# number of rings (size 3 to 8) (size 9 to 14) (size 15 to 20)
#    0.000    0.923    1.538    3.692    4.308    9.231 
#    0.000    1.538    0.000    0.000    0.000    0.000 
#    0.000    0.000    0.000    0.000    0.000    0.000 
#
# Total GULP energy -72648.309112 kJ/mol
# GULP energy per Si atom -5588.331470 kJ/mol
# Density = 2.741489 g / cm^3
# Si number density = 27.477430 Si / 1000 Ang^3
#
#
#
# Elastic Constant Matrix: (Units=GPa)
#
#
# Indices 1 2 3 4 5 6 
#
# 1 129.3675 38.7200 42.3631 -6.2768 9.4848 16.8896
# 2 38.7200 152.6376 42.5575 -20.4065 20.6551 15.5941
# 3 42.3631 42.5575 131.4138 -37.2799 9.1985 -19.9388
# 4 -6.2768 -20.4065 -37.2799 69.6196 -13.9929 -0.6244
# 5 9.4848 20.6551 9.1985 -13.9929 65.7749 1.2269
# 6 16.8896 15.5941 -19.9388 -0.6244 1.2269 57.4237
#
#
#
# Elastic Compliance Matrix: (Units=1/GPa)
#
#
# Indices 1 2 3 4 5 6 
#
# 1 0.009803 -0.001145 -0.003802 -0.001685 -0.000808 -0.003893
# 2 -0.001145 0.008101 -0.002348 0.000614 -0.001871 -0.002632
# 3 -0.003802 -0.002348 0.012048 0.005611 0.000683 0.005986
# 4 -0.001685 0.000614 0.005611 0.018032 0.003057 0.002408
# 5 -0.000808 -0.001871 0.000683 0.003057 0.016450 0.000665
# 6 -0.003893 -0.002632 0.005986 0.002408 0.000665 0.021365
#
#
# Mechanical properties :
#
#
# Convention : Reuss Voigt Hill
#
# Bulk Modulus (GPa) = 65.09655 73.41114 69.25384
# Shear Modulus (GPa) = 47.38917 57.88219 52.63568
#
# Velocity S-wave (km/s) = 4.15741 4.59468 4.38150
# Velocity P-wave (km/s) = 6.84015 7.41101 7.13129
#
# Compressibility (1/GPa) = 0.01536180
#
# Stress axis : x y z
#
# Youngs Moduli (GPa) = 102.00631 123.44409 83.00329
#
# Poissons Ratio (x) = 0.14134 0.31554
# Poissons Ratio (y) = 0.11680 0.19493
# Poissons Ratio (z) = 0.38778 0.28991
#
# Static dielectric constant tensor:
#      x y z
#    x 2.168320 0.012210 -0.117410 
#    y 0.012210 2.101600 0.132240 
#    z -0.117410 0.132240 0.983390 
# 
# From -- ./inp_files/210702.got.cif
#   From: 2010.05.17/outbox.cif.g08.bks.cpg/sg2_106_cif.got.tgz:210702.got - 2010.06.03 11:33:40.
