data_PCOD9051861
_publ_section_title
;
Structure prediction by ZEFSAII (Michael W. Deem and Ramdas Pophale) SiO2 
 PCOD9051861
Probable space group: P -1
;
_chemical_formula_sum "Si O2"
_cell_formula_units_Z 12
_cell_length_a 12.646665
_cell_length_b 15.410044
_cell_length_c 10.123507
_cell_angle_alpha 42.600667
_cell_angle_beta 24.744857
_cell_angle_gamma 36.604934
_cell_volume 492.238410
_symmetry_space_group_name_H-M "P -1"
_symmetry_group_IT_number 2
_symmetry_cell_setting 'triclinic'
loop_
_space_group_symop_operation_xyz
x,y,z
-x,-y,-z
loop_
_atom_site_type_symbol
_atom_site_label
_atom_site_fract_x
_atom_site_fract_y
_atom_site_fract_z
Si Si1 0.167955 0.328623 0.475326
Si Si2 0.727084 0.061469 0.143582
Si Si3 0.581457 0.602596 0.383344
Si Si4 0.993900 0.188769 0.069128
Si Si5 0.949158 0.671596 0.697499
Si Si6 0.836611 0.908066 0.748589
O O1 0.517362 0.234965 0.191885
O O2 0.098165 0.305339 0.430082
O O3 0.000000 0.500000 0.500000
O O4 0.051166 0.266031 0.794123
O O5 0.500000 0.000000 0.500000
O O6 0.000000 0.000000 0.000000
O O7 0.873211 0.978888 0.936069
O O8 0.500000 0.500000 0.500000
O O9 0.334356 0.723419 0.616551
O O10 0.812049 0.489297 0.351110
O O11 0.680431 0.680056 0.074403
O O12 0.143242 0.189016 0.036561
O O13 0.994067 0.797135 0.574997
O O14 0.000000 0.000000 0.500000
O O15 0.500000 0.000000 0.000000
#
# Coordination Sequence:
#
# PCOD9051861 Si02
#       6
#     2   2   2   2   2   2
#     4  11  26  49  78 122 161 212 267 342 415 492
#     4  10  25  48  72 107 157 206 256 323 397 475
#     4  11  23  46  76 111 154 215 263 338 403 495
#     4  11  25  48  78 111 156 206 270 329 406 483
#     4  11  26  46  76 112 163 203 279 329 413 484
#     4  12  27  48  78 112 153 213 271 332 401 483
#
# _framework density 24.378430999999999
#
# number of rings (size 3 to 8) (size 9 to 14) (size 15 to 20)
#    0.000    1.000    1.667    3.000    4.667    7.333 
#   12.000    0.000    0.000    0.000    0.000    0.000 
#    0.000    0.000    0.000    0.000    0.000    0.000 
#
# Total GULP energy -67084.394618 kJ/mol
# GULP energy per Si atom -5590.366218 kJ/mol
# Density = 2.432294 g / cm^3
# Si number density = 24.378431 Si / 1000 Ang^3
#
#
#
# Elastic Constant Matrix: (Units=GPa)
#
#
# Indices 1 2 3 4 5 6 
#
# 1 175.7726 53.8419 75.5962 4.6119 26.8521 -15.0219
# 2 53.8419 178.4353 83.5822 29.2255 5.0686 0.9610
# 3 75.5962 83.5822 153.7345 17.0040 20.6827 -5.0934
# 4 4.6119 29.2255 17.0040 68.2419 -2.2354 1.9498
# 5 26.8521 5.0686 20.6827 -2.2354 54.0705 -0.5816
# 6 -15.0219 0.9610 -5.0934 1.9498 -0.5816 50.3788
#
#
#
# Elastic Compliance Matrix: (Units=1/GPa)
#
#
# Indices 1 2 3 4 5 6 
#
# 1 0.007817 -0.001000 -0.002935 0.000488 -0.002624 0.002004
# 2 -0.001000 0.008043 -0.003788 -0.002377 0.001086 -0.000730
# 3 -0.002935 -0.003788 0.010406 -0.000852 -0.002200 0.000257
# 4 0.000488 -0.002377 -0.000852 0.015896 0.000958 -0.000499
# 5 -0.002624 0.001086 -0.002200 0.000958 0.020568 -0.000825
# 6 0.002004 -0.000730 0.000257 -0.000499 -0.000825 0.020497
#
#
# Mechanical properties :
#
#
# Convention : Reuss Voigt Hill
#
# Bulk Modulus (GPa) = 92.42451 103.77587 98.10019
# Shear Modulus (GPa) = 48.88517 54.19972 51.54244
#
# Velocity S-wave (km/s) = 4.48287 4.72027 4.60310
# Velocity P-wave (km/s) = 8.04920 8.50700 8.28126
#
# Compressibility (1/GPa) = 0.01081964
#
# Stress axis : x y z
#
# Youngs Moduli (GPa) = 127.92607 124.33231 96.09734
#
# Poissons Ratio (x) = 0.12437 0.28201
# Poissons Ratio (y) = 0.12797 0.36405
# Poissons Ratio (z) = 0.37541 0.47101
#
# Static dielectric constant tensor:
#      x y z
#    x 2.016940 0.040110 -0.115390 
#    y 0.040110 2.026100 -0.115750 
#    z -0.115390 -0.115750 2.040750 
# 
# From -- ./inp_files/271670.got.cif
#   From: 2010.05.17/outbox.cif.g08.bks.cpg/sg2_136_cif.got.tgz:271670.got - 2010.06.03 11:33:40.
