data_PCOD9051856
_publ_section_title
;
Structure prediction by ZEFSAII (Michael W. Deem and Ramdas Pophale) SiO2 
 PCOD9051856
Probable space group: P -1
;
_chemical_formula_sum "Si O2"
_cell_formula_units_Z 15
_cell_length_a 20.022373
_cell_length_b 4.882157
_cell_length_c 11.673940
_cell_angle_alpha 53.738042
_cell_angle_beta 139.417599
_cell_angle_gamma 123.660273
_cell_volume 586.458831
_symmetry_space_group_name_H-M "P -1"
_symmetry_group_IT_number 2
_symmetry_cell_setting 'triclinic'
loop_
_space_group_symop_operation_xyz
x,y,z
-x,-y,-z
loop_
_atom_site_type_symbol
_atom_site_label
_atom_site_fract_x
_atom_site_fract_y
_atom_site_fract_z
Si Si1 0.633290 0.770012 0.425221
Si Si2 0.470192 0.658885 0.805393
Si Si3 0.092178 0.719050 0.418587
Si Si4 0.160244 0.448170 0.349473
Si Si5 0.179523 0.806220 0.989291
Si Si6 0.862097 0.439614 0.243766
Si Si7 0.000000 0.500000 0.000000
Si Si8 0.591303 0.165226 0.668350
O O1 0.552148 0.621838 0.255391
O O2 0.738418 0.662623 0.542402
O O3 0.604838 0.572449 0.557356
O O4 0.629445 0.164883 0.344328
O O5 0.554425 0.981061 0.785169
O O6 0.500000 0.500000 0.000000
O O7 0.151921 0.540457 0.446852
O O8 0.155395 0.771159 0.608325
O O9 0.983168 0.461024 0.362389
O O10 0.072424 0.110750 0.270298
O O11 0.104127 0.729065 0.148244
O O12 0.204198 0.685372 0.923359
O O13 0.147059 0.172055 0.837180
O O14 0.082390 0.534934 0.983036
O O15 0.289603 0.882137 0.182716
O O16 0.500000 0.000000 0.500000
#
# Coordination Sequence:
#
# PCOD9051856 Si02
#       8
#     2   2   2   2   2   2   1   2
#     4  11  24  45  70 103 136 184 230 291 364 420
#     4  11  25  46  73 101 138 177 238 298 353 423
#     4  11  23  42  64  96 142 185 233 284 349 426
#     4  12  24  41  69  99 140 184 231 288 348 423
#     4  12  25  43  71 102 141 185 234 295 346 419
#     4  11  24  42  64  97 136 187 234 287 352 414
#     4  12  24  44  64 108 140 182 242 282 350 406
#     4  10  25  48  72 105 142 189 238 298 364 428
#
# _framework density 25.577242999999999
#
# number of rings (size 3 to 8) (size 9 to 14) (size 15 to 20)
#    0.000    0.800    4.000    2.400    0.000   11.733 
#    0.000    0.000    0.000    0.000    0.000    0.000 
#    0.000    0.000    0.000    0.000    0.000    0.000 
#
# Total GULP energy -83573.515333 kJ/mol
# GULP energy per Si atom -5571.567689 kJ/mol
# Density = 2.551903 g / cm^3
# Si number density = 25.577243 Si / 1000 Ang^3
#
#
#
# Elastic Constant Matrix: (Units=GPa)
#
#
# Indices 1 2 3 4 5 6 
#
# 1 140.3682 39.8809 38.7091 4.1430 -8.7529 7.0583
# 2 39.8809 60.6226 16.7337 -4.1285 0.3231 -13.3386
# 3 38.7091 16.7337 83.3598 -5.9719 -8.5078 26.3035
# 4 4.1430 -4.1285 -5.9719 34.4381 3.9342 6.4312
# 5 -8.7529 0.3231 -8.5078 3.9342 49.3740 4.9287
# 6 7.0583 -13.3386 26.3035 6.4312 4.9287 43.0160
#
#
#
# Elastic Compliance Matrix: (Units=1/GPa)
#
#
# Indices 1 2 3 4 5 6 
#
# 1 0.009952 -0.006320 -0.002802 -0.002310 0.001679 -0.001726
# 2 -0.006320 0.025553 -0.006799 0.000568 -0.003849 0.013474
# 3 -0.002802 -0.006799 0.020324 0.005442 0.004150 -0.015365
# 4 -0.002310 0.000568 0.005442 0.031853 -0.001276 -0.007388
# 5 0.001679 -0.003849 0.004150 -0.001276 0.022026 -0.006340
# 6 -0.001726 0.013474 -0.015365 -0.007388 -0.006340 0.038935
#
#
# Mechanical properties :
#
#
# Convention : Reuss Voigt Hill
#
# Bulk Modulus (GPa) = 41.68726 52.77757 47.23242
# Shear Modulus (GPa) = 26.52789 37.96741 32.24765
#
# Velocity S-wave (km/s) = 3.22400 3.85700 3.55462
# Velocity P-wave (km/s) = 5.49480 6.36511 5.94590
#
# Compressibility (1/GPa) = 0.02398814
#
# Stress axis : x y z
#
# Youngs Moduli (GPa) = 100.48148 39.13370 49.20281
#
# Poissons Ratio (x) = 0.24731 0.13788
# Poissons Ratio (y) = 0.63500 0.33452
# Poissons Ratio (z) = 0.28158 0.26606
#
# Static dielectric constant tensor:
#      x y z
#    x 2.100670 0.126860 -0.172120 
#    y 0.126860 1.998400 0.220490 
#    z -0.172120 0.220490 1.596120 
# 
# From -- ./inp_files/468005.got.cif
#   From: 2010.05.17/outbox.cif.g08.bks.cpg/sg2_235_cif.got.tgz:468005.got - 2010.06.03 11:33:40.
