data_PCOD9051221
_publ_section_title
;
Structure prediction by ZEFSAII (Michael W. Deem and Ramdas Pophale) SiO2 
 PCOD9051221
Probable space group: P -1
;
_chemical_formula_sum "Si O2"
_cell_formula_units_Z 14
_cell_length_a 5.080855
_cell_length_b 22.782312
_cell_length_c 10.516127
_cell_angle_alpha 29.470877
_cell_angle_beta 115.698528
_cell_angle_gamma 103.267272
_cell_volume 508.668052
_symmetry_space_group_name_H-M "P -1"
_symmetry_group_IT_number 2
_symmetry_cell_setting 'triclinic'
loop_
_space_group_symop_operation_xyz
x,y,z
-x,-y,-z
loop_
_atom_site_type_symbol
_atom_site_label
_atom_site_fract_x
_atom_site_fract_y
_atom_site_fract_z
Si Si1 0.815625 0.911514 0.675094
Si Si2 0.370685 0.585905 0.684843
Si Si3 0.286354 0.281980 0.799973
Si Si4 0.030150 0.108033 0.687007
Si Si5 0.338180 0.428558 0.763629
Si Si6 0.325672 0.223906 0.340502
Si Si7 0.421525 0.851050 0.132524
O O1 0.736616 0.856109 0.635138
O O2 0.500000 0.000000 0.500000
O O3 0.895233 0.794255 0.011936
O O4 0.000000 0.000000 0.500000
O O5 0.486654 0.521934 0.689741
O O6 0.438448 0.718774 0.453702
O O7 0.996989 0.625265 0.517073
O O8 0.500000 0.500000 0.000000
O O9 0.467367 0.339086 0.835970
O O10 0.519102 0.188550 0.927249
O O11 0.287418 0.105007 0.850628
O O12 0.685506 0.151509 0.585468
O O13 0.134104 0.975886 0.878606
O O14 0.000000 0.500000 0.500000
O O15 0.299554 0.352847 0.023357
O O16 0.070881 0.219519 0.396650
#
# Coordination Sequence:
#
# PCOD9051221 Si02
#       7
#     2   2   2   2   2   2   2
#     4  11  24  41  73 109 148 192 247 310 381 464
#     4  11  25  46  77 106 149 204 268 317 386 467
#     4  10  25  45  72 110 152 196 259 318 397 456
#     4  11  27  46  75 113 157 199 253 325 388 475
#     4   9  22  50  72 109 153 201 258 328 384 459
#     4  11  24  47  74 107 151 201 255 314 399 454
#     4  11  27  44  74 108 153 203 256 322 399 460
#
# _framework density 27.522860999999999
#
# number of rings (size 3 to 8) (size 9 to 14) (size 15 to 20)
#    0.000    1.429    0.000    2.571   12.000    2.286 
#   12.857    2.143    0.000    0.000    0.000    0.000 
#    0.000    0.000    0.000    0.000    0.000    0.000 
#
# Total GULP energy -78322.860211 kJ/mol
# GULP energy per Si atom -5594.490015 kJ/mol
# Density = 2.746022 g / cm^3
# Si number density = 27.522861 Si / 1000 Ang^3
#
#
#
# Elastic Constant Matrix: (Units=GPa)
#
#
# Indices 1 2 3 4 5 6 
#
# 1 115.8039 36.1142 51.6251 -6.2712 -21.8933 7.9971
# 2 36.1142 212.9423 52.1965 -7.9380 -10.4724 -1.3218
# 3 51.6251 52.1965 167.8533 12.1989 -3.7916 8.0964
# 4 -6.2712 -7.9380 12.1989 43.2086 0.9041 -11.3014
# 5 -21.8933 -10.4724 -3.7916 0.9041 28.8521 4.0084
# 6 7.9971 -1.3218 8.0964 -11.3014 4.0084 36.7186
#
#
#
# Elastic Compliance Matrix: (Units=1/GPa)
#
#
# Indices 1 2 3 4 5 6 
#
# 1 0.012320 -0.000776 -0.003361 0.001782 0.008902 -0.002394
# 2 -0.000776 0.005322 -0.001561 0.001570 0.000937 0.001086
# 3 -0.003361 -0.001561 0.007780 -0.003434 -0.001722 -0.001909
# 4 0.001782 0.001570 -0.003434 0.026972 -0.000596 0.008792
# 5 0.008902 0.000937 -0.001722 -0.000596 0.042428 -0.006340
# 6 -0.002394 0.001086 -0.001909 0.008792 -0.006340 0.031614
#
#
# Mechanical properties :
#
#
# Convention : Reuss Voigt Hill
#
# Bulk Modulus (GPa) = 71.30336 86.27459 78.78897
# Shear Modulus (GPa) = 35.08570 45.53343 40.30956
#
# Velocity S-wave (km/s) = 3.57428 4.07183 3.83114
# Velocity P-wave (km/s) = 6.55723 7.31580 6.94688
#
# Compressibility (1/GPa) = 0.01402459
#
# Stress axis : x y z
#
# Youngs Moduli (GPa) = 81.16593 187.90295 128.54177
#
# Poissons Ratio (x) = 0.14587 0.43201
# Poissons Ratio (y) = 0.06301 0.20072
# Poissons Ratio (z) = 0.27279 0.29341
#
# Static dielectric constant tensor:
#      x y z
#    x 2.187180 0.083800 -0.093280 
#    y 0.083800 2.250490 -0.104230 
#    z -0.093280 -0.104230 2.569780 
# 
# From -- ./inp_files/141051.got.cif
#   From: 2010.05.17/outbox.cif.g08.bks.cpg/sg2_71_cif.got.tgz:141051.got - 2010.06.03 11:33:40.
