data_PCOD9051550
_publ_section_title
;
Structure prediction by ZEFSAII (Michael W. Deem and Ramdas Pophale) SiO2 
 PCOD9051550
Probable space group: P -1
;
_chemical_formula_sum "Si O2"
_cell_formula_units_Z 10
_cell_length_a 10.498222
_cell_length_b 8.914081
_cell_length_c 12.857105
_cell_angle_alpha 51.303483
_cell_angle_beta 130.590464
_cell_angle_gamma 86.907560
_cell_volume 448.564836
_symmetry_space_group_name_H-M "P -1"
_symmetry_group_IT_number 2
_symmetry_cell_setting 'triclinic'
loop_
_space_group_symop_operation_xyz
x,y,z
-x,-y,-z
loop_
_atom_site_type_symbol
_atom_site_label
_atom_site_fract_x
_atom_site_fract_y
_atom_site_fract_z
Si Si1 0.747426 0.166015 0.725845
Si Si2 0.906246 0.145982 0.587747
Si Si3 0.576664 0.235821 0.215596
Si Si4 0.462892 0.837265 0.990913
Si Si5 0.268819 0.237461 0.190564
O O1 0.500000 0.500000 0.500000
O O2 0.791551 0.188844 0.619688
O O3 0.730693 0.949340 0.802990
O O4 0.000000 0.000000 0.000000
O O5 0.832697 0.051338 0.502933
O O6 0.735100 0.478529 0.310483
O O7 0.213128 0.931039 0.855399
O O8 0.606319 0.065123 0.209238
O O9 0.350758 0.352647 0.119577
O O10 0.500000 0.500000 0.000000
O O11 0.500000 0.000000 0.000000
O O12 0.500000 0.000000 0.500000
O O13 0.000000 0.500000 0.000000
#
# Coordination Sequence:
#
# PCOD9051550 Si02
#       5
#     2   2   2   2   2
#     4  12  27  46  73 105 150 189 239 303 367 424
#     4  11  24  45  70  98 144 186 240 295 358 427
#     4  10  25  46  75 103 144 190 243 296 359 431
#     4  11  25  44  70 104 138 185 240 299 359 426
#     4  12  27  48  76 108 145 193 248 298 361 439
#
# _framework density 22.293320000000001
#
# number of rings (size 3 to 8) (size 9 to 14) (size 15 to 20)
#    0.000    0.800    2.000    3.600   11.200    3.200 
#    0.000    0.000    0.000    0.000    0.000    0.000 
#    0.000    0.000    0.000    0.000    0.000    0.000 
#
# Total GULP energy -55939.019144 kJ/mol
# GULP energy per Si atom -5593.901914 kJ/mol
# Density = 2.224258 g / cm^3
# Si number density = 22.293320 Si / 1000 Ang^3
#
#
#
# Elastic Constant Matrix: (Units=GPa)
#
#
# Indices 1 2 3 4 5 6 
#
# 1 157.8097 40.6742 31.7042 2.7531 7.1774 -5.6341
# 2 40.6742 166.3814 67.3594 32.8639 6.5063 9.0833
# 3 31.7042 67.3594 127.2114 10.3105 16.1722 0.5448
# 4 2.7531 32.8639 10.3105 49.3066 -9.3148 -0.2515
# 5 7.1774 6.5063 16.1722 -9.3148 39.9488 6.0989
# 6 -5.6341 9.0833 0.5448 -0.2515 6.0989 38.3795
#
#
#
# Elastic Compliance Matrix: (Units=1/GPa)
#
#
# Indices 1 2 3 4 5 6 
#
# 1 0.006988 -0.001536 -0.000901 0.000696 -0.000710 0.001520
# 2 -0.001536 0.009192 -0.003981 -0.005314 -0.000498 -0.002300
# 3 -0.000901 -0.003981 0.010685 -0.000235 -0.003762 0.001254
# 4 0.000696 -0.005314 -0.000235 0.025085 0.006612 0.000477
# 5 -0.000710 -0.000498 -0.003762 0.006612 0.028992 -0.004497
# 6 0.001520 -0.002300 0.001254 0.000477 -0.004497 0.027523
#
#
# Mechanical properties :
#
#
# Convention : Reuss Voigt Hill
#
# Bulk Modulus (GPa) = 71.27498 81.20868 76.24183
# Shear Modulus (GPa) = 39.68971 46.30463 42.99717
#
# Velocity S-wave (km/s) = 4.22399 4.56242 4.39646
# Velocity P-wave (km/s) = 7.47197 8.01628 7.74890
#
# Compressibility (1/GPa) = 0.01403017
#
# Stress axis : x y z
#
# Youngs Moduli (GPa) = 143.10048 108.78888 93.58846
#
# Poissons Ratio (x) = 0.16713 0.08430
# Poissons Ratio (y) = 0.21984 0.37254
# Poissons Ratio (z) = 0.12889 0.43304
#
# Static dielectric constant tensor:
#      x y z
#    x 2.090860 -0.079080 0.105520 
#    y -0.079080 1.953430 -0.076260 
#    z 0.105520 -0.076260 1.828040 
# 
# From -- ./inp_files/16563.got.cif
#   From: 2010.05.17/outbox.cif.g08.bks.cpg/sg2_9_cif.got.tgz:16563.got - 2010.06.03 11:33:40.
