data_PCOD9051669
_publ_section_title
;
Structure prediction by ZEFSAII (Michael W. Deem and Ramdas Pophale) SiO2 
 PCOD9051669
Probable space group: P -1
;
_chemical_formula_sum "Si O2"
_cell_formula_units_Z 16
_cell_length_a 24.567923
_cell_length_b 5.357896
_cell_length_c 14.403569
_cell_angle_alpha 94.224005
_cell_angle_beta 159.127278
_cell_angle_gamma 88.523401
_cell_volume 668.724801
_symmetry_space_group_name_H-M "P -1"
_symmetry_group_IT_number 2
_symmetry_cell_setting 'triclinic'
loop_
_space_group_symop_operation_xyz
x,y,z
-x,-y,-z
loop_
_atom_site_type_symbol
_atom_site_label
_atom_site_fract_x
_atom_site_fract_y
_atom_site_fract_z
Si Si1 0.121730 0.105037 0.774949
Si Si2 0.383627 0.562292 0.446336
Si Si3 0.177284 0.471228 0.285101
Si Si4 0.569183 0.371284 0.018715
Si Si5 0.835390 0.098560 0.437395
Si Si6 0.380708 0.787751 0.255526
Si Si7 0.721984 0.989162 0.453547
Si Si8 0.638673 0.726968 0.969602
O O1 0.231442 0.324471 0.901849
O O2 0.000000 0.000000 0.500000
O O3 0.011044 0.153870 0.685632
O O4 0.240530 0.910302 0.989202
O O5 0.245372 0.475597 0.290810
O O6 0.327863 0.615459 0.256157
O O7 0.506679 0.362325 0.629766
O O8 0.492381 0.790883 0.677746
O O9 0.208842 0.212366 0.376352
O O10 0.251782 0.722927 0.463927
O O11 0.000000 0.500000 0.000000
O O12 0.567114 0.515804 0.922210
O O13 0.748217 0.344588 0.315344
O O14 0.500000 0.500000 0.000000
O O15 0.460130 0.105667 0.837876
O O16 0.801017 0.969062 0.478412
O O17 0.735220 0.936760 0.193846
O O18 0.500000 0.000000 0.500000
#
# Coordination Sequence:
#
# PCOD9051669 Si02
#       8
#     2   2   2   2   2   2   2   2
#     4  10  25  47  71 110 150 198 249 326 400 461
#     4  11  26  45  75 105 140 205 256 321 378 473
#     4  12  29  49  76 112 155 203 266 327 398 469
#     4  12  24  43  72 110 153 201 257 317 392 486
#     4  11  26  44  71 108 160 196 252 327 399 469
#     4  11  25  48  74 101 145 196 261 312 384 469
#     4  12  26  48  75 114 152 211 258 323 397 478
#     4  11  23  44  71 110 145 198 256 309 397 462
#
# _framework density 23.926134999999999
#
# number of rings (size 3 to 8) (size 9 to 14) (size 15 to 20)
#    0.000    0.750    3.750    2.250    7.000    1.500 
#    2.250    0.000    0.000    0.000    0.000    0.000 
#    0.000    0.000    0.000    0.000    0.000    0.000 
#
# Total GULP energy -89438.207717 kJ/mol
# GULP energy per Si atom -5589.887982 kJ/mol
# Density = 2.387168 g / cm^3
# Si number density = 23.926135 Si / 1000 Ang^3
#
#
#
# Elastic Constant Matrix: (Units=GPa)
#
#
# Indices 1 2 3 4 5 6 
#
# 1 220.1964 43.4783 70.9620 -18.5072 41.1049 22.4671
# 2 43.4783 64.6402 27.1355 -12.9920 0.5776 4.0517
# 3 70.9620 27.1355 135.0831 -25.2323 27.5584 12.9659
# 4 -18.5072 -12.9920 -25.2323 43.2682 0.6333 -2.6403
# 5 41.1049 0.5776 27.5584 0.6333 53.6429 3.2461
# 6 22.4671 4.0517 12.9659 -2.6403 3.2461 33.0073
#
#
#
# Elastic Compliance Matrix: (Units=1/GPa)
#
#
# Indices 1 2 3 4 5 6 
#
# 1 0.006965 -0.003609 -0.001597 0.000833 -0.004295 -0.003182
# 2 -0.003609 0.019355 -0.002265 0.002946 0.003635 0.000849
# 3 -0.001597 -0.002265 0.010628 0.004772 -0.004146 -0.002021
# 4 0.000833 0.002946 0.004772 0.027168 -0.003425 -0.000293
# 5 -0.004295 0.003635 -0.004146 -0.003425 0.023975 0.001474
# 6 -0.003182 0.000849 -0.002021 -0.000293 0.001474 0.032983
#
#
# Mechanical properties :
#
#
# Convention : Reuss Voigt Hill
#
# Bulk Modulus (GPa) = 45.44100 78.11903 61.78001
# Shear Modulus (GPa) = 34.87953 44.53994 39.70974
#
# Velocity S-wave (km/s) = 3.82226 4.31926 4.07834
# Velocity P-wave (km/s) = 6.20588 7.58918 6.93212
#
# Compressibility (1/GPa) = 0.02200656
#
# Stress axis : x y z
#
# Youngs Moduli (GPa) = 143.57343 51.66603 94.09403
#
# Poissons Ratio (x) = 0.18648 0.15023
# Poissons Ratio (y) = 0.51821 0.21310
# Poissons Ratio (z) = 0.22922 0.11701
#
# Static dielectric constant tensor:
#      x y z
#    x 2.000010 -0.071360 -0.089040 
#    y -0.071360 2.088750 0.071590 
#    z -0.089040 0.071590 1.971630 
# 
# From -- ./inp_files/542185.got.cif
#   From: 2010.05.17/outbox.cif.g08.bks.cpg/sg2_272_cif.got.tgz:542185.got - 2010.06.03 11:33:40.
