data_PCOD9051261
_publ_section_title
;
Structure prediction by ZEFSAII (Michael W. Deem and Ramdas Pophale) SiO2 
 PCOD9051261
Probable space group: P -1
;
_chemical_formula_sum "Si O2"
_cell_formula_units_Z 16
_cell_length_a 12.073124
_cell_length_b 19.646339
_cell_length_c 6.497395
_cell_angle_alpha 59.601968
_cell_angle_beta 55.385622
_cell_angle_gamma 33.919536
_cell_volume 705.757454
_symmetry_space_group_name_H-M "P -1"
_symmetry_group_IT_number 2
_symmetry_cell_setting 'triclinic'
loop_
_space_group_symop_operation_xyz
x,y,z
-x,-y,-z
loop_
_atom_site_type_symbol
_atom_site_label
_atom_site_fract_x
_atom_site_fract_y
_atom_site_fract_z
Si Si1 0.770679 0.567569 0.644865
Si Si2 0.874935 0.189342 0.002116
Si Si3 0.379801 0.844974 0.679297
Si Si4 0.018487 0.245569 0.408153
Si Si5 0.642012 0.516321 0.204431
Si Si6 0.546583 0.899278 0.730757
Si Si7 0.222226 0.029889 0.214447
Si Si8 0.497496 0.576670 0.686594
O O1 0.592202 0.711648 0.568880
O O2 0.709876 0.519766 0.638601
O O3 0.000000 0.500000 0.500000
O O4 0.726234 0.553037 0.939814
O O5 0.765527 0.160059 0.075650
O O6 0.698656 0.304945 0.160771
O O7 0.063787 0.082032 0.117046
O O8 0.948008 0.217840 0.707196
O O9 0.448343 0.873260 0.742032
O O10 0.263426 0.943318 0.469439
O O11 0.204643 0.217754 0.334630
O O12 0.122367 0.146779 0.268743
O O13 0.830318 0.381371 0.309130
O O14 0.491385 0.607837 0.408367
O O15 0.524240 0.507889 0.189613
O O16 0.500000 0.000000 0.500000
O O17 0.436716 0.952828 0.986678
#
# Coordination Sequence:
#
# PCOD9051261 Si02
#       8
#     2   2   2   2   2   2   2   2
#     4  11  28  47  69 105 148 189 232 291 353 420
#     4  11  25  46  72 108 143 181 237 293 358 415
#     4  11  28  45  70 103 147 185 233 290 356 421
#     4  12  27  44  76 107 136 188 241 292 352 421
#     4  11  26  45  76 104 141 188 243 288 348 415
#     4  12  26  47  71 104 144 185 237 295 345 428
#     4  12  24  46  74 102 143 182 237 289 360 406
#     4  10  25  45  74 104 138 184 239 294 340 418
#
# _framework density 22.670679
#
# number of rings (size 3 to 8) (size 9 to 14) (size 15 to 20)
#    0.000    0.750    3.750    1.125   12.250    5.500 
#    0.000    0.000    0.000    0.000    0.000    0.000 
#    0.000    0.000    0.000    0.000    0.000    0.000 
#
# Total GULP energy -89562.804707 kJ/mol
# GULP energy per Si atom -5597.675294 kJ/mol
# Density = 2.261908 g / cm^3
# Si number density = 22.670679 Si / 1000 Ang^3
#
#
#
# Elastic Constant Matrix: (Units=GPa)
#
#
# Indices 1 2 3 4 5 6 
#
# 1 150.3858 39.1291 45.8893 11.0980 -11.9295 -16.0085
# 2 39.1291 90.9646 31.5841 -5.3018 6.4960 -22.6611
# 3 45.8893 31.5841 112.7201 13.7756 -9.5528 4.2924
# 4 11.0980 -5.3018 13.7756 36.8632 -8.9197 6.0048
# 5 -11.9295 6.4960 -9.5528 -8.9197 28.1921 5.1126
# 6 -16.0085 -22.6611 4.2924 6.0048 5.1126 42.5107
#
#
#
# Elastic Compliance Matrix: (Units=1/GPa)
#
#
# Indices 1 2 3 4 5 6 
#
# 1 0.008623 -0.002649 -0.002414 -0.001800 0.002503 0.002032
# 2 -0.002649 0.016716 -0.004808 0.001646 -0.007731 0.009096
# 3 -0.002414 -0.004808 0.012068 -0.002672 0.004204 -0.004819
# 4 -0.001800 0.001646 -0.002672 0.031911 0.008978 -0.005118
# 5 0.002503 -0.007731 0.004204 0.008978 0.044429 -0.010214
# 6 0.002032 0.009096 -0.004819 -0.005118 -0.010214 0.031576
#
#
# Mechanical properties :
#
#
# Convention : Reuss Voigt Hill
#
# Bulk Modulus (GPa) = 56.60608 65.25284 60.92946
# Shear Modulus (GPa) = 29.24805 37.34438 33.29622
#
# Velocity S-wave (km/s) = 3.59573 4.06304 3.83651
# Velocity P-wave (km/s) = 6.50093 7.13137 6.82344
#
# Compressibility (1/GPa) = 0.01766595
#
# Stress axis : x y z
#
# Youngs Moduli (GPa) = 115.96953 59.82239 82.86535
#
# Poissons Ratio (x) = 0.15845 0.20000
# Poissons Ratio (y) = 0.30716 0.39844
# Poissons Ratio (z) = 0.27990 0.28764
#
# Static dielectric constant tensor:
#      x y z
#    x 1.873710 -0.004000 0.020810 
#    y -0.004000 1.857840 0.006840 
#    z 0.020810 0.006840 1.824360 
# 
# From -- ./inp_files/83009.got.cif
#   From: 2010.05.17/outbox.cif.g08.bks.cpg/sg2_42_cif.got.tgz:83009.got - 2010.06.03 11:33:40.
