data_PCOD9051724
_publ_section_title
;
Structure prediction by ZEFSAII (Michael W. Deem and Ramdas Pophale) SiO2 
 PCOD9051724
Probable space group: P -1
;
_chemical_formula_sum "Si O2"
_cell_formula_units_Z 12
_cell_length_a 9.306067
_cell_length_b 9.436250
_cell_length_c 11.332969
_cell_angle_alpha 55.828800
_cell_angle_beta 39.470099
_cell_angle_gamma 73.877955
_cell_volume 499.885048
_symmetry_space_group_name_H-M "P -1"
_symmetry_group_IT_number 2
_symmetry_cell_setting 'triclinic'
loop_
_space_group_symop_operation_xyz
x,y,z
-x,-y,-z
loop_
_atom_site_type_symbol
_atom_site_label
_atom_site_fract_x
_atom_site_fract_y
_atom_site_fract_z
Si Si1 0.465417 0.188716 0.971866
Si Si2 0.012987 0.728086 0.342021
Si Si3 0.758061 0.634571 0.795284
Si Si4 0.151209 0.137203 0.979741
Si Si5 0.602041 0.643463 0.475022
Si Si6 0.826451 0.381748 0.071331
O O1 0.728754 0.300192 0.794866
O O2 0.288973 0.196580 0.185727
O O3 0.335422 0.242704 0.915902
O O4 0.500000 0.000000 0.000000
O O5 0.901512 0.698875 0.556195
O O6 0.825138 0.616130 0.418117
O O7 0.063437 0.933582 0.172417
O O8 0.500000 0.500000 0.000000
O O9 0.853573 0.513519 0.881560
O O10 0.932429 0.216975 0.061410
O O11 0.300858 0.173712 0.747719
O O12 0.500000 0.500000 0.500000
O O13 0.425169 0.663795 0.681341
O O14 0.000000 0.500000 0.000000
#
# Coordination Sequence:
#
# PCOD9051724 Si02
#       6
#     2   2   2   2   2   2
#     4  10  25  47  73 108 145 192 243 301 372 435
#     4  11  28  48  75 108 149 194 249 308 368 439
#     4  12  26  47  74 110 149 193 250 302 368 441
#     4  11  26  48  74 108 146 193 247 301 375 434
#     4  12  25  45  74 106 145 193 246 305 366 438
#     4  12  25  46  74 106 145 192 244 301 369 439
#
# _framework density 24.005520000000001
#
# number of rings (size 3 to 8) (size 9 to 14) (size 15 to 20)
#    0.000    0.667    5.000    0.500    4.667    8.000 
#    0.000    0.000    0.000    0.000    0.000    0.000 
#    0.000    0.000    0.000    0.000    0.000    0.000 
#
# Total GULP energy -67060.849637 kJ/mol
# GULP energy per Si atom -5588.404136 kJ/mol
# Density = 2.395088 g / cm^3
# Si number density = 24.005520 Si / 1000 Ang^3
#
#
#
# Elastic Constant Matrix: (Units=GPa)
#
#
# Indices 1 2 3 4 5 6 
#
# 1 190.3273 33.4122 57.7780 6.9883 0.3066 -2.7698
# 2 33.4122 136.9448 65.0867 7.8808 14.9881 -18.2357
# 3 57.7780 65.0867 178.1860 20.0622 38.8272 -11.3392
# 4 6.9883 7.8808 20.0622 49.9267 -5.2664 5.5276
# 5 0.3066 14.9881 38.8272 -5.2664 53.5557 -2.4171
# 6 -2.7698 -18.2357 -11.3392 5.5276 -2.4171 34.7396
#
#
#
# Elastic Compliance Matrix: (Units=1/GPa)
#
#
# Indices 1 2 3 4 5 6 
#
# 1 0.006006 -0.000735 -0.002133 0.000375 0.001730 -0.000542
# 2 -0.000735 0.009433 -0.002739 -0.000795 -0.000544 0.004088
# 3 -0.002133 -0.002739 0.009174 -0.003779 -0.006174 0.001558
# 4 0.000375 -0.000795 -0.003779 0.022686 0.004971 -0.004885
# 5 0.001730 -0.000544 -0.006174 0.004971 0.023720 -0.001303
# 6 -0.000542 0.004088 0.001558 -0.004885 -0.001303 0.032083
#
#
# Mechanical properties :
#
#
# Convention : Reuss Voigt Hill
#
# Bulk Modulus (GPa) = 74.62918 90.89021 82.75970
# Shear Modulus (GPa) = 42.09346 50.92315 46.50830
#
# Velocity S-wave (km/s) = 4.19201 4.61076 4.40637
# Velocity P-wave (km/s) = 7.38827 8.14186 7.77420
#
# Compressibility (1/GPa) = 0.01339958
#
# Stress axis : x y z
#
# Youngs Moduli (GPa) = 166.49698 106.01123 109.00137
#
# Poissons Ratio (x) = 0.07790 0.23247
# Poissons Ratio (y) = 0.12235 0.29858
# Poissons Ratio (z) = 0.35510 0.29039
#
# Static dielectric constant tensor:
#      x y z
#    x 1.960840 -0.007790 -0.088530 
#    y -0.007790 2.050940 0.010500 
#    z -0.088530 0.010500 1.933010 
# 
# From -- ./inp_files/383992.got.cif
#   From: 2010.05.17/outbox.cif.g08.bks.cpg/sg2_192_cif.got.tgz:383992.got - 2010.06.03 11:33:40.
