data_PCOD9051241
_publ_section_title
;
Structure prediction by ZEFSAII (Michael W. Deem and Ramdas Pophale) SiO2 
 PCOD9051241
Probable space group: P -1
;
_chemical_formula_sum "Si O2"
_cell_formula_units_Z 16
_cell_length_a 8.525017
_cell_length_b 9.756990
_cell_length_c 15.361784
_cell_angle_alpha 36.296632
_cell_angle_beta 116.364009
_cell_angle_gamma 111.161504
_cell_volume 677.712660
_symmetry_space_group_name_H-M "P -1"
_symmetry_group_IT_number 2
_symmetry_cell_setting 'triclinic'
loop_
_space_group_symop_operation_xyz
x,y,z
-x,-y,-z
loop_
_atom_site_type_symbol
_atom_site_label
_atom_site_fract_x
_atom_site_fract_y
_atom_site_fract_z
Si Si1 0.733511 0.608067 0.052779
Si Si2 0.346414 0.316539 0.539555
Si Si3 0.258189 0.912833 0.444745
Si Si4 0.851896 0.444404 0.789298
Si Si5 0.159445 0.330994 0.146223
Si Si6 0.320843 0.056545 0.979666
Si Si7 0.183175 0.408010 0.628594
Si Si8 0.589418 0.126436 0.323442
O O1 0.656450 0.809565 0.991755
O O2 0.628099 0.374925 0.166453
O O3 0.937735 0.566196 0.149607
O O4 0.737610 0.662567 0.923373
O O5 0.500000 0.500000 0.500000
O O6 0.215846 0.424805 0.380199
O O7 0.265370 0.283416 0.630537
O O8 0.410737 0.074503 0.643479
O O9 0.279326 0.650368 0.553702
O O10 0.255748 0.911130 0.548419
O O11 0.102502 0.063898 0.288155
O O12 0.417445 0.074287 0.366033
O O13 0.779228 0.567379 0.796619
O O14 0.777347 0.184272 0.904470
O O15 0.000000 0.500000 0.000000
O O16 0.202058 0.232057 0.803032
O O17 0.500000 0.000000 0.000000
O O18 0.000000 0.500000 0.500000
#
# Coordination Sequence:
#
# PCOD9051241 Si02
#       8
#     2   2   2   2   2   2   2   2
#     4  11  26  48  74 109 143 198 250 296 378 440
#     4  12  25  46  74 107 145 193 246 302 376 439
#     4  11  24  47  73 102 152 188 241 310 365 432
#     4  11  26  48  72 108 153 190 246 317 363 443
#     4  10  25  45  73 105 147 190 241 298 372 430
#     4  12  28  47  75 106 153 197 248 306 374 446
#     4  12  28  45  73 111 148 194 248 302 375 444
#     4  11  25  45  76 103 144 192 246 305 363 440
#
# _framework density 23.608827999999999
#
# number of rings (size 3 to 8) (size 9 to 14) (size 15 to 20)
#    0.000    0.750    3.750    1.875    8.750    3.000 
#    0.000    0.000    0.000    0.000    0.000    0.000 
#    0.000    0.000    0.000    0.000    0.000    0.000 
#
# Total GULP energy -89480.999938 kJ/mol
# GULP energy per Si atom -5592.562496 kJ/mol
# Density = 2.355509 g / cm^3
# Si number density = 23.608828 Si / 1000 Ang^3
#
#
#
# Elastic Constant Matrix: (Units=GPa)
#
#
# Indices 1 2 3 4 5 6 
#
# 1 64.0583 42.4187 -18.2606 -7.3852 2.9709 -13.7597
# 2 42.4187 160.3526 47.4942 -17.1832 -13.8005 -38.5401
# 3 -18.2606 47.4942 123.0361 4.2284 -4.6395 -9.5319
# 4 -7.3852 -17.1832 4.2284 56.6714 -0.3822 1.3348
# 5 2.9709 -13.8005 -4.6395 -0.3822 31.3570 3.5917
# 6 -13.7597 -38.5401 -9.5319 1.3348 3.5917 54.8152
#
#
#
# Elastic Compliance Matrix: (Units=1/GPa)
#
#
# Indices 1 2 3 4 5 6 
#
# 1 0.023517 -0.008226 0.006599 0.000006 -0.005055 0.001598
# 2 -0.008226 0.011908 -0.005351 0.002852 0.004691 0.005001
# 3 0.006599 -0.005351 0.011175 -0.001605 -0.001342 -0.000036
# 4 0.000006 0.002852 -0.001605 0.018610 0.001106 0.001202
# 5 -0.005055 0.004691 -0.001342 0.001106 0.034304 -0.000479
# 6 0.001598 0.005001 -0.000036 0.001202 -0.000479 0.022156
#
#
# Mechanical properties :
#
#
# Convention : Reuss Voigt Hill
#
# Bulk Modulus (GPa) = 30.63425 54.52794 42.58109
# Shear Modulus (GPa) = 34.12774 46.95503 40.54139
#
# Velocity S-wave (km/s) = 3.80616 4.46452 4.14842
# Velocity P-wave (km/s) = 5.68505 7.05142 6.40477
#
# Compressibility (1/GPa) = 0.03264320
#
# Stress axis : x y z
#
# Youngs Moduli (GPa) = 42.52179 83.97421 89.48917
#
# Poissons Ratio (x) = 0.69075 -0.59051
# Poissons Ratio (y) = 0.34977 0.47890
# Poissons Ratio (z) = -0.28059 0.44938
#
# Static dielectric constant tensor:
#      x y z
#    x 2.184300 0.098510 0.187570 
#    y 0.098510 1.848790 0.054330 
#    z 0.187570 0.054330 1.958070 
# 
# From -- ./inp_files/494336.got.cif
#   From: 2010.05.17/outbox.cif.g08.bks.cpg/sg2_248_cif.got.tgz:494336.got - 2010.06.03 11:33:40.
