data_PCOD9051539
_publ_section_title
;
Structure prediction by ZEFSAII (Michael W. Deem and Ramdas Pophale) SiO2 
 PCOD9051539
Probable space group: P -1
;
_chemical_formula_sum "Si O2"
_cell_formula_units_Z 14
_cell_length_a 7.404668
_cell_length_b 9.458579
_cell_length_c 9.166361
_cell_angle_alpha 115.687649
_cell_angle_beta 71.386386
_cell_angle_gamma 110.938109
_cell_volume 529.946888
_symmetry_space_group_name_H-M "P -1"
_symmetry_group_IT_number 2
_symmetry_cell_setting 'triclinic'
loop_
_space_group_symop_operation_xyz
x,y,z
-x,-y,-z
loop_
_atom_site_type_symbol
_atom_site_label
_atom_site_fract_x
_atom_site_fract_y
_atom_site_fract_z
Si Si1 0.491361 0.534056 0.846345
Si Si2 0.695683 0.463501 0.499876
Si Si3 0.381419 0.124527 0.923941
Si Si4 0.862271 0.219893 0.167346
Si Si5 0.774946 0.073515 0.662051
Si Si6 0.111754 0.291191 0.872159
Si Si7 0.042324 0.192379 0.397997
O O1 0.013667 0.670880 0.942124
O O2 0.547104 0.729035 0.912598
O O3 0.500000 0.500000 0.000000
O O4 0.268671 0.439635 0.824635
O O5 0.500000 0.500000 0.500000
O O6 0.239388 0.180843 0.868306
O O7 0.738609 0.311993 0.340049
O O8 0.881100 0.617706 0.504551
O O9 0.270260 0.948931 0.936553
O O10 0.571607 0.103217 0.778087
O O11 0.012761 0.174672 0.224806
O O12 0.359602 0.542572 0.317139
O O13 0.954695 0.193608 0.755905
O O14 0.836934 0.110859 0.495256
O O15 0.799434 0.896707 0.619428
#
# Coordination Sequence:
#
# PCOD9051539 Si02
#       7
#     2   2   2   2   2   2   2
#     4  10  25  46  74 106 149 190 248 297 366 440
#     4  12  27  47  74 108 152 191 248 300 371 439
#     4  11  25  45  75 106 145 192 246 298 363 431
#     4  12  27  47  78 105 153 193 243 306 371 428
#     4  11  26  44  77 106 152 192 249 301 366 436
#     4  11  25  48  73 110 146 194 246 304 363 440
#     4  11  25  47  69 112 150 194 245 304 368 438
#
# _framework density 26.417745
#
# number of rings (size 3 to 8) (size 9 to 14) (size 15 to 20)
#    0.000    0.857    1.429    4.286   10.000    2.857 
#    0.000    0.000    0.000    0.000    0.000    0.000 
#    0.000    0.000    0.000    0.000    0.000    0.000 
#
# Total GULP energy -78560.642953 kJ/mol
# GULP energy per Si atom -5611.474497 kJ/mol
# Density = 2.635762 g / cm^3
# Si number density = 26.417745 Si / 1000 Ang^3
#
#
#
# Elastic Constant Matrix: (Units=GPa)
#
#
# Indices 1 2 3 4 5 6 
#
# 1 90.7757 19.3964 25.9515 8.4016 -28.5790 12.1543
# 2 19.3964 106.8847 49.3996 -3.7231 -8.7013 21.0611
# 3 25.9515 49.3996 152.4276 4.9779 -24.6100 17.0342
# 4 8.4016 -3.7231 4.9779 55.5052 8.4048 4.3863
# 5 -28.5790 -8.7013 -24.6100 8.4048 60.1624 -3.1904
# 6 12.1543 21.0611 17.0342 4.3863 -3.1904 41.6065
#
#
#
# Elastic Compliance Matrix: (Units=1/GPa)
#
#
# Indices 1 2 3 4 5 6 
#
# 1 0.014140 -0.001427 -0.000517 -0.003000 0.006592 -0.002375
# 2 -0.001427 0.012058 -0.003342 0.001806 -0.000795 -0.004570
# 3 -0.000517 -0.003342 0.008361 -0.001221 0.002796 -0.001237
# 4 -0.003000 0.001806 -0.001221 0.019535 -0.004496 -0.001942
# 5 0.006592 -0.000795 0.002796 -0.004496 0.021381 -0.000555
# 6 -0.002375 -0.004570 -0.001237 -0.001942 -0.000555 0.027711
#
#
# Mechanical properties :
#
#
# Convention : Reuss Voigt Hill
#
# Bulk Modulus (GPa) = 41.68801 59.95370 50.82086
# Shear Modulus (GPa) = 41.06684 48.47752 44.77218
#
# Velocity S-wave (km/s) = 3.94701 4.28838 4.12123
# Velocity P-wave (km/s) = 6.04867 6.87488 6.47497
#
# Compressibility (1/GPa) = 0.02398771
#
# Stress axis : x y z
#
# Youngs Moduli (GPa) = 70.72143 82.93344 119.60113
#
# Poissons Ratio (x) = 0.11833 0.06187
# Poissons Ratio (y) = 0.10091 0.39965
# Poissons Ratio (z) = 0.03658 0.27712
#
# Static dielectric constant tensor:
#      x y z
#    x 2.088830 -0.037960 0.021480 
#    y -0.037960 2.086990 -0.004380 
#    z 0.021480 -0.004380 2.063780 
# 
# From -- ./inp_files/558109.got.cif
#   From: 2010.05.17/outbox.cif.g08.bks.cpg/sg2_280_cif.got.tgz:558109.got - 2010.06.03 11:33:40.
