data_PCOD9051874
_publ_section_title
;
Structure prediction by ZEFSAII (Michael W. Deem and Ramdas Pophale) SiO2 
 PCOD9051874
Probable space group: P -1
;
_chemical_formula_sum "Si O2"
_cell_formula_units_Z 16
_cell_length_a 8.972625
_cell_length_b 12.058059
_cell_length_c 9.493073
_cell_angle_alpha 103.634961
_cell_angle_beta 134.145207
_cell_angle_gamma 78.003999
_cell_volume 714.832183
_symmetry_space_group_name_H-M "P -1"
_symmetry_group_IT_number 2
_symmetry_cell_setting 'triclinic'
loop_
_space_group_symop_operation_xyz
x,y,z
-x,-y,-z
loop_
_atom_site_type_symbol
_atom_site_label
_atom_site_fract_x
_atom_site_fract_y
_atom_site_fract_z
Si Si1 0.867926 0.563709 0.560797
Si Si2 0.638578 0.216611 0.549113
Si Si3 0.856621 0.960000 0.015412
Si Si4 0.839940 0.995654 0.517695
Si Si5 0.986577 0.625834 0.191529
Si Si6 0.197638 0.299076 0.191201
Si Si7 0.597799 0.617249 0.143546
Si Si8 0.471336 0.847662 0.222607
O O1 0.920167 0.671560 0.727943
O O2 0.667752 0.601674 0.348159
O O3 0.000000 0.500000 0.500000
O O4 0.872317 0.471863 0.661919
O O5 0.442050 0.297594 0.391843
O O6 0.604741 0.175824 0.675551
O O7 0.853106 0.276491 0.690824
O O8 0.668402 0.101644 0.442861
O O9 0.820853 0.828362 0.920046
O O10 0.655549 0.047334 0.903801
O O11 0.000000 0.000000 0.000000
O O12 0.002927 0.982900 0.247760
O O13 0.710530 0.882684 0.401826
O O14 0.000000 0.000000 0.500000
O O15 0.789128 0.640533 0.171976
O O16 0.886269 0.618564 0.966873
O O17 0.452535 0.732761 0.085726
O O18 0.500000 0.500000 0.000000
#
# Coordination Sequence:
#
# PCOD9051874 Si02
#       8
#     2   2   2   2   2   2   2   2
#     4  10  25  48  73 103 148 195 248 307 373 433
#     4  12  24  44  76 107 148 196 247 301 374 438
#     4  12  25  43  75 112 146 197 250 295 378 447
#     4  12  26  46  73 112 154 193 247 309 373 442
#     4  11  26  47  73 110 148 191 250 307 376 441
#     4  12  24  45  75 107 151 193 249 309 370 447
#     4  11  27  51  75 109 149 195 251 309 377 443
#     4  12  25  48  77 104 152 200 246 305 368 450
#
# _framework density 22.382876
#
# number of rings (size 3 to 8) (size 9 to 14) (size 15 to 20)
#    0.000    0.500    5.000    2.250    1.750    7.000 
#    2.250    0.000    0.000    0.000    0.000    0.000 
#    0.000    0.000    0.000    0.000    0.000    0.000 
#
# Total GULP energy -89174.946755 kJ/mol
# GULP energy per Si atom -5573.434172 kJ/mol
# Density = 2.233193 g / cm^3
# Si number density = 22.382876 Si / 1000 Ang^3
#
#
#
# Elastic Constant Matrix: (Units=GPa)
#
#
# Indices 1 2 3 4 5 6 
#
# 1 106.1024 45.3100 44.3704 18.0463 -4.1608 12.7215
# 2 45.3100 120.4768 53.8552 2.2727 0.0307 -9.1233
# 3 44.3704 53.8552 142.0999 -5.2912 -15.5412 -0.8931
# 4 18.0463 2.2727 -5.2912 39.6178 2.1505 -1.9562
# 5 -4.1608 0.0307 -15.5412 2.1505 42.0190 2.9024
# 6 12.7215 -9.1233 -0.8931 -1.9562 2.9024 32.1721
#
#
#
# Elastic Compliance Matrix: (Units=1/GPa)
#
#
# Indices 1 2 3 4 5 6 
#
# 1 0.014992 -0.004722 -0.003078 -0.007430 0.001277 -0.007920
# 2 -0.004722 0.011877 -0.003169 0.001428 -0.002096 0.005423
# 3 -0.003078 -0.003169 0.009642 0.002727 0.003091 0.000473
# 4 -0.007430 0.001428 0.002727 0.029258 -0.001594 0.005341
# 5 0.001277 -0.002096 0.003091 -0.001594 0.025387 -0.003401
# 6 -0.007920 0.005423 0.000473 0.005341 -0.003401 0.036397
#
#
# Mechanical properties :
#
#
# Convention : Reuss Voigt Hill
#
# Bulk Modulus (GPa) = 68.62228 72.86113 70.74170
# Shear Modulus (GPa) = 32.39410 37.77134 35.08272
#
# Velocity S-wave (km/s) = 3.80843 4.11239 3.96332
# Velocity P-wave (km/s) = 7.07558 7.42777 7.25381
#
# Compressibility (1/GPa) = 0.01457253
#
# Stress axis : x y z
#
# Youngs Moduli (GPa) = 66.70237 84.19545 103.71146
#
# Poissons Ratio (x) = 0.39758 0.31926
# Poissons Ratio (y) = 0.31498 0.32865
# Poissons Ratio (z) = 0.20533 0.26681
#
# Static dielectric constant tensor:
#      x y z
#    x 1.835190 -0.033960 0.056440 
#    y -0.033960 1.991320 0.011620 
#    z 0.056440 0.011620 1.833770 
# 
# From -- ./inp_files/188866.got.cif
#   From: 2010.05.17/outbox.cif.g08.bks.cpg/sg2_95_cif.got.tgz:188866.got - 2010.06.03 11:33:40.
