data_PCOD9051269
_publ_section_title
;
Structure prediction by ZEFSAII (Michael W. Deem and Ramdas Pophale) SiO2 
 PCOD9051269
Probable space group: P -1
;
_chemical_formula_sum "Si O2"
_cell_formula_units_Z 12
_cell_length_a 11.048685
_cell_length_b 6.062525
_cell_length_c 11.496117
_cell_angle_alpha 107.628487
_cell_angle_beta 142.664902
_cell_angle_gamma 79.333881
_cell_volume 443.009862
_symmetry_space_group_name_H-M "P -1"
_symmetry_group_IT_number 2
_symmetry_cell_setting 'triclinic'
loop_
_space_group_symop_operation_xyz
x,y,z
-x,-y,-z
loop_
_atom_site_type_symbol
_atom_site_label
_atom_site_fract_x
_atom_site_fract_y
_atom_site_fract_z
Si Si1 0.454714 0.723026 0.415208
Si Si2 0.425040 0.568804 0.758971
Si Si3 0.865908 0.123986 0.510340
Si Si4 0.038215 0.928416 0.829444
Si Si5 0.791337 0.501030 0.187306
Si Si6 0.184521 0.332271 0.166221
O O1 0.539590 0.612859 0.345089
O O2 0.218028 0.612517 0.216270
O O3 0.585334 0.680236 0.622591
O O4 0.500000 0.000000 0.500000
O O5 0.344950 0.804990 0.686038
O O6 0.262594 0.465886 0.714139
O O7 0.625253 0.600043 0.994973
O O8 0.994065 0.373719 0.661861
O O9 0.000000 0.000000 0.500000
O O10 0.881458 0.990245 0.621469
O O11 0.197699 0.771456 0.869827
O O12 0.940908 0.777572 0.838811
O O13 0.141791 0.166353 0.998825
#
# Coordination Sequence:
#
# PCOD9051269 Si02
#       6
#     2   2   2   2   2   2
#     4  11  24  47  73 111 153 202 265 322 385 461
#     4  11  25  48  76 112 155 199 263 324 391 464
#     4  12  26  46  76 115 154 204 257 323 394 463
#     4  11  24  49  77 110 162 204 259 321 389 473
#     4  11  25  48  73 115 154 201 259 325 395 460
#     4  10  25  45  74 110 148 213 259 313 386 468
#
# _framework density 27.087433000000001
#
# number of rings (size 3 to 8) (size 9 to 14) (size 15 to 20)
#    0.000    1.000    1.667    3.500    2.333    4.667 
#    6.000    6.667    0.000    0.000    0.000    0.000 
#    0.000    0.000    0.000    0.000    0.000    0.000 
#
# Total GULP energy -67194.022250 kJ/mol
# GULP energy per Si atom -5599.501854 kJ/mol
# Density = 2.702578 g / cm^3
# Si number density = 27.087433 Si / 1000 Ang^3
#
#
#
# Elastic Constant Matrix: (Units=GPa)
#
#
# Indices 1 2 3 4 5 6 
#
# 1 164.9964 59.4262 36.8694 9.3254 -38.6491 4.5494
# 2 59.4262 127.5317 78.6760 -12.3264 -25.4903 -19.9605
# 3 36.8694 78.6760 127.8682 -8.0248 -25.5922 -3.8065
# 4 9.3254 -12.3264 -8.0248 74.1964 4.3037 -2.4641
# 5 -38.6491 -25.4903 -25.5922 4.3037 46.3347 4.5737
# 6 4.5494 -19.9605 -3.8065 -2.4641 4.5737 52.2955
#
#
#
# Elastic Compliance Matrix: (Units=1/GPa)
#
#
# Indices 1 2 3 4 5 6 
#
# 1 0.009048 -0.004304 0.001067 -0.002200 0.006270 -0.003004
# 2 -0.004304 0.016208 -0.008424 0.002534 -0.000162 0.006081
# 3 0.001067 -0.008424 0.013381 -0.000405 0.003950 -0.002699
# 4 -0.002200 0.002534 -0.000405 0.014325 -0.002193 0.001996
# 5 0.006270 -0.000162 0.003950 -0.002193 0.029404 -0.002995
# 6 -0.003004 0.006081 -0.002699 0.001996 -0.002995 0.021864
#
#
# Mechanical properties :
#
#
# Convention : Reuss Voigt Hill
#
# Bulk Modulus (GPa) = 65.29731 85.59330 75.44530
# Shear Modulus (GPa) = 37.69101 50.92696 44.30898
#
# Velocity S-wave (km/s) = 3.73427 4.34071 4.04886
# Velocity P-wave (km/s) = 6.53846 7.53590 7.05483
#
# Compressibility (1/GPa) = 0.01531457
#
# Stress axis : x y z
#
# Youngs Moduli (GPa) = 110.51652 61.69857 74.73289
#
# Poissons Ratio (x) = 0.26555 -0.07970
# Poissons Ratio (y) = 0.47566 0.62954
# Poissons Ratio (z) = -0.11787 0.51974
#
# Static dielectric constant tensor:
#      x y z
#    x 2.151060 0.461380 0.007680 
#    y 0.461380 5.498040 -0.159780 
#    z 0.007680 -0.159780 2.083030 
# 
# From -- ./inp_files/408787.got.cif
#   From: 2010.05.17/outbox.cif.g08.bks.cpg/sg2_205_cif.got.tgz:408787.got - 2010.06.03 11:33:40.
