data_PCOD9051824
_publ_section_title
;
Structure prediction by ZEFSAII (Michael W. Deem and Ramdas Pophale) SiO2 
 PCOD9051824
Probable space group: P -1
;
_chemical_formula_sum "Si O2"
_cell_formula_units_Z 10
_cell_length_a 11.567377
_cell_length_b 8.343624
_cell_length_c 5.200687
_cell_angle_alpha 119.692292
_cell_angle_beta 101.519915
_cell_angle_gamma 112.348697
_cell_volume 353.122973
_symmetry_space_group_name_H-M "P -1"
_symmetry_group_IT_number 2
_symmetry_cell_setting 'triclinic'
loop_
_space_group_symop_operation_xyz
x,y,z
-x,-y,-z
loop_
_atom_site_type_symbol
_atom_site_label
_atom_site_fract_x
_atom_site_fract_y
_atom_site_fract_z
Si Si1 0.494328 0.781125 0.072773
Si Si2 0.874116 0.866871 0.632837
Si Si3 0.179529 0.614035 0.790801
Si Si4 0.824801 0.161959 0.521069
Si Si5 0.545941 0.635322 0.425662
O O1 0.484800 0.768093 0.374276
O O2 0.656865 0.981531 0.268724
O O3 0.349721 0.758416 0.928813
O O4 0.489040 0.620503 0.694725
O O5 0.854450 0.632804 0.387366
O O6 0.719574 0.791136 0.626044
O O7 0.884786 0.012949 0.508478
O O8 0.000000 0.000000 0.000000
O O9 0.120308 0.679592 0.576412
O O10 0.149458 0.692198 0.101927
O O11 0.500000 0.500000 0.000000
#
# Coordination Sequence:
#
# PCOD9051824 Si02
#       5
#     2   2   2   2   2
#     4   9  20  36  62 101 140 174 226 291 356 403
#     4  10  25  48  70 101 145 190 230 290 354 414
#     4  11  25  43  71 105 139 184 237 290 349 423
#     4  11  25  43  71 105 139 184 237 290 349 423
#     4   9  19  36  69 101 133 178 236 284 344 423
#
# _framework density 28.318746999999998
#
# number of rings (size 3 to 8) (size 9 to 14) (size 15 to 20)
#    0.000    2.000    0.000    2.400   11.200    3.200 
#    0.000    2.000    0.000    0.000    0.000    0.000 
#    0.000    0.000    0.000    0.000    0.000    0.000 
#
# Total GULP energy -55960.017642 kJ/mol
# GULP energy per Si atom -5596.001764 kJ/mol
# Density = 2.825429 g / cm^3
# Si number density = 28.318747 Si / 1000 Ang^3
#
#
#
# Elastic Constant Matrix: (Units=GPa)
#
#
# Indices 1 2 3 4 5 6 
#
# 1 148.7870 62.8304 51.7542 -27.8939 8.7646 -27.4579
# 2 62.8304 282.0101 107.8715 -69.3154 -7.0820 -17.0309
# 3 51.7542 107.8715 167.8910 -11.2429 6.3861 -10.8450
# 4 -27.8939 -69.3154 -11.2429 66.5858 0.1881 -6.4169
# 5 8.7646 -7.0820 6.3861 0.1881 63.0871 -3.1856
# 6 -27.4579 -17.0309 -10.8450 -6.4169 -3.1856 53.1348
#
#
#
# Elastic Compliance Matrix: (Units=1/GPa)
#
#
# Indices 1 2 3 4 5 6 
#
# 1 0.009142 0.000071 -0.002262 0.003978 -0.000807 0.004717
# 2 0.000071 0.006823 -0.003854 0.006702 0.001243 0.002321
# 3 -0.002262 -0.003854 0.008861 -0.003566 -0.001060 -0.001090
# 4 0.003978 0.006702 -0.003566 0.023672 0.000812 0.006384
# 5 -0.000807 0.001243 -0.001060 0.000812 0.016250 0.000838
# 6 0.004717 0.002321 -0.001090 0.006384 0.000838 0.022600
#
#
# Mechanical properties :
#
#
# Convention : Reuss Voigt Hill
#
# Bulk Modulus (GPa) = 78.52095 115.95557 97.23826
# Shear Modulus (GPa) = 48.22332 61.64368 54.93350
#
# Velocity S-wave (km/s) = 4.13107 4.67066 4.40913
# Velocity P-wave (km/s) = 7.10929 8.37390 7.76738
#
# Compressibility (1/GPa) = 0.01273546
#
# Stress axis : x y z
#
# Youngs Moduli (GPa) = 109.38832 146.55949 112.85311
#
# Poissons Ratio (x) = -0.01039 0.25525
# Poissons Ratio (y) = -0.00775 0.43498
# Poissons Ratio (z) = 0.24741 0.56490
#
# Static dielectric constant tensor:
#      x y z
#    x 2.180150 0.143910 -0.056000 
#    y 0.143910 1.817590 -0.049150 
#    z -0.056000 -0.049150 2.119970 
# 
# From -- ./inp_files/91076.got.cif
#   From: 2010.05.17/outbox.cif.g08.bks.cpg/sg2_46_cif.got.tgz:91076.got - 2010.06.03 11:33:40.
