data_PCOD9051470
_publ_section_title
;
Structure prediction by ZEFSAII (Michael W. Deem and Ramdas Pophale) SiO2 
 PCOD9051470
Probable space group: P -1
;
_chemical_formula_sum "Si O2"
_cell_formula_units_Z 12
_cell_length_a 7.226995
_cell_length_b 7.935414
_cell_length_c 15.267839
_cell_angle_alpha 65.585701
_cell_angle_beta 37.942690
_cell_angle_gamma 78.650941
_cell_volume 477.013268
_symmetry_space_group_name_H-M "P -1"
_symmetry_group_IT_number 2
_symmetry_cell_setting 'triclinic'
loop_
_space_group_symop_operation_xyz
x,y,z
-x,-y,-z
loop_
_atom_site_type_symbol
_atom_site_label
_atom_site_fract_x
_atom_site_fract_y
_atom_site_fract_z
Si Si1 0.719261 0.010100 0.331042
Si Si2 0.755780 0.610749 0.447816
Si Si3 0.365097 0.030550 0.830198
Si Si4 0.766130 0.432852 0.210420
Si Si5 0.410827 0.633905 0.196975
Si Si6 0.639805 0.316542 0.985226
O O1 0.873168 0.234840 0.215992
O O2 0.500000 0.000000 0.500000
O O3 0.873095 0.833147 0.329545
O O4 0.583226 0.963855 0.293991
O O5 0.500000 0.500000 0.500000
O O6 0.566053 0.607160 0.608467
O O7 0.053214 0.521495 0.357025
O O8 0.531186 0.222040 0.774922
O O9 0.478691 0.854488 0.867732
O O10 0.000000 0.000000 0.000000
O O11 0.669430 0.509790 0.137083
O O12 0.003069 0.594690 0.140684
O O13 0.431252 0.747203 0.074139
O O14 0.500000 0.500000 0.000000
#
# Coordination Sequence:
#
# PCOD9051470 Si02
#       6
#     2   2   2   2   2   2
#     4  10  25  46  72 101 145 189 235 300 354 427
#     4  11  22  46  73 101 140 187 246 295 354 423
#     4  12  25  46  73 109 146 188 245 295 359 431
#     4  11  24  46  68 106 144 188 241 293 363 429
#     4  12  25  45  74 106 144 191 240 301 357 425
#     4  12  27  43  71 106 149 190 236 296 365 434
#
# _framework density 25.156531999999999
#
# number of rings (size 3 to 8) (size 9 to 14) (size 15 to 20)
#    0.000    0.667    3.333    4.000    4.667    1.333 
#    0.000    2.500    0.000    0.000    0.000    0.000 
#    0.000    0.000    0.000    0.000    0.000    0.000 
#
# Total GULP energy -67092.332793 kJ/mol
# GULP energy per Si atom -5591.027733 kJ/mol
# Density = 2.509927 g / cm^3
# Si number density = 25.156532 Si / 1000 Ang^3
#
#
#
# Elastic Constant Matrix: (Units=GPa)
#
#
# Indices 1 2 3 4 5 6 
#
# 1 151.4985 35.5064 57.5868 2.6972 11.0977 -2.5009
# 2 35.5064 119.6926 27.8772 -17.1697 8.8537 -11.7218
# 3 57.5868 27.8772 84.2743 -3.8834 11.7904 -8.0151
# 4 2.6972 -17.1697 -3.8834 47.7590 -0.8263 6.4592
# 5 11.0977 8.8537 11.7904 -0.8263 57.0611 5.7936
# 6 -2.5009 -11.7218 -8.0151 6.4592 5.7936 58.1789
#
#
#
# Elastic Compliance Matrix: (Units=1/GPa)
#
#
# Indices 1 2 3 4 5 6 
#
# 1 0.009250 -0.001627 -0.005862 -0.001516 -0.000303 -0.000539
# 2 -0.001627 0.009930 -0.001752 0.003311 -0.000958 0.001417
# 3 -0.005862 -0.001752 0.016984 0.000789 -0.002276 0.001874
# 4 -0.001516 0.003311 0.000789 0.022525 0.000127 -0.001803
# 5 -0.000303 -0.000958 -0.002276 0.000127 0.018446 -0.002371
# 6 -0.000539 0.001417 0.001874 -0.001803 -0.002371 0.018145
#
#
# Mechanical properties :
#
#
# Convention : Reuss Voigt Hill
#
# Bulk Modulus (GPa) = 56.54823 66.37844 61.46334
# Shear Modulus (GPa) = 41.78698 48.23282 45.00990
#
# Velocity S-wave (km/s) = 4.08005 4.38346 4.23447
# Velocity P-wave (km/s) = 6.68754 7.21547 6.95651
#
# Compressibility (1/GPa) = 0.01768402
#
# Stress axis : x y z
#
# Youngs Moduli (GPa) = 108.10379 100.70558 58.87903
#
# Poissons Ratio (x) = 0.16382 0.34513
# Poissons Ratio (y) = 0.17586 0.10314
# Poissons Ratio (z) = 0.63367 0.17640
#
# Static dielectric constant tensor:
#      x y z
#    x 2.150600 -0.067030 0.139440 
#    y -0.067030 1.998260 0.006030 
#    z 0.139440 0.006030 2.102610 
# 
# From -- ./inp_files/25089.got.cif
#   From: 2010.05.17/outbox.cif.g08.bks.cpg/sg2_13_cif.got.tgz:25089.got - 2010.06.03 11:33:40.
