data_PCOD9051816
_publ_section_title
;
Structure prediction by ZEFSAII (Michael W. Deem and Ramdas Pophale) SiO2 
 PCOD9051816
Probable space group: P -1
;
_chemical_formula_sum "Si O2"
_cell_formula_units_Z 14
_cell_length_a 5.438338
_cell_length_b 11.662268
_cell_length_c 11.323201
_cell_angle_alpha 125.281124
_cell_angle_beta 89.662392
_cell_angle_gamma 75.800181
_cell_volume 558.368770
_symmetry_space_group_name_H-M "P -1"
_symmetry_group_IT_number 2
_symmetry_cell_setting 'triclinic'
loop_
_space_group_symop_operation_xyz
x,y,z
-x,-y,-z
loop_
_atom_site_type_symbol
_atom_site_label
_atom_site_fract_x
_atom_site_fract_y
_atom_site_fract_z
Si Si1 0.926457 0.652101 0.947956
Si Si2 0.502836 0.620669 0.372227
Si Si3 0.938605 0.398782 0.341747
Si Si4 0.808576 0.365466 0.843657
Si Si5 0.246071 0.021626 0.936629
Si Si6 0.078949 0.839077 0.646664
Si Si7 0.752135 0.863448 0.454415
O O1 0.814211 0.534874 0.940179
O O2 0.949951 0.587823 0.778096
O O3 0.170751 0.661075 0.031958
O O4 0.786374 0.820869 0.027986
O O5 0.639129 0.464822 0.341356
O O6 0.425721 0.628483 0.239410
O O7 0.251384 0.696467 0.492662
O O8 0.667866 0.735092 0.445230
O O9 0.041288 0.233607 0.291604
O O10 0.000000 0.500000 0.500000
O O11 0.053051 0.234465 0.705925
O O12 0.255924 0.917637 0.761445
O O13 0.500000 0.000000 0.000000
O O14 0.000000 0.000000 0.000000
O O15 0.901482 0.926645 0.593456
O O16 0.500000 0.000000 0.500000
#
# Coordination Sequence:
#
# PCOD9051816 Si02
#       7
#     2   2   2   2   2   2   2
#     4  11  25  48  71 102 152 189 257 307 376 455
#     4  11  24  43  75 100 136 190 244 315 372 446
#     4  12  22  44  74 102 141 184 245 308 374 452
#     4  10  25  48  69 106 137 198 252 307 374 447
#     4  12  30  49  74 111 157 204 247 312 390 459
#     4  11  26  44  70 107 143 188 249 304 385 448
#     4  11  25  45  73 103 143 190 249 312 376 451
#
# _framework density 25.073034
#
# number of rings (size 3 to 8) (size 9 to 14) (size 15 to 20)
#    0.000    0.857    4.286    1.286   10.000    1.714 
#    0.000    0.000    0.000    0.000    0.000    0.000 
#    0.000    0.000    0.000    0.000    0.000    0.000 
#
# Total GULP energy -78035.116322 kJ/mol
# GULP energy per Si atom -5573.936880 kJ/mol
# Density = 2.501597 g / cm^3
# Si number density = 25.073034 Si / 1000 Ang^3
#
#
#
# Elastic Constant Matrix: (Units=GPa)
#
#
# Indices 1 2 3 4 5 6 
#
# 1 64.1887 23.2863 24.4207 -0.8607 23.2694 -20.5782
# 2 23.2863 141.1338 52.0293 -2.1927 16.7254 -37.6558
# 3 24.4207 52.0293 126.0256 -12.1479 47.7128 -17.0034
# 4 -0.8607 -2.1927 -12.1479 44.8130 -9.9250 8.7964
# 5 23.2694 16.7254 47.7128 -9.9250 45.0722 -11.6538
# 6 -20.5782 -37.6558 -17.0034 8.7964 -11.6538 39.9966
#
#
#
# Elastic Compliance Matrix: (Units=1/GPa)
#
#
# Indices 1 2 3 4 5 6 
#
# 1 0.022078 -0.000278 0.000676 -0.003505 -0.010425 0.009118
# 2 -0.000278 0.010939 -0.004426 -0.001915 0.002808 0.009513
# 3 0.000676 -0.004426 0.015155 0.000959 -0.015048 -0.001973
# 4 -0.003505 -0.001915 0.000959 0.024964 0.005143 -0.007191
# 5 -0.010425 0.002808 -0.015048 0.005143 0.044274 0.002652
# 6 0.009118 0.009513 -0.001973 -0.007191 0.002652 0.040165
#
#
# Mechanical properties :
#
#
# Convention : Reuss Voigt Hill
#
# Bulk Modulus (GPa) = 24.92909 58.98008 41.95459
# Shear Modulus (GPa) = 27.93223 41.41714 34.67469
#
# Velocity S-wave (km/s) = 3.34134 4.06872 3.72283
# Velocity P-wave (km/s) = 4.98500 6.75626 5.93705
#
# Compressibility (1/GPa) = 0.04011379
#
# Stress axis : x y z
#
# Youngs Moduli (GPa) = 45.29378 91.41717 65.98616
#
# Poissons Ratio (x) = 0.02543 -0.04459
# Poissons Ratio (y) = 0.01260 0.29208
# Poissons Ratio (z) = -0.03060 0.40465
#
# Static dielectric constant tensor:
#      x y z
#    x 2.200270 -0.055040 0.052490 
#    y -0.055040 1.988210 -0.092220 
#    z 0.052490 -0.092220 1.827640 
# 
# From -- ./inp_files/67359.got.cif
#   From: 2010.05.17/outbox.cif.g08.bks.cpg/sg2_34_cif.got.tgz:67359.got - 2010.06.03 11:33:40.
