data_PCOD9051726
_publ_section_title
;
Structure prediction by ZEFSAII (Michael W. Deem and Ramdas Pophale) SiO2 
 PCOD9051726
Probable space group: P -1
;
_chemical_formula_sum "Si O2"
_cell_formula_units_Z 13
_cell_length_a 12.932038
_cell_length_b 6.853256
_cell_length_c 8.463982
_cell_angle_alpha 99.097280
_cell_angle_beta 109.511237
_cell_angle_gamma 56.007142
_cell_volume 585.833675
_symmetry_space_group_name_H-M "P -1"
_symmetry_group_IT_number 2
_symmetry_cell_setting 'triclinic'
loop_
_space_group_symop_operation_xyz
x,y,z
-x,-y,-z
loop_
_atom_site_type_symbol
_atom_site_label
_atom_site_fract_x
_atom_site_fract_y
_atom_site_fract_z
Si Si1 0.051255 0.527943 0.699774
Si Si2 0.710091 0.951355 0.257267
Si Si3 0.223101 0.571608 0.170035
Si Si4 0.546243 0.953014 0.698098
Si Si5 0.000000 0.500000 0.000000
Si Si6 0.376519 0.728461 0.047261
Si Si7 0.895995 0.029668 0.580352
O O1 0.000000 0.500000 0.500000
O O2 0.205504 0.332079 0.749490
O O3 0.993027 0.455193 0.801859
O O4 0.983665 0.806223 0.709055
O O5 0.784510 0.013954 0.430674
O O6 0.566632 0.033956 0.251065
O O7 0.703487 0.077551 0.105738
O O8 0.106137 0.569751 0.025498
O O9 0.291375 0.656115 0.093214
O O10 0.174721 0.742040 0.317959
O O11 0.325705 0.304727 0.243950
O O12 0.574385 0.147008 0.795284
O O13 0.500000 0.000000 0.500000
O O14 0.500000 0.500000 0.000000
O O15 0.000000 0.000000 0.500000
#
# Coordination Sequence:
#
# PCOD9051726 Si02
#       7
#     2   2   2   2   1   2   2
#     4  10  25  47  73 108 151 202 258 320 392 465
#     4  11  25  48  78 108 157 203 261 328 393 469
#     4  12  29  51  76 116 159 201 271 324 402 473
#     4  12  29  48  81 114 159 207 258 333 398 468
#     4  12  28  48  78 108 158 204 254 330 392 468
#     4  12  28  50  77 117 156 208 263 319 400 479
#     4  11  27  47  77 113 154 211 266 325 395 482
#
# _framework density 22.190597
#
# number of rings (size 3 to 8) (size 9 to 14) (size 15 to 20)
#    0.000    0.615    1.538    4.154   17.231    1.846 
#    0.000    0.000    0.000    0.000    0.000    0.000 
#    0.000    0.000    0.000    0.000    0.000    0.000 
#
# Total GULP energy -72517.097399 kJ/mol
# GULP energy per Si atom -5578.238261 kJ/mol
# Density = 2.214009 g / cm^3
# Si number density = 22.190597 Si / 1000 Ang^3
#
#
#
# Elastic Constant Matrix: (Units=GPa)
#
#
# Indices 1 2 3 4 5 6 
#
# 1 152.9610 42.3358 53.7850 24.3614 4.3181 20.3417
# 2 42.3358 122.8366 55.2867 17.6100 13.1283 -7.5395
# 3 53.7850 55.2867 143.7645 4.7825 -1.1116 9.4036
# 4 24.3614 17.6100 4.7825 47.3442 1.6830 -1.1448
# 5 4.3181 13.1283 -1.1116 1.6830 40.7815 10.2675
# 6 20.3417 -7.5395 9.4036 -1.1448 10.2675 29.6735
#
#
#
# Elastic Compliance Matrix: (Units=1/GPa)
#
#
# Indices 1 2 3 4 5 6 
#
# 1 0.009453 -0.002412 -0.001991 -0.004000 0.001700 -0.007204
# 2 -0.002412 0.012415 -0.004362 -0.002534 -0.005794 0.008097
# 3 -0.001991 -0.004362 0.009590 0.001492 0.002740 -0.003673
# 4 -0.004000 -0.002534 0.001492 0.024051 -0.000389 0.002688
# 5 0.001700 -0.005794 0.002740 -0.000389 0.029778 -0.013824
# 6 -0.007204 0.008097 -0.003673 0.002688 -0.013824 0.046747
#
#
# Mechanical properties :
#
#
# Convention : Reuss Voigt Hill
#
# Bulk Modulus (GPa) = 71.80413 80.26411 76.03412
# Shear Modulus (GPa) = 32.42390 41.43679 36.93035
#
# Velocity S-wave (km/s) = 3.82665 4.32593 4.08393
# Velocity P-wave (km/s) = 7.20781 7.82307 7.52173
#
# Compressibility (1/GPa) = 0.01392677
#
# Stress axis : x y z
#
# Youngs Moduli (GPa) = 105.79115 80.54671 104.27359
#
# Poissons Ratio (x) = 0.19428 0.20765
# Poissons Ratio (y) = 0.25517 0.45486
# Poissons Ratio (z) = 0.21067 0.35136
#
# Static dielectric constant tensor:
#      x y z
#    x 1.846920 -0.012560 -0.102660 
#    y -0.012560 1.821130 0.058740 
#    z -0.102660 0.058740 1.675260 
# 
# From -- ./inp_files/23132.got.cif
#   From: 2010.05.17/outbox.cif.g08.bks.cpg/sg2_12_cif.got.tgz:23132.got - 2010.06.03 11:33:40.
