data_PCOD9051137
_publ_section_title
;
Structure prediction by ZEFSAII (Michael W. Deem and Ramdas Pophale) SiO2 
 PCOD9051137
Probable space group: P -1
;
_chemical_formula_sum "Si O2"
_cell_formula_units_Z 16
_cell_length_a 10.325862
_cell_length_b 8.083924
_cell_length_c 9.711472
_cell_angle_alpha 77.685645
_cell_angle_beta 53.403717
_cell_angle_gamma 87.560431
_cell_volume 632.153589
_symmetry_space_group_name_H-M "P -1"
_symmetry_group_IT_number 2
_symmetry_cell_setting 'triclinic'
loop_
_space_group_symop_operation_xyz
x,y,z
-x,-y,-z
loop_
_atom_site_type_symbol
_atom_site_label
_atom_site_fract_x
_atom_site_fract_y
_atom_site_fract_z
Si Si1 0.142936 0.973875 0.805325
Si Si2 0.060210 0.507737 0.615740
Si Si3 0.195342 0.892112 0.480146
Si Si4 0.492994 0.390496 0.200906
Si Si5 0.512900 0.722438 0.237454
Si Si6 0.140614 0.605028 0.986265
Si Si7 0.351444 0.310799 0.575655
Si Si8 0.354296 0.112873 0.116604
O O1 0.138370 0.981136 0.638825
O O2 0.277501 0.130208 0.716047
O O3 0.178112 0.785237 0.855598
O O4 0.000000 0.000000 0.000000
O O5 0.089021 0.710226 0.584932
O O6 0.219004 0.423619 0.579129
O O7 0.000000 0.500000 0.500000
O O8 0.934226 0.399831 0.813826
O O9 0.382306 0.840458 0.361676
O O10 0.207469 0.008086 0.312420
O O11 0.422281 0.574726 0.221363
O O12 0.454051 0.279924 0.382589
O O13 0.423258 0.266923 0.145954
O O14 0.683537 0.447395 0.079205
O O15 0.565178 0.615638 0.352132
O O16 0.664299 0.810765 0.037087
O O17 0.000000 0.500000 0.000000
O O18 0.500000 0.000000 0.000000
#
# Coordination Sequence:
#
# PCOD9051137 Si02
#       8
#     2   2   2   2   2   2   2   2
#     4  12  26  46  76 104 154 197 255 311 382 453
#     4  12  28  49  75 105 156 199 250 314 389 462
#     4  11  24  48  76 109 153 198 251 321 379 445
#     4  12  25  45  80 111 153 203 254 317 379 450
#     4  11  25  43  79 113 153 188 257 319 372 452
#     4  12  27  47  73 112 153 202 253 311 386 449
#     4  12  26  49  76 114 142 202 263 314 380 452
#     4  10  25  45  70 116 153 194 253 312 380 440
#
# _framework density 25.310303000000001
#
# number of rings (size 3 to 8) (size 9 to 14) (size 15 to 20)
#    0.000    0.500    5.000    2.250    7.000    2.000 
#    0.000    0.625    0.000    0.000    0.000    0.000 
#    0.000    0.000    0.000    0.000    0.000    0.000 
#
# Total GULP energy -89218.714123 kJ/mol
# GULP energy per Si atom -5576.169633 kJ/mol
# Density = 2.525270 g / cm^3
# Si number density = 25.310303 Si / 1000 Ang^3
#
#
#
# Elastic Constant Matrix: (Units=GPa)
#
#
# Indices 1 2 3 4 5 6 
#
# 1 67.2760 0.2310 16.7506 15.5113 24.1797 -9.7343
# 2 0.2310 63.5630 10.8617 0.4426 15.3040 2.5600
# 3 16.7506 10.8617 208.3364 -14.7214 25.1269 -4.3812
# 4 15.5113 0.4426 -14.7214 56.3201 -0.6717 8.9953
# 5 24.1797 15.3040 25.1269 -0.6717 50.3397 5.0255
# 6 -9.7343 2.5600 -4.3812 8.9953 5.0255 21.8943
#
#
#
# Elastic Compliance Matrix: (Units=1/GPa)
#
#
# Indices 1 2 3 4 5 6 
#
# 1 0.025344 0.002896 -0.000765 -0.010312 -0.014644 0.018375
# 2 0.002896 0.017340 -0.000408 -0.001316 -0.006600 0.001234
# 3 -0.000765 -0.000408 0.005263 0.001458 -0.002182 0.000663
# 4 -0.010312 -0.001316 0.001458 0.023505 0.006465 -0.015280
# 5 -0.014644 -0.006600 -0.002182 0.006465 0.031689 -0.016106
# 6 0.018375 0.001234 0.000663 -0.015280 -0.016106 0.063806
#
#
# Mechanical properties :
#
#
# Convention : Reuss Voigt Hill
#
# Bulk Modulus (GPa) = 19.45743 43.87353 31.66548
# Shear Modulus (GPa) = 27.68068 46.46630 37.07349
#
# Velocity S-wave (km/s) = 3.31063 4.28935 3.83137
# Velocity P-wave (km/s) = 4.72419 6.47327 5.66662
#
# Compressibility (1/GPa) = 0.05139424
#
# Stress axis : x y z
#
# Youngs Moduli (GPa) = 39.45678 57.66966 190.01221
#
# Poissons Ratio (x) = -0.16703 0.14531
# Poissons Ratio (y) = -0.11428 0.07752
# Poissons Ratio (z) = 0.03018 0.02353
#
# Static dielectric constant tensor:
#      x y z
#    x 2.408440 -0.041030 -0.088460 
#    y -0.041030 2.167740 0.070430 
#    z -0.088460 0.070430 2.106210 
# 
# From -- ./inp_files/238244.got.cif
#   From: 2010.05.17/outbox.cif.g08.bks.cpg/sg2_120_cif.got.tgz:238244.got - 2010.06.03 11:33:40.
