data_PCOD9051927
_publ_section_title
;
Structure prediction by ZEFSAII (Michael W. Deem and Ramdas Pophale) SiO2 
 PCOD9051927
Probable space group: P -1
;
_chemical_formula_sum "Si O2"
_cell_formula_units_Z 14
_cell_length_a 7.810116
_cell_length_b 9.343968
_cell_length_c 8.965720
_cell_angle_alpha 97.281153
_cell_angle_beta 101.999306
_cell_angle_gamma 109.524932
_cell_volume 589.375279
_symmetry_space_group_name_H-M "P -1"
_symmetry_group_IT_number 2
_symmetry_cell_setting 'triclinic'
loop_
_space_group_symop_operation_xyz
x,y,z
-x,-y,-z
loop_
_atom_site_type_symbol
_atom_site_label
_atom_site_fract_x
_atom_site_fract_y
_atom_site_fract_z
Si Si1 0.535821 0.855870 0.070789
Si Si2 0.520446 0.163569 0.588990
Si Si3 0.047887 0.309235 0.206975
Si Si4 0.117399 0.070049 0.385134
Si Si5 0.097356 0.204116 0.873637
Si Si6 0.276772 0.550922 0.818744
Si Si7 0.215311 0.551910 0.482993
O O1 0.474457 0.836701 0.230777
O O2 0.754511 0.881289 0.109803
O O3 0.440974 0.685517 0.953531
O O4 0.500000 0.000000 0.000000
O O5 0.703057 0.282313 0.556642
O O6 0.500000 0.000000 0.500000
O O7 0.327439 0.175584 0.490950
O O8 0.223538 0.444122 0.332628
O O9 0.888801 0.381819 0.181541
O O10 0.019058 0.174437 0.301638
O O11 0.066365 0.247221 0.041008
O O12 0.088702 0.921506 0.253126
O O13 0.000000 0.000000 0.500000
O O14 0.194136 0.371758 0.832462
O O15 0.327010 0.551826 0.653793
O O16 0.000000 0.500000 0.500000
#
# Coordination Sequence:
#
# PCOD9051927 Si02
#       7
#     2   2   2   2   2   2   2
#     4  12  27  49  74 112 157 195 257 313 378 448
#     4  12  29  46  80 111 149 203 254 311 381 449
#     4  11  26  46  78 107 148 200 254 304 383 439
#     4  12  27  48  73 110 157 195 254 310 380 453
#     4  12  26  48  75 109 153 202 245 316 371 451
#     4  11  25  46  78 105 152 196 253 313 376 442
#     4  10  25  48  77 110 148 194 253 314 377 442
#
# _framework density 23.753965999999998
#
# number of rings (size 3 to 8) (size 9 to 14) (size 15 to 20)
#    0.000    0.571    1.429    4.714   14.000    0.571 
#    0.000    0.000    0.000    0.000    0.000    0.000 
#    0.000    0.000    0.000    0.000    0.000    0.000 
#
# Total GULP energy -78253.965020 kJ/mol
# GULP energy per Si atom -5589.568930 kJ/mol
# Density = 2.369990 g / cm^3
# Si number density = 23.753966 Si / 1000 Ang^3
#
#
#
# Elastic Constant Matrix: (Units=GPa)
#
#
# Indices 1 2 3 4 5 6 
#
# 1 75.2082 12.2131 5.6500 -18.4935 7.6365 -2.8320
# 2 12.2131 149.6814 36.1641 -4.4484 17.2627 1.2334
# 3 5.6500 36.1641 161.2173 4.8701 -6.8559 12.2894
# 4 -18.4935 -4.4484 4.8701 49.7330 -0.2047 8.3115
# 5 7.6365 17.2627 -6.8559 -0.2047 32.3706 -6.0339
# 6 -2.8320 1.2334 12.2894 8.3115 -6.0339 33.4316
#
#
#
# Elastic Compliance Matrix: (Units=1/GPa)
#
#
# Indices 1 2 3 4 5 6 
#
# 1 0.015179 -0.000486 -0.000708 0.005739 -0.003529 -0.000500
# 2 -0.000486 0.007725 -0.001883 0.000784 -0.004519 -0.000645
# 3 -0.000708 -0.001883 0.006917 -0.000777 0.002271 -0.001930
# 4 0.005739 0.000784 -0.000777 0.023306 -0.002826 -0.005561
# 5 -0.003529 -0.004519 0.002271 -0.002826 0.035751 0.006188
# 6 -0.000500 -0.000645 -0.001930 -0.005561 0.006188 0.033102
#
#
# Mechanical properties :
#
#
# Convention : Reuss Voigt Hill
#
# Bulk Modulus (GPa) = 42.25081 54.90680 48.57880
# Shear Modulus (GPa) = 36.75844 45.24570 41.00207
#
# Velocity S-wave (km/s) = 3.93805 4.36910 4.15916
# Velocity P-wave (km/s) = 6.20509 6.97259 6.60000
#
# Compressibility (1/GPa) = 0.02366819
#
# Stress axis : x y z
#
# Youngs Moduli (GPa) = 65.87917 129.44785 144.56854
#
# Poissons Ratio (x) = 0.06288 0.10241
# Poissons Ratio (y) = 0.03200 0.27216
# Poissons Ratio (z) = 0.04667 0.24370
#
# Static dielectric constant tensor:
#      x y z
#    x 2.128180 0.206510 0.165390 
#    y 0.206510 2.188030 0.143070 
#    z 0.165390 0.143070 1.991650 
# 
# From -- ./inp_files/158810.got.cif
#   From: 2010.05.17/outbox.cif.g08.bks.cpg/sg2_80_cif.got.tgz:158810.got - 2010.06.03 11:33:40.
