data_PCOD9051393
_publ_section_title
;
Structure prediction by ZEFSAII (Michael W. Deem and Ramdas Pophale) SiO2 
 PCOD9051393
Probable space group: P -1
;
_chemical_formula_sum "Si O2"
_cell_formula_units_Z 14
_cell_length_a 7.862285
_cell_length_b 9.117739
_cell_length_c 10.969764
_cell_angle_alpha 69.513006
_cell_angle_beta 81.673680
_cell_angle_gamma 128.562915
_cell_volume 500.295538
_symmetry_space_group_name_H-M "P -1"
_symmetry_group_IT_number 2
_symmetry_cell_setting 'triclinic'
loop_
_space_group_symop_operation_xyz
x,y,z
-x,-y,-z
loop_
_atom_site_type_symbol
_atom_site_label
_atom_site_fract_x
_atom_site_fract_y
_atom_site_fract_z
Si Si1 0.660330 0.772169 0.035962
Si Si2 0.601016 0.877308 0.263591
Si Si3 0.993625 0.127173 0.358707
Si Si4 0.971411 0.718829 0.240199
Si Si5 0.464120 0.614692 0.774862
Si Si6 0.219320 0.692628 0.014027
Si Si7 0.246447 0.867855 0.414371
O O1 0.716296 0.623807 0.059147
O O2 0.435743 0.707372 0.003444
O O3 0.580138 0.743331 0.194436
O O4 0.898759 0.036861 0.898069
O O5 0.816835 0.977022 0.307414
O O6 0.369151 0.783282 0.395700
O O7 0.663215 0.075130 0.123559
O O8 0.282337 0.311663 0.242014
O O9 0.879515 0.199770 0.420702
O O10 0.000000 0.000000 0.500000
O O11 0.108669 0.672370 0.161426
O O12 0.680481 0.499038 0.305259
O O13 0.044801 0.764136 0.359875
O O14 0.549544 0.853355 0.698764
O O15 0.000000 0.500000 0.000000
#
# Coordination Sequence:
#
# PCOD9051393 Si02
#       7
#     2   2   2   2   2   2   2
#     4  11  23  43  68 108 136 176 224 284 346 407
#     4  11  21  45  71  95 137 177 227 287 334 399
#     4  10  25  46  69  98 134 187 230 282 336 394
#     4  11  23  43  68 105 137 179 223 280 344 409
#     4  11  26  42  66 101 142 181 225 273 345 402
#     4  11  21  41  72 101 139 178 225 278 345 413
#     4  11  23  47  71  96 139 179 236 280 333 402
#
# _framework density 27.983460000000001
#
# number of rings (size 3 to 8) (size 9 to 14) (size 15 to 20)
#    0.000    1.143    2.857    3.429    4.000    1.143 
#    2.571    0.714    0.000    0.000    0.000    0.000 
#    0.000    0.000    0.000    0.000    0.000    0.000 
#
# Total GULP energy -78384.903391 kJ/mol
# GULP energy per Si atom -5598.921671 kJ/mol
# Density = 2.791977 g / cm^3
# Si number density = 27.983460 Si / 1000 Ang^3
#
#
#
# Elastic Constant Matrix: (Units=GPa)
#
#
# Indices 1 2 3 4 5 6 
#
# 1 123.6035 41.9466 20.6831 3.3315 5.9187 2.2132
# 2 41.9466 179.4759 8.5260 26.8269 21.2570 15.9957
# 3 20.6831 8.5260 50.6721 10.3321 16.5617 -12.0524
# 4 3.3315 26.8269 10.3321 49.9981 -10.9225 8.4474
# 5 5.9187 21.2570 16.5617 -10.9225 58.9642 6.7305
# 6 2.2132 15.9957 -12.0524 8.4474 6.7305 61.5791
#
#
#
# Elastic Compliance Matrix: (Units=1/GPa)
#
#
# Indices 1 2 3 4 5 6 
#
# 1 0.009613 -0.002473 -0.004858 0.002292 0.001849 -0.001170
# 2 -0.002473 0.007270 0.001949 -0.004911 -0.003792 -0.000330
# 3 -0.004858 0.001949 0.029148 -0.010571 -0.011280 0.008056
# 4 0.002292 -0.004911 -0.010571 0.027914 0.010346 -0.005836
# 5 0.001849 -0.003792 -0.011280 0.010346 0.023832 -0.005313
# 6 -0.001170 -0.000330 0.008056 -0.005836 -0.005313 0.019325
#
#
# Mechanical properties :
#
#
# Convention : Reuss Voigt Hill
#
# Bulk Modulus (GPa) = 28.35613 55.11811 41.73712
# Shear Modulus (GPa) = 35.81082 52.94799 44.37941
#
# Velocity S-wave (km/s) = 3.58119 4.35457 3.98668
# Velocity P-wave (km/s) = 5.22064 6.70988 6.01155
#
# Compressibility (1/GPa) = 0.03526575
#
# Stress axis : x y z
#
# Youngs Moduli (GPa) = 104.02285 137.55339 34.30779
#
# Poissons Ratio (x) = 0.34022 0.16667
# Poissons Ratio (y) = 0.25729 -0.06685
# Poissons Ratio (z) = 0.50534 -0.26805
#
# Static dielectric constant tensor:
#      x y z
#    x 2.233090 -0.001510 -0.089610 
#    y -0.001510 2.222280 -0.029790 
#    z -0.089610 -0.029790 2.289350 
# 
# From -- ./inp_files/389764.got.cif
#   From: 2010.05.17/outbox.cif.g08.bks.cpg/sg2_195_cif.got.tgz:389764.got - 2010.06.03 11:33:40.
