data_PCOD9051096
_publ_section_title
;
Structure prediction by ZEFSAII (Michael W. Deem and Ramdas Pophale) SiO2 
 PCOD9051096
Probable space group: P -1
;
_chemical_formula_sum "Si O2"
_cell_formula_units_Z 12
_cell_length_a 8.477890
_cell_length_b 11.908751
_cell_length_c 9.187976
_cell_angle_alpha 68.876907
_cell_angle_beta 42.866132
_cell_angle_gamma 93.451450
_cell_volume 505.957386
_symmetry_space_group_name_H-M "P -1"
_symmetry_group_IT_number 2
_symmetry_cell_setting 'triclinic'
loop_
_space_group_symop_operation_xyz
x,y,z
-x,-y,-z
loop_
_atom_site_type_symbol
_atom_site_label
_atom_site_fract_x
_atom_site_fract_y
_atom_site_fract_z
Si Si1 0.027391 0.465587 0.166393
Si Si2 0.806692 0.117347 0.702041
Si Si3 0.203062 0.252724 0.138351
Si Si4 0.434718 0.341173 0.631505
Si Si5 0.008358 0.118423 0.842406
Si Si6 0.278883 0.732229 0.080017
O O1 0.717028 0.351580 0.461876
O O2 0.128075 0.596162 0.145442
O O3 0.217401 0.400725 0.083282
O O4 0.000000 0.500000 0.000000
O O5 0.979984 0.079499 0.710535
O O6 0.858195 0.261630 0.676943
O O7 0.919100 0.140328 0.454614
O O8 0.500000 0.000000 0.000000
O O9 0.247186 0.256534 0.934279
O O10 0.434512 0.243541 0.074735
O O11 0.500000 0.500000 0.500000
O O12 0.284177 0.260076 0.626256
O O13 0.765540 0.149798 0.024063
O O14 0.000000 0.000000 0.000000
#
# Coordination Sequence:
#
# PCOD9051096 Si02
#       6
#     2   2   2   2   2   2
#     4  12  25  43  73 110 148 188 239 298 365 429
#     4  10  26  51  69 104 144 190 247 294 359 437
#     4  12  26  43  78 102 150 188 240 301 364 420
#     4  12  24  49  72 111 148 190 245 295 360 439
#     4  10  25  48  73 100 148 191 240 304 355 429
#     4  10  25  45  69 109 141 190 245 294 363 435
#
# _framework density 23.717410999999998
#
# number of rings (size 3 to 8) (size 9 to 14) (size 15 to 20)
#    1.000    0.000    3.333    1.500    7.000    6.000 
#    0.000    1.667    0.000    0.000    0.000    0.000 
#    0.000    0.000    0.000    0.000    0.000    0.000 
#
# Total GULP energy -66946.263874 kJ/mol
# GULP energy per Si atom -5578.855323 kJ/mol
# Density = 2.366343 g / cm^3
# Si number density = 23.717411 Si / 1000 Ang^3
#
#
#
# Elastic Constant Matrix: (Units=GPa)
#
#
# Indices 1 2 3 4 5 6 
#
# 1 130.9510 35.0792 29.9417 -7.8990 4.9989 -17.7409
# 2 35.0792 95.2128 10.8032 0.8354 1.0994 -15.8043
# 3 29.9417 10.8032 129.0704 11.6749 19.3388 9.7207
# 4 -7.8990 0.8354 11.6749 29.2032 -2.9545 1.7630
# 5 4.9989 1.0994 19.3388 -2.9545 28.5982 -2.1971
# 6 -17.7409 -15.8043 9.7207 1.7630 -2.1971 63.3924
#
#
#
# Elastic Compliance Matrix: (Units=1/GPa)
#
#
# Indices 1 2 3 4 5 6 
#
# 1 0.009488 -0.002870 -0.002568 0.003613 0.000735 0.002259
# 2 -0.002870 0.012002 -0.000487 -0.001020 0.000441 0.002307
# 3 -0.002568 -0.000487 0.010116 -0.005294 -0.007111 -0.002490
# 4 0.003613 -0.001020 -0.005294 0.038026 0.006974 0.000753
# 5 0.000735 0.000441 -0.007111 0.006974 0.040552 0.002618
# 6 0.002259 0.002307 -0.002490 0.000753 0.002618 0.017434
#
#
# Mechanical properties :
#
#
# Convention : Reuss Voigt Hill
#
# Bulk Modulus (GPa) = 50.61194 56.32024 53.46609
# Shear Modulus (GPa) = 34.23422 42.86609 38.55016
#
# Velocity S-wave (km/s) = 3.80336 4.25593 4.03599
# Velocity P-wave (km/s) = 6.37756 6.92448 6.65664
#
# Compressibility (1/GPa) = 0.01975818
#
# Stress axis : x y z
#
# Youngs Moduli (GPa) = 105.39394 83.31878 98.85244
#
# Poissons Ratio (x) = 0.23909 0.25385
# Poissons Ratio (y) = 0.30244 0.04809
# Poissons Ratio (z) = 0.27065 0.04054
#
# Static dielectric constant tensor:
#      x y z
#    x 1.934940 -0.026280 0.016780 
#    y -0.026280 1.979410 -0.030000 
#    z 0.016780 -0.030000 1.981690 
# 
# From -- ./inp_files/200085.got.cif
#   From: 2010.05.17/outbox.cif.g08.bks.cpg/sg2_101_cif.got.tgz:200085.got - 2010.06.03 11:33:40.
