data_PCOD9051605
_publ_section_title
;
Structure prediction by ZEFSAII (Michael W. Deem and Ramdas Pophale) SiO2 
 PCOD9051605
Probable space group: P -1
;
_chemical_formula_sum "Si O2"
_cell_formula_units_Z 14
_cell_length_a 12.582159
_cell_length_b 9.175442
_cell_length_c 19.551275
_cell_angle_alpha 38.846481
_cell_angle_beta 153.016152
_cell_angle_gamma 131.101825
_cell_volume 637.037191
_symmetry_space_group_name_H-M "P -1"
_symmetry_group_IT_number 2
_symmetry_cell_setting 'triclinic'
loop_
_space_group_symop_operation_xyz
x,y,z
-x,-y,-z
loop_
_atom_site_type_symbol
_atom_site_label
_atom_site_fract_x
_atom_site_fract_y
_atom_site_fract_z
Si Si1 0.989249 0.676400 0.994775
Si Si2 0.390737 0.322820 0.105899
Si Si3 0.299220 0.089936 0.483682
Si Si4 0.708657 0.671003 0.106321
Si Si5 0.863216 0.119206 0.672552
Si Si6 0.484387 0.489501 0.604368
Si Si7 0.058306 0.233189 0.414161
O O1 0.264917 0.650625 0.181179
O O2 0.835888 0.633720 0.989776
O O3 0.000000 0.500000 0.000000
O O4 0.872585 0.929879 0.808188
O O5 0.501100 0.564229 0.066066
O O6 0.571376 0.131556 0.319755
O O7 0.356764 0.223148 0.045520
O O8 0.454965 0.302893 0.486959
O O9 0.064418 0.188921 0.353626
O O10 0.218923 0.008435 0.394114
O O11 0.871526 0.810427 0.196719
O O12 0.879127 0.442019 0.263382
O O13 0.673007 0.350081 0.488653
O O14 0.314075 0.308456 0.548311
O O15 0.000000 0.000000 0.500000
#
# Coordination Sequence:
#
# PCOD9051605 Si02
#       7
#     2   2   2   2   2   2   2
#     4  12  24  44  72 105 140 182 229 290 347 412
#     4  11  24  43  73  97 142 185 235 282 349 411
#     4  12  22  43  68 104 140 178 230 294 346 409
#     4  10  25  47  68 100 142 186 233 286 350 417
#     4  11  25  45  69 105 142 178 233 288 353 413
#     4  11  24  44  70 101 138 179 231 287 344 411
#     4  11  24  45  69 100 135 185 237 285 341 419
#
# _framework density 21.976738999999998
#
# number of rings (size 3 to 8) (size 9 to 14) (size 15 to 20)
#    0.000    0.857    4.286    2.571    2.000    2.286 
#    2.571    0.714    0.000    0.000    0.000    0.000 
#    0.000    0.000    0.000    0.000    0.000    0.000 
#
# Total GULP energy -78145.610364 kJ/mol
# GULP energy per Si atom -5581.829312 kJ/mol
# Density = 2.192672 g / cm^3
# Si number density = 21.976739 Si / 1000 Ang^3
#
#
#
# Elastic Constant Matrix: (Units=GPa)
#
#
# Indices 1 2 3 4 5 6 
#
# 1 100.2474 58.7083 43.5341 16.5779 -1.3524 12.4631
# 2 58.7083 114.7019 43.7339 9.7840 -9.0724 19.8635
# 3 43.5341 43.7339 140.6702 6.6877 -12.3234 8.9131
# 4 16.5779 9.7840 6.6877 29.3342 6.4440 9.8342
# 5 -1.3524 -9.0724 -12.3234 6.4440 32.3116 -7.0725
# 6 12.4631 19.8635 8.9131 9.8342 -7.0725 21.8119
#
#
#
# Elastic Compliance Matrix: (Units=1/GPa)
#
#
# Indices 1 2 3 4 5 6 
#
# 1 0.016094 -0.006877 -0.002667 -0.006226 -0.000885 0.000677
# 2 -0.006877 0.014386 -0.001827 0.002557 0.000483 -0.009422
# 3 -0.002667 -0.001827 0.008754 -0.000911 0.003122 0.001034
# 4 -0.006226 0.002557 -0.000911 0.048776 -0.015157 -0.025305
# 5 -0.000885 0.000483 0.003122 -0.015157 0.039279 0.018360
# 6 0.000677 -0.009422 0.001034 -0.025305 0.018360 0.070980
#
#
# Mechanical properties :
#
#
# Convention : Reuss Voigt Hill
#
# Bulk Modulus (GPa) = 60.63291 71.95247 66.29269
# Shear Modulus (GPa) = 22.07422 30.66776 26.37099
#
# Velocity S-wave (km/s) = 3.17272 3.73964 3.46779
# Velocity P-wave (km/s) = 6.40867 7.17342 6.80180
#
# Compressibility (1/GPa) = 0.01649269
#
# Stress axis : x y z
#
# Youngs Moduli (GPa) = 62.13303 69.51111 114.23954
#
# Poissons Ratio (x) = 0.47801 0.30471
# Poissons Ratio (y) = 0.42727 0.20869
# Poissons Ratio (z) = 0.16572 0.12698
#
# Static dielectric constant tensor:
#      x y z
#    x 1.938490 0.025470 -0.028740 
#    y 0.025470 1.831440 0.011350 
#    z -0.028740 0.011350 1.848270 
# 
# From -- ./inp_files/280157.got.cif
#   From: 2010.05.17/outbox.cif.g08.bks.cpg/sg2_141_cif.got.tgz:280157.got - 2010.06.03 11:33:40.
