data_PCOD9051248
_publ_section_title
;
Structure prediction by ZEFSAII (Michael W. Deem and Ramdas Pophale) SiO2 
 PCOD9051248
Probable space group: P -1
;
_chemical_formula_sum "Si O2"
_cell_formula_units_Z 14
_cell_length_a 5.617349
_cell_length_b 15.273977
_cell_length_c 10.789254
_cell_angle_alpha 130.362739
_cell_angle_beta 70.652957
_cell_angle_gamma 78.143936
_cell_volume 540.140542
_symmetry_space_group_name_H-M "P -1"
_symmetry_group_IT_number 2
_symmetry_cell_setting 'triclinic'
loop_
_space_group_symop_operation_xyz
x,y,z
-x,-y,-z
loop_
_atom_site_type_symbol
_atom_site_label
_atom_site_fract_x
_atom_site_fract_y
_atom_site_fract_z
Si Si1 0.264100 0.959287 0.526831
Si Si2 0.771442 0.162343 0.974843
Si Si3 0.928725 0.453676 0.339097
Si Si4 0.254272 0.730330 0.678073
Si Si5 0.198238 0.721682 0.345362
Si Si6 0.713525 0.938844 0.784090
Si Si7 0.485993 0.414543 0.089238
O O1 0.366588 0.801532 0.392381
O O2 0.500000 0.000000 0.500000
O O3 0.000000 0.000000 0.500000
O O4 0.108043 0.049054 0.761586
O O5 0.617866 0.087274 0.878866
O O6 0.725485 0.172869 0.137805
O O7 0.658620 0.314105 0.084417
O O8 0.598161 0.588814 0.474177
O O9 0.924240 0.325269 0.271806
O O10 0.000000 0.500000 0.500000
O O11 0.175593 0.418049 0.156641
O O12 0.051850 0.831288 0.694010
O O13 0.358442 0.577066 0.263054
O O14 0.830680 0.829772 0.546547
O O15 0.278362 0.661967 0.135621
O O16 0.500000 0.000000 0.000000
#
# Coordination Sequence:
#
# PCOD9051248 Si02
#       7
#     2   2   2   2   2   2   2
#     4  11  25  49  75 107 154 200 256 314 391 468
#     4  11  24  43  74 106 147 192 251 317 381 464
#     4  11  23  42  75 101 150 192 239 325 378 460
#     4  11  25  43  68 113 135 193 261 302 391 453
#     4  10  25  45  73 111 146 197 259 316 381 477
#     4  11  25  45  71 103 150 196 252 313 384 455
#     4  11  22  46  74 107 152 193 254 309 399 444
#
# _framework density 25.919180000000001
#
# number of rings (size 3 to 8) (size 9 to 14) (size 15 to 20)
#    0.000    1.143    2.857    2.143    6.000    2.286 
#    5.143    1.429    0.000    0.000    0.000    0.000 
#    0.000    0.000    0.000    0.000    0.000    0.000 
#
# Total GULP energy -77942.423251 kJ/mol
# GULP energy per Si atom -5567.315947 kJ/mol
# Density = 2.586019 g / cm^3
# Si number density = 25.919180 Si / 1000 Ang^3
#
#
#
# Elastic Constant Matrix: (Units=GPa)
#
#
# Indices 1 2 3 4 5 6 
#
# 1 65.5080 36.4579 15.7749 14.6208 -1.8231 3.5800
# 2 36.4579 142.9372 20.5500 24.8525 -5.5743 17.4248
# 3 15.7749 20.5500 142.7073 -7.4005 -17.7656 14.9456
# 4 14.6208 24.8525 -7.4005 54.1293 11.5307 4.0598
# 5 -1.8231 -5.5743 -17.7656 11.5307 35.1761 0.8160
# 6 3.5800 17.4248 14.9456 4.0598 0.8160 47.7740
#
#
#
# Elastic Compliance Matrix: (Units=1/GPa)
#
#
# Indices 1 2 3 4 5 6 
#
# 1 0.018665 -0.003962 -0.001691 -0.003661 0.000665 0.000875
# 2 -0.003962 0.009078 -0.000506 -0.003433 0.002163 -0.002601
# 3 -0.001691 -0.000506 0.008018 0.001208 0.003540 -0.002360
# 4 -0.003661 -0.003433 0.001208 0.022875 -0.007606 -0.000666
# 5 0.000665 0.002163 0.003540 -0.007606 0.033130 -0.001866
# 6 0.000875 -0.002601 -0.002360 -0.000666 -0.001866 0.022642
#
#
# Mechanical properties :
#
#
# Convention : Reuss Voigt Hill
#
# Bulk Modulus (GPa) = 42.65673 55.19091 48.92382
# Shear Modulus (GPa) = 37.16381 45.97385 41.56883
#
# Velocity S-wave (km/s) = 3.79071 4.21615 4.00908
# Velocity P-wave (km/s) = 5.97098 6.71125 6.35191
#
# Compressibility (1/GPa) = 0.02344296
#
# Stress axis : x y z
#
# Youngs Moduli (GPa) = 53.57509 110.16187 124.72432
#
# Poissons Ratio (x) = 0.43644 0.21097
# Poissons Ratio (y) = 0.21226 0.06305
# Poissons Ratio (z) = 0.09062 0.05569
#
# Static dielectric constant tensor:
#      x y z
#    x 2.325830 0.003470 0.053350 
#    y 0.003470 2.033950 -0.046180 
#    z 0.053350 -0.046180 2.100300 
# 
# From -- ./inp_files/368021.got.cif
#   From: 2010.05.17/outbox.cif.g08.bks.cpg/sg2_185_cif.got.tgz:368021.got - 2010.06.03 11:33:40.
