data_PCOD9051716
_publ_section_title
;
Structure prediction by ZEFSAII (Michael W. Deem and Ramdas Pophale) SiO2 
 PCOD9051716
Probable space group: P -1
;
_chemical_formula_sum "Si O2"
_cell_formula_units_Z 14
_cell_length_a 15.332156
_cell_length_b 12.360280
_cell_length_c 8.399935
_cell_angle_alpha 63.745238
_cell_angle_beta 129.889444
_cell_angle_gamma 150.297428
_cell_volume 577.017041
_symmetry_space_group_name_H-M "P -1"
_symmetry_group_IT_number 2
_symmetry_cell_setting 'triclinic'
loop_
_space_group_symop_operation_xyz
x,y,z
-x,-y,-z
loop_
_atom_site_type_symbol
_atom_site_label
_atom_site_fract_x
_atom_site_fract_y
_atom_site_fract_z
Si Si1 0.196654 0.965534 0.612459
Si Si2 0.549433 0.673956 0.855648
Si Si3 0.090653 0.602385 0.715160
Si Si4 0.655985 0.363037 0.831806
Si Si5 0.631807 0.240247 0.539139
Si Si6 0.988591 0.847951 0.762418
Si Si7 0.181657 0.114137 0.254363
O O1 0.213390 0.838236 0.728405
O O2 0.029566 0.859902 0.618061
O O3 0.443072 0.235827 0.734045
O O4 0.121969 0.928991 0.369631
O O5 0.411493 0.675455 0.672690
O O6 0.602882 0.688766 0.724086
O O7 0.500000 0.500000 0.000000
O O8 0.773366 0.920607 0.036465
O O9 0.000000 0.500000 0.500000
O O10 0.880378 0.426262 0.693958
O O11 0.248686 0.639741 0.925501
O O12 0.584410 0.231954 0.671309
O O13 0.854616 0.623965 0.838273
O O14 0.500000 0.000000 0.500000
O O15 0.845383 0.834144 0.650031
O O16 0.000000 0.000000 0.000000
#
# Coordination Sequence:
#
# PCOD9051716 Si02
#       7
#     2   2   2   2   2   2   2
#     4  12  26  48  75 111 150 198 261 312 395 456
#     4  11  27  48  80 117 154 206 261 315 393 469
#     4  12  29  45  77 108 155 198 261 322 387 466
#     4  12  27  50  75 113 155 199 259 324 390 460
#     4  12  26  48  80 111 158 204 257 320 394 458
#     4  11  27  46  79 109 155 197 255 319 388 457
#     4  10  25  47  73 103 156 192 254 317 385 457
#
# _framework density 24.262715
#
# number of rings (size 3 to 8) (size 9 to 14) (size 15 to 20)
#    0.000    0.571    2.857    3.000   14.000    1.714 
#    0.000    0.000    0.000    0.000    0.000    0.000 
#    0.000    0.000    0.000    0.000    0.000    0.000 
#
# Total GULP energy -78226.048769 kJ/mol
# GULP energy per Si atom -5587.574912 kJ/mol
# Density = 2.420749 g / cm^3
# Si number density = 24.262715 Si / 1000 Ang^3
#
#
#
# Elastic Constant Matrix: (Units=GPa)
#
#
# Indices 1 2 3 4 5 6 
#
# 1 101.9220 25.8864 25.7417 -8.3315 8.1610 19.1390
# 2 25.8864 134.2727 37.2109 -10.4278 -5.5424 -2.5935
# 3 25.7417 37.2109 128.9943 -16.5083 21.7110 -1.6884
# 4 -8.3315 -10.4278 -16.5083 39.5633 4.8229 -3.5379
# 5 8.1610 -5.5424 21.7110 4.8229 31.6845 -1.1866
# 6 19.1390 -2.5935 -1.6884 -3.5379 -1.1866 37.9219
#
#
#
# Elastic Compliance Matrix: (Units=1/GPa)
#
#
# Indices 1 2 3 4 5 6 
#
# 1 0.012216 -0.002174 -0.001196 0.001317 -0.003145 -0.006343
# 2 -0.002174 0.008847 -0.002710 0.000416 0.003966 0.001744
# 3 -0.001196 -0.002710 0.010758 0.004618 -0.008200 0.001071
# 4 0.001317 0.000416 0.004618 0.028711 -0.007726 0.002006
# 5 -0.003145 0.003966 -0.008200 -0.007726 0.039936 0.002022
# 6 -0.006343 0.001744 0.001071 0.002006 0.002022 0.029989
#
#
# Mechanical properties :
#
#
# Convention : Reuss Voigt Hill
#
# Bulk Modulus (GPa) = 50.85891 60.31854 55.58873
# Shear Modulus (GPa) = 33.51867 40.25729 36.88798
#
# Velocity S-wave (km/s) = 3.72087 4.07778 3.90340
# Velocity P-wave (km/s) = 6.28228 6.86189 6.57848
#
# Compressibility (1/GPa) = 0.01966224
#
# Stress axis : x y z
#
# Youngs Moduli (GPa) = 81.85897 113.02844 92.95467
#
# Poissons Ratio (x) = 0.24570 0.11116
# Poissons Ratio (y) = 0.17795 0.25190
# Poissons Ratio (z) = 0.09789 0.30630
#
# Static dielectric constant tensor:
#      x y z
#    x 1.981400 -0.025930 -0.022480 
#    y -0.025930 2.004310 -0.025870 
#    z -0.022480 -0.025870 1.944980 
# 
# From -- ./inp_files/306805.got.cif
#   From: 2010.05.17/outbox.cif.g08.bks.cpg/sg2_154_cif.got.tgz:306805.got - 2010.06.03 11:33:40.
