data_PCOD9051503
_publ_section_title
;
Structure prediction by ZEFSAII (Michael W. Deem and Ramdas Pophale) SiO2 
 PCOD9051503
Probable space group: P -1
;
_chemical_formula_sum "Si O2"
_cell_formula_units_Z 16
_cell_length_a 6.276928
_cell_length_b 9.366749
_cell_length_c 15.202407
_cell_angle_alpha 63.534271
_cell_angle_beta 72.054378
_cell_angle_gamma 100.484089
_cell_volume 705.700812
_symmetry_space_group_name_H-M "P -1"
_symmetry_group_IT_number 2
_symmetry_cell_setting 'triclinic'
loop_
_space_group_symop_operation_xyz
x,y,z
-x,-y,-z
loop_
_atom_site_type_symbol
_atom_site_label
_atom_site_fract_x
_atom_site_fract_y
_atom_site_fract_z
Si Si1 0.184076 0.681528 0.890596
Si Si2 0.542368 0.565973 0.592736
Si Si3 0.985737 0.097268 0.565096
Si Si4 0.944948 0.938887 0.802410
Si Si5 0.771081 0.373348 0.509045
Si Si6 0.562550 0.523245 0.179378
Si Si7 0.004048 0.850549 0.106778
Si Si8 0.564280 0.222128 0.989603
O O1 0.375456 0.631938 0.824809
O O2 0.066380 0.797982 0.824785
O O3 0.296401 0.776539 0.939045
O O4 0.000000 0.500000 0.000000
O O5 0.753507 0.749156 0.493350
O O6 0.563042 0.405017 0.582291
O O7 0.285959 0.575048 0.595381
O O8 0.584349 0.538439 0.696385
O O9 0.085359 0.014418 0.306427
O O10 0.796525 0.191984 0.552615
O O11 0.000000 0.000000 0.500000
O O12 0.079417 0.108294 0.798363
O O13 0.707333 0.860829 0.915730
O O14 0.000000 0.500000 0.500000
O O15 0.434477 0.602414 0.102845
O O16 0.810523 0.675575 0.138501
O O17 0.273262 0.843510 0.078372
O O18 0.000000 0.000000 0.000000
#
# Coordination Sequence:
#
# PCOD9051503 Si02
#       8
#     2   2   2   2   2   2   2   2
#     4  12  24  47  65 102 142 181 226 285 343 424
#     4  10  25  46  72  99 136 186 234 287 345 406
#     4  11  28  47  68 104 141 185 240 291 346 414
#     4  12  28  44  71  99 145 184 228 292 346 412
#     4   9  22  47  69  96 133 178 236 284 340 409
#     4  12  27  41  74 102 138 182 229 286 345 422
#     4  12  24  45  66 108 143 176 230 285 348 421
#     4  12  24  43  72 100 139 179 231 271 359 412
#
# _framework density 22.672498000000001
#
# number of rings (size 3 to 8) (size 9 to 14) (size 15 to 20)
#    0.000    0.750    5.000    0.750   10.500    2.500 
#    0.000    0.000    0.000    0.000    0.000    0.000 
#    0.000    0.000    0.000    0.000    0.000    0.000 
#
# Total GULP energy -89275.746940 kJ/mol
# GULP energy per Si atom -5579.734184 kJ/mol
# Density = 2.262089 g / cm^3
# Si number density = 22.672498 Si / 1000 Ang^3
#
#
#
# Elastic Constant Matrix: (Units=GPa)
#
#
# Indices 1 2 3 4 5 6 
#
# 1 91.4919 30.7405 29.1105 -18.5129 23.5317 -37.0199
# 2 30.7405 109.7438 46.6538 15.2329 17.5614 -51.4213
# 3 29.1105 46.6538 102.5107 6.1205 24.9753 -22.8758
# 4 -18.5129 15.2329 6.1205 30.9718 2.2200 -1.6540
# 5 23.5317 17.5614 24.9753 2.2200 31.7754 -9.1883
# 6 -37.0199 -51.4213 -22.8758 -1.6540 -9.1883 53.6075
#
#
#
# Elastic Compliance Matrix: (Units=1/GPa)
#
#
# Indices 1 2 3 4 5 6 
#
# 1 0.023881 0.000891 -0.001448 0.015908 -0.013859 0.014843
# 2 0.000891 0.020589 -0.004531 -0.007550 -0.002828 0.017713
# 3 -0.001448 -0.004531 0.013960 -0.000893 -0.007539 -0.000708
# 4 0.015908 -0.007550 -0.000893 0.046519 -0.009226 0.003217
# 5 -0.013859 -0.002828 -0.007539 -0.009226 0.047665 -0.007615
# 6 0.014843 0.017713 -0.000708 0.003217 -0.007615 0.044387
#
#
# Mechanical properties :
#
#
# Convention : Reuss Voigt Hill
#
# Bulk Modulus (GPa) = 20.72346 57.41735 39.07040
# Shear Modulus (GPa) = 22.39521 36.42039 29.40780
#
# Velocity S-wave (km/s) = 3.14629 4.01230 3.60539
# Velocity P-wave (km/s) = 4.72854 6.84430 5.88232
#
# Compressibility (1/GPa) = 0.04825449
#
# Stress axis : x y z
#
# Youngs Moduli (GPa) = 41.87467 48.56992 71.63224
#
# Poissons Ratio (x) = -0.04327 0.10372
# Poissons Ratio (y) = -0.03730 0.32454
# Poissons Ratio (z) = 0.06063 0.22005
#
# Static dielectric constant tensor:
#      x y z
#    x 1.838960 0.074610 0.004980 
#    y 0.074610 1.924650 0.012620 
#    z 0.004980 0.012620 1.822070 
# 
# From -- ./inp_files/315656.got.cif
#   From: 2010.05.17/outbox.cif.g08.bks.cpg/sg2_158_cif.got.tgz:315656.got - 2010.06.03 11:33:40.
