data_PCOD9051118
_publ_section_title
;
Structure prediction by ZEFSAII (Michael W. Deem and Ramdas Pophale) SiO2 
 PCOD9051118
Probable space group: P -1
;
_chemical_formula_sum "Si O2"
_cell_formula_units_Z 14
_cell_length_a 13.033777
_cell_length_b 7.760282
_cell_length_c 12.171358
_cell_angle_alpha 76.369869
_cell_angle_beta 32.581904
_cell_angle_gamma 87.772727
_cell_volume 613.541287
_symmetry_space_group_name_H-M "P -1"
_symmetry_group_IT_number 2
_symmetry_cell_setting 'triclinic'
loop_
_space_group_symop_operation_xyz
x,y,z
-x,-y,-z
loop_
_atom_site_type_symbol
_atom_site_label
_atom_site_fract_x
_atom_site_fract_y
_atom_site_fract_z
Si Si1 0.015158 0.204359 0.000954
Si Si2 0.876686 0.573472 0.334240
Si Si3 0.590188 0.537552 0.278693
Si Si4 0.857068 0.206762 0.528125
Si Si5 0.393560 0.825193 0.547800
Si Si6 0.425583 0.154291 0.864262
Si Si7 0.006087 0.878809 0.352844
O O1 0.839561 0.190843 0.247171
O O2 0.986162 0.328953 0.905626
O O3 0.229692 0.309870 0.842312
O O4 0.000000 0.000000 0.000000
O O5 0.652119 0.503812 0.499280
O O6 0.924813 0.399474 0.371103
O O7 0.892373 0.731060 0.387341
O O8 0.597061 0.348407 0.358634
O O9 0.625128 0.648293 0.113496
O O10 0.616997 0.161916 0.763672
O O11 0.964769 0.221266 0.545834
O O12 0.899681 0.033412 0.454981
O O13 0.496629 0.857899 0.329972
O O14 0.500000 0.000000 0.500000
O O15 0.227561 0.989542 0.092495
#
# Coordination Sequence:
#
# PCOD9051118 Si02
#       7
#     2   2   2   2   2   2   2
#     4  12  25  42  66 102 142 180 223 277 343 414
#     4  11  23  44  70  99 141 180 224 284 349 410
#     4  11  24  42  62 100 139 175 221 278 333 417
#     4  10  25  45  70 102 133 178 237 295 343 402
#     4  12  25  39  64 101 140 178 225 271 335 422
#     4  11  24  42  69  95 137 179 224 281 345 404
#     4  11  24  46  72  99 136 177 238 290 349 402
#
# _framework density 22.818351
#
# number of rings (size 3 to 8) (size 9 to 14) (size 15 to 20)
#    0.000    0.857    0.000    8.143    8.000    0.000 
#    0.000    0.000    0.000    6.857    0.000    0.000 
#    0.000    0.000    0.000    0.000    0.000    0.000 
#
# Total GULP energy -78120.382504 kJ/mol
# GULP energy per Si atom -5580.027322 kJ/mol
# Density = 2.276642 g / cm^3
# Si number density = 22.818351 Si / 1000 Ang^3
#
#
#
# Elastic Constant Matrix: (Units=GPa)
#
#
# Indices 1 2 3 4 5 6 
#
# 1 100.7693 35.4892 35.4000 -4.6926 6.6456 -16.6544
# 2 35.4892 81.6560 38.3966 -20.4220 4.9677 -12.4848
# 3 35.4000 38.3966 97.5478 -11.4535 0.1163 -13.1991
# 4 -4.6926 -20.4220 -11.4535 35.4364 -0.5103 0.5233
# 5 6.6456 4.9677 0.1163 -0.5103 29.6882 -5.3885
# 6 -16.6544 -12.4848 -13.1991 0.5233 -5.3885 41.4627
#
#
#
# Elastic Compliance Matrix: (Units=1/GPa)
#
#
# Indices 1 2 3 4 5 6 
#
# 1 0.012886 -0.004139 -0.002860 -0.001669 -0.001698 0.002820
# 2 -0.004139 0.018832 -0.004578 0.008768 -0.001652 0.002225
# 3 -0.002860 -0.004578 0.013516 0.001347 0.001736 0.001984
# 4 -0.001669 0.008768 0.001347 0.033456 -0.000169 0.001954
# 5 -0.001698 -0.001652 0.001736 -0.000169 0.035043 0.003930
# 6 0.002820 0.002225 0.001984 0.001954 0.003930 0.027038
#
#
# Mechanical properties :
#
#
# Convention : Reuss Voigt Hill
#
# Bulk Modulus (GPa) = 45.28866 55.39385 50.34125
# Shear Modulus (GPa) = 29.19121 32.69660 30.94390
#
# Velocity S-wave (km/s) = 3.58059 3.78948 3.68652
# Velocity P-wave (km/s) = 6.08151 6.59360 6.34273
#
# Compressibility (1/GPa) = 0.02208058
#
# Stress axis : x y z
#
# Youngs Moduli (GPa) = 77.60254 53.10201 73.98817
#
# Poissons Ratio (x) = 0.21979 0.21158
# Poissons Ratio (y) = 0.32119 0.33871
# Poissons Ratio (z) = 0.22191 0.24310
#
# Static dielectric constant tensor:
#      x y z
#    x 1.857500 -0.035390 0.015790 
#    y -0.035390 1.995730 0.047300 
#    z 0.015790 0.047300 1.867710 
# 
# From -- ./inp_files/416775.got.cif
#   From: 2010.05.17/outbox.cif.g08.bks.cpg/sg2_209_cif.got.tgz:416775.got - 2010.06.03 11:33:40.
