data_PCOD9051991
_publ_section_title
;
Structure prediction by ZEFSAII (Michael W. Deem and Ramdas Pophale) SiO2 
 PCOD9051991
Probable space group: P -1
;
_chemical_formula_sum "Si O2"
_cell_formula_units_Z 14
_cell_length_a 8.756547
_cell_length_b 11.559852
_cell_length_c 8.907204
_cell_angle_alpha 66.305151
_cell_angle_beta 135.986804
_cell_angle_gamma 107.871246
_cell_volume 573.433043
_symmetry_space_group_name_H-M "P -1"
_symmetry_group_IT_number 2
_symmetry_cell_setting 'triclinic'
loop_
_space_group_symop_operation_xyz
x,y,z
-x,-y,-z
loop_
_atom_site_type_symbol
_atom_site_label
_atom_site_fract_x
_atom_site_fract_y
_atom_site_fract_z
Si Si1 0.747875 0.510748 0.276573
Si Si2 0.790150 0.145383 0.673935
Si Si3 0.758313 0.796855 0.202706
Si Si4 0.516202 0.943173 0.731949
Si Si5 0.685335 0.504503 0.896839
Si Si6 0.129897 0.116215 0.451670
Si Si7 0.912297 0.299364 0.972026
O O1 0.710460 0.660122 0.172441
O O2 0.569187 0.457798 0.296838
O O3 0.000000 0.500000 0.500000
O O4 0.719554 0.458011 0.116885
O O5 0.011882 0.153431 0.730819
O O6 0.594939 0.158367 0.406741
O O7 0.731702 0.008895 0.777297
O O8 0.820495 0.241740 0.782518
O O9 0.787247 0.792371 0.403284
O O10 0.572530 0.886908 0.961924
O O11 0.343545 0.054311 0.565157
O O12 0.862693 0.617616 0.937929
O O13 0.742499 0.393175 0.881313
O O14 0.979386 0.187895 0.190591
O O15 0.000000 0.000000 0.500000
#
# Coordination Sequence:
#
# PCOD9051991 Si02
#       7
#     2   2   2   2   2   2   2
#     4  11  25  46  76 107 138 189 249 308 364 431
#     4  11  25  45  72 105 145 189 243 296 361 436
#     4  12  25  46  72 102 145 191 235 304 365 433
#     4  11  27  43  73 105 145 194 242 295 365 435
#     4  10  25  49  73 106 148 191 244 305 363 439
#     4  12  26  44  73 109 147 190 244 298 365 435
#     4  11  25  49  74 109 152 195 242 304 367 436
#
# _framework density 24.414359999999999
#
# number of rings (size 3 to 8) (size 9 to 14) (size 15 to 20)
#    0.000    0.857    2.857    2.571    8.000    3.429 
#    0.000    2.143    0.000    0.000    0.000    0.000 
#    0.000    0.000    0.000    0.000    0.000    0.000 
#
# Total GULP energy -78415.830089 kJ/mol
# GULP energy per Si atom -5601.130721 kJ/mol
# Density = 2.435879 g / cm^3
# Si number density = 24.414360 Si / 1000 Ang^3
#
#
#
# Elastic Constant Matrix: (Units=GPa)
#
#
# Indices 1 2 3 4 5 6 
#
# 1 140.8219 53.1202 37.5688 14.8630 10.6679 -5.2857
# 2 53.1202 110.7952 46.1462 25.1323 9.8793 -15.3625
# 3 37.5688 46.1462 81.3844 18.6562 -1.3797 -4.8243
# 4 14.8630 25.1323 18.6562 39.8607 2.6711 -12.0192
# 5 10.6679 9.8793 -1.3797 2.6711 26.5937 13.7020
# 6 -5.2857 -15.3625 -4.8243 -12.0192 13.7020 48.5785
#
#
#
# Elastic Compliance Matrix: (Units=1/GPa)
#
#
# Indices 1 2 3 4 5 6 
#
# 1 0.009157 -0.002967 -0.002573 0.000072 -0.003065 0.000685
# 2 -0.002967 0.015157 -0.006229 -0.003586 -0.006939 0.004922
# 3 -0.002573 -0.006229 0.018076 -0.005102 0.006647 -0.003592
# 4 0.000072 -0.003586 -0.005102 0.032641 -0.006505 0.008278
# 5 -0.003065 -0.006939 0.006647 -0.006505 0.051716 -0.018064
# 6 0.000685 0.004922 -0.003592 0.008278 -0.018064 0.029003
#
#
# Mechanical properties :
#
#
# Convention : Reuss Voigt Hill
#
# Bulk Modulus (GPa) = 53.03985 67.40802 60.22394
# Shear Modulus (GPa) = 26.94393 36.08435 31.51414
#
# Velocity S-wave (km/s) = 3.32567 3.84864 3.59667
# Velocity P-wave (km/s) = 6.04308 6.88617 6.47835
#
# Compressibility (1/GPa) = 0.01885375
#
# Stress axis : x y z
#
# Youngs Moduli (GPa) = 109.20715 65.97643 55.32193
#
# Poissons Ratio (x) = 0.19574 0.14233
# Poissons Ratio (y) = 0.32400 0.34457
# Poissons Ratio (z) = 0.28096 0.41093
#
# Static dielectric constant tensor:
#      x y z
#    x 1.971320 0.033750 0.028520 
#    y 0.033750 1.937270 0.013710 
#    z 0.028520 0.013710 1.949160 
# 
# From -- ./inp_files/185458.got.cif
#   From: 2010.05.17/outbox.cif.g08.bks.cpg/sg2_93_cif.got.tgz:185458.got - 2010.06.03 11:33:40.
