data_PCOD9051236
_publ_section_title
;
Structure prediction by ZEFSAII (Michael W. Deem and Ramdas Pophale) SiO2 
 PCOD9051236
Probable space group: P -1
;
_chemical_formula_sum "Si O2"
_cell_formula_units_Z 16
_cell_length_a 8.062920
_cell_length_b 9.202050
_cell_length_c 22.971390
_cell_angle_alpha 31.264475
_cell_angle_beta 54.369919
_cell_angle_gamma 63.783821
_cell_volume 712.550432
_symmetry_space_group_name_H-M "P -1"
_symmetry_group_IT_number 2
_symmetry_cell_setting 'triclinic'
loop_
_space_group_symop_operation_xyz
x,y,z
-x,-y,-z
loop_
_atom_site_type_symbol
_atom_site_label
_atom_site_fract_x
_atom_site_fract_y
_atom_site_fract_z
Si Si1 0.565307 0.884560 0.088080
Si Si2 0.094684 0.329846 0.971537
Si Si3 0.343868 0.163949 0.512890
Si Si4 0.625045 0.241086 0.063203
Si Si5 0.878794 0.197824 0.767435
Si Si6 0.443312 0.767391 0.353861
Si Si7 0.039491 0.793372 0.509140
Si Si8 0.796932 0.044057 0.268796
O O1 0.353001 0.733982 0.209903
O O2 0.632594 0.134655 0.032348
O O3 0.752906 0.712685 0.098289
O O4 0.500000 0.000000 0.000000
O O5 0.859883 0.323797 0.004939
O O6 0.107923 0.057480 0.102760
O O7 0.178126 0.641749 0.870924
O O8 0.416053 0.464688 0.429095
O O9 0.148319 0.203691 0.499054
O O10 0.500000 0.000000 0.500000
O O11 0.281231 0.953743 0.651095
O O12 0.504706 0.001726 0.211151
O O13 0.500000 0.500000 0.000000
O O14 0.017652 0.491015 0.649557
O O15 0.982351 0.072076 0.733627
O O16 0.246627 0.818077 0.417802
O O17 0.638514 0.832870 0.335262
O O18 0.000000 0.000000 0.500000
#
# Coordination Sequence:
#
# PCOD9051236 Si02
#       8
#     2   2   2   2   2   2   2   2
#     4  10  25  45  73 102 152 196 251 307 371 443
#     4  11  26  46  75 112 148 199 247 310 380 447
#     4  12  29  50  78 111 149 199 254 315 378 453
#     4  12  27  45  76 110 153 197 252 308 381 454
#     4  11  24  48  75 106 151 195 251 306 376 444
#     4  12  28  49  77 110 150 201 252 311 383 448
#     4  12  29  50  79 110 151 201 256 313 378 452
#     4  12  26  47  79 106 153 198 251 308 386 452
#
# _framework density 22.454550999999999
#
# number of rings (size 3 to 8) (size 9 to 14) (size 15 to 20)
#    0.000    0.500    2.500    3.750   14.000    1.000 
#    0.000    0.000    0.000    0.000    0.000    0.000 
#    0.000    0.000    0.000    0.000    0.000    0.000 
#
# Total GULP energy -89320.293884 kJ/mol
# GULP energy per Si atom -5582.518368 kJ/mol
# Density = 2.240344 g / cm^3
# Si number density = 22.454551 Si / 1000 Ang^3
#
#
#
# Elastic Constant Matrix: (Units=GPa)
#
#
# Indices 1 2 3 4 5 6 
#
# 1 121.7446 76.2588 58.8739 10.7403 -21.6411 -4.0628
# 2 76.2588 226.2598 75.3376 6.3444 -21.1998 -16.2913
# 3 58.8739 75.3376 123.9972 -8.7042 -6.1019 -7.9936
# 4 10.7403 6.3444 -8.7042 41.1767 -1.3694 -4.3143
# 5 -21.6411 -21.1998 -6.1019 -1.3694 32.0493 9.3226
# 6 -4.0628 -16.2913 -7.9936 -4.3143 9.3226 54.0600
#
#
#
# Elastic Compliance Matrix: (Units=1/GPa)
#
#
# Indices 1 2 3 4 5 6 
#
# 1 0.013745 -0.002234 -0.005247 -0.004320 0.007203 -0.002003
# 2 -0.002234 0.006334 -0.002691 -0.000800 0.001856 0.000959
# 3 -0.005247 -0.002691 0.012446 0.004469 -0.003212 0.001546
# 4 -0.004320 -0.000800 0.004469 0.026680 -0.002214 0.002606
# 5 0.007203 0.001856 -0.003212 -0.002214 0.038382 -0.006170
# 6 -0.002003 0.000959 0.001546 0.002606 -0.006170 0.020137
#
#
# Mechanical properties :
#
#
# Convention : Reuss Voigt Hill
#
# Bulk Modulus (GPa) = 82.08693 99.21581 90.65137
# Shear Modulus (GPa) = 35.17969 42.89261 39.03615
#
# Velocity S-wave (km/s) = 3.96246 4.37532 4.17400
# Velocity P-wave (km/s) = 7.58756 8.35498 7.98050
#
# Compressibility (1/GPa) = 0.01218221
#
# Stress axis : x y z
#
# Youngs Moduli (GPa) = 72.75299 157.88146 80.34664
#
# Poissons Ratio (x) = 0.35267 0.42158
# Poissons Ratio (y) = 0.16251 0.21619
# Poissons Ratio (z) = 0.38173 0.42481
#
# Static dielectric constant tensor:
#      x y z
#    x 1.835320 0.022960 0.004880 
#    y 0.022960 1.884470 0.030340 
#    z 0.004880 0.030340 1.881720 
# 
# From -- ./inp_files/606556.got.cif
#   From: 2010.05.17/outbox.cif.g08.bks.cpg/sg2_304_cif.got.tgz:606556.got - 2010.06.03 11:33:40.
