data_PCOD9051227
_publ_section_title
;
Structure prediction by ZEFSAII (Michael W. Deem and Ramdas Pophale) SiO2 
 PCOD9051227
Probable space group: P -1
;
_chemical_formula_sum "Si O2"
_cell_formula_units_Z 16
_cell_length_a 8.317875
_cell_length_b 17.632267
_cell_length_c 8.348164
_cell_angle_alpha 97.459980
_cell_angle_beta 51.998959
_cell_angle_gamma 63.666778
_cell_volume 710.128851
_symmetry_space_group_name_H-M "P -1"
_symmetry_group_IT_number 2
_symmetry_cell_setting 'triclinic'
loop_
_space_group_symop_operation_xyz
x,y,z
-x,-y,-z
loop_
_atom_site_type_symbol
_atom_site_label
_atom_site_fract_x
_atom_site_fract_y
_atom_site_fract_z
Si Si1 0.027922 0.615535 0.434265
Si Si2 0.480264 0.202669 0.342653
Si Si3 0.976216 0.193334 0.999819
Si Si4 0.763620 0.724925 0.139705
Si Si5 0.221610 0.726144 0.210762
Si Si6 0.321382 0.009295 0.961475
Si Si7 0.862378 0.569812 0.814089
Si Si8 0.859912 0.101317 0.509690
O O1 0.717068 0.723042 0.659013
O O2 0.066606 0.564401 0.567302
O O3 0.186540 0.650900 0.289142
O O4 0.056551 0.538965 0.269784
O O5 0.722661 0.203413 0.205640
O O6 0.300798 0.253338 0.627287
O O7 0.560068 0.096259 0.222761
O O8 0.243283 0.086719 0.886863
O O9 0.938556 0.213635 0.838011
O O10 0.004253 0.274061 0.059985
O O11 0.467740 0.825121 0.277520
O O12 0.842745 0.620978 0.004619
O O13 0.111446 0.819438 0.422035
O O14 0.548092 0.650839 0.965205
O O15 0.030764 0.056123 0.229408
O O16 0.500000 0.000000 0.000000
O O17 0.000000 0.000000 0.500000
#
# Coordination Sequence:
#
# PCOD9051227 Si02
#       8
#     2   2   2   2   2   2   2   2
#     4  11  23  45  73  98 133 180 225 284 342 395
#     4  12  25  46  66  97 140 176 225 280 330 400
#     4  12  25  43  68 100 138 175 223 277 332 399
#     4  11  26  43  67  97 134 178 220 280 335 400
#     4  11  23  43  72 100 135 178 227 277 338 406
#     4  12  27  43  68  99 138 181 224 273 333 406
#     4  10  25  45  72  99 134 175 229 284 338 406
#     4  11  24  42  65  99 138 180 223 275 331 405
#
# _framework density 22.531123000000001
#
# number of rings (size 3 to 8) (size 9 to 14) (size 15 to 20)
#    0.000    0.750    3.750    3.000    7.000    1.000 
#    0.000    0.625    0.000    0.000    0.000    0.000 
#    0.000    0.000    0.000    0.000    0.000    0.000 
#
# Total GULP energy -89244.359608 kJ/mol
# GULP energy per Si atom -5577.772475 kJ/mol
# Density = 2.247984 g / cm^3
# Si number density = 22.531123 Si / 1000 Ang^3
#
#
#
# Elastic Constant Matrix: (Units=GPa)
#
#
# Indices 1 2 3 4 5 6 
#
# 1 54.6794 14.1796 10.3540 -16.8549 0.6070 17.1146
# 2 14.1796 132.7758 38.2498 -7.9416 16.2426 28.9870
# 3 10.3540 38.2498 70.3752 -2.0831 15.4463 22.5320
# 4 -16.8549 -7.9416 -2.0831 37.2560 12.3940 -2.7294
# 5 0.6070 16.2426 15.4463 12.3940 30.6455 1.3997
# 6 17.1146 28.9870 22.5320 -2.7294 1.3997 41.3600
#
#
#
# Elastic Compliance Matrix: (Units=1/GPa)
#
#
# Indices 1 2 3 4 5 6 
#
# 1 0.025226 0.000857 0.000912 0.012930 -0.006164 -0.010474
# 2 0.000857 0.010344 -0.002586 0.003853 -0.005491 -0.005755
# 3 0.000912 -0.002586 0.020819 0.003747 -0.010231 -0.009313
# 4 0.012930 0.003853 0.003747 0.039880 -0.020006 -0.006783
# 5 -0.006164 -0.005491 -0.010231 -0.020006 0.048500 0.009011
# 6 -0.010474 -0.005755 -0.009313 -0.006783 0.009011 0.036867
#
#
# Mechanical properties :
#
#
# Convention : Reuss Voigt Hill
#
# Bulk Modulus (GPa) = 18.26318 42.59972 30.43145
# Shear Modulus (GPa) = 24.81139 34.85542 29.83341
#
# Velocity S-wave (km/s) = 3.32204 3.93745 3.64276
# Velocity P-wave (km/s) = 4.77891 6.29440 5.58826
#
# Compressibility (1/GPa) = 0.05475496
#
# Stress axis : x y z
#
# Youngs Moduli (GPa) = 39.64199 96.67827 48.03268
#
# Poissons Ratio (x) = -0.08290 -0.04380
# Poissons Ratio (y) = -0.03399 0.12422
# Poissons Ratio (z) = -0.03615 0.25002
#
# Static dielectric constant tensor:
#      x y z
#    x 1.944460 -0.012060 -0.006810 
#    y -0.012060 1.875070 -0.049610 
#    z -0.006810 -0.049610 1.832000 
# 
# From -- ./inp_files/207533.got.cif
#   From: 2010.05.17/outbox.cif.g08.bks.cpg/sg2_104_cif.got.tgz:207533.got - 2010.06.03 11:33:40.
