data_PCOD9051038
_publ_section_title
;
Structure prediction by ZEFSAII (Michael W. Deem and Ramdas Pophale) SiO2 
 PCOD9051038
Probable space group: P -1
;
_chemical_formula_sum "Si O2"
_cell_formula_units_Z 16
_cell_length_a 12.147417
_cell_length_b 12.825740
_cell_length_c 10.896769
_cell_angle_alpha 59.102893
_cell_angle_beta 65.774937
_cell_angle_gamma 26.034263
_cell_volume 633.492040
_symmetry_space_group_name_H-M "P -1"
_symmetry_group_IT_number 2
_symmetry_cell_setting 'triclinic'
loop_
_space_group_symop_operation_xyz
x,y,z
-x,-y,-z
loop_
_atom_site_type_symbol
_atom_site_label
_atom_site_fract_x
_atom_site_fract_y
_atom_site_fract_z
Si Si1 0.275529 0.990200 0.155373
Si Si2 0.347882 0.475677 0.320810
Si Si3 0.197562 0.874120 0.086239
Si Si4 0.058341 0.398177 0.899538
Si Si5 0.905885 0.771238 0.638710
Si Si6 0.390505 0.463174 0.572856
Si Si7 0.147769 0.242240 0.589955
Si Si8 0.523733 0.765594 0.839274
O O1 0.204274 0.104194 0.252885
O O2 0.091261 0.053680 0.136314
O O3 0.515540 0.695464 0.257033
O O4 0.278774 0.104121 0.996374
O O5 0.326317 0.639355 0.220729
O O6 0.468357 0.338162 0.480583
O O7 0.477942 0.307002 0.243752
O O8 0.067275 0.666665 0.335356
O O9 0.391706 0.793899 0.979540
O O10 0.000000 0.000000 0.000000
O O11 0.806862 0.550963 0.876400
O O12 0.083413 0.493033 0.744830
O O13 0.000000 0.500000 0.000000
O O14 0.088473 0.722451 0.554466
O O15 0.755053 0.869592 0.525305
O O16 0.500000 0.500000 0.500000
O O17 0.000000 0.500000 0.500000
O O18 0.363043 0.028637 0.721052
#
# Coordination Sequence:
#
# PCOD9051038 Si02
#       8
#     2   2   2   2   2   2   2   2
#     4  11  25  45  70 101 145 183 240 289 344 420
#     4  11  24  46  68 108 140 180 238 285 355 423
#     4  12  25  44  72 103 140 187 236 289 349 415
#     4  10  25  45  68 101 138 184 234 282 353 410
#     4  10  25  46  68 104 140 182 232 294 351 416
#     4  11  24  44  70 103 137 188 231 283 354 413
#     4  11  25  45  74 103 142 180 234 289 347 424
#     4  12  26  45  74 101 142 187 228 295 356 409
#
# _framework density 25.256827999999999
#
# number of rings (size 3 to 8) (size 9 to 14) (size 15 to 20)
#    0.000    1.000    2.500    2.625    5.250    8.000 
#    0.000    0.000    0.000    0.000    0.000    0.000 
#    0.000    0.000    0.000    0.000    0.000    0.000 
#
# Total GULP energy -89470.775126 kJ/mol
# GULP energy per Si atom -5591.923445 kJ/mol
# Density = 2.519934 g / cm^3
# Si number density = 25.256828 Si / 1000 Ang^3
#
#
#
# Elastic Constant Matrix: (Units=GPa)
#
#
# Indices 1 2 3 4 5 6 
#
# 1 116.3911 19.5788 42.9632 0.6390 0.5862 1.4448
# 2 19.5788 40.4383 24.2219 1.0717 -0.3446 16.9264
# 3 42.9632 24.2219 152.9258 -9.9793 9.2498 3.9805
# 4 0.6390 1.0717 -9.9793 43.6861 6.4944 4.2557
# 5 0.5862 -0.3446 9.2498 6.4944 54.5127 13.7525
# 6 1.4448 16.9264 3.9805 4.2557 13.7525 45.7163
#
#
#
# Elastic Compliance Matrix: (Units=1/GPa)
#
#
# Indices 1 2 3 4 5 6 
#
# 1 0.010111 -0.004143 -0.002266 -0.000703 -0.000043 0.001490
# 2 -0.004143 0.035232 -0.004413 -0.001155 0.004640 -0.013818
# 3 -0.002266 -0.004413 0.008099 0.002151 -0.001987 0.001398
# 4 -0.000703 -0.001155 0.002151 0.023964 -0.002947 -0.001082
# 5 -0.000043 0.004640 -0.001987 -0.002947 0.020974 -0.007579
# 6 0.001490 -0.013818 0.001398 -0.001082 -0.007579 0.029202
#
#
# Mechanical properties :
#
#
# Convention : Reuss Voigt Hill
#
# Bulk Modulus (GPa) = 31.44944 53.69811 42.57377
# Shear Modulus (GPa) = 31.28414 43.64912 37.46663
#
# Velocity S-wave (km/s) = 3.52325 4.16169 3.85571
# Velocity P-wave (km/s) = 5.38795 6.66332 6.05928
#
# Compressibility (1/GPa) = 0.03179707
#
# Stress axis : x y z
#
# Youngs Moduli (GPa) = 98.90377 28.38324 123.47362
#
# Poissons Ratio (x) = 0.11760 0.27984
# Poissons Ratio (y) = 0.40978 0.54486
# Poissons Ratio (z) = 0.22415 0.12525
#
# Static dielectric constant tensor:
#      x y z
#    x 1.980620 0.049740 0.051890 
#    y 0.049740 2.067360 -0.046280 
#    z 0.051890 -0.046280 2.026940 
# 
# From -- ./inp_files/83285.got.cif
#   From: 2010.05.17/outbox.cif.g08.bks.cpg/sg2_42_cif.got.tgz:83285.got - 2010.06.03 11:33:40.
