data_PCOD9051245
_publ_section_title
;
Structure prediction by ZEFSAII (Michael W. Deem and Ramdas Pophale) SiO2 
 PCOD9051245
Probable space group: P -1
;
_chemical_formula_sum "Si O2"
_cell_formula_units_Z 16
_cell_length_a 11.544736
_cell_length_b 5.719594
_cell_length_c 11.752711
_cell_angle_alpha 62.340684
_cell_angle_beta 100.342267
_cell_angle_gamma 89.438511
_cell_volume 672.319988
_symmetry_space_group_name_H-M "P -1"
_symmetry_group_IT_number 2
_symmetry_cell_setting 'triclinic'
loop_
_space_group_symop_operation_xyz
x,y,z
-x,-y,-z
loop_
_atom_site_type_symbol
_atom_site_label
_atom_site_fract_x
_atom_site_fract_y
_atom_site_fract_z
Si Si1 0.688995 0.674324 0.953366
Si Si2 0.949583 0.807839 0.944067
Si Si3 0.599784 0.915792 0.444284
Si Si4 0.065366 0.146719 0.317596
Si Si5 0.675432 0.456990 0.240741
Si Si6 0.101390 0.629250 0.564180
Si Si7 0.536912 0.176364 0.780803
Si Si8 0.730729 0.526820 0.731510
O O1 0.813098 0.799631 0.954985
O O2 0.687131 0.590353 0.839325
O O3 0.571855 0.881195 0.899390
O O4 0.697945 0.469306 0.106467
O O5 0.969086 0.932386 0.796131
O O6 0.000000 0.500000 0.000000
O O7 0.000000 0.000000 0.000000
O O8 0.532567 0.799879 0.354739
O O9 0.687093 0.711194 0.575762
O O10 0.500000 0.000000 0.500000
O O11 0.656785 0.164631 0.346488
O O12 0.134908 0.407760 0.257104
O O13 0.961261 0.235110 0.365752
O O14 0.136636 0.877971 0.439842
O O15 0.782511 0.540076 0.323045
O O16 0.552384 0.640697 0.197478
O O17 0.000000 0.500000 0.500000
O O18 0.666113 0.268550 0.757241
#
# Coordination Sequence:
#
# PCOD9051245 Si02
#       8
#     2   2   2   2   2   2   2   2
#     4  11  27  47  71 109 149 195 246 311 382 453
#     4  11  27  50  79 111 153 207 260 317 385 469
#     4  12  24  46  69 102 142 188 249 302 376 447
#     4  10  25  45  73 106 145 193 255 320 385 456
#     4  12  27  46  72 104 151 191 248 312 378 459
#     4  11  26  45  72 106 149 197 253 320 387 456
#     4  12  26  43  75 106 144 194 248 303 380 457
#     4  11  24  46  73 103 142 190 247 311 376 454
#
# _framework density 23.798193000000001
#
# number of rings (size 3 to 8) (size 9 to 14) (size 15 to 20)
#    0.000    0.750    3.750    1.500    8.750    4.000 
#    0.000    0.000    0.000    0.000    0.000    0.000 
#    0.000    0.000    0.000    0.000    0.000    0.000 
#
# Total GULP energy -89285.989943 kJ/mol
# GULP energy per Si atom -5580.374371 kJ/mol
# Density = 2.374403 g / cm^3
# Si number density = 23.798193 Si / 1000 Ang^3
#
#
#
# Elastic Constant Matrix: (Units=GPa)
#
#
# Indices 1 2 3 4 5 6 
#
# 1 70.8217 23.8846 38.6771 1.5078 8.3401 8.3302
# 2 23.8846 62.6886 55.4850 20.3353 -4.4596 18.8339
# 3 38.6771 55.4850 206.4285 9.4045 -6.8045 2.4512
# 4 1.5078 20.3353 9.4045 33.7893 -3.6964 12.1959
# 5 8.3401 -4.4596 -6.8045 -3.6964 35.1572 2.1121
# 6 8.3302 18.8339 2.4512 12.1959 2.1121 33.8320
#
#
#
# Elastic Compliance Matrix: (Units=1/GPa)
#
#
# Indices 1 2 3 4 5 6 
#
# 1 0.017985 -0.005916 -0.002079 0.003495 -0.004935 -0.001936
# 2 -0.005916 0.031834 -0.006625 -0.012515 0.003534 -0.011494
# 3 -0.002079 -0.006625 0.006957 0.001070 0.000916 0.003253
# 4 0.003495 -0.012515 0.001070 0.040039 0.002514 -0.008561
# 5 -0.004935 0.003534 0.000916 0.002514 0.030723 -0.003643
# 6 -0.001936 -0.011494 0.003253 -0.008561 -0.003643 0.039511
#
#
# Mechanical properties :
#
#
# Convention : Reuss Voigt Hill
#
# Bulk Modulus (GPa) = 36.31416 64.00358 50.15887
# Shear Modulus (GPa) = 24.33489 35.34852 29.84171
#
# Velocity S-wave (km/s) = 3.20121 3.85820 3.54496
# Velocity P-wave (km/s) = 5.38107 6.84107 6.15452
#
# Compressibility (1/GPa) = 0.02753747
#
# Stress axis : x y z
#
# Youngs Moduli (GPa) = 55.60287 31.41307 143.73429
#
# Poissons Ratio (x) = 0.18583 0.29876
# Poissons Ratio (y) = 0.32893 0.95223
# Poissons Ratio (z) = 0.11557 0.20811
#
# Static dielectric constant tensor:
#      x y z
#    x 2.044530 -0.087860 0.003000 
#    y -0.087860 2.044220 -0.006510 
#    z 0.003000 -0.006510 1.861960 
# 
# From -- ./inp_files/409899.got.cif
#   From: 2010.05.17/outbox.cif.g08.bks.cpg/sg2_205_cif.got.tgz:409899.got - 2010.06.03 11:33:40.
