data_PCOD9051995
_publ_section_title
;
Structure prediction by ZEFSAII (Michael W. Deem and Ramdas Pophale) SiO2 
 PCOD9051995
Probable space group: P -1
;
_chemical_formula_sum "Si O2"
_cell_formula_units_Z 11
_cell_length_a 8.879733
_cell_length_b 6.173447
_cell_length_c 9.514991
_cell_angle_alpha 91.450380
_cell_angle_beta 71.702614
_cell_angle_gamma 111.969006
_cell_volume 456.744365
_symmetry_space_group_name_H-M "P -1"
_symmetry_group_IT_number 2
_symmetry_cell_setting 'triclinic'
loop_
_space_group_symop_operation_xyz
x,y,z
-x,-y,-z
loop_
_atom_site_type_symbol
_atom_site_label
_atom_site_fract_x
_atom_site_fract_y
_atom_site_fract_z
Si Si1 0.500000 0.500000 0.500000
Si Si2 0.900517 0.140833 0.609745
Si Si3 0.362829 0.340787 0.231181
Si Si4 0.282405 0.606351 0.014225
Si Si5 0.178135 0.624966 0.634704
Si Si6 0.935308 0.205245 0.048146
O O1 0.393822 0.436264 0.381573
O O2 0.360854 0.608172 0.604254
O O3 0.823054 0.246358 0.509635
O O4 0.032210 0.360456 0.661715
O O5 0.758460 0.932185 0.731601
O O6 0.000000 0.000000 0.500000
O O7 0.284619 0.497588 0.164708
O O8 0.539784 0.363514 0.106907
O O9 0.119290 0.420889 0.976360
O O10 0.225461 0.822427 0.006666
O O11 0.129382 0.769077 0.775031
O O12 0.000000 0.000000 0.000000
#
# Coordination Sequence:
#
# PCOD9051995 Si02
#       6
#     1   2   2   2   2   2
#     4  12  24  48  78 116 152 194 258 324 374 452
#     4  11  24  47  78 112 152 202 248 323 394 441
#     4  11  24  49  76 112 154 201 248 322 381 448
#     4  10  25  49  73 110 155 201 258 306 375 469
#     4  11  26  48  78 116 150 194 265 318 372 467
#     4  11  25  50  79 110 153 209 251 316 381 453
#
# _framework density 24.083493000000001
#
# number of rings (size 3 to 8) (size 9 to 14) (size 15 to 20)
#    0.000    1.091    3.636    1.091    2.545    8.000 
#    3.273    2.727    0.000    0.000    0.000    0.000 
#    0.000    0.000    0.000    0.000    0.000    0.000 
#
# Total GULP energy -61288.063914 kJ/mol
# GULP energy per Si atom -5571.642174 kJ/mol
# Density = 2.402868 g / cm^3
# Si number density = 24.083493 Si / 1000 Ang^3
#
#
#
# Elastic Constant Matrix: (Units=GPa)
#
#
# Indices 1 2 3 4 5 6 
#
# 1 181.7411 45.1290 46.0669 5.2930 1.7332 -40.8498
# 2 45.1290 65.1683 64.9669 21.0083 3.2528 -20.1513
# 3 46.0669 64.9669 128.3748 24.8539 15.9035 -3.4100
# 4 5.2930 21.0083 24.8539 34.9891 -4.2181 -7.7902
# 5 1.7332 3.2528 15.9035 -4.2181 61.2913 1.2989
# 6 -40.8498 -20.1513 -3.4100 -7.7902 1.2989 32.7469
#
#
#
# Elastic Compliance Matrix: (Units=1/GPa)
#
#
# Indices 1 2 3 4 5 6 
#
# 1 0.008977 -0.000475 -0.003561 0.004102 0.000734 0.011482
# 2 -0.000475 0.047456 -0.022120 -0.006972 0.002234 0.024560
# 3 -0.003561 -0.022120 0.021455 -0.005729 -0.004326 -0.017012
# 4 0.004102 -0.006972 -0.005729 0.038792 0.004213 0.009291
# 5 0.000734 0.002234 -0.004326 0.004213 0.017543 0.002147
# 6 0.011482 0.024560 -0.017012 0.009291 0.002147 0.060327
#
#
# Mechanical properties :
#
#
# Convention : Reuss Voigt Hill
#
# Bulk Modulus (GPa) = 39.09982 76.40106 57.75044
# Shear Modulus (GPa) = 19.57786 40.41356 29.99571
#
# Velocity S-wave (km/s) = 2.85426 4.10086 3.53298
# Velocity P-wave (km/s) = 5.20891 7.36308 6.37761
#
# Compressibility (1/GPa) = 0.02557557
#
# Stress axis : x y z
#
# Youngs Moduli (GPa) = 111.39136 21.07203 46.60820
#
# Poissons Ratio (x) = 0.01001 0.16598
# Poissons Ratio (y) = 0.05292 1.03100
# Poissons Ratio (z) = 0.39668 0.46612
#
# Static dielectric constant tensor:
#      x y z
#    x 2.012800 -0.257330 0.057700 
#    y -0.257330 2.371030 -0.158530 
#    z 0.057700 -0.158530 2.016300 
# 
# From -- ./inp_files/143769.got.cif
#   From: 2010.05.17/outbox.cif.g08.bks.cpg/sg2_72_cif.got.tgz:143769.got - 2010.06.03 11:33:40.
