data_PCOD9051147
_publ_section_title
;
Structure prediction by ZEFSAII (Michael W. Deem and Ramdas Pophale) SiO2 
 PCOD9051147
Probable space group: P -1
;
_chemical_formula_sum "Si O2"
_cell_formula_units_Z 16
_cell_length_a 11.742327
_cell_length_b 18.946650
_cell_length_c 9.072698
_cell_angle_alpha 134.245526
_cell_angle_beta 54.125840
_cell_angle_gamma 151.550437
_cell_volume 686.592403
_symmetry_space_group_name_H-M "P -1"
_symmetry_group_IT_number 2
_symmetry_cell_setting 'triclinic'
loop_
_space_group_symop_operation_xyz
x,y,z
-x,-y,-z
loop_
_atom_site_type_symbol
_atom_site_label
_atom_site_fract_x
_atom_site_fract_y
_atom_site_fract_z
Si Si1 0.318448 0.809500 0.898413
Si Si2 0.176400 0.660394 0.199495
Si Si3 0.641017 0.269579 0.552476
Si Si4 0.797632 0.093000 0.488150
Si Si5 0.780287 0.567189 0.917673
Si Si6 0.377123 0.107702 0.947967
Si Si7 0.578630 0.530392 0.733540
Si Si8 0.274309 0.252532 0.336150
O O1 0.309654 0.732678 0.653807
O O2 0.048263 0.695854 0.957350
O O3 0.450236 0.833661 0.970400
O O4 0.500000 0.000000 0.000000
O O5 0.141274 0.636262 0.365437
O O6 0.193745 0.784791 0.325379
O O7 0.426496 0.744544 0.104951
O O8 0.000000 0.500000 0.000000
O O9 0.629920 0.380911 0.736849
O O10 0.414434 0.076013 0.500495
O O11 0.043403 0.178368 0.463274
O O12 0.757687 0.047901 0.277516
O O13 0.778115 0.616534 0.829371
O O14 0.639330 0.552934 0.122124
O O15 0.225503 0.111058 0.131088
O O16 0.484716 0.387540 0.493153
O O17 0.654127 0.653828 0.734774
#
# Coordination Sequence:
#
# PCOD9051147 Si02
#       8
#     2   2   2   2   2   2   2   2
#     4  12  26  43  71 104 147 188 237 294 368 425
#     4  11  24  40  71  98 139 182 237 296 353 416
#     4  11  24  43  68 102 140 182 240 292 363 421
#     4  11  25  45  70 104 149 184 242 298 355 424
#     4  11  25  47  69 101 144 189 235 297 358 434
#     4  11  24  44  65 107 139 184 240 290 357 423
#     4  10  25  45  71 101 141 186 245 291 359 421
#     4  11  25  43  75 101 141 188 246 294 358 421
#
# _framework density 23.303491999999999
#
# number of rings (size 3 to 8) (size 9 to 14) (size 15 to 20)
#    0.000    1.000    0.000    6.750   12.250    0.000 
#    2.250    1.250    0.000    0.000    0.000    0.000 
#    0.000    0.000    0.000    0.000    0.000    0.000 
#
# Total GULP energy -89449.430417 kJ/mol
# GULP energy per Si atom -5590.589401 kJ/mol
# Density = 2.325045 g / cm^3
# Si number density = 23.303492 Si / 1000 Ang^3
#
#
#
# Elastic Constant Matrix: (Units=GPa)
#
#
# Indices 1 2 3 4 5 6 
#
# 1 93.0134 13.1448 37.7802 -0.9654 17.2080 -0.3250
# 2 13.1448 54.1149 12.4009 3.2969 1.0263 -5.2793
# 3 37.7802 12.4009 136.3216 11.9055 2.6794 -10.8367
# 4 -0.9654 3.2969 11.9055 32.8646 -0.8379 2.4887
# 5 17.2080 1.0263 2.6794 -0.8379 50.0988 0.6633
# 6 -0.3250 -5.2793 -10.8367 2.4887 0.6633 32.0384
#
#
#
# Elastic Compliance Matrix: (Units=1/GPa)
#
#
# Indices 1 2 3 4 5 6 
#
# 1 0.013438 -0.002613 -0.003706 0.002012 -0.004309 -0.001615
# 2 -0.002613 0.019685 -0.000647 -0.002044 0.000453 0.003148
# 3 -0.003706 -0.000647 0.008964 -0.003512 0.000706 0.003146
# 4 0.002012 -0.002044 -0.003512 0.032272 0.000132 -0.004014
# 5 -0.004309 0.000453 0.000706 0.000132 0.021398 -0.000183
# 6 -0.001615 0.003148 0.003146 -0.004014 -0.000183 0.033095
#
#
# Mechanical properties :
#
#
# Convention : Reuss Voigt Hill
#
# Bulk Modulus (GPa) = 35.51637 45.56686 40.54161
# Shear Modulus (GPa) = 32.85817 37.67527 35.26672
#
# Velocity S-wave (km/s) = 3.75908 4.02521 3.89442
# Velocity P-wave (km/s) = 5.84079 6.41866 6.13653
#
# Compressibility (1/GPa) = 0.02815603
#
# Stress axis : x y z
#
# Youngs Moduli (GPa) = 74.41501 50.79950 111.55270
#
# Poissons Ratio (x) = 0.13276 0.41340
# Poissons Ratio (y) = 0.19447 0.07213
# Poissons Ratio (z) = 0.27577 0.03285
#
# Static dielectric constant tensor:
#      x y z
#    x 1.922760 -0.039020 0.076000 
#    y -0.039020 1.961570 -0.046850 
#    z 0.076000 -0.046850 1.956990 
# 
# From -- ./inp_files/283329.got.cif
#   From: 2010.05.17/outbox.cif.g08.bks.cpg/sg2_142_cif.got.tgz:283329.got - 2010.06.03 11:33:40.
