data_PCOD9051035
_publ_section_title
;
Structure prediction by ZEFSAII (Michael W. Deem and Ramdas Pophale) SiO2 
 PCOD9051035
Probable space group: P -1
;
_chemical_formula_sum "Si O2"
_cell_formula_units_Z 16
_cell_length_a 5.451341
_cell_length_b 24.040168
_cell_length_c 12.440966
_cell_angle_alpha 153.037805
_cell_angle_beta 64.666360
_cell_angle_gamma 107.618237
_cell_volume 655.699534
_symmetry_space_group_name_H-M "P -1"
_symmetry_group_IT_number 2
_symmetry_cell_setting 'triclinic'
loop_
_space_group_symop_operation_xyz
x,y,z
-x,-y,-z
loop_
_atom_site_type_symbol
_atom_site_label
_atom_site_fract_x
_atom_site_fract_y
_atom_site_fract_z
Si Si1 0.450173 0.386495 0.238969
Si Si2 0.565166 0.703774 0.531441
Si Si3 0.030686 0.264738 0.830840
Si Si4 0.314171 0.021230 0.462897
Si Si5 0.340322 0.470508 0.164791
Si Si6 0.161735 0.873662 0.799646
Si Si7 0.303766 0.204810 0.110679
Si Si8 0.107934 0.702946 0.317172
O O1 0.500000 0.500000 0.500000
O O2 0.330346 0.441869 0.243902
O O3 0.263997 0.300166 0.182780
O O4 0.743716 0.294545 0.000670
O O5 0.347953 0.614523 0.394619
O O6 0.602191 0.717092 0.673734
O O7 0.850110 0.653209 0.330531
O O8 0.460965 0.843901 0.747004
O O9 0.263142 0.163811 0.673117
O O10 0.983766 0.220403 0.642957
O O11 0.115597 0.400367 0.034983
O O12 0.500000 0.000000 0.500000
O O13 0.000000 0.000000 0.500000
O O14 0.471968 0.917887 0.173057
O O15 0.632842 0.399829 0.942821
O O16 0.964806 0.839878 0.872723
O O17 0.196916 0.784978 0.536300
O O18 0.000000 0.000000 0.000000
#
# Coordination Sequence:
#
# PCOD9051035 Si02
#       8
#     2   2   2   2   2   2   2   2
#     4  11  23  45  68 105 147 181 235 300 374 447
#     4  11  25  45  70 103 139 194 242 307 375 447
#     4  11  26  42  73 105 141 193 240 309 376 447
#     4  12  28  49  76 109 154 199 257 312 374 454
#     4  11  24  43  73 103 142 182 242 305 376 456
#     4  11  28  45  70 100 142 191 246 306 369 446
#     4  11  26  45  72 102 145 191 245 305 372 446
#     4  10  25  45  68 100 140 182 246 299 380 440
#
# _framework density 24.401423000000001
#
# number of rings (size 3 to 8) (size 9 to 14) (size 15 to 20)
#    0.000    1.000    2.500    1.875   10.500    5.500 
#    0.000    0.000    0.000    0.000    0.000    0.000 
#    0.000    0.000    0.000    0.000    0.000    0.000 
#
# Total GULP energy -89567.019520 kJ/mol
# GULP energy per Si atom -5597.938720 kJ/mol
# Density = 2.434588 g / cm^3
# Si number density = 24.401423 Si / 1000 Ang^3
#
#
#
# Elastic Constant Matrix: (Units=GPa)
#
#
# Indices 1 2 3 4 5 6 
#
# 1 54.9966 15.4571 3.7652 -14.8211 -11.6380 -6.6361
# 2 15.4571 93.0196 60.6647 -14.6318 -11.3908 -13.0727
# 3 3.7652 60.6647 78.3892 -23.8760 -16.1888 -8.9740
# 4 -14.8211 -14.6318 -23.8760 42.2136 -4.3471 0.7777
# 5 -11.6380 -11.3908 -16.1888 -4.3471 26.6149 0.5935
# 6 -6.6361 -13.0727 -8.9740 0.7777 0.5935 36.6047
#
#
#
# Elastic Compliance Matrix: (Units=1/GPa)
#
#
# Indices 1 2 3 4 5 6 
#
# 1 0.030377 -0.009708 0.017226 0.019273 0.022632 0.005487
# 2 -0.009708 0.025577 -0.023752 -0.008965 -0.009253 0.001892
# 3 0.017226 -0.023752 0.044655 0.025940 0.028664 0.004572
# 4 0.019273 -0.008965 0.025940 0.044761 0.027563 0.005254
# 5 0.022632 -0.009253 0.028664 0.027563 0.065308 0.006181
# 6 0.005487 0.001892 0.004572 0.005254 0.006181 0.029898
#
#
# Mechanical properties :
#
#
# Convention : Reuss Voigt Hill
#
# Bulk Modulus (GPa) = 14.67549 42.90883 28.79216
# Shear Modulus (GPa) = 16.90565 30.85452 23.88009
#
# Velocity S-wave (km/s) = 2.63499 3.55978 3.13171
# Velocity P-wave (km/s) = 3.90958 5.87527 4.99017
#
# Compressibility (1/GPa) = 0.06814083
#
# Stress axis : x y z
#
# Youngs Moduli (GPa) = 32.91920 39.09794 22.39394
#
# Poissons Ratio (x) = 0.37957 -0.38577
# Poissons Ratio (y) = 0.31959 0.53191
# Poissons Ratio (z) = -0.56708 0.92867
#
# Static dielectric constant tensor:
#      x y z
#    x 1.947160 0.019960 -0.005060 
#    y 0.019960 1.952470 0.063380 
#    z -0.005060 0.063380 1.937390 
# 
# From -- ./inp_files/71501.got.cif
#   From: 2010.05.17/outbox.cif.g08.bks.cpg/sg2_36_cif.got.tgz:71501.got - 2010.06.03 11:33:40.
