data_PCOD9051549
_publ_section_title
;
Structure prediction by ZEFSAII (Michael W. Deem and Ramdas Pophale) SiO2 
 PCOD9051549
Probable space group: P -1
;
_chemical_formula_sum "Si O2"
_cell_formula_units_Z 16
_cell_length_a 9.756687
_cell_length_b 11.146028
_cell_length_c 20.209141
_cell_angle_alpha 20.115310
_cell_angle_beta 76.387955
_cell_angle_gamma 78.750125
_cell_volume 732.376981
_symmetry_space_group_name_H-M "P -1"
_symmetry_group_IT_number 2
_symmetry_cell_setting 'triclinic'
loop_
_space_group_symop_operation_xyz
x,y,z
-x,-y,-z
loop_
_atom_site_type_symbol
_atom_site_label
_atom_site_fract_x
_atom_site_fract_y
_atom_site_fract_z
Si Si1 0.490237 0.329096 0.877617
Si Si2 0.553767 0.877602 0.769448
Si Si3 0.990702 0.888282 0.271828
Si Si4 0.696525 0.065872 0.786475
Si Si5 0.725316 0.871956 0.396251
Si Si6 0.997952 0.169397 0.984906
Si Si7 0.753271 0.262927 0.329392
Si Si8 0.760219 0.700327 0.723044
O O1 0.404651 0.622841 0.699806
O O2 0.641916 0.482533 0.805196
O O3 0.500000 0.000000 0.000000
O O4 0.398487 0.197296 0.020217
O O5 0.680042 0.826005 0.731209
O O6 0.615111 0.103407 0.707385
O O7 0.422908 0.029210 0.668385
O O8 0.500000 0.500000 0.000000
O O9 0.854766 0.012194 0.261032
O O10 0.000000 0.500000 0.500000
O O11 0.147907 0.066753 0.175378
O O12 0.969603 0.906202 0.185925
O O13 0.719058 0.448527 0.619322
O O14 0.751241 0.043285 0.376018
O O15 0.147972 0.380925 0.870526
O O16 0.881984 0.452192 0.854196
O O17 0.000000 0.000000 0.000000
O O18 0.809051 0.034619 0.500434
#
# Coordination Sequence:
#
# PCOD9051549 Si02
#       8
#     2   2   2   2   2   2   2   2
#     4  12  24  44  73 100 140 185 239 287 356 424
#     4  12  24  45  68 105 143 178 242 297 358 423
#     4  10  25  46  75 102 138 191 240 295 356 426
#     4  11  24  45  71 103 139 188 236 294 351 431
#     4  11  25  45  72 102 145 180 244 289 365 421
#     4  12  28  49  73 105 147 188 244 295 357 431
#     4  12  26  47  72 106 143 191 236 297 357 434
#     4  12  27  44  72 105 147 187 235 297 366 420
#
# _framework density 21.846672000000002
#
# number of rings (size 3 to 8) (size 9 to 14) (size 15 to 20)
#    0.000    0.500    3.750    3.375    7.000    2.500 
#    0.000    0.000    0.000    0.000    0.000    0.000 
#    0.000    0.000    0.000    0.000    0.000    0.000 
#
# Total GULP energy -89563.958223 kJ/mol
# GULP energy per Si atom -5597.747389 kJ/mol
# Density = 2.179695 g / cm^3
# Si number density = 21.846672 Si / 1000 Ang^3
#
#
#
# Elastic Constant Matrix: (Units=GPa)
#
#
# Indices 1 2 3 4 5 6 
#
# 1 57.1933 13.1255 -14.4998 6.7974 14.8952 -0.9203
# 2 13.1255 123.6000 24.6030 6.7370 9.4951 7.0592
# 3 -14.4998 24.6030 78.6450 18.6007 13.5833 7.1611
# 4 6.7974 6.7370 18.6007 39.5812 6.6456 -4.4690
# 5 14.8952 9.4951 13.5833 6.6456 42.5454 -4.3131
# 6 -0.9203 7.0592 7.1611 -4.4690 -4.3131 36.4467
#
#
#
# Elastic Compliance Matrix: (Units=1/GPa)
#
#
# Indices 1 2 3 4 5 6 
#
# 1 0.023576 -0.003007 0.008650 -0.006262 -0.009612 -0.002427
# 2 -0.003007 0.009133 -0.003399 0.000446 -0.000085 -0.001132
# 3 0.008650 -0.003399 0.019312 -0.009283 -0.007486 -0.004942
# 4 -0.006262 0.000446 -0.009283 0.031120 0.000752 0.005484
# 5 -0.009612 -0.000085 -0.007486 0.000752 0.029652 0.004846
# 6 -0.002427 -0.001132 -0.004942 0.005484 0.004846 0.029812
#
#
# Mechanical properties :
#
#
# Convention : Reuss Voigt Hill
#
# Bulk Modulus (GPa) = 17.69643 33.98841 25.84242
# Shear Modulus (GPa) = 31.85610 39.46195 35.65902
#
# Velocity S-wave (km/s) = 3.82274 4.25469 4.04448
# Velocity P-wave (km/s) = 5.25379 6.30301 5.80217
#
# Compressibility (1/GPa) = 0.05650857
#
# Stress axis : x y z
#
# Youngs Moduli (GPa) = 42.41573 109.48723 51.78070
#
# Poissons Ratio (x) = 0.32923 -0.44789
# Poissons Ratio (y) = 0.12755 0.17602
# Poissons Ratio (z) = -0.36688 0.37219
#
# Static dielectric constant tensor:
#      x y z
#    x 1.634180 -0.056910 -0.045130 
#    y -0.056910 1.769750 -0.003840 
#    z -0.045130 -0.003840 1.800380 
# 
# From -- ./inp_files/589310.got.cif
#   From: 2010.05.17/outbox.cif.g08.bks.cpg/sg2_295_cif.got.tgz:589310.got - 2010.06.03 11:33:40.
