data_PCOD9051316
_publ_section_title
;
Structure prediction by ZEFSAII (Michael W. Deem and Ramdas Pophale) SiO2 
 PCOD9051316
Probable space group: P -1
;
_chemical_formula_sum "Si O2"
_cell_formula_units_Z 14
_cell_length_a 12.031886
_cell_length_b 25.163569
_cell_length_c 8.867609
_cell_angle_alpha 154.978937
_cell_angle_beta 36.045223
_cell_angle_gamma 149.221918
_cell_volume 575.453303
_symmetry_space_group_name_H-M "P -1"
_symmetry_group_IT_number 2
_symmetry_cell_setting 'triclinic'
loop_
_space_group_symop_operation_xyz
x,y,z
-x,-y,-z
loop_
_atom_site_type_symbol
_atom_site_label
_atom_site_fract_x
_atom_site_fract_y
_atom_site_fract_z
Si Si1 0.880677 0.833614 0.375050
Si Si2 0.226138 0.574908 0.816713
Si Si3 0.275027 0.301318 0.114786
Si Si4 0.198988 0.069943 0.841999
Si Si5 0.084096 0.671718 0.830986
Si Si6 0.494550 0.811348 0.931432
Si Si7 0.248174 0.626877 0.245072
O O1 0.681737 0.849303 0.700275
O O2 0.861819 0.809068 0.154238
O O3 0.110446 0.963002 0.520647
O O4 0.879557 0.695027 0.096534
O O5 0.224519 0.431233 0.505016
O O6 0.407459 0.650926 0.686527
O O7 0.984093 0.523867 0.890929
O O8 0.268657 0.676496 0.176500
O O9 0.240860 0.219855 0.102578
O O10 0.529227 0.371983 0.969452
O O11 0.397395 0.091730 0.788215
O O12 0.000000 0.000000 0.000000
O O13 0.265969 0.778565 0.026011
O O14 0.212011 0.715289 0.641955
O O15 0.000000 0.500000 0.500000
#
# Coordination Sequence:
#
# PCOD9051316 Si02
#       7
#     2   2   2   2   2   2   2
#     4  11  25  43  67  95 131 175 218 262 319 379
#     4  11  24  40  67 103 131 168 211 268 327 382
#     4  12  22  43  71  93 130 172 214 271 326 375
#     4  10  25  46  65  93 126 176 226 263 314 385
#     4  12  24  41  65 100 136 167 210 267 325 387
#     4  11  23  43  67  96 136 170 213 265 319 385
#     4  11  23  39  62 101 134 162 214 261 326 390
#
# _framework density 24.328647
#
# number of rings (size 3 to 8) (size 9 to 14) (size 15 to 20)
#    0.000    0.857    5.714    0.857    2.000    2.857 
#    0.000    3.571    0.000    0.000    0.000    0.000 
#    0.000    0.000    0.000    0.000    0.000    0.000 
#
# Total GULP energy -78056.959960 kJ/mol
# GULP energy per Si atom -5575.497140 kJ/mol
# Density = 2.427327 g / cm^3
# Si number density = 24.328647 Si / 1000 Ang^3
#
#
#
# Elastic Constant Matrix: (Units=GPa)
#
#
# Indices 1 2 3 4 5 6 
#
# 1 147.1354 30.1544 26.5743 8.0040 31.7233 20.7983
# 2 30.1544 64.1039 17.7863 -6.6382 1.9841 7.1487
# 3 26.5743 17.7863 48.2042 4.4611 16.2107 3.2658
# 4 8.0040 -6.6382 4.4611 29.5512 2.1646 3.9759
# 5 31.7233 1.9841 16.2107 2.1646 48.7018 5.5177
# 6 20.7983 7.1487 3.2658 3.9759 5.5177 49.3179
#
#
#
# Elastic Compliance Matrix: (Units=1/GPa)
#
#
# Indices 1 2 3 4 5 6 
#
# 1 0.009466 -0.003783 -0.001729 -0.002438 -0.005037 -0.002569
# 2 -0.003783 0.020126 -0.007151 0.006581 0.003938 -0.001820
# 3 -0.001729 -0.007151 0.027252 -0.004859 -0.007573 0.001200
# 4 -0.002438 0.006581 -0.004859 0.036966 0.001607 -0.002764
# 5 -0.005037 0.003938 -0.007573 0.001607 0.026217 -0.001008
# 6 -0.002569 -0.001820 0.001200 -0.002764 -0.001008 0.021880
#
#
# Mechanical properties :
#
#
# Convention : Reuss Voigt Hill
#
# Bulk Modulus (GPa) = 31.72767 45.38593 38.55680
# Shear Modulus (GPa) = 28.13136 37.84275 32.98705
#
# Velocity S-wave (km/s) = 3.40414 3.94824 3.68624
# Velocity P-wave (km/s) = 5.34046 6.28336 5.83100
#
# Compressibility (1/GPa) = 0.03151823
#
# Stress axis : x y z
#
# Youngs Moduli (GPa) = 105.64382 49.68761 36.69470
#
# Poissons Ratio (x) = 0.18797 0.06344
# Poissons Ratio (y) = 0.39966 0.26239
# Poissons Ratio (z) = 0.18266 0.35529
#
# Static dielectric constant tensor:
#      x y z
#    x 2.020450 0.001310 0.024690 
#    y 0.001310 1.960850 0.064870 
#    z 0.024690 0.064870 1.964410 
# 
# From -- ./inp_files/285863.got.cif
#   From: 2010.05.17/outbox.cif.g08.bks.cpg/sg2_143_cif.got.tgz:285863.got - 2010.06.03 11:33:40.
