data_PCOD9051940
_publ_section_title
;
Structure prediction by ZEFSAII (Michael W. Deem and Ramdas Pophale) SiO2 
 PCOD9051940
Probable space group: P -1
;
_chemical_formula_sum "Si O2"
_cell_formula_units_Z 16
_cell_length_a 17.021333
_cell_length_b 19.649059
_cell_length_c 4.962071
_cell_angle_alpha 87.235600
_cell_angle_beta 78.868240
_cell_angle_gamma 22.571820
_cell_volume 586.585675
_symmetry_space_group_name_H-M "P -1"
_symmetry_group_IT_number 2
_symmetry_cell_setting 'triclinic'
loop_
_space_group_symop_operation_xyz
x,y,z
-x,-y,-z
loop_
_atom_site_type_symbol
_atom_site_label
_atom_site_fract_x
_atom_site_fract_y
_atom_site_fract_z
Si Si1 0.160019 0.530786 0.505965
Si Si2 0.362482 0.303061 0.894202
Si Si3 0.770020 0.861525 0.336021
Si Si4 0.764984 0.290928 0.930751
Si Si5 0.354213 0.161655 0.871115
Si Si6 0.616344 0.521451 0.326616
Si Si7 0.807267 0.981460 0.329208
Si Si8 0.680711 0.218118 0.047714
O O1 0.220172 0.424494 0.693629
O O2 0.247560 0.527077 0.608971
O O3 0.911792 0.741202 0.536458
O O4 0.285859 0.411553 0.168979
O O5 0.310606 0.267069 0.026886
O O6 0.574708 0.338714 0.357291
O O7 0.611904 0.124220 0.653160
O O8 0.816517 0.756708 0.155851
O O9 0.823089 0.895008 0.190776
O O10 0.512340 0.061691 0.542063
O O11 0.752393 0.345720 0.202269
O O12 0.845216 0.149253 0.869688
O O13 0.494633 0.643491 0.109983
O O14 0.954050 0.186155 0.676224
O O15 0.500000 0.000000 0.000000
O O16 0.749391 0.089752 0.142141
O O17 0.500000 0.500000 0.000000
#
# Coordination Sequence:
#
# PCOD9051940 Si02
#       8
#     2   2   2   2   2   2   2   2
#     4  12  27  49  76 115 152 199 258 309 372 450
#     4  11  28  48  79 111 153 203 249 316 375 451
#     4  10  27  46  76 114 148 206 247 314 376 451
#     4  10  25  48  80 110 151 201 254 318 380 449
#     4  10  25  50  76 109 160 196 251 306 382 450
#     4  11  25  46  76 106 152 194 255 310 377 446
#     4  11  25  48  79 112 152 199 254 311 384 450
#     4  11  24  49  73 110 149 199 247 318 379 447
#
# _framework density 27.276492000000001
#
# number of rings (size 3 to 8) (size 9 to 14) (size 15 to 20)
#    0.000    1.250    1.250    1.500   12.250    1.000 
#    4.500    3.125    0.000    0.000    0.000    0.000 
#    0.000    0.000    0.000    0.000    0.000    0.000 
#
# Total GULP energy -89379.808842 kJ/mol
# GULP energy per Si atom -5586.238053 kJ/mol
# Density = 2.721441 g / cm^3
# Si number density = 27.276492 Si / 1000 Ang^3
#
#
#
# Elastic Constant Matrix: (Units=GPa)
#
#
# Indices 1 2 3 4 5 6 
#
# 1 257.3534 62.4064 64.9886 -20.3520 -15.4498 13.6389
# 2 62.4064 102.1575 44.6023 -7.2131 -2.7667 -6.8869
# 3 64.9886 44.6023 122.7764 -13.5291 11.4208 4.3186
# 4 -20.3520 -7.2131 -13.5291 58.9723 4.1146 -5.4021
# 5 -15.4498 -2.7667 11.4208 4.1146 51.2564 -7.0028
# 6 13.6389 -6.8869 4.3186 -5.4021 -7.0028 32.0274
#
#
#
# Elastic Compliance Matrix: (Units=1/GPa)
#
#
# Indices 1 2 3 4 5 6 
#
# 1 0.005198 -0.002402 -0.001863 0.000783 0.001514 -0.002016
# 2 -0.002402 0.013314 -0.003843 0.000251 0.001483 0.004770
# 3 -0.001863 -0.003843 0.011104 0.001499 -0.003647 -0.002075
# 4 0.000783 0.000251 0.001499 0.017894 -0.001211 0.002272
# 5 0.001514 0.001483 -0.003647 -0.001211 0.021596 0.004684
# 6 -0.002016 0.004770 -0.002075 0.002272 0.004684 0.034795
#
#
# Mechanical properties :
#
#
# Convention : Reuss Voigt Hill
#
# Bulk Modulus (GPa) = 74.62320 91.80911 83.21616
# Shear Modulus (GPa) = 40.13381 49.13720 44.63551
#
# Velocity S-wave (km/s) = 3.84001 4.24895 4.04964
# Velocity P-wave (km/s) = 6.86136 7.60284 7.24160
#
# Compressibility (1/GPa) = 0.01340066
#
# Stress axis : x y z
#
# Youngs Moduli (GPa) = 192.37726 75.11169 90.05440
#
# Poissons Ratio (x) = 0.18041 0.16774
# Poissons Ratio (y) = 0.46206 0.34610
# Poissons Ratio (z) = 0.35833 0.28867
#
# Static dielectric constant tensor:
#      x y z
#    x 2.229950 0.033410 -0.062330 
#    y 0.033410 2.237650 0.010130 
#    z -0.062330 0.010130 2.189470 
# 
# From -- ./inp_files/99579.got.cif
#   From: 2010.05.17/outbox.cif.g08.bks.cpg/sg2_50_cif.got.tgz:99579.got - 2010.06.03 11:33:40.
