data_PCOD9051993
_publ_section_title
;
Structure prediction by ZEFSAII (Michael W. Deem and Ramdas Pophale) SiO2 
 PCOD9051993
Probable space group: P -1
;
_chemical_formula_sum "Si O2"
_cell_formula_units_Z 12
_cell_length_a 11.799778
_cell_length_b 15.086898
_cell_length_c 6.584928
_cell_angle_alpha 66.851670
_cell_angle_beta 101.678436
_cell_angle_gamma 151.596519
_cell_volume 484.396671
_symmetry_space_group_name_H-M "P -1"
_symmetry_group_IT_number 2
_symmetry_cell_setting 'triclinic'
loop_
_space_group_symop_operation_xyz
x,y,z
-x,-y,-z
loop_
_atom_site_type_symbol
_atom_site_label
_atom_site_fract_x
_atom_site_fract_y
_atom_site_fract_z
Si Si1 0.173825 0.538906 0.966937
Si Si2 0.024209 0.708193 0.241715
Si Si3 0.984185 0.959802 0.763411
Si Si4 0.574536 0.861764 0.132303
Si Si5 0.639713 0.182203 0.528933
Si Si6 0.720956 0.660899 0.266177
O O1 0.010378 0.339835 0.967541
O O2 0.337072 0.703974 0.695606
O O3 0.350824 0.644468 0.123345
O O4 0.000000 0.500000 0.000000
O O5 0.791344 0.601723 0.315452
O O6 0.094080 0.668557 0.439550
O O7 0.272905 0.956995 0.129070
O O8 0.219480 0.061239 0.786155
O O9 0.047362 0.107084 0.763323
O O10 0.000000 0.000000 0.500000
O O11 0.738173 0.726767 0.988855
O O12 0.479482 0.866456 0.262868
O O13 0.500000 0.000000 0.500000
O O14 0.500000 0.500000 0.500000
#
# Coordination Sequence:
#
# PCOD9051993 Si02
#       6
#     2   2   2   2   2   2
#     4  12  25  43  69 105 148 188 240 298 370 456
#     4  11  24  47  70 107 143 191 245 300 377 444
#     4  10  25  49  75 105 149 199 252 313 382 440
#     4  11  25  47  70 102 147 191 239 308 374 442
#     4  12  24  40  72 104 146 185 232 301 373 445
#     4  10  25  49  73 108 147 193 257 309 371 451
#
# _framework density 24.773083
#
# number of rings (size 3 to 8) (size 9 to 14) (size 15 to 20)
#    0.000    1.000    3.333    2.000    4.667    2.000 
#    6.000    0.000    0.000    0.000    0.000    0.000 
#    0.000    0.000    0.000    0.000    0.000    0.000 
#
# Total GULP energy -67004.402924 kJ/mol
# GULP energy per Si atom -5583.700244 kJ/mol
# Density = 2.471670 g / cm^3
# Si number density = 24.773083 Si / 1000 Ang^3
#
#
#
# Elastic Constant Matrix: (Units=GPa)
#
#
# Indices 1 2 3 4 5 6 
#
# 1 133.2592 31.8411 52.3566 13.1451 -21.3931 -2.2612
# 2 31.8411 109.3305 38.0875 17.9554 -0.8869 -4.0114
# 3 52.3566 38.0875 156.7902 -4.9115 1.2997 22.5834
# 4 13.1451 17.9554 -4.9115 43.6680 0.6585 -4.1500
# 5 -21.3931 -0.8869 1.2997 0.6585 50.9791 0.3157
# 6 -2.2612 -4.0114 22.5834 -4.1500 0.3157 28.8808
#
#
#
# Elastic Compliance Matrix: (Units=1/GPa)
#
#
# Indices 1 2 3 4 5 6 
#
# 1 0.010272 -0.001069 -0.003747 -0.002843 0.004405 0.003129
# 2 -0.001069 0.011335 -0.002994 -0.004369 -0.000138 0.003206
# 3 -0.003747 -0.002994 0.009579 0.002724 -0.001856 -0.007788
# 4 -0.002843 -0.004369 0.002724 0.025959 -0.001679 0.000789
# 5 0.004405 -0.000138 -0.001856 -0.001679 0.021523 0.001300
# 6 0.003129 0.003206 -0.007788 0.000789 0.001300 0.041504
#
#
# Mechanical properties :
#
#
# Convention : Reuss Voigt Hill
#
# Bulk Modulus (GPa) = 64.23972 71.55003 67.89487
# Shear Modulus (GPa) = 35.46589 43.17855 39.32222
#
# Velocity S-wave (km/s) = 3.78779 4.17941 3.98841
# Velocity P-wave (km/s) = 6.71695 7.22737 6.97683
#
# Compressibility (1/GPa) = 0.01556669
#
# Stress axis : x y z
#
# Youngs Moduli (GPa) = 97.34808 88.22315 104.39686
#
# Poissons Ratio (x) = 0.09431 0.39116
# Poissons Ratio (y) = 0.10406 0.31256
# Poissons Ratio (z) = 0.36475 0.26414
#
# Static dielectric constant tensor:
#      x y z
#    x 1.942100 -0.010890 0.004770 
#    y -0.010890 2.019800 0.010930 
#    z 0.004770 0.010930 2.148430 
# 
# From -- ./inp_files/77632.got.cif
#   From: 2010.05.17/outbox.cif.g08.bks.cpg/sg2_39_cif.got.tgz:77632.got - 2010.06.03 11:33:40.
