data_PCOD9051379
_publ_section_title
;
Structure prediction by ZEFSAII (Michael W. Deem and Ramdas Pophale) SiO2 
 PCOD9051379
Probable space group: P -1
;
_chemical_formula_sum "Si O2"
_cell_formula_units_Z 16
_cell_length_a 7.993175
_cell_length_b 22.122140
_cell_length_c 5.141253
_cell_angle_alpha 92.393508
_cell_angle_beta 88.080869
_cell_angle_gamma 43.705545
_cell_volume 624.926561
_symmetry_space_group_name_H-M "P -1"
_symmetry_group_IT_number 2
_symmetry_cell_setting 'triclinic'
loop_
_space_group_symop_operation_xyz
x,y,z
-x,-y,-z
loop_
_atom_site_type_symbol
_atom_site_label
_atom_site_fract_x
_atom_site_fract_y
_atom_site_fract_z
Si Si1 0.272304 0.344879 0.896773
Si Si2 0.232359 0.998162 0.026769
Si Si3 0.782337 0.406261 0.984252
Si Si4 0.961775 0.162580 0.382008
Si Si5 0.348949 0.845294 0.247772
Si Si6 0.722061 0.584463 0.587560
Si Si7 0.537250 0.908388 0.480874
Si Si8 0.261839 0.651830 0.528374
O O1 0.459587 0.242793 0.946675
O O2 0.343882 0.346325 0.604706
O O3 0.990285 0.400531 0.917213
O O4 0.308405 0.388463 0.109287
O O5 0.551732 0.042505 0.782741
O O6 0.198182 0.937472 0.122304
O O7 0.339627 0.970737 0.728888
O O8 0.033990 0.100970 0.124898
O O9 0.814036 0.345083 0.756507
O O10 0.500000 0.500000 0.000000
O O11 0.843434 0.365896 0.259421
O O12 0.828890 0.151940 0.585372
O O13 0.800135 0.264148 0.360917
O O14 0.206892 0.130159 0.469435
O O15 0.523731 0.839638 0.426315
O O16 0.553680 0.572188 0.522719
O O17 0.000000 0.500000 0.500000
#
# Coordination Sequence:
#
# PCOD9051379 Si02
#       8
#     2   2   2   2   2   2   2   2
#     4  12  25  45  73  99 145 182 232 301 351 434
#     4  10  25  47  71 101 147 195 237 297 357 424
#     4  12  26  49  74 105 140 187 236 297 368 437
#     4  12  24  48  71 108 147 187 244 300 353 429
#     4  10  26  45  70 105 143 189 241 284 364 413
#     4  12  25  47  70 103 140 183 230 293 363 432
#     4  10  25  46  69 102 142 191 245 290 359 420
#     4  12  27  43  73 110 137 184 242 290 361 433
#
# _framework density 25.603007999999999
#
# number of rings (size 3 to 8) (size 9 to 14) (size 15 to 20)
#    0.750    0.000    1.250    5.625    3.500    1.500 
#    2.250    0.000    0.000    0.000    0.000    0.000 
#    0.000    0.000    0.000    0.000    0.000    0.000 
#
# Total GULP energy -89597.249215 kJ/mol
# GULP energy per Si atom -5599.828076 kJ/mol
# Density = 2.554473 g / cm^3
# Si number density = 25.603008 Si / 1000 Ang^3
#
#
#
# Elastic Constant Matrix: (Units=GPa)
#
#
# Indices 1 2 3 4 5 6 
#
# 1 127.1744 6.2333 12.7145 2.0616 -2.0631 -2.4048
# 2 6.2333 91.9401 20.9150 12.8779 -1.7607 3.9335
# 3 12.7145 20.9150 67.7974 17.4466 19.1506 -3.3375
# 4 2.0616 12.8779 17.4466 31.7273 5.1009 3.9763
# 5 -2.0631 -1.7607 19.1506 5.1009 29.9196 1.6612
# 6 -2.4048 3.9335 -3.3375 3.9763 1.6612 37.7430
#
#
#
# Elastic Compliance Matrix: (Units=1/GPa)
#
#
# Indices 1 2 3 4 5 6 
#
# 1 0.008104 -0.000099 -0.002076 0.000335 0.001812 0.000228
# 2 -0.000099 0.012431 -0.004216 -0.003182 0.004050 -0.001518
# 3 -0.002076 -0.004216 0.022803 -0.008980 -0.013671 0.003871
# 4 0.000335 -0.003182 -0.008980 0.038400 -0.000715 -0.004455
# 5 0.001812 0.004050 -0.013671 -0.000715 0.042843 -0.003326
# 6 0.000228 -0.001518 0.003871 -0.004455 -0.003326 0.027626
#
#
# Mechanical properties :
#
#
# Convention : Reuss Voigt Hill
#
# Bulk Modulus (GPa) = 32.72840 40.73751 36.73296
# Shear Modulus (GPa) = 28.54314 36.34790 32.44552
#
# Velocity S-wave (km/s) = 3.34254 3.77194 3.56371
# Velocity P-wave (km/s) = 5.26379 5.90896 5.59568
#
# Compressibility (1/GPa) = 0.03055450
#
# Stress axis : x y z
#
# Youngs Moduli (GPa) = 123.39723 80.44660 43.85425
#
# Poissons Ratio (x) = 0.00798 0.09105
# Poissons Ratio (y) = 0.01224 0.18490
# Poissons Ratio (z) = 0.25619 0.33917
#
# Static dielectric constant tensor:
#      x y z
#    x 2.024940 0.007710 0.022410 
#    y 0.007710 2.117600 -0.042800 
#    z 0.022410 -0.042800 1.974610 
# 
# From -- ./inp_files/56514.got.cif
#   From: 2010.05.17/outbox.cif.g08.bks.cpg/sg2_29_cif.got.tgz:56514.got - 2010.06.03 11:33:40.
