data_PCOD9051182
_publ_section_title
;
Structure prediction by ZEFSAII (Michael W. Deem and Ramdas Pophale) SiO2 
 PCOD9051182
Probable space group: P -1
;
_chemical_formula_sum "Si O2"
_cell_formula_units_Z 12
_cell_length_a 5.052523
_cell_length_b 11.284537
_cell_length_c 9.532019
_cell_angle_alpha 59.742657
_cell_angle_beta 83.092493
_cell_angle_gamma 96.590221
_cell_volume 456.177902
_symmetry_space_group_name_H-M "P -1"
_symmetry_group_IT_number 2
_symmetry_cell_setting 'triclinic'
loop_
_space_group_symop_operation_xyz
x,y,z
-x,-y,-z
loop_
_atom_site_type_symbol
_atom_site_label
_atom_site_fract_x
_atom_site_fract_y
_atom_site_fract_z
Si Si1 0.338207 0.282107 0.738267
Si Si2 0.494311 0.408301 0.916854
Si Si3 0.868787 0.590303 0.568203
Si Si4 0.828502 0.114856 0.499492
Si Si5 0.581120 0.127222 0.211147
Si Si6 0.767232 0.124108 0.919135
O O1 0.284618 0.379192 0.815790
O O2 0.361264 0.358375 0.543214
O O3 0.619368 0.241142 0.790868
O O4 0.073455 0.154805 0.822611
O O5 0.753781 0.495544 0.763920
O O6 0.500000 0.500000 0.000000
O O7 0.462290 0.253691 0.079316
O O8 0.000000 0.500000 0.500000
O O9 0.028498 0.739234 0.529493
O O10 0.676641 0.153789 0.347664
O O11 0.623372 0.022627 0.677791
O O12 0.000000 0.000000 0.500000
O O13 0.815655 0.127855 0.082210
O O14 0.500000 0.000000 0.000000
#
# Coordination Sequence:
#
# PCOD9051182 Si02
#       6
#     2   2   2   2   2   2
#     4  11  26  47  73 114 158 208 264 334 408 485
#     4  11  26  48  78 113 158 213 274 331 404 491
#     4  12  27  49  79 118 163 213 267 337 415 488
#     4  11  26  47  77 109 157 208 272 333 408 483
#     4  10  25  45  71 111 147 207 266 334 396 479
#     4  11  24  44  78 108 155 204 270 330 406 482
#
# _framework density 26.305524999999999
#
# number of rings (size 3 to 8) (size 9 to 14) (size 15 to 20)
#    0.000    1.000    0.000    5.000   11.667    0.667 
#    3.000    0.000    0.000    0.000    0.000    0.000 
#    0.000    0.000    0.000    0.000    0.000    0.000 
#
# Total GULP energy -66953.272655 kJ/mol
# GULP energy per Si atom -5579.439388 kJ/mol
# Density = 2.624565 g / cm^3
# Si number density = 26.305525 Si / 1000 Ang^3
#
#
#
# Elastic Constant Matrix: (Units=GPa)
#
#
# Indices 1 2 3 4 5 6 
#
# 1 95.7155 46.3224 62.6097 -4.4383 1.4561 8.6672
# 2 46.3224 199.9573 58.7972 -13.9638 -3.7621 32.8935
# 3 62.6097 58.7972 199.5293 -3.6673 -0.4313 6.8776
# 4 -4.4383 -13.9638 -3.6673 46.6653 7.9590 -11.0270
# 5 1.4561 -3.7621 -0.4313 7.9590 42.5777 1.7166
# 6 8.6672 32.8935 6.8776 -11.0270 1.7166 38.9391
#
#
#
# Elastic Compliance Matrix: (Units=1/GPa)
#
#
# Indices 1 2 3 4 5 6 
#
# 1 0.013969 -0.002018 -0.003762 0.000418 -0.000748 -0.000589
# 2 -0.002018 0.006654 -0.001150 0.000425 0.000763 -0.004882
# 3 -0.003762 -0.001150 0.006508 -0.000052 0.000077 0.000641
# 4 0.000418 0.000425 -0.000052 0.023943 -0.004717 0.006545
# 5 -0.000748 0.000763 0.000077 -0.004717 0.024579 -0.002911
# 6 -0.000589 -0.004882 0.000641 0.006545 -0.002911 0.031805
#
#
# Mechanical properties :
#
#
# Convention : Reuss Voigt Hill
#
# Bulk Modulus (GPa) = 75.35093 92.29563 83.82328
# Shear Modulus (GPa) = 39.76383 47.46794 43.61588
#
# Velocity S-wave (km/s) = 3.89217 4.25253 4.07633
# Velocity P-wave (km/s) = 6.99323 7.69898 7.35458
#
# Compressibility (1/GPa) = 0.01327124
#
# Stress axis : x y z
#
# Youngs Moduli (GPa) = 71.58518 150.29202 153.64910
#
# Poissons Ratio (x) = 0.30327 0.57809
# Poissons Ratio (y) = 0.14445 0.17667
# Poissons Ratio (z) = 0.26933 0.17281
#
# Static dielectric constant tensor:
#      x y z
#    x 2.151800 -0.079590 -0.039870 
#    y -0.079590 2.253880 -0.004960 
#    z -0.039870 -0.004960 2.045170 
# 
# From -- ./inp_files/131309.got.cif
#   From: 2010.05.17/outbox.cif.g08.bks.cpg/sg2_66_cif.got.tgz:131309.got - 2010.06.03 11:33:40.
