data_PCOD9051948
_publ_section_title
;
Structure prediction by ZEFSAII (Michael W. Deem and Ramdas Pophale) SiO2 
 PCOD9051948
Probable space group: P -1
;
_chemical_formula_sum "Si O2"
_cell_formula_units_Z 13
_cell_length_a 9.080540
_cell_length_b 7.891671
_cell_length_c 11.485281
_cell_angle_alpha 130.879102
_cell_angle_beta 128.668858
_cell_angle_gamma 49.599844
_cell_volume 444.197338
_symmetry_space_group_name_H-M "P -1"
_symmetry_group_IT_number 2
_symmetry_cell_setting 'triclinic'
loop_
_space_group_symop_operation_xyz
x,y,z
-x,-y,-z
loop_
_atom_site_type_symbol
_atom_site_label
_atom_site_fract_x
_atom_site_fract_y
_atom_site_fract_z
Si Si1 0.901986 0.522430 0.098376
Si Si2 0.194830 0.984528 0.012594
Si Si3 0.511245 0.263113 0.139187
Si Si4 0.889282 0.100460 0.644948
Si Si5 0.663303 0.945710 0.658869
Si Si6 0.500000 0.500000 0.500000
Si Si7 0.034414 0.562426 0.415380
O O1 0.102343 0.271655 0.058845
O O2 0.882006 0.528275 0.231014
O O3 0.973228 0.743674 0.212622
O O4 0.695611 0.550511 0.943925
O O5 0.370617 0.932856 0.176691
O O6 0.287896 0.793022 0.868589
O O7 0.000000 0.000000 0.000000
O O8 0.525055 0.343657 0.312769
O O9 0.500000 0.000000 0.000000
O O10 0.684816 0.263779 0.547334
O O11 0.828132 0.022015 0.705296
O O12 0.002815 0.838785 0.522899
O O13 0.741777 0.653164 0.600006
O O14 0.500000 0.000000 0.500000
O O15 0.000000 0.500000 0.500000
#
# Coordination Sequence:
#
# PCOD9051948 Si02
#       7
#     2   2   2   2   2   1   2
#     4  11  26  51  83 126 176 233 306 374 454 550
#     4  11  29  57  84 124 179 237 298 378 464 544
#     4  12  30  55  91 128 183 236 308 380 455 546
#     4  11  25  49  82 123 179 232 297 374 451 544
#     4  10  25  48  83 123 177 228 299 367 449 553
#     4  12  30  52  86 136 176 242 312 372 454 544
#     4   9  21  44  76 121 175 226 286 366 448 528
#
# _framework density 29.266273999999999
#
# number of rings (size 3 to 8) (size 9 to 14) (size 15 to 20)
#    0.000    1.231    0.000    2.308   15.077    1.846 
#    8.308    2.308    0.000    0.000    0.000    0.000 
#    0.000    0.000    0.000    0.000    0.000    0.000 
#
# Total GULP energy -72692.073008 kJ/mol
# GULP energy per Si atom -5591.697924 kJ/mol
# Density = 2.919966 g / cm^3
# Si number density = 29.266274 Si / 1000 Ang^3
#
#
#
# Elastic Constant Matrix: (Units=GPa)
#
#
# Indices 1 2 3 4 5 6 
#
# 1 133.7400 56.3016 78.8519 11.2539 -22.6620 -9.3539
# 2 56.3016 221.4039 84.5757 1.3920 -10.0069 -0.6455
# 3 78.8519 84.5757 288.0987 -32.1785 -55.4129 -17.5722
# 4 11.2539 1.3920 -32.1785 66.3131 -3.9224 6.9283
# 5 -22.6620 -10.0069 -55.4129 -3.9224 64.8086 4.4409
# 6 -9.3539 -0.6455 -17.5722 6.9283 4.4409 58.2168
#
#
#
# Elastic Compliance Matrix: (Units=1/GPa)
#
#
# Indices 1 2 3 4 5 6 
#
# 1 0.010011 -0.001590 -0.002327 -0.002855 0.001014 0.001151
# 2 -0.001590 0.005426 -0.001429 -0.000542 -0.000939 -0.000490
# 3 -0.002327 -0.001429 0.005714 0.003369 0.004012 0.000628
# 4 -0.002855 -0.000542 0.003369 0.017572 0.002983 -0.001767
# 5 0.001014 -0.000939 0.004012 0.002983 0.019282 -0.000462
# 6 0.001151 -0.000490 0.000628 -0.001767 -0.000462 0.017792
#
#
# Mechanical properties :
#
#
# Convention : Reuss Voigt Hill
#
# Bulk Modulus (GPa) = 95.60488 120.30011 107.95250
# Shear Modulus (GPa) = 55.57164 66.10194 60.83679
#
# Velocity S-wave (km/s) = 4.36228 4.75767 4.56426
# Velocity P-wave (km/s) = 7.62305 8.44838 8.04630
#
# Compressibility (1/GPa) = 0.01045972
#
# Stress axis : x y z
#
# Youngs Moduli (GPa) = 99.89115 184.28934 175.01987
#
# Poissons Ratio (x) = 0.29296 0.40726
# Poissons Ratio (y) = 0.15880 0.25008
# Poissons Ratio (z) = 0.23244 0.26333
#
# Static dielectric constant tensor:
#      x y z
#    x 2.174010 0.082320 -0.015020 
#    y 0.082320 2.290490 -0.008850 
#    z -0.015020 -0.008850 2.267090 
# 
# From -- ./inp_files/162046.got.cif
#   From: 2010.05.17/outbox.cif.g08.bks.cpg/sg2_82_cif.got.tgz:162046.got - 2010.06.03 11:33:40.
