data_PCOD9051519
_publ_section_title
;
Structure prediction by ZEFSAII (Michael W. Deem and Ramdas Pophale) SiO2 
 PCOD9051519
Probable space group: P -1
;
_chemical_formula_sum "Si O2"
_cell_formula_units_Z 10
_cell_length_a 5.078882
_cell_length_b 11.292084
_cell_length_c 9.081679
_cell_angle_alpha 109.073808
_cell_angle_beta 92.591813
_cell_angle_gamma 51.639030
_cell_volume 377.153057
_symmetry_space_group_name_H-M "P -1"
_symmetry_group_IT_number 2
_symmetry_cell_setting 'triclinic'
loop_
_space_group_symop_operation_xyz
x,y,z
-x,-y,-z
loop_
_atom_site_type_symbol
_atom_site_label
_atom_site_fract_x
_atom_site_fract_y
_atom_site_fract_z
Si Si1 0.768933 0.905101 0.801535
Si Si2 0.358156 0.927219 0.559464
Si Si3 0.662079 0.751593 0.985831
Si Si4 0.762101 0.446664 0.851544
Si Si5 0.645737 0.333123 0.514166
O O1 0.414227 0.961508 0.740381
O O2 0.842034 0.793468 0.895799
O O3 0.058605 0.802537 0.645305
O O4 0.689869 0.071195 0.912140
O O5 0.565423 0.731231 0.489599
O O6 0.500000 0.000000 0.500000
O O7 0.000000 0.000000 0.500000
O O8 0.665314 0.614024 0.857695
O O9 0.867631 0.668138 0.108361
O O10 0.748106 0.348973 0.684750
O O11 0.500000 0.500000 0.000000
O O12 0.500000 0.500000 0.500000
#
# Coordination Sequence:
#
# PCOD9051519 Si02
#       5
#     2   2   2   2   2
#     4  11  25  48  75 110 152 199 265 310 392 456
#     4  12  26  47  77 116 152 200 257 324 384 462
#     4  10  25  46  73 107 151 202 247 324 381 468
#     4  11  25  44  71 108 153 197 254 315 394 454
#     4  12  27  47  79 114 155 205 261 326 384 466
#
# _framework density 26.514436
#
# number of rings (size 3 to 8) (size 9 to 14) (size 15 to 20)
#    0.000    0.800    2.000    3.600    2.800    6.400 
#    0.000    5.000    0.000    0.000    0.000    0.000 
#    0.000    0.000    0.000    0.000    0.000    0.000 
#
# Total GULP energy -55996.747560 kJ/mol
# GULP energy per Si atom -5599.674756 kJ/mol
# Density = 2.645409 g / cm^3
# Si number density = 26.514436 Si / 1000 Ang^3
#
#
#
# Elastic Constant Matrix: (Units=GPa)
#
#
# Indices 1 2 3 4 5 6 
#
# 1 104.8284 49.0255 31.1011 8.5468 7.0297 22.4883
# 2 49.0255 169.9696 41.6534 18.9838 1.2950 47.3693
# 3 31.1011 41.6534 153.7284 18.3442 -6.1087 16.4913
# 4 8.5468 18.9838 18.3442 58.1084 -1.5901 15.2054
# 5 7.0297 1.2950 -6.1087 -1.5901 49.5410 1.2097
# 6 22.4883 47.3693 16.4913 15.2054 1.2097 50.9554
#
#
#
# Elastic Compliance Matrix: (Units=1/GPa)
#
#
# Indices 1 2 3 4 5 6 
#
# 1 0.011725 -0.002294 -0.001563 0.000134 -0.001730 -0.002535
# 2 -0.002294 0.008706 -0.001133 -0.000422 0.000106 -0.006591
# 3 -0.001563 -0.001133 0.007389 -0.001655 0.001114 -0.000181
# 4 0.000134 -0.000422 -0.001655 0.019134 0.000521 -0.004854
# 5 -0.001730 0.000106 0.001114 0.000521 0.020590 -0.000339
# 6 -0.002535 -0.006591 -0.000181 -0.004854 -0.000339 0.028386
#
#
# Mechanical properties :
#
#
# Convention : Reuss Voigt Hill
#
# Bulk Modulus (GPa) = 56.05750 74.67628 65.36689
# Shear Modulus (GPa) = 44.69946 52.17073 48.43509
#
# Velocity S-wave (km/s) = 4.11037 4.44062 4.27868
# Velocity P-wave (km/s) = 6.61173 7.38360 7.00830
#
# Compressibility (1/GPa) = 0.01783883
#
# Stress axis : x y z
#
# Youngs Moduli (GPa) = 85.28752 114.86476 135.32821
#
# Poissons Ratio (x) = 0.26352 0.21157
# Poissons Ratio (y) = 0.19566 0.15336
# Poissons Ratio (z) = 0.13334 0.13017
#
# Static dielectric constant tensor:
#      x y z
#    x 2.229330 -0.036590 -0.006290 
#    y -0.036590 2.131030 0.015810 
#    z -0.006290 0.015810 2.010240 
# 
# From -- ./inp_files/90479.got.cif
#   From: 2010.05.17/outbox.cif.g08.bks.cpg/sg2_46_cif.got.tgz:90479.got - 2010.06.03 11:33:40.
