data_PCOD9051432
_publ_section_title
;
Structure prediction by ZEFSAII (Michael W. Deem and Ramdas Pophale) SiO2 
 PCOD9051432
Probable space group: P -1
;
_chemical_formula_sum "Si O2"
_cell_formula_units_Z 12
_cell_length_a 9.069964
_cell_length_b 7.454706
_cell_length_c 14.346973
_cell_angle_alpha 137.570447
_cell_angle_beta 132.510760
_cell_angle_gamma 50.586267
_cell_volume 464.018791
_symmetry_space_group_name_H-M "P -1"
_symmetry_group_IT_number 2
_symmetry_cell_setting 'triclinic'
loop_
_space_group_symop_operation_xyz
x,y,z
-x,-y,-z
loop_
_atom_site_type_symbol
_atom_site_label
_atom_site_fract_x
_atom_site_fract_y
_atom_site_fract_z
Si Si1 0.666082 0.719186 0.491261
Si Si2 0.913700 0.851187 0.277312
Si Si3 0.350161 0.425454 0.259503
Si Si4 0.751653 0.106541 0.940159
Si Si5 0.051313 0.391773 0.601350
Si Si6 0.429280 0.348928 0.045792
O O1 0.530896 0.548278 0.419834
O O2 0.873392 0.680681 0.626590
O O3 0.765719 0.607767 0.391067
O O4 0.500000 0.000000 0.500000
O O5 0.724269 0.830759 0.124411
O O6 0.130577 0.657291 0.257237
O O7 0.878349 0.707235 0.303980
O O8 0.948176 0.149842 0.427357
O O9 0.333959 0.160307 0.207122
O O10 0.407882 0.358115 0.150499
O O11 0.651923 0.232589 0.045530
O O12 0.666084 0.343482 0.918739
O O13 0.000000 0.000000 0.000000
#
# Coordination Sequence:
#
# PCOD9051432 Si02
#       6
#     2   2   2   2   2   2
#     4  11  24  47  70 103 136 188 237 291 353 414
#     4  11  23  47  71 104 141 187 235 288 356 418
#     4  12  25  45  73 105 141 185 234 289 356 420
#     4  11  25  44  68 104 139 190 228 284 353 415
#     4  10  25  46  71 100 142 184 238 294 344 418
#     4  11  26  47  70 105 147 180 231 294 354 423
#
# _framework density 25.861021000000001
#
# number of rings (size 3 to 8) (size 9 to 14) (size 15 to 20)
#    0.000    1.000    3.333    2.000    4.667    2.000 
#    3.000    0.000    0.000    0.000    0.000    0.000 
#    0.000    0.000    0.000    0.000    0.000    0.000 
#
# Total GULP energy -67282.925957 kJ/mol
# GULP energy per Si atom -5606.910496 kJ/mol
# Density = 2.580216 g / cm^3
# Si number density = 25.861021 Si / 1000 Ang^3
#
#
#
# Elastic Constant Matrix: (Units=GPa)
#
#
# Indices 1 2 3 4 5 6 
#
# 1 157.9226 52.8340 20.7311 0.6259 8.1930 -16.7207
# 2 52.8340 153.0471 5.0000 25.6028 0.7133 -24.0480
# 3 20.7311 5.0000 54.1267 5.5332 10.7952 -1.8797
# 4 0.6259 25.6028 5.5332 24.3996 9.8882 5.1919
# 5 8.1930 0.7133 10.7952 9.8882 50.9898 -3.1960
# 6 -16.7207 -24.0480 -1.8797 5.1919 -3.1960 61.1661
#
#
#
# Elastic Compliance Matrix: (Units=1/GPa)
#
#
# Indices 1 2 3 4 5 6 
#
# 1 0.007916 -0.003331 -0.002879 0.004473 -0.001464 0.000310
# 2 -0.003331 0.010622 0.001234 -0.013555 0.003043 0.004613
# 3 -0.002879 0.001234 0.020562 -0.004818 -0.002937 0.000586
# 4 0.004473 -0.013555 -0.004818 0.063421 -0.012453 -0.010288
# 5 -0.001464 0.003043 -0.002937 -0.012453 0.023027 0.002966
# 6 0.000310 0.004613 0.000586 -0.010288 0.002966 0.019293
#
#
# Mechanical properties :
#
#
# Convention : Reuss Voigt Hill
#
# Bulk Modulus (GPa) = 34.30847 58.02515 46.16681
# Shear Modulus (GPa) = 30.39337 46.41319 38.40328
#
# Velocity S-wave (km/s) = 3.43192 4.24100 3.85773
# Velocity P-wave (km/s) = 5.38511 6.81671 6.14276
#
# Compressibility (1/GPa) = 0.02914732
#
# Stress axis : x y z
#
# Youngs Moduli (GPa) = 126.33305 94.14606 48.63254
#
# Poissons Ratio (x) = 0.31363 0.13999
# Poissons Ratio (y) = 0.42085 -0.05999
# Poissons Ratio (z) = 0.36366 -0.11614
#
# Static dielectric constant tensor:
#      x y z
#    x 1.946200 -0.016660 -0.014770 
#    y -0.016660 2.011420 0.059150 
#    z -0.014770 0.059150 2.128440 
# 
# From -- ./inp_files/555750.got.cif
#   From: 2010.05.17/outbox.cif.g08.bks.cpg/sg2_278_cif.got.tgz:555750.got - 2010.06.03 11:33:40.
