data_PCOD9051249
_publ_section_title
;
Structure prediction by ZEFSAII (Michael W. Deem and Ramdas Pophale) SiO2 
 PCOD9051249
Probable space group: P -1
;
_chemical_formula_sum "Si O2"
_cell_formula_units_Z 16
_cell_length_a 18.421648
_cell_length_b 10.430468
_cell_length_c 5.109989
_cell_angle_alpha 88.117221
_cell_angle_beta 103.879875
_cell_angle_gamma 138.036455
_cell_volume 621.140752
_symmetry_space_group_name_H-M "P -1"
_symmetry_group_IT_number 2
_symmetry_cell_setting 'triclinic'
loop_
_space_group_symop_operation_xyz
x,y,z
-x,-y,-z
loop_
_atom_site_type_symbol
_atom_site_label
_atom_site_fract_x
_atom_site_fract_y
_atom_site_fract_z
Si Si1 0.712429 0.303133 0.517404
Si Si2 0.681796 0.693930 0.010534
Si Si3 0.995655 0.139866 0.891634
Si Si4 0.489094 0.632377 0.727566
Si Si5 0.245187 0.486761 0.944239
Si Si6 0.589343 0.892335 0.315110
Si Si7 0.971579 0.570320 0.749046
Si Si8 0.173094 0.933850 0.592884
O O1 0.702224 0.403855 0.293202
O O2 0.837077 0.398215 0.574301
O O3 0.615712 0.074422 0.380900
O O4 0.716629 0.363190 0.810566
O O5 0.627495 0.581181 0.252270
O O6 0.726346 0.620205 0.938256
O O7 0.778156 0.924650 0.126980
O O8 0.578227 0.629740 0.783044
O O9 0.108290 0.309535 0.801074
O O10 0.883917 0.034670 0.643547
O O11 0.012611 0.267598 0.121157
O O12 0.000000 0.000000 0.000000
O O13 0.503142 0.730698 0.472011
O O14 0.538808 0.784949 0.999131
O O15 0.714471 0.986545 0.435589
O O16 0.070974 0.703844 0.604263
O O17 0.000000 0.500000 0.000000
#
# Coordination Sequence:
#
# PCOD9051249 Si02
#       8
#     2   2   2   2   2   2   2   2
#     4  11  25  44  66 100 142 182 226 280 338 419
#     4  10  25  45  73  98 139 175 236 284 362 401
#     4  11  25  40  63 101 147 186 229 283 340 430
#     4  10  25  48  70 106 127 178 232 308 334 412
#     4  11  25  43  67  99 141 185 219 281 346 419
#     4  11  25  44  74  98 139 176 240 285 351 397
#     4  11  25  41  64 101 144 188 235 280 340 422
#     4  11  25  41  72 102 138 188 229 287 347 422
#
# _framework density 25.759056999999999
#
# number of rings (size 3 to 8) (size 9 to 14) (size 15 to 20)
#    0.000    1.250    1.250    2.250   15.750    8.500 
#    0.000    3.750    0.000    0.000    0.000    0.000 
#    0.000    0.000    0.000    0.000    0.000    0.000 
#
# Total GULP energy -89701.341094 kJ/mol
# GULP energy per Si atom -5606.333818 kJ/mol
# Density = 2.570043 g / cm^3
# Si number density = 25.759057 Si / 1000 Ang^3
#
#
#
# Elastic Constant Matrix: (Units=GPa)
#
#
# Indices 1 2 3 4 5 6 
#
# 1 73.1618 0.4103 6.4335 6.9910 12.7055 2.0588
# 2 0.4103 120.5100 11.4930 5.6000 4.9717 5.0251
# 3 6.4335 11.4930 87.7890 -1.4838 6.6758 1.2800
# 4 6.9910 5.6000 -1.4838 40.9803 1.7340 -2.3167
# 5 12.7055 4.9717 6.6758 1.7340 29.8259 1.8948
# 6 2.0588 5.0251 1.2800 -2.3167 1.8948 50.4831
#
#
#
# Elastic Compliance Matrix: (Units=1/GPa)
#
#
# Indices 1 2 3 4 5 6 
#
# 1 0.015041 0.000405 -0.000722 -0.002417 -0.006140 -0.000516
# 2 0.000405 0.008543 -0.001064 -0.001271 -0.001230 -0.000852
# 3 -0.000722 -0.001064 0.011764 0.000785 -0.002191 -0.000045
# 4 -0.002417 -0.001271 0.000785 0.025115 -0.000482 0.001376
# 5 -0.006140 -0.001230 -0.002191 -0.000482 0.036929 -0.000980
# 6 -0.000516 -0.000852 -0.000045 0.001376 -0.000980 0.020016
#
#
# Mechanical properties :
#
#
# Convention : Reuss Voigt Hill
#
# Bulk Modulus (GPa) = 30.68686 35.34825 33.01756
# Shear Modulus (GPa) = 38.15886 41.79946 39.97916
#
# Velocity S-wave (km/s) = 3.85304 4.03266 3.94387
# Velocity P-wave (km/s) = 5.63325 5.95278 5.79521
#
# Compressibility (1/GPa) = 0.03258724
#
# Stress axis : x y z
#
# Youngs Moduli (GPa) = 66.48373 117.04815 85.00789
#
# Poissons Ratio (x) = -0.04737 0.06135
# Poissons Ratio (y) = -0.02691 0.09042
# Poissons Ratio (z) = 0.04798 0.12450
#
# Static dielectric constant tensor:
#      x y z
#    x 2.099390 -0.024320 -0.060860 
#    y -0.024320 2.019250 0.043470 
#    z -0.060860 0.043470 2.030410 
# 
# From -- ./inp_files/106996.got.cif
#   From: 2010.05.17/outbox.cif.g08.bks.cpg/sg2_54_cif.got.tgz:106996.got - 2010.06.03 11:33:40.
