data_PCOD9051464
_publ_section_title
;
Structure prediction by ZEFSAII (Michael W. Deem and Ramdas Pophale) SiO2 
 PCOD9051464
Probable space group: P -1
;
_chemical_formula_sum "Si O2"
_cell_formula_units_Z 16
_cell_length_a 17.655595
_cell_length_b 7.889263
_cell_length_c 13.897581
_cell_angle_alpha 113.244591
_cell_angle_beta 27.212668
_cell_angle_gamma 97.731324
_cell_volume 697.147711
_symmetry_space_group_name_H-M "P -1"
_symmetry_group_IT_number 2
_symmetry_cell_setting 'triclinic'
loop_
_space_group_symop_operation_xyz
x,y,z
-x,-y,-z
loop_
_atom_site_type_symbol
_atom_site_label
_atom_site_fract_x
_atom_site_fract_y
_atom_site_fract_z
Si Si1 0.813284 0.936429 0.620298
Si Si2 0.114139 0.744290 0.817612
Si Si3 0.689203 0.265768 0.232233
Si Si4 0.938645 0.511280 0.461599
Si Si5 0.531073 0.633908 0.235993
Si Si6 0.795018 0.800131 0.054904
Si Si7 0.515550 0.708191 0.049468
Si Si8 0.790392 0.143660 0.870795
O O1 0.944063 0.679925 0.419421
O O2 0.976980 0.995247 0.427296
O O3 0.647059 0.068341 0.762458
O O4 0.732312 0.010130 0.836640
O O5 0.159722 0.697661 0.868744
O O6 0.325072 0.664681 0.511292
O O7 0.960702 0.696623 0.928189
O O8 0.000000 0.000000 0.000000
O O9 0.500000 0.500000 0.500000
O O10 0.733635 0.196378 0.056458
O O11 0.690501 0.060042 0.232538
O O12 0.000000 0.500000 0.500000
O O13 0.071635 0.283134 0.210779
O O14 0.712117 0.622705 0.750954
O O15 0.514098 0.733718 0.171904
O O16 0.639226 0.724291 0.201629
O O17 0.678991 0.379224 0.000705
O O18 0.500000 0.500000 0.000000
#
# Coordination Sequence:
#
# PCOD9051464 Si02
#       8
#     2   2   2   2   2   2   2   2
#     4  11  25  42  68 104 147 182 233 290 353 432
#     4  10  25  46  71  98 136 183 236 292 359 413
#     4  11  24  45  72 101 137 185 235 297 358 418
#     4  12  23  44  67 104 143 184 235 283 358 427
#     4  12  23  47  70 103 140 185 235 293 350 421
#     4  11  25  45  74 101 140 186 234 295 353 425
#     4  12  25  40  67 104 143 190 233 284 351 427
#     4  11  23  43  70 101 140 185 233 288 359 420
#
# _framework density 22.950661
#
# number of rings (size 3 to 8) (size 9 to 14) (size 15 to 20)
#    0.000    0.750    5.000    1.875    7.000    2.000 
#    2.250    0.625    0.000    0.000    0.000    0.000 
#    0.000    0.000    0.000    0.000    0.000    0.000 
#
# Total GULP energy -89160.098751 kJ/mol
# GULP energy per Si atom -5572.506172 kJ/mol
# Density = 2.289842 g / cm^3
# Si number density = 22.950661 Si / 1000 Ang^3
#
#
#
# Elastic Constant Matrix: (Units=GPa)
#
#
# Indices 1 2 3 4 5 6 
#
# 1 139.0910 25.2024 29.3966 13.0864 -7.8098 -1.5940
# 2 25.2024 51.2394 24.3945 13.4353 -10.0172 11.0306
# 3 29.3966 24.3945 130.3227 17.3558 -12.1500 -1.0192
# 4 13.0864 13.4353 17.3558 34.8890 0.1794 -2.1335
# 5 -7.8098 -10.0172 -12.1500 0.1794 46.2136 3.1688
# 6 -1.5940 11.0306 -1.0192 -2.1335 3.1688 36.6791
#
#
#
# Elastic Compliance Matrix: (Units=1/GPa)
#
#
# Indices 1 2 3 4 5 6 
#
# 1 0.008167 -0.003454 -0.001005 -0.001157 0.000284 0.001274
# 2 -0.003454 0.027987 -0.002875 -0.008668 0.005420 -0.009619
# 3 -0.001005 -0.002875 0.008978 -0.002943 0.001526 0.000767
# 4 -0.001157 -0.008668 -0.002943 0.034206 -0.003307 0.004750
# 5 0.000284 0.005420 0.001526 -0.003307 0.023536 -0.003801
# 6 0.001274 -0.009619 0.000767 0.004750 -0.003801 0.030838
#
#
# Mechanical properties :
#
#
# Convention : Reuss Voigt Hill
#
# Bulk Modulus (GPa) = 32.82556 53.18224 43.00390
# Shear Modulus (GPa) = 31.53872 39.66699 35.60285
#
# Velocity S-wave (km/s) = 3.71104 4.16186 3.94290
# Velocity P-wave (km/s) = 5.71805 6.80570 6.28545
#
# Compressibility (1/GPa) = 0.03046407
#
# Stress axis : x y z
#
# Youngs Moduli (GPa) = 122.44092 35.73090 111.37785
#
# Poissons Ratio (x) = 0.12341 0.11196
# Poissons Ratio (y) = 0.42288 0.32024
# Poissons Ratio (z) = 0.12308 0.10274
#
# Static dielectric constant tensor:
#      x y z
#    x 2.203420 -0.291710 0.080960 
#    y -0.291710 2.753790 -0.339150 
#    z 0.080960 -0.339150 1.918750 
# 
# From -- ./inp_files/217712.got.cif
#   From: 2010.05.17/outbox.cif.g08.bks.cpg/sg2_109_cif.got.tgz:217712.got - 2010.06.03 11:33:40.
