data_PCOD9051416
_publ_section_title
;
Structure prediction by ZEFSAII (Michael W. Deem and Ramdas Pophale) SiO2 
 PCOD9051416
Probable space group: P -1
;
_chemical_formula_sum "Si O2"
_cell_formula_units_Z 16
_cell_length_a 12.522790
_cell_length_b 4.945116
_cell_length_c 10.876666
_cell_angle_alpha 95.418791
_cell_angle_beta 76.879903
_cell_angle_gamma 87.840523
_cell_volume 651.826664
_symmetry_space_group_name_H-M "P -1"
_symmetry_group_IT_number 2
_symmetry_cell_setting 'triclinic'
loop_
_space_group_symop_operation_xyz
x,y,z
-x,-y,-z
loop_
_atom_site_type_symbol
_atom_site_label
_atom_site_fract_x
_atom_site_fract_y
_atom_site_fract_z
Si Si1 0.559478 0.754989 0.546395
Si Si2 0.404343 0.000566 0.196137
Si Si3 0.375511 0.287522 0.959570
Si Si4 0.753004 0.199016 0.092505
Si Si5 0.044621 0.888102 0.145797
Si Si6 0.185333 0.269898 0.499773
Si Si7 0.813964 0.252708 0.659877
Si Si8 0.907232 0.445993 0.231918
O O1 0.500000 0.500000 0.500000
O O2 0.550886 0.816417 0.697394
O O3 0.689560 0.739272 0.485726
O O4 0.500000 0.000000 0.500000
O O5 0.499152 0.783935 0.114733
O O6 0.305293 0.838462 0.270684
O O7 0.365255 0.189977 0.099476
O O8 0.326726 0.587656 0.953786
O O9 0.305908 0.078251 0.891279
O O10 0.865593 0.137989 0.985183
O O11 0.792412 0.336162 0.212126
O O12 0.107881 0.784161 0.246475
O O13 0.947711 0.684391 0.144178
O O14 0.995206 0.191785 0.192526
O O15 0.186236 0.448942 0.383543
O O16 0.108372 0.421367 0.625350
O O17 0.152357 0.968418 0.463750
#
# Coordination Sequence:
#
# PCOD9051416 Si02
#       8
#     2   2   2   2   2   2   2   2
#     4  11  25  41  69  97 140 179 218 266 340 406
#     4  10  25  46  70 107 139 178 231 277 340 410
#     4  11  26  43  75 102 136 182 227 287 336 405
#     4  12  26  46  71 101 140 179 230 284 350 399
#     4  12  25  45  74  98 135 185 226 289 353 387
#     4  11  26  44  68 102 138 182 225 282 336 404
#     4  11  24  45  72  98 144 175 232 279 339 411
#     4  12  27  45  70 101 141 175 237 284 333 417
#
# _framework density 24.546403000000002
#
# number of rings (size 3 to 8) (size 9 to 14) (size 15 to 20)
#    0.000    0.750    1.250    5.250    7.000    8.000 
#    0.000    0.000    0.000    0.000    0.000    0.000 
#    0.000    0.000    0.000    0.000    0.000    0.000 
#
# Total GULP energy -89801.243567 kJ/mol
# GULP energy per Si atom -5612.577723 kJ/mol
# Density = 2.449053 g / cm^3
# Si number density = 24.546403 Si / 1000 Ang^3
#
#
#
# Elastic Constant Matrix: (Units=GPa)
#
#
# Indices 1 2 3 4 5 6 
#
# 1 64.6226 11.3744 11.7415 -4.8661 10.4240 0.7011
# 2 11.3744 108.7427 -10.2638 -2.1278 -7.1439 -10.4344
# 3 11.7415 -10.2638 62.1896 9.3633 -9.9055 -10.7166
# 4 -4.8661 -2.1278 9.3633 27.4710 -1.7795 7.0529
# 5 10.4240 -7.1439 -9.9055 -1.7795 38.5710 7.7453
# 6 0.7011 -10.4344 -10.7166 7.0529 7.7453 47.2262
#
#
#
# Elastic Compliance Matrix: (Units=1/GPa)
#
#
# Indices 1 2 3 4 5 6 
#
# 1 0.018617 -0.003059 -0.006215 0.005291 -0.006532 -0.002082
# 2 -0.003059 0.010281 0.003457 -0.001457 0.002983 0.002830
# 3 -0.006215 0.003457 0.021231 -0.009225 0.006133 0.006046
# 4 0.005291 -0.001457 -0.009225 0.042609 -0.000335 -0.008802
# 5 -0.006532 0.002983 0.006133 -0.000335 0.030362 -0.002782
# 6 -0.002082 0.002830 0.006046 -0.008802 -0.002782 0.024973
#
#
# Mechanical properties :
#
#
# Convention : Reuss Voigt Hill
#
# Bulk Modulus (GPa) = 25.97869 29.02879 27.50374
# Shear Modulus (GPa) = 28.97861 37.50047 33.23954
#
# Velocity S-wave (km/s) = 3.43966 3.91287 3.68387
# Velocity P-wave (km/s) = 5.13629 5.68030 5.41513
#
# Compressibility (1/GPa) = 0.03849308
#
# Stress axis : x y z
#
# Youngs Moduli (GPa) = 53.71476 97.26419 47.10029
#
# Poissons Ratio (x) = 0.29756 0.29275
# Poissons Ratio (y) = 0.16433 -0.16281
# Poissons Ratio (z) = 0.33386 -0.33620
#
# Static dielectric constant tensor:
#      x y z
#    x 1.947530 0.011640 0.003900 
#    y 0.011640 1.883860 0.021730 
#    z 0.003900 0.021730 1.955620 
# 
# From -- ./inp_files/409311.got.cif
#   From: 2010.05.17/outbox.cif.g08.bks.cpg/sg2_205_cif.got.tgz:409311.got - 2010.06.03 11:33:40.
