data_PCOD9051625
_publ_section_title
;
Structure prediction by ZEFSAII (Michael W. Deem and Ramdas Pophale) SiO2 
 PCOD9051625
Probable space group: P -1
;
_chemical_formula_sum "Si O2"
_cell_formula_units_Z 14
_cell_length_a 9.994554
_cell_length_b 12.633487
_cell_length_c 15.469921
_cell_angle_alpha 152.262738
_cell_angle_beta 55.601357
_cell_angle_gamma 134.203332
_cell_volume 643.707202
_symmetry_space_group_name_H-M "P -1"
_symmetry_group_IT_number 2
_symmetry_cell_setting 'triclinic'
loop_
_space_group_symop_operation_xyz
x,y,z
-x,-y,-z
loop_
_atom_site_type_symbol
_atom_site_label
_atom_site_fract_x
_atom_site_fract_y
_atom_site_fract_z
Si Si1 0.680137 0.230190 0.151861
Si Si2 0.728877 0.163487 0.531043
Si Si3 0.808485 0.449995 0.079728
Si Si4 0.331673 0.197268 0.858683
Si Si5 0.497071 0.085434 0.287459
Si Si6 0.966873 0.760532 0.897164
Si Si7 0.791763 0.905794 0.471776
O O1 0.791888 0.429851 0.176294
O O2 0.832698 0.162966 0.082295
O O3 0.611641 0.284346 0.309072
O O4 0.500000 0.000000 0.000000
O O5 0.848787 0.472459 0.686837
O O6 0.500000 0.000000 0.500000
O O7 0.759863 0.993916 0.327150
O O8 0.796686 0.139897 0.584025
O O9 0.754693 0.675230 0.250749
O O10 0.654188 0.177419 0.897238
O O11 0.000000 0.500000 0.000000
O O12 0.391548 0.024866 0.774754
O O13 0.500000 0.500000 0.000000
O O14 0.172401 0.249201 0.987532
O O15 0.377363 0.174490 0.455487
O O16 0.000000 0.000000 0.000000
O O17 0.000000 0.000000 0.500000
#
# Coordination Sequence:
#
# PCOD9051625 Si02
#       7
#     2   2   2   2   2   2   2
#     4  10  25  47  69 104 146 192 243 299 374 446
#     4  12  26  43  71 113 143 189 256 300 365 444
#     4  11  24  41  72  99 136 184 245 297 362 433
#     4  12  24  43  74 103 149 196 244 307 367 435
#     4  11  23  44  64 100 143 185 240 298 364 435
#     4  12  26  47  74 106 149 195 243 305 376 439
#     4  12  24  41  69 105 139 185 245 305 353 428
#
# _framework density 21.749018
#
# number of rings (size 3 to 8) (size 9 to 14) (size 15 to 20)
#    0.000    0.571    5.714    1.714    4.000    1.143 
#    0.000    0.000    0.000    0.000    0.000    0.000 
#    0.000    0.000    0.000    0.000    0.000    0.000 
#
# Total GULP energy -77984.990459 kJ/mol
# GULP energy per Si atom -5570.356461 kJ/mol
# Density = 2.169952 g / cm^3
# Si number density = 21.749018 Si / 1000 Ang^3
#
#
#
# Elastic Constant Matrix: (Units=GPa)
#
#
# Indices 1 2 3 4 5 6 
#
# 1 120.0515 39.3743 12.0530 4.7127 1.9971 7.7256
# 2 39.3743 126.7031 49.0531 -13.7686 -2.2857 -1.5489
# 3 12.0530 49.0531 127.3086 -9.9896 -6.4350 11.3583
# 4 4.7127 -13.7686 -9.9896 46.8991 5.1210 -8.5279
# 5 1.9971 -2.2857 -6.4350 5.1210 26.2579 -2.6769
# 6 7.7256 -1.5489 11.3583 -8.5279 -2.6769 42.7941
#
#
#
# Elastic Compliance Matrix: (Units=1/GPa)
#
#
# Indices 1 2 3 4 5 6 
#
# 1 0.009685 -0.003464 0.000424 -0.002271 -0.000745 -0.002485
# 2 -0.003464 0.010834 -0.003838 0.003206 -0.000087 0.002670
# 3 0.000424 -0.003838 0.009630 0.000221 0.001683 -0.002622
# 4 -0.002271 0.003206 0.000221 0.023844 -0.003635 0.004991
# 5 -0.000745 -0.000087 0.001683 -0.003635 0.039400 0.001425
# 6 -0.002485 0.002670 -0.002622 0.004991 0.001425 0.025693
#
#
# Mechanical properties :
#
#
# Convention : Reuss Voigt Hill
#
# Bulk Modulus (GPa) = 61.00193 63.89153 62.44673
# Shear Modulus (GPa) = 36.15197 41.42907 38.79052
#
# Velocity S-wave (km/s) = 4.08147 4.36922 4.22779
# Velocity P-wave (km/s) = 7.09368 7.40904 7.25308
#
# Compressibility (1/GPa) = 0.01639292
#
# Stress axis : x y z
#
# Youngs Moduli (GPa) = 103.25357 92.30005 103.84419
#
# Poissons Ratio (x) = 0.31976 -0.04401
# Poissons Ratio (y) = 0.35770 0.39850
# Poissons Ratio (z) = -0.04376 0.35420
#
# Static dielectric constant tensor:
#      x y z
#    x 1.823920 -0.129170 -0.063370 
#    y -0.129170 1.944770 -0.050060 
#    z -0.063370 -0.050060 1.796150 
# 
# From -- ./inp_files/272245.got.cif
#   From: 2010.05.17/outbox.cif.g08.bks.cpg/sg2_137_cif.got.tgz:272245.got - 2010.06.03 11:33:40.
