data_PCOD9051812
_publ_section_title
;
Structure prediction by ZEFSAII (Michael W. Deem and Ramdas Pophale) SiO2 
 PCOD9051812
Probable space group: P -1
;
_chemical_formula_sum "Si O2"
_cell_formula_units_Z 14
_cell_length_a 12.407304
_cell_length_b 7.729465
_cell_length_c 20.248861
_cell_angle_alpha 127.747121
_cell_angle_beta 28.097932
_cell_angle_gamma 109.621100
_cell_volume 604.745529
_symmetry_space_group_name_H-M "P -1"
_symmetry_group_IT_number 2
_symmetry_cell_setting 'triclinic'
loop_
_space_group_symop_operation_xyz
x,y,z
-x,-y,-z
loop_
_atom_site_type_symbol
_atom_site_label
_atom_site_fract_x
_atom_site_fract_y
_atom_site_fract_z
Si Si1 0.595698 0.632785 0.196839
Si Si2 0.728387 0.263372 0.733790
Si Si3 0.620523 0.916059 0.801662
Si Si4 0.920470 0.627952 0.770425
Si Si5 0.805444 0.392218 0.505981
Si Si6 0.779584 0.374966 0.277482
Si Si7 0.991419 0.225776 0.988128
O O1 0.478593 0.605771 0.185042
O O2 0.351964 0.726197 0.403129
O O3 0.852713 0.373367 0.029524
O O4 0.715504 0.812398 0.166626
O O5 0.820912 0.447877 0.754431
O O6 0.615947 0.150779 0.821259
O O7 0.000000 0.000000 0.500000
O O8 0.653125 0.691307 0.683742
O O9 0.887473 0.766072 0.667769
O O10 0.329657 0.070950 0.029776
O O11 0.159252 0.600050 0.588743
O O12 0.035976 0.550340 0.763827
O O13 0.500000 0.500000 0.500000
O O14 0.792561 0.403043 0.197803
O O15 0.949151 0.059861 0.115577
#
# Coordination Sequence:
#
# PCOD9051812 Si02
#       7
#     2   2   2   2   2   2   2
#     4  11  23  44  73  95 139 186 219 279 344 397
#     4  12  23  43  70 100 136 180 221 284 349 401
#     4  11  23  41  63  98 139 179 218 274 340 409
#     4  12  25  41  68 104 134 175 229 281 344 406
#     4  11  22  40  65  96 139 177 220 275 339 401
#     4  11  25  46  74  99 132 181 232 280 334 405
#     4  10  25  48  69 100 137 181 230 280 331 399
#
# _framework density 23.150234000000001
#
# number of rings (size 3 to 8) (size 9 to 14) (size 15 to 20)
#    0.000    0.857    2.857    4.286    2.000    3.429 
#    0.000    9.286    0.000    0.000    0.000    0.000 
#    0.000    0.000    0.000    0.000    0.000    0.000 
#
# Total GULP energy -78273.112089 kJ/mol
# GULP energy per Si atom -5590.936578 kJ/mol
# Density = 2.309754 g / cm^3
# Si number density = 23.150234 Si / 1000 Ang^3
#
#
#
# Elastic Constant Matrix: (Units=GPa)
#
#
# Indices 1 2 3 4 5 6 
#
# 1 138.2399 45.3899 27.4567 13.5674 4.0822 17.2644
# 2 45.3899 76.3758 22.8071 -15.1059 7.3091 6.7321
# 3 27.4567 22.8071 127.3287 -4.3069 15.1379 14.4239
# 4 13.5674 -15.1059 -4.3069 30.2027 -5.1504 -4.4800
# 5 4.0822 7.3091 15.1379 -5.1504 26.4151 -9.8851
# 6 17.2644 6.7321 14.4239 -4.4800 -9.8851 34.8200
#
#
#
# Elastic Compliance Matrix: (Units=1/GPa)
#
#
# Indices 1 2 3 4 5 6 
#
# 1 0.012164 -0.008408 -0.000198 -0.011473 -0.004305 -0.007022
# 2 -0.008408 0.021253 -0.001867 0.014628 0.000399 0.002829
# 3 -0.000198 -0.001867 0.009750 -0.001629 -0.007582 -0.005942
# 4 -0.011473 0.014628 -0.001629 0.049690 0.013497 0.013760
# 5 -0.004305 0.000399 -0.007582 0.013497 0.053687 0.022175
# 6 -0.007022 0.002829 -0.005942 0.013760 0.022175 0.042181
#
#
# Mechanical properties :
#
#
# Convention : Reuss Voigt Hill
#
# Bulk Modulus (GPa) = 45.00137 59.25023 52.12580
# Shear Modulus (GPa) = 23.03310 34.70693 28.87002
#
# Velocity S-wave (km/s) = 3.15769 3.87616 3.53522
# Velocity P-wave (km/s) = 5.72501 6.75886 6.26330
#
# Compressibility (1/GPa) = 0.02222154
#
# Stress axis : x y z
#
# Youngs Moduli (GPa) = 82.20990 47.05127 102.56319
#
# Poissons Ratio (x) = 0.39562 0.02028
# Poissons Ratio (y) = 0.69125 0.19147
# Poissons Ratio (z) = 0.01626 0.08784
#
# Static dielectric constant tensor:
#      x y z
#    x 1.884810 -0.015280 0.005750 
#    y -0.015280 1.885400 -0.085500 
#    z 0.005750 -0.085500 1.918130 
# 
# From -- ./inp_files/594228.got.cif
#   From: 2010.05.17/outbox.cif.g08.bks.cpg/sg2_298_cif.got.tgz:594228.got - 2010.06.03 11:33:40.
