data_PCOD9051237
_publ_section_title
;
Structure prediction by ZEFSAII (Michael W. Deem and Ramdas Pophale) SiO2 
 PCOD9051237
Probable space group: P -1
;
_chemical_formula_sum "Si O2"
_cell_formula_units_Z 15
_cell_length_a 21.075777
_cell_length_b 6.563907
_cell_length_c 15.680708
_cell_angle_alpha 64.617477
_cell_angle_beta 157.486910
_cell_angle_gamma 101.849509
_cell_volume 626.166942
_symmetry_space_group_name_H-M "P -1"
_symmetry_group_IT_number 2
_symmetry_cell_setting 'triclinic'
loop_
_space_group_symop_operation_xyz
x,y,z
-x,-y,-z
loop_
_atom_site_type_symbol
_atom_site_label
_atom_site_fract_x
_atom_site_fract_y
_atom_site_fract_z
Si Si1 0.633288 0.176003 0.707009
Si Si2 0.747401 0.729591 0.488521
Si Si3 0.473966 0.548546 0.183527
Si Si4 0.000000 0.500000 0.000000
Si Si5 0.056101 0.647946 0.364944
Si Si6 0.941996 0.243150 0.319749
Si Si7 0.709099 0.180029 0.273940
Si Si8 0.338027 0.995285 0.419209
O O1 0.500000 0.500000 0.500000
O O2 0.659986 0.132624 0.646052
O O3 0.498293 0.074064 0.593929
O O4 0.858510 0.952496 0.059079
O O5 0.597454 0.660203 0.355580
O O6 0.860885 0.502658 0.595964
O O7 0.619768 0.032120 0.237404
O O8 0.886784 0.707468 0.740982
O O9 0.603654 0.229143 0.397153
O O10 0.291019 0.612923 0.004599
O O11 0.394656 0.681978 0.968414
O O12 0.128981 0.256602 0.135743
O O13 0.235988 0.643827 0.634783
O O14 0.994587 0.460572 0.370499
O O15 0.000000 0.000000 0.500000
O O16 0.074331 0.087160 0.431291
#
# Coordination Sequence:
#
# PCOD9051237 Si02
#       8
#     2   2   2   1   2   2   2   2
#     4  11  26  45  75 106 146 194 248 305 376 438
#     4  11  27  46  72 102 148 196 238 307 366 444
#     4  11  24  47  69 107 145 186 248 303 363 445
#     4  12  28  50  70 104 146 192 252 308 374 424
#     4  11  23  46  73 104 146 194 241 302 374 439
#     4   9  21  44  70 104 142 183 245 299 354 442
#     4  10  25  45  73 103 148 196 238 295 375 444
#     4  11  27  47  72 106 147 188 252 313 359 447
#
# _framework density 23.955273999999999
#
# number of rings (size 3 to 8) (size 9 to 14) (size 15 to 20)
#    0.000    1.333    2.667    0.400    7.467    3.200 
#    7.200    0.000    0.000    0.000    0.000    0.000 
#    0.000    0.000    0.000    0.000    0.000    0.000 
#
# Total GULP energy -83557.869882 kJ/mol
# GULP energy per Si atom -5570.524659 kJ/mol
# Density = 2.390075 g / cm^3
# Si number density = 23.955274 Si / 1000 Ang^3
#
#
#
# Elastic Constant Matrix: (Units=GPa)
#
#
# Indices 1 2 3 4 5 6 
#
# 1 51.8600 38.9124 1.5191 -19.0397 -4.2520 -6.8821
# 2 38.9124 89.0953 30.6380 -39.5911 12.4191 9.9379
# 3 1.5191 30.6380 50.5241 -58.9959 -4.2194 -1.1341
# 4 -19.0397 -39.5911 -58.9959 7.3805 2.2980 6.8193
# 5 -4.2520 12.4191 -4.2194 2.2980 43.2506 -8.0448
# 6 -6.8821 9.9379 -1.1341 6.8193 -8.0448 43.1095
#
#
#
# Elastic Compliance Matrix: (Units=1/GPa)
#
#
# Indices 1 2 3 4 5 6 
#
# 1 0.041496 -0.029207 0.007855 -0.008944 0.017087 0.018168
# 2 -0.029207 0.036884 -0.017492 0.005110 -0.018777 -0.017938
# 3 0.007855 -0.017492 0.008328 -0.019585 0.009581 0.010391
# 4 -0.008944 0.005110 -0.019585 -0.014046 -0.003811 -0.001610
# 5 0.017087 -0.018777 0.009581 -0.003811 0.033981 0.014252
# 6 0.018168 -0.017938 0.010391 -0.001610 0.014252 0.033420
#
#
# Mechanical properties :
#
#
# Convention : Reuss Voigt Hill
#
# Bulk Modulus (GPa) = 110.86412 37.06872 73.96642
# Shear Modulus (GPa) = 22.64924 26.77545 24.71234
#
# Velocity S-wave (km/s) = 3.07820 3.34687 3.21534
# Velocity P-wave (km/s) = 7.68205 5.51753 6.68794
#
# Compressibility (1/GPa) = 0.00902005
#
# Stress axis : x y z
#
# Youngs Moduli (GPa) = 24.09872 27.11174 120.08039
#
# Poissons Ratio (x) = 0.79185 -0.94324
# Poissons Ratio (y) = 0.70385 2.10045
# Poissons Ratio (z) = -0.18930 0.47424
#
# Static dielectric constant tensor:
#      x y z
#    x 1.935730 0.026940 0.044690 
#    y 0.026940 1.932680 0.013510 
#    z 0.044690 0.013510 1.954690 
# 
# From -- ./inp_files/578624.got.cif
#   From: 2010.05.17/outbox.cif.g08.bks.cpg/sg2_290_cif.got.tgz:578624.got - 2010.06.03 11:33:40.
