data_PCOD9051603
_publ_section_title
;
Structure prediction by ZEFSAII (Michael W. Deem and Ramdas Pophale) SiO2 
 PCOD9051603
Probable space group: P -1
;
_chemical_formula_sum "Si O2"
_cell_formula_units_Z 14
_cell_length_a 9.062440
_cell_length_b 12.271191
_cell_length_c 10.858533
_cell_angle_alpha 95.624490
_cell_angle_beta 84.504736
_cell_angle_gamma 148.636476
_cell_volume 625.290037
_symmetry_space_group_name_H-M "P -1"
_symmetry_group_IT_number 2
_symmetry_cell_setting 'triclinic'
loop_
_space_group_symop_operation_xyz
x,y,z
-x,-y,-z
loop_
_atom_site_type_symbol
_atom_site_label
_atom_site_fract_x
_atom_site_fract_y
_atom_site_fract_z
Si Si1 0.315853 0.068541 0.466477
Si Si2 0.239662 0.490594 0.987203
Si Si3 0.678790 0.681761 0.406881
Si Si4 0.336742 0.374746 0.177725
Si Si5 0.253187 0.732072 0.147737
Si Si6 0.093170 0.584825 0.640434
Si Si7 0.803683 0.110025 0.293775
O O1 0.343848 0.206765 0.538135
O O2 0.567641 0.211983 0.366157
O O3 0.333508 0.000013 0.575107
O O4 0.008680 0.859145 0.409000
O O5 0.251440 0.400373 0.074988
O O6 0.284934 0.636479 0.063560
O O7 0.492057 0.621145 0.886348
O O8 0.934150 0.305757 0.925199
O O9 0.500000 0.500000 0.500000
O O10 0.549247 0.572569 0.273238
O O11 0.042629 0.169530 0.251237
O O12 0.063156 0.588244 0.267941
O O13 0.559441 0.961931 0.195470
O O14 0.031109 0.671665 0.686196
O O15 0.000000 0.500000 0.500000
#
# Coordination Sequence:
#
# PCOD9051603 Si02
#       7
#     2   2   2   2   2   2   2
#     4  11  25  39  66 109 136 179 218 274 360 412
#     4  10  25  47  67  96 135 189 228 288 332 396
#     4  11  24  42  69  99 142 172 226 285 341 412
#     4  11  23  45  72  95 138 182 228 282 345 397
#     4  11  25  46  70  99 141 173 239 284 336 405
#     4  12  25  41  70 103 140 175 220 283 350 408
#     4  12  24  42  73 103 136 180 226 281 348 416
#
# _framework density 22.389610000000001
#
# number of rings (size 3 to 8) (size 9 to 14) (size 15 to 20)
#    0.000    0.857    4.286    2.143    4.000    1.143 
#    0.000    0.000    0.000    0.000    0.000    0.000 
#    0.000    0.000    0.000    0.000    0.000    0.000 
#
# Total GULP energy -78385.225845 kJ/mol
# GULP energy per Si atom -5598.944703 kJ/mol
# Density = 2.233865 g / cm^3
# Si number density = 22.389610 Si / 1000 Ang^3
#
#
#
# Elastic Constant Matrix: (Units=GPa)
#
#
# Indices 1 2 3 4 5 6 
#
# 1 90.8456 23.9106 43.4794 10.5086 -1.7758 28.7566
# 2 23.9106 88.7505 40.6411 8.9767 1.1172 27.4507
# 3 43.4794 40.6411 94.9904 14.5874 -3.9606 22.2152
# 4 10.5086 8.9767 14.5874 35.7210 17.1855 3.5926
# 5 -1.7758 1.1172 -3.9606 17.1855 40.5227 -12.0926
# 6 28.7566 27.4507 22.2152 3.5926 -12.0926 39.3165
#
#
#
# Elastic Compliance Matrix: (Units=1/GPa)
#
#
# Indices 1 2 3 4 5 6 
#
# 1 0.016892 0.001659 -0.005918 -0.000409 -0.003010 -0.011058
# 2 0.001659 0.016894 -0.005688 0.001029 -0.004774 -0.011357
# 3 -0.005918 -0.005688 0.016535 -0.005643 0.004128 0.000743
# 4 -0.000409 0.001029 -0.005643 0.040407 -0.019830 -0.007022
# 5 -0.003010 -0.004774 0.004128 -0.019830 0.038523 0.016863
# 6 -0.011058 -0.011357 0.000743 -0.007022 0.016863 0.046860
#
#
# Mechanical properties :
#
#
# Convention : Reuss Voigt Hill
#
# Bulk Modulus (GPa) = 32.86704 54.51653 43.69178
# Shear Modulus (GPa) = 24.25423 34.21574 29.23498
#
# Velocity S-wave (km/s) = 3.29489 3.91346 3.61742
# Velocity P-wave (km/s) = 5.40246 6.69493 6.08312
#
# Compressibility (1/GPa) = 0.03042562
#
# Stress axis : x y z
#
# Youngs Moduli (GPa) = 59.19806 59.19159 60.47791
#
# Poissons Ratio (x) = -0.09817 0.35793
# Poissons Ratio (y) = -0.09818 0.34401
# Poissons Ratio (z) = 0.35035 0.33670
#
# Static dielectric constant tensor:
#      x y z
#    x 1.872950 0.013790 -0.016890 
#    y 0.013790 1.823030 -0.028180 
#    z -0.016890 -0.028180 1.835210 
# 
# From -- ./inp_files/77445.got.cif
#   From: 2010.05.17/outbox.cif.g08.bks.cpg/sg2_39_cif.got.tgz:77445.got - 2010.06.03 11:33:40.
