data_PCOD9051081
_publ_section_title
;
Structure prediction by ZEFSAII (Michael W. Deem and Ramdas Pophale) SiO2 
 PCOD9051081
Probable space group: P -1
;
_chemical_formula_sum "Si O2"
_cell_formula_units_Z 16
_cell_length_a 13.806102
_cell_length_b 7.503108
_cell_length_c 15.992963
_cell_angle_alpha 38.254187
_cell_angle_beta 39.145093
_cell_angle_gamma 48.740374
_cell_volume 642.119093
_symmetry_space_group_name_H-M "P -1"
_symmetry_group_IT_number 2
_symmetry_cell_setting 'triclinic'
loop_
_space_group_symop_operation_xyz
x,y,z
-x,-y,-z
loop_
_atom_site_type_symbol
_atom_site_label
_atom_site_fract_x
_atom_site_fract_y
_atom_site_fract_z
Si Si1 0.606545 0.722850 0.070060
Si Si2 0.699111 0.452908 0.672482
Si Si3 0.909386 0.437116 0.999168
Si Si4 0.241203 0.975711 0.371829
Si Si5 0.403952 0.042311 0.826105
Si Si6 0.814648 0.370469 0.813718
Si Si7 0.164217 0.108927 0.679348
Si Si8 0.797421 0.561969 0.305536
O O1 0.487346 0.489533 0.225542
O O2 0.783406 0.646833 0.952741
O O3 0.632396 0.802097 0.118765
O O4 0.500000 0.000000 0.000000
O O5 0.748099 0.211889 0.653799
O O6 0.754660 0.358122 0.762924
O O7 0.770126 0.749681 0.497224
O O8 0.801530 0.215256 0.192278
O O9 0.000000 0.500000 0.000000
O O10 0.048847 0.350780 0.873345
O O11 0.412808 0.036750 0.262705
O O12 0.185094 0.776672 0.556947
O O13 0.154697 0.302068 0.304956
O O14 0.344554 0.288449 0.708931
O O15 0.307710 0.766471 0.994275
O O16 0.978531 0.171944 0.780057
O O17 0.227135 0.289224 0.644299
#
# Coordination Sequence:
#
# PCOD9051081 Si02
#       8
#     2   2   2   2   2   2   2   2
#     4  11  23  43  68 104 139 182 235 288 349 421
#     4  10  25  45  69 103 144 182 236 301 347 419
#     4  12  25  43  72 102 136 190 233 289 355 421
#     4  10  26  43  72 105 137 189 233 296 357 417
#     4  11  22  45  69 104 141 181 238 292 355 418
#     4  12  23  44  72 105 144 186 237 293 355 422
#     4  11  26  46  66 103 141 184 237 293 352 428
#     4  11  24  47  68  98 143 184 237 292 352 425
#
# _framework density 24.917496
#
# number of rings (size 3 to 8) (size 9 to 14) (size 15 to 20)
#    0.000    1.000    3.750    1.500    1.750    6.500 
#    0.000    0.000    0.000    0.000    0.000    0.000 
#    0.000    0.000    0.000    0.000    0.000    0.000 
#
# Total GULP energy -89369.897328 kJ/mol
# GULP energy per Si atom -5585.618583 kJ/mol
# Density = 2.486078 g / cm^3
# Si number density = 24.917496 Si / 1000 Ang^3
#
#
#
# Elastic Constant Matrix: (Units=GPa)
#
#
# Indices 1 2 3 4 5 6 
#
# 1 87.9375 11.8938 7.7664 -14.2422 26.4088 8.2104
# 2 11.8938 53.5413 13.0775 -16.3450 11.5522 -10.9443
# 3 7.7664 13.0775 142.4568 -21.7747 0.5566 3.8183
# 4 -14.2422 -16.3450 -21.7747 29.9883 1.5864 -6.5136
# 5 26.4088 11.5522 0.5566 1.5864 32.8413 -3.7307
# 6 8.2104 -10.9443 3.8183 -6.5136 -3.7307 32.8157
#
#
#
# Elastic Compliance Matrix: (Units=1/GPa)
#
#
# Indices 1 2 3 4 5 6 
#
# 1 0.017766 0.001443 0.000531 0.009592 -0.015710 -0.003908
# 2 0.001443 0.029268 -0.000014 0.019836 -0.011040 0.012084
# 3 0.000531 -0.000014 0.007919 0.006049 -0.000843 0.000046
# 4 0.009592 0.019836 0.006049 0.056769 -0.016064 0.012954
# 5 -0.015710 -0.011040 -0.000843 -0.016064 0.048054 0.002621
# 6 -0.003908 0.012084 0.000046 0.012954 0.002621 0.038345
#
#
# Mechanical properties :
#
#
# Convention : Reuss Voigt Hill
#
# Bulk Modulus (GPa) = 16.98614 38.82345 27.90479
# Shear Modulus (GPa) = 23.38371 35.87559 29.62965
#
# Velocity S-wave (km/s) = 3.06673 3.79855 3.45209
# Velocity P-wave (km/s) = 4.40131 5.90367 5.20696
#
# Compressibility (1/GPa) = 0.05887154
#
# Stress axis : x y z
#
# Youngs Moduli (GPa) = 56.28770 34.16731 126.28396
#
# Poissons Ratio (x) = -0.04929 -0.06709
# Poissons Ratio (y) = -0.08120 0.00180
# Poissons Ratio (z) = -0.02990 0.00049
#
# Static dielectric constant tensor:
#      x y z
#    x 1.963570 0.006600 -0.038870 
#    y 0.006600 2.156040 -0.035160 
#    z -0.038870 -0.035160 2.657480 
# 
# From -- ./inp_files/572792.got.cif
#   From: 2010.05.17/outbox.cif.g08.bks.cpg/sg2_287_cif.got.tgz:572792.got - 2010.06.03 11:33:40.
