data_PCOD9051433
_publ_section_title
;
Structure prediction by ZEFSAII (Michael W. Deem and Ramdas Pophale) SiO2 
 PCOD9051433
Probable space group: P -1
;
_chemical_formula_sum "Si O2"
_cell_formula_units_Z 16
_cell_length_a 19.240183
_cell_length_b 4.873212
_cell_length_c 9.223901
_cell_angle_alpha 124.868644
_cell_angle_beta 115.839905
_cell_angle_gamma 88.806531
_cell_volume 607.327207
_symmetry_space_group_name_H-M "P -1"
_symmetry_group_IT_number 2
_symmetry_cell_setting 'triclinic'
loop_
_space_group_symop_operation_xyz
x,y,z
-x,-y,-z
loop_
_atom_site_type_symbol
_atom_site_label
_atom_site_fract_x
_atom_site_fract_y
_atom_site_fract_z
Si Si1 0.179354 0.388954 0.159800
Si Si2 0.557567 0.377888 0.125905
Si Si3 0.963829 0.450805 0.612548
Si Si4 0.424983 0.227763 0.433731
Si Si5 0.882663 0.679855 0.216692
Si Si6 0.663120 0.530712 0.814943
Si Si7 0.845056 0.918762 0.651400
Si Si8 0.725359 0.543662 0.178237
O O1 0.268969 0.599030 0.244871
O O2 0.185812 0.168322 0.238196
O O3 0.131202 0.667662 0.232081
O O4 0.137036 0.194714 0.919788
O O5 0.580188 0.609006 0.363333
O O6 0.500000 0.500000 0.000000
O O7 0.638273 0.354828 0.112927
O O8 0.500000 0.000000 0.000000
O O9 0.911006 0.037916 0.445455
O O10 0.913895 0.725451 0.655920
O O11 0.000000 0.500000 0.500000
O O12 0.044620 0.484832 0.788321
O O13 0.500000 0.500000 0.500000
O O14 0.356225 0.223278 0.250073
O O15 0.412742 0.814259 0.321561
O O16 0.800432 0.432391 0.142819
O O17 0.698792 0.705306 0.054103
O O18 0.772956 0.758906 0.423696
#
# Coordination Sequence:
#
# PCOD9051433 Si02
#       8
#     2   2   2   2   2   2   2   2
#     4  11  26  44  67 105 138 183 236 290 358 408
#     4  12  26  44  69 103 139 178 229 285 344 415
#     4  11  24  45  71 102 140 186 242 288 358 419
#     4  12  24  43  67  99 138 178 227 290 356 413
#     4  10  25  46  71 100 143 188 236 293 354 433
#     4  11  24  43  68  96 135 180 232 288 343 422
#     4  12  26  44  72 103 141 184 235 297 348 425
#     4  11  24  46  71  98 135 187 234 281 351 420
#
# _framework density 26.344942
#
# number of rings (size 3 to 8) (size 9 to 14) (size 15 to 20)
#    0.000    0.750    1.250    5.625    3.500    6.000 
#    0.000    0.000    0.000    0.000    0.000    0.000 
#    0.000    0.000    0.000    0.000    0.000    0.000 
#
# Total GULP energy -89417.751570 kJ/mol
# GULP energy per Si atom -5588.609473 kJ/mol
# Density = 2.628498 g / cm^3
# Si number density = 26.344942 Si / 1000 Ang^3
#
#
#
# Elastic Constant Matrix: (Units=GPa)
#
#
# Indices 1 2 3 4 5 6 
#
# 1 146.9686 34.7258 45.6591 6.2430 11.7737 5.9575
# 2 34.7258 147.0121 47.0726 -28.7828 8.7652 -7.3832
# 3 45.6591 47.0726 170.1442 -39.8955 -9.6154 4.0752
# 4 6.2430 -28.7828 -39.8955 47.6358 8.6244 0.7705
# 5 11.7737 8.7652 -9.6154 8.6244 46.3227 1.6493
# 6 5.9575 -7.3832 4.0752 0.7705 1.6493 41.6596
#
#
#
# Elastic Compliance Matrix: (Units=1/GPa)
#
#
# Indices 1 2 3 4 5 6 
#
# 1 0.008488 -0.001916 -0.002825 -0.004340 -0.001533 -0.001136
# 2 -0.001916 0.008800 -0.000873 0.005241 -0.002404 0.001917
# 3 -0.002825 -0.000873 0.008563 0.006768 0.001428 -0.000770
# 4 -0.004340 0.005241 0.006768 0.031168 -0.004304 0.000481
# 5 -0.001533 -0.002404 0.001428 -0.004304 0.023572 -0.001200
# 6 -0.001136 0.001917 -0.000770 0.000481 -0.001200 0.024620
#
#
# Mechanical properties :
#
#
# Convention : Reuss Voigt Hill
#
# Bulk Modulus (GPa) = 68.38461 79.89334 74.13898
# Shear Modulus (GPa) = 41.21559 49.56810 45.39185
#
# Velocity S-wave (km/s) = 3.95962 4.34234 4.15538
# Velocity P-wave (km/s) = 6.84971 7.45204 7.15721
#
# Compressibility (1/GPa) = 0.01462317
#
# Stress axis : x y z
#
# Youngs Moduli (GPa) = 117.81972 113.63600 116.77937
#
# Poissons Ratio (x) = 0.21770 0.32986
# Poissons Ratio (y) = 0.22571 0.10199
# Poissons Ratio (z) = 0.33280 0.09925
#
# Static dielectric constant tensor:
#      x y z
#    x 2.183460 -0.005510 -0.000680 
#    y -0.005510 2.050300 0.043020 
#    z -0.000680 0.043020 2.098330 
# 
# From -- ./inp_files/340559.got.cif
#   From: 2010.05.17/outbox.cif.g08.bks.cpg/sg2_171_cif.got.tgz:340559.got - 2010.06.03 11:33:40.
