data_PCOD9051626
_publ_section_title
;
Structure prediction by ZEFSAII (Michael W. Deem and Ramdas Pophale) SiO2 
 PCOD9051626
Probable space group: P -1
;
_chemical_formula_sum "Si O2"
_cell_formula_units_Z 16
_cell_length_a 12.300110
_cell_length_b 7.753581
_cell_length_c 12.329458
_cell_angle_alpha 73.883232
_cell_angle_beta 36.621589
_cell_angle_gamma 61.833723
_cell_volume 606.799481
_symmetry_space_group_name_H-M "P -1"
_symmetry_group_IT_number 2
_symmetry_cell_setting 'triclinic'
loop_
_space_group_symop_operation_xyz
x,y,z
-x,-y,-z
loop_
_atom_site_type_symbol
_atom_site_label
_atom_site_fract_x
_atom_site_fract_y
_atom_site_fract_z
Si Si1 0.334418 0.027365 0.539374
Si Si2 0.787604 0.952245 0.594354
Si Si3 0.791938 0.203138 0.842865
Si Si4 0.876705 0.556092 0.266632
Si Si5 0.665008 0.632191 0.818395
Si Si6 0.761559 0.532201 0.136748
Si Si7 0.344481 0.591805 0.360060
Si Si8 0.029612 0.897933 0.879667
O O1 0.367708 0.025642 0.384961
O O2 0.159125 0.246259 0.671961
O O3 0.500000 0.000000 0.500000
O O4 0.237890 0.875768 0.663699
O O5 0.780411 0.772663 0.701007
O O6 0.010544 0.882543 0.377172
O O7 0.722659 0.174429 0.650336
O O8 0.754736 0.432061 0.853286
O O9 0.566812 0.237108 0.984738
O O10 0.853842 0.044773 0.918433
O O11 0.730145 0.635196 0.262095
O O12 0.796476 0.433095 0.429606
O O13 0.111420 0.428720 0.067661
O O14 0.663584 0.536987 0.715556
O O15 0.567858 0.517638 0.245396
O O16 0.930668 0.319735 0.080399
O O17 0.000000 0.000000 0.000000
#
# Coordination Sequence:
#
# PCOD9051626 Si02
#       8
#     2   2   2   2   2   2   2   2
#     4  11  21  35  60  95 132 177 222 269 343 415
#     4  11  25  45  70 102 141 182 233 293 347 418
#     4  10  25  47  69 105 140 179 241 292 347 419
#     4  11  22  39  60  96 142 184 216 282 347 405
#     4  11  25  47  76  96 138 189 234 297 350 409
#     4  11  24  40  62 103 149 178 228 289 348 423
#     4  12  25  43  71 107 137 184 238 286 346 423
#     4  11  21  37  65  95 135 178 217 279 343 412
#
# _framework density 26.367853
#
# number of rings (size 3 to 8) (size 9 to 14) (size 15 to 20)
#    0.000    1.000    2.500    4.500    3.500    3.500 
#    0.000    2.500    0.000    0.000    0.000    0.000 
#    0.000    0.000    0.000    0.000    0.000    0.000 
#
# Total GULP energy -89480.674867 kJ/mol
# GULP energy per Si atom -5592.542179 kJ/mol
# Density = 2.630784 g / cm^3
# Si number density = 26.367853 Si / 1000 Ang^3
#
#
#
# Elastic Constant Matrix: (Units=GPa)
#
#
# Indices 1 2 3 4 5 6 
#
# 1 119.5169 25.6314 30.3717 10.3871 -2.3980 -10.1171
# 2 25.6314 106.7324 43.8268 5.4941 5.4635 2.7552
# 3 30.3717 43.8268 137.7250 -12.4941 2.3498 -4.1571
# 4 10.3871 5.4941 -12.4941 29.2244 -5.5678 -8.2958
# 5 -2.3980 5.4635 2.3498 -5.5678 31.1052 13.9278
# 6 -10.1171 2.7552 -4.1571 -8.2958 13.9278 45.4248
#
#
#
# Elastic Compliance Matrix: (Units=1/GPa)
#
#
# Indices 1 2 3 4 5 6 
#
# 1 0.009587 -0.001334 -0.001973 -0.003627 -0.000164 0.001423
# 2 -0.001334 0.011591 -0.003780 -0.004115 -0.001913 -0.001511
# 3 -0.001973 -0.003780 0.009491 0.005976 0.000094 0.001721
# 4 -0.003627 -0.004115 0.005976 0.041465 0.004669 0.006130
# 5 -0.000164 -0.001913 0.000094 0.004669 0.038112 -0.010745
# 6 0.001423 -0.001511 0.001721 0.006130 -0.010745 0.026995
#
#
# Mechanical properties :
#
#
# Convention : Reuss Voigt Hill
#
# Bulk Modulus (GPa) = 60.62614 62.62602 61.62608
# Shear Modulus (GPa) = 31.86465 38.76050 35.31258
#
# Velocity S-wave (km/s) = 3.48007 3.83821 3.66352
# Velocity P-wave (km/s) = 6.26021 6.59127 6.42787
#
# Compressibility (1/GPa) = 0.01649454
#
# Stress axis : x y z
#
# Youngs Moduli (GPa) = 104.30913 86.27695 105.35766
#
# Poissons Ratio (x) = 0.11507 0.20788
# Poissons Ratio (y) = 0.13912 0.39830
# Poissons Ratio (z) = 0.20581 0.32617
#
# Static dielectric constant tensor:
#      x y z
#    x 2.288180 0.127260 0.177880 
#    y 0.127260 2.234920 0.102490 
#    z 0.177880 0.102490 2.306340 
# 
# From -- ./inp_files/528366.got.cif
#   From: 2010.05.17/outbox.cif.g08.bks.cpg/sg2_265_cif.got.tgz:528366.got - 2010.06.03 11:33:40.
