data_PCOD9051787
_publ_section_title
;
Structure prediction by ZEFSAII (Michael W. Deem and Ramdas Pophale) SiO2 
 PCOD9051787
Probable space group: P -1
;
_chemical_formula_sum "Si O2"
_cell_formula_units_Z 14
_cell_length_a 11.900733
_cell_length_b 4.947911
_cell_length_c 9.182179
_cell_angle_alpha 94.952842
_cell_angle_beta 92.752049
_cell_angle_gamma 90.340789
_cell_volume 538.013511
_symmetry_space_group_name_H-M "P -1"
_symmetry_group_IT_number 2
_symmetry_cell_setting 'triclinic'
loop_
_space_group_symop_operation_xyz
x,y,z
-x,-y,-z
loop_
_atom_site_type_symbol
_atom_site_label
_atom_site_fract_x
_atom_site_fract_y
_atom_site_fract_z
Si Si1 0.420806 0.603632 0.127480
Si Si2 0.015236 0.489621 0.326280
Si Si3 0.386123 0.580603 0.676989
Si Si4 0.877117 0.986234 0.282140
Si Si5 0.768558 0.803243 0.794408
Si Si6 0.697748 0.956444 0.493318
Si Si7 0.277362 0.906838 0.946891
O O1 0.497496 0.554227 0.271228
O O2 0.310302 0.417330 0.136215
O O3 0.500000 0.500000 0.000000
O O4 0.382292 0.889033 0.066793
O O5 0.134235 0.373211 0.281787
O O6 0.000000 0.500000 0.500000
O O7 0.978388 0.781214 0.282541
O O8 0.923711 0.275178 0.247794
O O9 0.323338 0.350480 0.571692
O O10 0.318946 0.681736 0.821538
O O11 0.388690 0.842846 0.583341
O O12 0.820348 0.029033 0.437835
O O13 0.774040 0.892500 0.168244
O O14 0.705042 0.956877 0.666272
O O15 0.811424 0.023921 0.926226
#
# Coordination Sequence:
#
# PCOD9051787 Si02
#       7
#     2   2   2   2   2   2   2
#     4  10  26  48  75 104 156 197 247 307 379 432
#     4  12  27  47  78 109 152 193 245 303 381 433
#     4  10  25  47  77 104 147 205 246 304 375 439
#     4  11  25  48  77 104 149 199 241 302 370 444
#     4  12  29  43  77 113 150 191 258 310 363 445
#     4  11  25  46  77 111 148 195 254 304 370 442
#     4  10  26  45  75 105 149 193 251 300 369 441
#
# _framework density 26.021650999999999
#
# number of rings (size 3 to 8) (size 9 to 14) (size 15 to 20)
#    0.000    1.143    1.429    2.143   16.000    3.429 
#    0.000    0.000    0.000    0.000    0.000    0.000 
#    0.000    0.000    0.000    0.000    0.000    0.000 
#
# Total GULP energy -78066.661824 kJ/mol
# GULP energy per Si atom -5576.190130 kJ/mol
# Density = 2.596242 g / cm^3
# Si number density = 26.021651 Si / 1000 Ang^3
#
#
#
# Elastic Constant Matrix: (Units=GPa)
#
#
# Indices 1 2 3 4 5 6 
#
# 1 95.5781 21.1553 31.3977 -15.6207 -5.6714 -16.6159
# 2 21.1553 83.1457 44.0473 -6.7323 12.7769 -16.3716
# 3 31.3977 44.0473 182.1051 2.9790 -10.5393 -11.9246
# 4 -15.6207 -6.7323 2.9790 36.6448 -9.2702 6.0185
# 5 -5.6714 12.7769 -10.5393 -9.2702 37.0899 -15.5891
# 6 -16.6159 -16.3716 -11.9246 6.0185 -15.5891 48.5571
#
#
#
# Elastic Compliance Matrix: (Units=1/GPa)
#
#
# Indices 1 2 3 4 5 6 
#
# 1 0.013576 -0.002300 -0.001224 0.006220 0.006071 0.004747
# 2 -0.002300 0.015858 -0.003688 0.000428 -0.006060 0.001655
# 3 -0.001224 -0.003688 0.006882 -0.001132 0.003268 0.001217
# 4 0.006220 0.000428 -0.001132 0.032221 0.008895 0.000857
# 5 0.006071 -0.006060 0.003268 0.008895 0.038168 0.011988
# 6 0.004747 0.001655 0.001217 0.000857 0.011988 0.026818
#
#
# Mechanical properties :
#
#
# Convention : Reuss Voigt Hill
#
# Bulk Modulus (GPa) = 45.68155 61.55881 53.62018
# Shear Modulus (GPa) = 32.20726 42.07361 37.14044
#
# Velocity S-wave (km/s) = 3.52193 4.02539 3.78205
# Velocity P-wave (km/s) = 5.84226 6.73151 6.30258
#
# Compressibility (1/GPa) = 0.02189067
#
# Stress axis : x y z
#
# Youngs Moduli (GPa) = 73.65977 63.05891 145.31026
#
# Poissons Ratio (x) = 0.14505 0.17784
# Poissons Ratio (y) = 0.16944 0.53597
# Poissons Ratio (z) = 0.09015 0.23259
#
# Static dielectric constant tensor:
#      x y z
#    x 2.101240 0.029670 0.005300 
#    y 0.029670 2.105140 0.064880 
#    z 0.005300 0.064880 2.074760 
# 
# From -- ./inp_files/229882.got.cif
#   From: 2010.05.17/outbox.cif.g08.bks.cpg/sg2_115_cif.got.tgz:229882.got - 2010.06.03 11:33:40.
