data_PCOD9051776
_publ_section_title
;
Structure prediction by ZEFSAII (Michael W. Deem and Ramdas Pophale) SiO2 
 PCOD9051776
Probable space group: P -1
;
_chemical_formula_sum "Si O2"
_cell_formula_units_Z 10
_cell_length_a 10.101067
_cell_length_b 12.512503
_cell_length_c 4.826182
_cell_angle_alpha 102.877500
_cell_angle_beta 57.009261
_cell_angle_gamma 129.592795
_cell_volume 386.912644
_symmetry_space_group_name_H-M "P -1"
_symmetry_group_IT_number 2
_symmetry_cell_setting 'triclinic'
loop_
_space_group_symop_operation_xyz
x,y,z
-x,-y,-z
loop_
_atom_site_type_symbol
_atom_site_label
_atom_site_fract_x
_atom_site_fract_y
_atom_site_fract_z
Si Si1 0.430666 0.840729 0.980309
Si Si2 0.165835 0.997906 0.652422
Si Si3 0.705599 0.531994 0.206108
Si Si4 0.098388 0.822580 0.104251
Si Si5 0.775629 0.417179 0.572634
O O1 0.623185 0.863989 0.634807
O O2 0.363384 0.747579 0.279049
O O3 0.217881 0.766388 0.022840
O O4 0.500000 0.000000 0.000000
O O5 0.930645 0.111017 0.559238
O O6 0.000000 0.000000 0.000000
O O7 0.226560 0.940633 0.792374
O O8 0.500000 0.500000 0.500000
O O9 0.888475 0.697038 0.133615
O O10 0.758524 0.452646 0.301114
O O11 0.691934 0.482266 0.883874
O O12 0.000000 0.500000 0.500000
#
# Coordination Sequence:
#
# PCOD9051776 Si02
#       5
#     2   2   2   2   2
#     4  10  25  47  76 108 146 191 250 304 368 439
#     4  11  25  45  73 107 147 191 247 306 371 436
#     4  12  28  49  74 109 153 196 247 312 371 438
#     4  11  24  47  73 102 150 194 243 308 366 436
#     4  12  26  49  79 106 147 201 252 303 370 443
#
# _framework density 25.845627
#
# number of rings (size 3 to 8) (size 9 to 14) (size 15 to 20)
#    0.000    0.800    2.000    3.600    5.600    3.200 
#    0.000    0.000    0.000    0.000    0.000    0.000 
#    0.000    0.000    0.000    0.000    0.000    0.000 
#
# Total GULP energy -55999.894750 kJ/mol
# GULP energy per Si atom -5599.989475 kJ/mol
# Density = 2.578680 g / cm^3
# Si number density = 25.845627 Si / 1000 Ang^3
#
#
#
# Elastic Constant Matrix: (Units=GPa)
#
#
# Indices 1 2 3 4 5 6 
#
# 1 59.3726 11.9483 4.4126 -11.8986 0.4635 -4.0784
# 2 11.9483 108.3544 40.0723 -5.0380 -1.6202 7.7584
# 3 4.4126 40.0723 132.6294 5.7726 -4.8412 -3.7893
# 4 -11.8986 -5.0380 5.7726 60.6558 -3.0340 1.8049
# 5 0.4635 -1.6202 -4.8412 -3.0340 69.3163 -3.3265
# 6 -4.0784 7.7584 -3.7893 1.8049 -3.3265 28.6408
#
#
#
# Elastic Compliance Matrix: (Units=1/GPa)
#
#
# Indices 1 2 3 4 5 6 
#
# 1 0.018119 -0.002036 -0.000044 0.003308 0.000114 0.002931
# 2 -0.002036 0.011033 -0.003420 0.000950 -0.000108 -0.003804
# 3 -0.000044 -0.003420 0.008709 -0.001158 0.000584 0.002213
# 4 0.003308 0.000950 -0.001158 0.017385 0.000634 -0.000962
# 5 0.000114 -0.000108 0.000584 0.000634 0.014577 0.001776
# 6 0.002931 -0.003804 0.002213 -0.000962 0.001776 0.036923
#
#
# Mechanical properties :
#
#
# Convention : Reuss Voigt Hill
#
# Bulk Modulus (GPa) = 37.22672 45.91363 41.57017
# Shear Modulus (GPa) = 39.46342 47.98413 43.72378
#
# Velocity S-wave (km/s) = 3.91178 4.31346 4.11752
# Velocity P-wave (km/s) = 5.90233 6.52772 6.22288
#
# Compressibility (1/GPa) = 0.02686243
#
# Stress axis : x y z
#
# Youngs Moduli (GPa) = 55.19029 90.63616 114.81764
#
# Poissons Ratio (x) = 0.18455 0.00502
# Poissons Ratio (y) = 0.11238 0.39265
# Poissons Ratio (z) = 0.00241 0.30995
#
# Static dielectric constant tensor:
#      x y z
#    x 2.058370 0.024250 -0.019420 
#    y 0.024250 2.131800 0.051530 
#    z -0.019420 0.051530 1.978720 
# 
# From -- ./inp_files/24454.got.cif
#   From: 2010.05.17/outbox.cif.g08.bks.cpg/sg2_13_cif.got.tgz:24454.got - 2010.06.03 11:33:40.
