data_PCOD9051161
_publ_section_title
;
Structure prediction by ZEFSAII (Michael W. Deem and Ramdas Pophale) SiO2 
 PCOD9051161
Probable space group: P -1
;
_chemical_formula_sum "Si O2"
_cell_formula_units_Z 11
_cell_length_a 10.516444
_cell_length_b 8.990525
_cell_length_c 10.088934
_cell_angle_alpha 35.721336
_cell_angle_beta 107.035007
_cell_angle_gamma 124.006285
_cell_volume 435.348032
_symmetry_space_group_name_H-M "P -1"
_symmetry_group_IT_number 2
_symmetry_cell_setting 'triclinic'
loop_
_space_group_symop_operation_xyz
x,y,z
-x,-y,-z
loop_
_atom_site_type_symbol
_atom_site_label
_atom_site_fract_x
_atom_site_fract_y
_atom_site_fract_z
Si Si1 0.178137 0.894591 0.394795
Si Si2 0.620586 0.508625 0.635293
Si Si3 0.373064 0.594968 0.007603
Si Si4 0.500000 0.000000 0.500000
Si Si5 0.840379 0.170337 0.149554
Si Si6 0.830564 0.279433 0.783322
O O1 0.184657 0.860548 0.263166
O O2 0.997069 0.625569 0.580262
O O3 0.229785 0.239988 0.189131
O O4 0.302642 0.840848 0.546727
O O5 0.500000 0.500000 0.500000
O O6 0.543553 0.426904 0.817796
O O7 0.680737 0.304721 0.747344
O O8 0.783428 0.861578 0.435419
O O9 0.301398 0.781118 0.902856
O O10 0.475860 0.771386 0.782341
O O11 0.843533 0.112086 0.036138
O O12 0.000000 0.500000 0.000000
#
# Coordination Sequence:
#
# PCOD9051161 Si02
#       6
#     2   2   2   1   2   2
#     4  11  25  45  70 106 142 187 228 295 354 421
#     4  11  26  44  74 103 143 185 239 292 352 418
#     4  11  25  44  70 102 138 185 237 287 349 421
#     4  12  26  42  70  98 144 184 232 280 356 414
#     4  11  23  44  74 101 139 187 239 290 354 420
#     4  10  25  45  71 105 144 179 238 289 355 419
#
# _framework density 25.267142
#
# number of rings (size 3 to 8) (size 9 to 14) (size 15 to 20)
#    0.000    1.091    0.000    4.909    7.636    5.818 
#    0.000    4.545    0.000    0.000    0.000    0.000 
#    0.000    0.000    0.000    0.000    0.000    0.000 
#
# Total GULP energy -61409.095110 kJ/mol
# GULP energy per Si atom -5582.645010 kJ/mol
# Density = 2.520963 g / cm^3
# Si number density = 25.267142 Si / 1000 Ang^3
#
#
#
# Elastic Constant Matrix: (Units=GPa)
#
#
# Indices 1 2 3 4 5 6 
#
# 1 64.0706 30.9899 10.6305 10.5806 -10.4068 8.6272
# 2 30.9899 107.5069 62.8740 7.8332 -8.7000 2.0605
# 3 10.6305 62.8740 169.6829 25.2699 -30.8355 -7.2807
# 4 10.5806 7.8332 25.2699 53.1581 -2.5003 -4.5345
# 5 -10.4068 -8.7000 -30.8355 -2.5003 29.9937 0.9431
# 6 8.6272 2.0605 -7.2807 -4.5345 0.9431 42.9369
#
#
#
# Elastic Compliance Matrix: (Units=1/GPa)
#
#
# Indices 1 2 3 4 5 6 
#
# 1 0.021089 -0.006905 0.003297 -0.004694 0.008439 -0.004028
# 2 -0.006905 0.014262 -0.005887 0.001875 -0.004154 -0.000006
# 3 0.003297 -0.005887 0.010266 -0.004156 0.009622 0.000710
# 4 -0.004694 0.001875 -0.004156 0.021487 -0.003645 0.002498
# 5 0.008439 -0.004154 0.009622 -0.003645 0.044690 -0.001231
# 6 -0.004028 -0.000006 0.000710 0.002498 -0.001231 0.024511
#
#
# Mechanical properties :
#
#
# Convention : Reuss Voigt Hill
#
# Bulk Modulus (GPa) = 37.55427 61.13880 49.34653
# Shear Modulus (GPa) = 30.45612 41.00213 35.72913
#
# Velocity S-wave (km/s) = 3.47560 4.03270 3.76447
# Velocity P-wave (km/s) = 5.56791 6.77739 6.20220
#
# Compressibility (1/GPa) = 0.02662813
#
# Stress axis : x y z
#
# Youngs Moduli (GPa) = 47.41791 70.11517 97.41011
#
# Poissons Ratio (x) = 0.48417 -0.32120
# Poissons Ratio (y) = 0.32744 0.57341
# Poissons Ratio (z) = -0.15636 0.41274
#
# Static dielectric constant tensor:
#      x y z
#    x 2.013510 0.010060 0.001920 
#    y 0.010060 2.015010 0.012350 
#    z 0.001920 0.012350 1.983640 
# 
# From -- ./inp_files/17197.got.cif
#   From: 2010.05.17/outbox.cif.g08.bks.cpg/sg2_9_cif.got.tgz:17197.got - 2010.06.03 11:33:40.
