data_PCOD9051356
_publ_section_title
;
Structure prediction by ZEFSAII (Michael W. Deem and Ramdas Pophale) SiO2 
 PCOD9051356
Probable space group: P -1
;
_chemical_formula_sum "Si O2"
_cell_formula_units_Z 16
_cell_length_a 15.063081
_cell_length_b 11.862678
_cell_length_c 9.441055
_cell_angle_alpha 103.901045
_cell_angle_beta 95.082264
_cell_angle_gamma 27.716031
_cell_volume 732.293628
_symmetry_space_group_name_H-M "P -1"
_symmetry_group_IT_number 2
_symmetry_cell_setting 'triclinic'
loop_
_space_group_symop_operation_xyz
x,y,z
-x,-y,-z
loop_
_atom_site_type_symbol
_atom_site_label
_atom_site_fract_x
_atom_site_fract_y
_atom_site_fract_z
Si Si1 0.361654 0.476940 0.674657
Si Si2 0.023670 0.264023 0.665045
Si Si3 0.385840 0.373659 0.319890
Si Si4 0.657805 0.871726 0.091861
Si Si5 0.304056 0.820869 0.795481
Si Si6 0.034719 0.086242 0.095192
Si Si7 0.798373 0.961105 0.685211
Si Si8 0.029229 0.403927 0.159057
O O1 0.357566 0.447986 0.499659
O O2 0.341174 0.640651 0.729295
O O3 0.180377 0.632904 0.784845
O O4 0.571058 0.199305 0.689549
O O5 0.080903 0.185134 0.486149
O O6 0.002385 0.424462 0.748150
O O7 0.819752 0.433303 0.713143
O O8 0.192622 0.004502 0.700476
O O9 0.488283 0.351819 0.229280
O O10 0.533717 0.091564 0.251527
O O11 0.822186 0.604950 0.118051
O O12 0.797951 0.790656 0.992018
O O13 0.500000 0.000000 0.000000
O O14 0.153982 0.011235 0.963597
O O15 0.177483 0.941536 0.206553
O O16 0.000000 0.000000 0.000000
O O17 0.896025 0.757590 0.747686
#
# Coordination Sequence:
#
# PCOD9051356 Si02
#       8
#     2   2   2   2   2   2   2   2
#     4  11  25  47  71 103 141 184 236 288 356 416
#     4  12  25  44  72 103 142 185 237 292 345 411
#     4  12  23  43  70 104 135 183 238 285 350 413
#     4  11  23  43  70 100 137 181 232 285 348 421
#     4  11  25  45  73 102 141 182 238 293 345 418
#     4  10  25  46  68 103 140 182 233 290 350 418
#     4  12  25  44  72 100 146 186 227 294 352 412
#     4  11  25  44  68 102 142 180 236 290 350 414
#
# _framework density 21.849159
#
# number of rings (size 3 to 8) (size 9 to 14) (size 15 to 20)
#    0.000    0.750    5.000    1.500    1.750    7.500 
#    0.000    1.250    0.000    0.000    0.000    0.000 
#    0.000    0.000    0.000    0.000    0.000    0.000 
#
# Total GULP energy -89411.713985 kJ/mol
# GULP energy per Si atom -5588.232124 kJ/mol
# Density = 2.179943 g / cm^3
# Si number density = 21.849159 Si / 1000 Ang^3
#
#
#
# Elastic Constant Matrix: (Units=GPa)
#
#
# Indices 1 2 3 4 5 6 
#
# 1 106.4467 48.2553 42.2922 -2.4642 -3.1193 -14.9003
# 2 48.2553 91.9434 10.1087 -3.2771 -5.7839 -5.0152
# 3 42.2922 10.1087 118.7018 9.2810 -7.6669 5.5378
# 4 -2.4642 -3.2771 9.2810 33.1159 -4.5199 -3.6039
# 5 -3.1193 -5.7839 -7.6669 -4.5199 39.3076 -1.8743
# 6 -14.9003 -5.0152 5.5378 -3.6039 -1.8743 39.9953
#
#
#
# Elastic Compliance Matrix: (Units=1/GPa)
#
#
# Indices 1 2 3 4 5 6 
#
# 1 0.015754 -0.007267 -0.005494 0.002597 -0.000309 0.005938
# 2 -0.007267 0.014622 0.001458 0.000654 0.001890 -0.000928
# 3 -0.005494 0.001458 0.010784 -0.003502 0.001307 -0.003611
# 4 0.002597 0.000654 -0.003502 0.032427 0.003569 0.004623
# 5 -0.000309 0.001890 0.001307 0.003569 0.026431 0.001501
# 6 0.005938 -0.000928 -0.003611 0.004623 0.001501 0.028086
#
#
# Mechanical properties :
#
#
# Convention : Reuss Voigt Hill
#
# Bulk Modulus (GPa) = 53.89687 57.60047 55.74867
# Shear Modulus (GPa) = 31.86868 36.91280 34.39074
#
# Velocity S-wave (km/s) = 3.82328 4.11474 3.97168
# Velocity P-wave (km/s) = 6.64915 6.99963 6.82664
#
# Compressibility (1/GPa) = 0.01855395
#
# Stress axis : x y z
#
# Youngs Moduli (GPa) = 63.47631 68.39202 92.72590
#
# Poissons Ratio (x) = 0.49702 0.50945
# Poissons Ratio (y) = 0.46129 -0.13522
# Poissons Ratio (z) = 0.34875 -0.09973
#
# Static dielectric constant tensor:
#      x y z
#    x 1.854590 -0.002530 0.025580 
#    y -0.002530 1.794520 0.028640 
#    z 0.025580 0.028640 1.788720 
# 
# From -- ./inp_files/307727.got.cif
#   From: 2010.05.17/outbox.cif.g08.bks.cpg/sg2_154_cif.got.tgz:307727.got - 2010.06.03 11:33:40.
