data_PCOD9051139
_publ_section_title
;
Structure prediction by ZEFSAII (Michael W. Deem and Ramdas Pophale) SiO2 
 PCOD9051139
Probable space group: P -1
;
_chemical_formula_sum "Si O2"
_cell_formula_units_Z 14
_cell_length_a 6.812322
_cell_length_b 6.054987
_cell_length_c 20.401308
_cell_angle_alpha 62.829524
_cell_angle_beta 130.905134
_cell_angle_gamma 107.374686
_cell_volume 565.835614
_symmetry_space_group_name_H-M "P -1"
_symmetry_group_IT_number 2
_symmetry_cell_setting 'triclinic'
loop_
_space_group_symop_operation_xyz
x,y,z
-x,-y,-z
loop_
_atom_site_type_symbol
_atom_site_label
_atom_site_fract_x
_atom_site_fract_y
_atom_site_fract_z
Si Si1 0.321784 0.929179 0.141931
Si Si2 0.021153 0.215410 0.566401
Si Si3 0.821141 0.258308 0.997505
Si Si4 0.074579 0.746755 0.315450
Si Si5 0.422131 0.978069 0.588480
Si Si6 0.797186 0.514176 0.741040
Si Si7 0.757289 0.205958 0.135101
O O1 0.338483 0.739150 0.231314
O O2 0.524601 0.151656 0.142440
O O3 0.344949 0.772282 0.100451
O O4 0.033530 0.038785 0.071448
O O5 0.077064 0.241395 0.651636
O O6 0.754596 0.077096 0.505777
O O7 0.000000 0.500000 0.500000
O O8 0.232880 0.057367 0.595010
O O9 0.672708 0.245982 0.036036
O O10 0.000000 0.500000 0.000000
O O11 0.097061 0.509093 0.306720
O O12 0.365178 0.806594 0.394898
O O13 0.942937 0.963473 0.214307
O O14 0.589822 0.732412 0.672215
O O15 0.048843 0.573833 0.831956
#
# Coordination Sequence:
#
# PCOD9051139 Si02
#       7
#     2   2   2   2   2   2   2
#     4  11  25  44  72  97 143 184 232 285 348 412
#     4  11  25  45  71 102 135 185 230 282 353 414
#     4  11  23  46  69 101 140 181 235 290 338 412
#     4  11  25  45  68 101 142 178 229 289 347 413
#     4  10  25  45  70  98 139 177 237 279 348 410
#     4  11  24  47  70 106 143 183 231 294 344 413
#     4  11  25  43  69 105 136 186 234 280 352 412
#
# _framework density 24.742167999999999
#
# number of rings (size 3 to 8) (size 9 to 14) (size 15 to 20)
#    0.000    1.143    2.857    1.714    4.000    8.571 
#    0.000    0.000    0.000    0.000    0.000    0.000 
#    0.000    0.000    0.000    0.000    0.000    0.000 
#
# Total GULP energy -78328.566398 kJ/mol
# GULP energy per Si atom -5594.897600 kJ/mol
# Density = 2.468585 g / cm^3
# Si number density = 24.742168 Si / 1000 Ang^3
#
#
#
# Elastic Constant Matrix: (Units=GPa)
#
#
# Indices 1 2 3 4 5 6 
#
# 1 102.0977 11.2370 14.7520 12.3080 -8.4116 -17.6979
# 2 11.2370 63.4611 14.4479 4.1485 -8.3169 -16.6914
# 3 14.7520 14.4479 45.4071 15.2337 -19.8891 -18.9130
# 4 12.3080 4.1485 15.2337 30.3896 0.5759 2.9653
# 5 -8.4116 -8.3169 -19.8891 0.5759 45.8040 9.9800
# 6 -17.6979 -16.6914 -18.9130 2.9653 9.9800 46.1083
#
#
#
# Elastic Compliance Matrix: (Units=1/GPa)
#
#
# Indices 1 2 3 4 5 6 
#
# 1 0.011279 -0.000449 0.000783 -0.005368 0.001411 0.004528
# 2 -0.000449 0.018002 -0.002426 -0.001590 0.001013 0.005233
# 3 0.000783 -0.002426 0.043856 -0.023784 0.015657 0.015552
# 4 -0.005368 -0.001590 -0.023784 0.048714 -0.009269 -0.013518
# 5 0.001411 0.001013 0.015657 -0.009269 0.028822 0.001688
# 6 0.004528 0.005233 0.015552 -0.013518 0.001688 0.032204
#
#
# Mechanical properties :
#
#
# Convention : Reuss Voigt Hill
#
# Bulk Modulus (GPa) = 14.50234 32.42664 23.46449
# Shear Modulus (GPa) = 23.80447 35.82898 29.81672
#
# Velocity S-wave (km/s) = 3.10514 3.80951 3.47522
# Velocity P-wave (km/s) = 4.32781 5.69948 5.06034
#
# Compressibility (1/GPa) = 0.06895439
#
# Stress axis : x y z
#
# Youngs Moduli (GPa) = 88.66035 55.54831 22.80215
#
# Poissons Ratio (x) = 0.02493 -0.01786
# Poissons Ratio (y) = 0.03979 0.05532
# Poissons Ratio (z) = -0.06946 0.13475
#
# Static dielectric constant tensor:
#      x y z
#    x 2.031200 -0.010010 -0.039910 
#    y -0.010010 1.955210 0.029000 
#    z -0.039910 0.029000 2.013460 
# 
# From -- ./inp_files/6351.got.cif
#   From: 2010.05.17/outbox.cif.g08.bks.cpg/sg2_4_cif.got.tgz:6351.got - 2010.06.03 11:33:40.
