data_PCOD9051033
_publ_section_title
;
Structure prediction by ZEFSAII (Michael W. Deem and Ramdas Pophale) SiO2 
 PCOD9051033
Probable space group: P -1
;
_chemical_formula_sum "Si O2"
_cell_formula_units_Z 14
_cell_length_a 8.251017
_cell_length_b 18.672248
_cell_length_c 15.953841
_cell_angle_alpha 21.712064
_cell_angle_beta 137.173040
_cell_angle_gamma 131.475627
_cell_volume 616.343501
_symmetry_space_group_name_H-M "P -1"
_symmetry_group_IT_number 2
_symmetry_cell_setting 'triclinic'
loop_
_space_group_symop_operation_xyz
x,y,z
-x,-y,-z
loop_
_atom_site_type_symbol
_atom_site_label
_atom_site_fract_x
_atom_site_fract_y
_atom_site_fract_z
Si Si1 0.439896 0.663703 0.643944
Si Si2 0.684692 0.708622 0.512556
Si Si3 0.046924 0.009114 0.106235
Si Si4 0.660550 0.727876 0.298270
Si Si5 0.199040 0.857896 0.883102
Si Si6 0.042585 0.396515 0.039471
Si Si7 0.049712 0.369887 0.823490
O O1 0.522782 0.650188 0.592189
O O2 0.276510 0.864202 0.373054
O O3 0.676815 0.658363 0.796238
O O4 0.285599 0.483668 0.801111
O O5 0.559052 0.712800 0.370268
O O6 0.776217 0.915257 0.347096
O O7 0.918718 0.559001 0.754079
O O8 0.818549 0.912751 0.162881
O O9 0.070920 0.226926 0.907755
O O10 0.000000 0.000000 0.000000
O O11 0.838832 0.541254 0.549072
O O12 0.544353 0.238633 0.884620
O O13 0.111506 0.785888 0.838551
O O14 0.010867 0.775314 0.966491
O O15 0.000000 0.500000 0.000000
#
# Coordination Sequence:
#
# PCOD9051033 Si02
#       7
#     2   2   2   2   2   2   2
#     4  10  26  45  67 100 143 174 227 276 340 398
#     4  11  23  44  73 101 134 176 229 287 329 403
#     4  11  25  44  67 103 142 176 219 281 342 407
#     4  11  24  43  72 104 135 171 234 281 337 404
#     4  12  24  41  74 101 131 181 229 279 337 399
#     4  10  25  45  68 100 137 179 230 279 332 399
#     4  11  25  44  67 100 136 181 219 275 352 392
#
# _framework density 22.714606
#
# number of rings (size 3 to 8) (size 9 to 14) (size 15 to 20)
#    0.000    1.143    2.857    1.714    2.000   12.000 
#    0.000    1.429    0.000    0.000    0.000    0.000 
#    0.000    0.000    0.000    0.000    0.000    0.000 
#
# Total GULP energy -78337.915137 kJ/mol
# GULP energy per Si atom -5595.565367 kJ/mol
# Density = 2.266291 g / cm^3
# Si number density = 22.714606 Si / 1000 Ang^3
#
#
#
# Elastic Constant Matrix: (Units=GPa)
#
#
# Indices 1 2 3 4 5 6 
#
# 1 58.3336 21.1154 11.1198 4.8453 4.6225 10.0814
# 2 21.1154 144.5564 32.5416 -3.2646 29.1288 7.6713
# 3 11.1198 32.5416 78.6098 -9.8545 22.0142 15.5842
# 4 4.8453 -3.2646 -9.8545 40.7617 0.4993 5.8987
# 5 4.6225 29.1288 22.0142 0.4993 34.2513 -5.9954
# 6 10.0814 7.6713 15.5842 5.8987 -5.9954 42.7054
#
#
#
# Elastic Compliance Matrix: (Units=1/GPa)
#
#
# Indices 1 2 3 4 5 6 
#
# 1 0.019009 -0.002294 -0.001255 -0.002257 -0.000362 -0.003356
# 2 -0.002294 0.009019 -0.000885 0.001146 -0.007144 -0.001917
# 3 -0.001255 -0.000885 0.019747 0.006398 -0.013532 -0.009534
# 4 -0.002257 0.001146 0.006398 0.027486 -0.006355 -0.006697
# 5 -0.000362 -0.007144 -0.013532 -0.006355 0.046511 0.013715
# 6 -0.003356 -0.001917 -0.009534 -0.006697 0.013715 0.030883
#
#
# Mechanical properties :
#
#
# Convention : Reuss Voigt Hill
#
# Bulk Modulus (GPa) = 25.70250 45.67262 35.68756
# Shear Modulus (GPa) = 28.65473 37.99190 33.32331
#
# Velocity S-wave (km/s) = 3.55563 4.09415 3.83436
# Velocity P-wave (km/s) = 5.31005 6.51922 5.94545
#
# Compressibility (1/GPa) = 0.03890671
#
# Stress axis : x y z
#
# Youngs Moduli (GPa) = 52.60775 110.87490 50.64173
#
# Poissons Ratio (x) = 0.25433 0.06357
# Poissons Ratio (y) = 0.12067 0.04480
# Poissons Ratio (z) = 0.06604 0.09809
#
# Static dielectric constant tensor:
#      x y z
#    x 1.924330 -0.021300 -0.025920 
#    y -0.021300 1.856210 0.013770 
#    z -0.025920 0.013770 1.873220 
# 
# From -- ./inp_files/499732.got.cif
#   From: 2010.05.17/outbox.cif.g08.bks.cpg/sg2_250_cif.got.tgz:499732.got - 2010.06.03 11:33:40.
