data_PCOD9051714
_publ_section_title
;
Structure prediction by ZEFSAII (Michael W. Deem and Ramdas Pophale) SiO2 
 PCOD9051714
Probable space group: P -1
;
_chemical_formula_sum "Si O2"
_cell_formula_units_Z 12
_cell_length_a 9.651626
_cell_length_b 13.071592
_cell_length_c 13.768228
_cell_angle_alpha 32.282516
_cell_angle_beta 48.101929
_cell_angle_gamma 72.077282
_cell_volume 527.070967
_symmetry_space_group_name_H-M "P -1"
_symmetry_group_IT_number 2
_symmetry_cell_setting 'triclinic'
loop_
_space_group_symop_operation_xyz
x,y,z
-x,-y,-z
loop_
_atom_site_type_symbol
_atom_site_label
_atom_site_fract_x
_atom_site_fract_y
_atom_site_fract_z
Si Si1 0.651805 0.494386 0.350915
Si Si2 0.759530 0.424186 0.723432
Si Si3 0.237394 0.123953 0.162579
Si Si4 0.782357 0.870112 0.286069
Si Si5 0.856983 0.322254 0.969967
Si Si6 0.265527 0.392969 0.130028
O O1 0.500000 0.500000 0.500000
O O2 0.462189 0.266867 0.551638
O O3 0.851723 0.488677 0.306489
O O4 0.776208 0.742461 0.028892
O O5 0.774785 0.663189 0.510597
O O6 0.770393 0.360295 0.879681
O O7 0.000000 0.500000 0.500000
O O8 0.500559 0.193259 0.981618
O O9 0.262168 0.271688 0.129455
O O10 0.992257 0.838156 0.514180
O O11 0.797948 0.059782 0.197702
O O12 0.000000 0.000000 0.000000
O O13 0.746048 0.384320 0.054854
O O14 0.500000 0.500000 0.000000
#
# Coordination Sequence:
#
# PCOD9051714 Si02
#       6
#     2   2   2   2   2   2
#     4  11  24  44  68 107 144 184 235 298 367 432
#     4  11  22  43  71 103 142 190 232 298 366 424
#     4  10  25  47  73 103 146 188 246 303 349 438
#     4  11  23  42  64 101 149 178 236 296 349 442
#     4  12  25  40  72 102 135 194 236 289 371 420
#     4  11  25  47  75 102 141 194 254 295 352 432
#
# _framework density 22.767332
#
# number of rings (size 3 to 8) (size 9 to 14) (size 15 to 20)
#    0.000    1.000    5.000    1.000    4.667    0.667 
#    0.000    8.333    0.000    0.000    0.000    0.000 
#    0.000    0.000    0.000    0.000    0.000    0.000 
#
# Total GULP energy -67107.706569 kJ/mol
# GULP energy per Si atom -5592.308881 kJ/mol
# Density = 2.271551 g / cm^3
# Si number density = 22.767332 Si / 1000 Ang^3
#
#
#
# Elastic Constant Matrix: (Units=GPa)
#
#
# Indices 1 2 3 4 5 6 
#
# 1 135.5325 22.4066 42.9196 -12.3661 -24.1725 -10.2153
# 2 22.4066 105.7428 27.5101 -18.2849 -26.3298 -17.9967
# 3 42.9196 27.5101 117.7169 -3.2887 -15.2858 -9.3267
# 4 -12.3661 -18.2849 -3.2887 35.1071 2.7523 -2.5615
# 5 -24.1725 -26.3298 -15.2858 2.7523 43.9920 5.7624
# 6 -10.2153 -17.9967 -9.3267 -2.5615 5.7624 35.6841
#
#
#
# Elastic Compliance Matrix: (Units=1/GPa)
#
#
# Indices 1 2 3 4 5 6 
#
# 1 0.009309 0.000623 -0.002776 0.003156 0.004087 0.001820
# 2 0.000623 0.013737 -0.001894 0.007115 0.006669 0.006045
# 3 -0.002776 -0.001894 0.010081 -0.001035 0.000820 0.000678
# 4 0.003156 0.007115 -0.001035 0.033442 0.002731 0.006181
# 5 0.004087 0.006669 0.000820 0.002731 0.029050 0.000253
# 6 0.001820 0.006045 0.000678 0.006181 0.000253 0.032174
#
#
# Mechanical properties :
#
#
# Convention : Reuss Voigt Hill
#
# Bulk Modulus (GPa) = 39.94790 60.51831 50.23310
# Shear Modulus (GPa) = 34.66670 40.70037 37.68353
#
# Velocity S-wave (km/s) = 3.90635 4.23267 4.07278
# Velocity P-wave (km/s) = 6.15876 7.10818 6.65043
#
# Compressibility (1/GPa) = 0.02503260
#
# Stress axis : x y z
#
# Youngs Moduli (GPa) = 107.42793 72.79365 99.19568
#
# Poissons Ratio (x) = -0.04534 0.27541
# Poissons Ratio (y) = -0.06692 0.18785
# Poissons Ratio (z) = 0.29826 0.13785
#
# Static dielectric constant tensor:
#      x y z
#    x 1.810140 0.009500 -0.012380 
#    y 0.009500 1.890470 -0.016110 
#    z -0.012380 -0.016110 1.873970 
# 
# From -- ./inp_files/504890.got.cif
#   From: 2010.05.17/outbox.cif.g08.bks.cpg/sg2_253_cif.got.tgz:504890.got - 2010.06.03 11:33:40.
