data_PCOD9051533
_publ_section_title
;
Structure prediction by ZEFSAII (Michael W. Deem and Ramdas Pophale) SiO2 
 PCOD9051533
Probable space group: P -1
;
_chemical_formula_sum "Si O2"
_cell_formula_units_Z 14
_cell_length_a 25.110993
_cell_length_b 7.056224
_cell_length_c 7.817368
_cell_angle_alpha 63.539967
_cell_angle_beta 30.484301
_cell_angle_gamma 51.990522
_cell_volume 540.962812
_symmetry_space_group_name_H-M "P -1"
_symmetry_group_IT_number 2
_symmetry_cell_setting 'triclinic'
loop_
_space_group_symop_operation_xyz
x,y,z
-x,-y,-z
loop_
_atom_site_type_symbol
_atom_site_label
_atom_site_fract_x
_atom_site_fract_y
_atom_site_fract_z
Si Si1 0.896640 0.766752 0.122656
Si Si2 0.648544 0.341828 0.146539
Si Si3 0.676432 0.740054 0.713256
Si Si4 0.514736 0.739268 0.851230
Si Si5 0.186309 0.145312 0.306196
Si Si6 0.037082 0.882900 0.135143
Si Si7 0.258271 0.526244 0.867238
O O1 0.795715 0.737446 0.313638
O O2 0.829365 0.898375 0.434021
O O3 0.000000 0.500000 0.000000
O O4 0.964000 0.910403 0.821364
O O5 0.500000 0.500000 0.500000
O O6 0.713837 0.293071 0.170452
O O7 0.698694 0.505600 0.854517
O O8 0.699512 0.091649 0.000442
O O9 0.590620 0.741572 0.802478
O O10 0.601895 0.990739 0.928348
O O11 0.604462 0.688130 0.467273
O O12 0.500000 0.500000 0.000000
O O13 0.066431 0.185112 0.521081
O O14 0.194675 0.388656 0.180236
O O15 0.174135 0.661904 0.881046
O O16 0.000000 0.000000 0.000000
#
# Coordination Sequence:
#
# PCOD9051533 Si02
#       7
#     2   2   2   2   2   2   2
#     4  11  24  45  76 104 140 193 245 295 364 436
#     4  12  27  45  73 107 151 192 241 299 372 433
#     4  11  25  45  71 106 146 191 248 298 360 438
#     4  11  26  44  74 107 147 194 246 301 361 435
#     4  11  26  47  73 107 147 190 240 307 366 430
#     4  10  25  46  74 103 140 189 241 304 362 429
#     4  12  26  46  74 109 146 190 246 302 367 438
#
# _framework density 25.879784999999998
#
# number of rings (size 3 to 8) (size 9 to 14) (size 15 to 20)
#    0.000    0.857    1.429    3.857   12.000    5.143 
#    0.000    0.000    0.000    0.000    0.000    0.000 
#    0.000    0.000    0.000    0.000    0.000    0.000 
#
# Total GULP energy -78269.318125 kJ/mol
# GULP energy per Si atom -5590.665580 kJ/mol
# Density = 2.582088 g / cm^3
# Si number density = 25.879785 Si / 1000 Ang^3
#
#
#
# Elastic Constant Matrix: (Units=GPa)
#
#
# Indices 1 2 3 4 5 6 
#
# 1 117.4476 28.0086 31.3887 -0.4140 -35.5003 22.5428
# 2 28.0086 107.5387 21.6673 -7.7192 -14.5442 28.4345
# 3 31.3887 21.6673 77.5862 -5.1432 -31.9208 18.3124
# 4 -0.4140 -7.7192 -5.1432 59.9572 7.6791 -2.6982
# 5 -35.5003 -14.5442 -31.9208 7.6791 49.1150 -6.2072
# 6 22.5428 28.4345 18.3124 -2.6982 -6.2072 44.0153
#
#
#
# Elastic Compliance Matrix: (Units=1/GPa)
#
#
# Indices 1 2 3 4 5 6 
#
# 1 0.012042 -0.000931 -0.000472 -0.001268 0.007770 -0.004352
# 2 -0.000931 0.011658 -0.000733 0.000969 0.001330 -0.006503
# 3 -0.000472 -0.000733 0.019256 -0.000145 0.011256 -0.005717
# 4 -0.001268 0.000969 -0.000145 0.017239 -0.003335 0.000671
# 5 0.007770 0.001330 0.011256 -0.003335 0.033576 -0.004991
# 6 -0.004352 -0.006503 -0.005717 0.000671 -0.004991 0.030865
#
#
# Mechanical properties :
#
#
# Convention : Reuss Voigt Hill
#
# Bulk Modulus (GPa) = 25.85084 51.63352 38.74218
# Shear Modulus (GPa) = 35.26041 45.38470 40.32255
#
# Velocity S-wave (km/s) = 3.69517 4.19223 3.95152
# Velocity P-wave (km/s) = 5.31189 6.58997 5.98514
#
# Compressibility (1/GPa) = 0.03868346
#
# Stress axis : x y z
#
# Youngs Moduli (GPa) = 83.04360 85.77937 51.93299
#
# Poissons Ratio (x) = 0.07984 0.02452
# Poissons Ratio (y) = 0.07730 0.03807
# Poissons Ratio (z) = 0.03921 0.06288
#
# Static dielectric constant tensor:
#      x y z
#    x 2.145240 0.119340 0.042090 
#    y 0.119340 1.664700 0.083050 
#    z 0.042090 0.083050 2.070960 
# 
# From -- ./inp_files/355968.got.cif
#   From: 2010.05.17/outbox.cif.g08.bks.cpg/sg2_178_cif.got.tgz:355968.got - 2010.06.03 11:33:40.
