data_PCOD9051299
_publ_section_title
;
Structure prediction by ZEFSAII (Michael W. Deem and Ramdas Pophale) SiO2 
 PCOD9051299
Probable space group: P -1
;
_chemical_formula_sum "Si O2"
_cell_formula_units_Z 11
_cell_length_a 8.784544
_cell_length_b 8.732218
_cell_length_c 11.448274
_cell_angle_alpha 141.301000
_cell_angle_beta 53.802462
_cell_angle_gamma 111.820569
_cell_volume 436.106687
_symmetry_space_group_name_H-M "P -1"
_symmetry_group_IT_number 2
_symmetry_cell_setting 'triclinic'
loop_
_space_group_symop_operation_xyz
x,y,z
-x,-y,-z
loop_
_atom_site_type_symbol
_atom_site_label
_atom_site_fract_x
_atom_site_fract_y
_atom_site_fract_z
Si Si1 0.716800 0.521045 0.434473
Si Si2 0.054522 0.262481 0.245219
Si Si3 0.098406 0.260256 0.742001
Si Si4 0.759053 0.025328 0.815446
Si Si5 0.500000 0.000000 0.500000
Si Si6 0.434078 0.257046 0.935615
O O1 0.500000 0.500000 0.500000
O O2 0.816039 0.622725 0.338965
O O3 0.851885 0.279371 0.282048
O O4 0.708386 0.753683 0.662716
O O5 0.000000 0.500000 0.500000
O O6 0.145047 0.008102 0.119768
O O7 0.216333 0.311772 0.110709
O O8 0.931524 0.097980 0.704105
O O9 0.273968 0.107304 0.643571
O O10 0.000000 0.500000 0.000000
O O11 0.567675 0.193081 0.952882
O O12 0.526008 0.936356 0.304884
O O13 0.500000 0.500000 0.000000
#
# Coordination Sequence:
#
# PCOD9051299 Si02
#       6
#     2   2   2   2   1   2
#     4  11  25  47  74 110 154 201 263 327 391 479
#     4  10  25  45  78 113 153 207 265 325 407 479
#     4  12  27  49  76 115 155 208 270 329 396 485
#     4  11  25  48  79 107 158 205 261 327 406 466
#     4  12  28  44  82 114 160 202 276 322 404 468
#     4  12  26  49  81 115 157 213 267 329 405 482
#
# _framework density 25.223184
#
# number of rings (size 3 to 8) (size 9 to 14) (size 15 to 20)
#    0.000    0.727    1.818    4.364    7.636    5.818 
#    0.000    2.727    0.000    0.000    0.000    0.000 
#    0.000    0.000    0.000    0.000    0.000    0.000 
#
# Total GULP energy -61237.569424 kJ/mol
# GULP energy per Si atom -5567.051766 kJ/mol
# Density = 2.516577 g / cm^3
# Si number density = 25.223184 Si / 1000 Ang^3
#
#
#
# Elastic Constant Matrix: (Units=GPa)
#
#
# Indices 1 2 3 4 5 6 
#
# 1 178.7279 49.9068 63.0979 -1.8347 -49.9920 3.4165
# 2 49.9068 115.0281 32.6143 -18.7329 -9.0375 4.4097
# 3 63.0979 32.6143 121.3315 -34.9090 -15.8884 8.1839
# 4 -1.8347 -18.7329 -34.9090 41.0353 -4.4465 -6.9754
# 5 -49.9920 -9.0375 -15.8884 -4.4465 56.8639 -3.7400
# 6 3.4165 4.4097 8.1839 -6.9754 -3.7400 45.4080
#
#
#
# Elastic Compliance Matrix: (Units=1/GPa)
#
#
# Indices 1 2 3 4 5 6 
#
# 1 0.009930 -0.003159 -0.004682 -0.004214 0.006610 0.000301
# 2 -0.003159 0.010774 0.000013 0.004687 -0.000705 -0.000149
# 3 -0.004682 0.000013 0.014229 0.011931 0.000774 -0.000317
# 4 -0.004214 0.004687 0.011931 0.037495 0.003553 0.003764
# 5 0.006610 -0.000705 0.000774 0.003553 0.023907 0.001947
# 6 0.000301 -0.000149 -0.000317 0.003764 0.001947 0.022810
#
#
# Mechanical properties :
#
#
# Convention : Reuss Voigt Hill
#
# Bulk Modulus (GPa) = 51.87705 78.48061 65.17883
# Shear Modulus (GPa) = 35.40409 46.62603 41.01506
#
# Velocity S-wave (km/s) = 3.75057 4.30413 4.03685
# Velocity P-wave (km/s) = 6.27436 7.47547 6.90110
#
# Compressibility (1/GPa) = 0.01927635
#
# Stress axis : x y z
#
# Youngs Moduli (GPa) = 100.70439 92.81514 70.28096
#
# Poissons Ratio (x) = 0.29323 0.32905
# Poissons Ratio (y) = 0.31815 -0.00091
# Poissons Ratio (z) = 0.47149 -0.00121
#
# Static dielectric constant tensor:
#      x y z
#    x 2.288220 -0.089360 0.096780 
#    y -0.089360 2.010520 0.006650 
#    z 0.096780 0.006650 2.042320 
# 
# From -- ./inp_files/153225.got.cif
#   From: 2010.05.17/outbox.cif.g08.bks.cpg/sg2_77_cif.got.tgz:153225.got - 2010.06.03 11:33:40.
