data_PCOD9051155
_publ_section_title
;
Structure prediction by ZEFSAII (Michael W. Deem and Ramdas Pophale) SiO2 
 PCOD9051155
Probable space group: P -1
;
_chemical_formula_sum "Si O2"
_cell_formula_units_Z 14
_cell_length_a 14.120752
_cell_length_b 7.256210
_cell_length_c 7.749829
_cell_angle_alpha 136.996802
_cell_angle_beta 94.354976
_cell_angle_gamma 91.140156
_cell_volume 536.692291
_symmetry_space_group_name_H-M "P -1"
_symmetry_group_IT_number 2
_symmetry_cell_setting 'triclinic'
loop_
_space_group_symop_operation_xyz
x,y,z
-x,-y,-z
loop_
_atom_site_type_symbol
_atom_site_label
_atom_site_fract_x
_atom_site_fract_y
_atom_site_fract_z
Si Si1 0.612493 0.104267 0.068945
Si Si2 0.451248 0.381960 0.735433
Si Si3 0.057418 0.891489 0.272874
Si Si4 0.366662 0.821670 0.490606
Si Si5 0.926941 0.222860 0.293594
Si Si6 0.170613 0.556583 0.258986
Si Si7 0.206761 0.058438 0.165807
O O1 0.614331 0.408947 0.208291
O O2 0.654406 0.099285 0.262826
O O3 0.500000 0.000000 0.000000
O O4 0.680820 0.954188 0.850242
O O5 0.541360 0.343224 0.600407
O O6 0.397451 0.090838 0.572128
O O7 0.500000 0.500000 0.000000
O O8 0.140473 0.766510 0.542057
O O9 0.093958 0.601437 0.130345
O O10 0.000000 0.000000 0.500000
O O11 0.988927 0.969527 0.160444
O O12 0.277415 0.647367 0.272988
O O13 0.000000 0.500000 0.500000
O O14 0.855410 0.204537 0.109327
O O15 0.179086 0.291159 0.191799
O O16 0.158236 0.068566 0.353082
#
# Coordination Sequence:
#
# PCOD9051155 Si02
#       7
#     2   2   2   2   2   2   2
#     4  12  25  45  73 107 144 192 238 286 364 423
#     4  11  25  44  70  99 144 183 240 294 348 416
#     4  10  25  45  71 104 139 187 236 296 361 417
#     4  11  25  45  69 103 141 190 234 298 346 424
#     4  11  23  48  70 102 143 181 238 296 351 422
#     4  11  25  44  70 102 144 180 243 287 357 425
#     4  12  26  45  74 104 145 190 234 299 357 423
#
# _framework density 26.085709999999999
#
# number of rings (size 3 to 8) (size 9 to 14) (size 15 to 20)
#    0.000    0.857    4.286    1.714    2.000    2.857 
#    5.143    0.000    0.000    0.000    0.000    0.000 
#    0.000    0.000    0.000    0.000    0.000    0.000 
#
# Total GULP energy -78291.948942 kJ/mol
# GULP energy per Si atom -5592.282067 kJ/mol
# Density = 2.602634 g / cm^3
# Si number density = 26.085710 Si / 1000 Ang^3
#
#
#
# Elastic Constant Matrix: (Units=GPa)
#
#
# Indices 1 2 3 4 5 6 
#
# 1 188.3753 74.9969 17.2447 4.1562 2.3259 2.9857
# 2 74.9969 142.5890 12.9259 9.0259 -0.3414 -15.5569
# 3 17.2447 12.9259 42.0686 -8.7666 11.2867 6.1501
# 4 4.1562 9.0259 -8.7666 38.1498 1.1538 -9.4906
# 5 2.3259 -0.3414 11.2867 1.1538 39.9604 -1.0919
# 6 2.9857 -15.5569 6.1501 -9.4906 -1.0919 47.9074
#
#
#
# Elastic Compliance Matrix: (Units=1/GPa)
#
#
# Indices 1 2 3 4 5 6 
#
# 1 0.006942 -0.003627 -0.001646 -0.000657 0.000007 -0.001529
# 2 -0.003627 0.009639 -0.002638 -0.001684 0.001180 0.003388
# 3 -0.001646 -0.002638 0.029501 0.007008 -0.008553 -0.003348
# 4 -0.000657 -0.001684 0.007008 0.029461 -0.002687 0.004369
# 5 0.000007 0.001180 -0.008553 -0.002687 0.027571 0.001577
# 6 -0.001529 0.003388 -0.003348 0.004369 0.001577 0.023400
#
#
# Mechanical properties :
#
#
# Convention : Reuss Voigt Hill
#
# Bulk Modulus (GPa) = 33.04790 64.81865 48.93327
# Shear Modulus (GPa) = 32.80339 43.06122 37.93230
#
# Velocity S-wave (km/s) = 3.55000 4.06736 3.81746
# Velocity P-wave (km/s) = 5.43138 6.85275 6.18304
#
# Compressibility (1/GPa) = 0.03025911
#
# Stress axis : x y z
#
# Youngs Moduli (GPa) = 144.05055 103.74361 33.89761
#
# Poissons Ratio (x) = 0.37630 0.05581
# Poissons Ratio (y) = 0.52250 0.08941
# Poissons Ratio (z) = 0.23717 0.27364
#
# Static dielectric constant tensor:
#      x y z
#    x 2.094140 0.032140 0.011690 
#    y 0.032140 2.109890 -0.017640 
#    z 0.011690 -0.017640 2.151620 
# 
# From -- ./inp_files/289303.got.cif
#   From: 2010.05.17/outbox.cif.g08.bks.cpg/sg2_145_cif.got.tgz:289303.got - 2010.06.03 11:33:40.
