data_PCOD9051196
_publ_section_title
;
Structure prediction by ZEFSAII (Michael W. Deem and Ramdas Pophale) SiO2 
 PCOD9051196
Probable space group: P -1
;
_chemical_formula_sum "Si O2"
_cell_formula_units_Z 16
_cell_length_a 9.974398
_cell_length_b 18.851707
_cell_length_c 4.998070
_cell_angle_alpha 104.598346
_cell_angle_beta 77.404352
_cell_angle_gamma 133.416418
_cell_volume 659.272353
_symmetry_space_group_name_H-M "P -1"
_symmetry_group_IT_number 2
_symmetry_cell_setting 'triclinic'
loop_
_space_group_symop_operation_xyz
x,y,z
-x,-y,-z
loop_
_atom_site_type_symbol
_atom_site_label
_atom_site_fract_x
_atom_site_fract_y
_atom_site_fract_z
Si Si1 0.025619 0.285670 0.574249
Si Si2 0.987457 0.581984 0.655967
Si Si3 0.631949 0.312201 0.166680
Si Si4 0.197280 0.275604 0.987246
Si Si5 0.020861 0.953555 0.196643
Si Si6 0.564061 0.891715 0.777166
Si Si7 0.388603 0.599054 0.234461
Si Si8 0.395989 0.890544 0.354806
O O1 0.816386 0.183000 0.548029
O O2 0.023300 0.367706 0.543114
O O3 0.089922 0.291679 0.850085
O O4 0.152328 0.283952 0.315417
O O5 0.789646 0.516329 0.827266
O O6 0.000000 0.500000 0.500000
O O7 0.178433 0.661910 0.809418
O O8 0.457175 0.198034 0.187873
O O9 0.608085 0.372397 0.433629
O O10 0.647911 0.344786 0.889625
O O11 0.413105 0.358457 0.902481
O O12 0.117280 0.164862 0.866208
O O13 0.233456 0.003127 0.170440
O O14 0.000000 0.000000 0.500000
O O15 0.000000 0.000000 0.000000
O O16 0.497693 0.867351 0.477460
O O17 0.427048 0.887056 0.026457
O O18 0.500000 0.000000 0.500000
#
# Coordination Sequence:
#
# PCOD9051196 Si02
#       8
#     2   2   2   2   2   2   2   2
#     4  12  26  45  69  99 143 181 226 292 340 412
#     4  10  25  45  72 101 135 177 237 292 351 397
#     4  11  22  42  68 101 132 170 230 286 345 399
#     4  12  26  45  68 100 144 182 230 272 354 414
#     4  12  24  43  68 102 139 183 231 276 333 410
#     4  12  23  39  67  94 131 173 222 275 333 394
#     4  11  24  43  68  98 134 178 223 286 340 416
#     4  12  24  42  64  96 133 176 223 267 342 403
#
# _framework density 24.269179000000001
#
# number of rings (size 3 to 8) (size 9 to 14) (size 15 to 20)
#    0.000    0.500    1.250    7.500    1.750    3.000 
#    0.000    0.000    0.000    0.000    0.000    0.000 
#    0.000    0.000    0.000    0.000    0.000    0.000 
#
# Total GULP energy -89640.336013 kJ/mol
# GULP energy per Si atom -5602.521001 kJ/mol
# Density = 2.421394 g / cm^3
# Si number density = 24.269179 Si / 1000 Ang^3
#
#
#
# Elastic Constant Matrix: (Units=GPa)
#
#
# Indices 1 2 3 4 5 6 
#
# 1 82.7565 33.7715 -0.4564 -10.6693 6.0211 18.1104
# 2 33.7715 126.7148 12.1923 -11.0020 -8.0676 4.4457
# 3 -0.4564 12.1923 72.4772 -0.8505 -2.7757 -3.2212
# 4 -10.6693 -11.0020 -0.8505 35.1278 -4.9247 -7.6228
# 5 6.0211 -8.0676 -2.7757 -4.9247 49.3604 -13.7350
# 6 18.1104 4.4457 -3.2212 -7.6228 -13.7350 58.6257
#
#
#
# Elastic Compliance Matrix: (Units=1/GPa)
#
#
# Indices 1 2 3 4 5 6 
#
# 1 0.015340 -0.004035 0.000429 0.001786 -0.003734 -0.005052
# 2 -0.004035 0.009423 -0.001424 0.002346 0.002565 0.001360
# 3 0.000429 -0.001424 0.014119 0.000356 0.000820 0.000990
# 4 0.001786 0.002346 0.000356 0.031352 0.004547 0.004432
# 5 -0.003734 0.002565 0.000820 0.004547 0.023617 0.007128
# 6 -0.005052 0.001360 0.000990 0.004432 0.007128 0.020816
#
#
# Mechanical properties :
#
#
# Convention : Reuss Voigt Hill
#
# Bulk Modulus (GPa) = 34.69635 41.44036 38.06835
# Shear Modulus (GPa) = 37.21993 44.38554 40.80274
#
# Velocity S-wave (km/s) = 3.92041 4.28119 4.10476
# Velocity P-wave (km/s) = 5.90087 6.44596 6.17943
#
# Compressibility (1/GPa) = 0.02882148
#
# Stress axis : x y z
#
# Youngs Moduli (GPa) = 65.18837 106.11788 70.82497
#
# Poissons Ratio (x) = 0.42819 -0.03037
# Poissons Ratio (y) = 0.26304 0.10089
# Poissons Ratio (z) = -0.02795 0.15116
#
# Static dielectric constant tensor:
#      x y z
#    x 1.998080 -0.037620 -0.042020 
#    y -0.037620 1.937800 0.027380 
#    z -0.042020 0.027380 1.976870 
# 
# From -- ./inp_files/48215.got.cif
#   From: 2010.05.17/outbox.cif.g08.bks.cpg/sg2_25_cif.got.tgz:48215.got - 2010.06.03 11:33:40.
