data_PCOD9051792
_publ_section_title
;
Structure prediction by ZEFSAII (Michael W. Deem and Ramdas Pophale) SiO2 
 PCOD9051792
Probable space group: P -1
;
_chemical_formula_sum "Si O2"
_cell_formula_units_Z 12
_cell_length_a 15.483480
_cell_length_b 5.225271
_cell_length_c 8.732802
_cell_angle_alpha 82.467782
_cell_angle_beta 135.919266
_cell_angle_gamma 103.349026
_cell_volume 477.601739
_symmetry_space_group_name_H-M "P -1"
_symmetry_group_IT_number 2
_symmetry_cell_setting 'triclinic'
loop_
_space_group_symop_operation_xyz
x,y,z
-x,-y,-z
loop_
_atom_site_type_symbol
_atom_site_label
_atom_site_fract_x
_atom_site_fract_y
_atom_site_fract_z
Si Si1 0.960342 0.258648 0.354961
Si Si2 0.980288 0.032465 0.795342
Si Si3 0.211432 0.488580 0.061641
Si Si4 0.492757 0.769844 0.883893
Si Si5 0.239345 0.767238 0.377995
Si Si6 0.388449 0.146524 0.290424
O O1 0.000000 0.500000 0.500000
O O2 0.033575 0.240942 0.290090
O O3 0.000000 0.000000 0.500000
O O4 0.822305 0.284783 0.110865
O O5 0.856123 0.156735 0.624545
O O6 0.107874 0.236971 0.893700
O O7 0.000000 0.000000 0.000000
O O8 0.186047 0.546240 0.201733
O O9 0.354778 0.440259 0.240385
O O10 0.360339 0.716774 0.626952
O O11 0.596138 0.855851 0.874179
O O12 0.500000 0.500000 0.000000
O O13 0.500000 0.000000 0.000000
O O14 0.284828 0.004211 0.294584
O O15 0.500000 0.000000 0.500000
#
# Coordination Sequence:
#
# PCOD9051792 Si02
#       6
#     2   2   2   2   2   2
#     4  12  27  47  70 111 161 206 256 320 392 460
#     4  12  24  46  75 118 156 205 266 314 387 475
#     4  12  24  45  81 111 161 207 263 316 394 471
#     4  11  29  52  76 113 152 200 260 332 402 457
#     4  11  26  46  81 113 153 209 269 322 387 481
#     4  10  25  47  78 109 152 202 269 321 393 463
#
# _framework density 25.125536
#
# number of rings (size 3 to 8) (size 9 to 14) (size 15 to 20)
#    0.000    0.667    5.000    0.500    7.000    4.000 
#    0.000    0.000    0.000    0.000    0.000    0.000 
#    0.000    0.000    0.000    0.000    0.000    0.000 
#
# Total GULP energy -66846.607019 kJ/mol
# GULP energy per Si atom -5570.550585 kJ/mol
# Density = 2.506835 g / cm^3
# Si number density = 25.125536 Si / 1000 Ang^3
#
#
#
# Elastic Constant Matrix: (Units=GPa)
#
#
# Indices 1 2 3 4 5 6 
#
# 1 97.9066 67.6398 43.9443 -12.8973 -3.4100 -30.8841
# 2 67.6398 175.3789 87.2531 -14.2821 -11.4181 -29.8298
# 3 43.9443 87.2531 181.8684 -32.0924 -13.5990 -13.6545
# 4 -12.8973 -14.2821 -32.0924 56.4279 -9.9853 -13.4023
# 5 -3.4100 -11.4181 -13.5990 -9.9853 57.0949 -2.8516
# 6 -30.8841 -29.8298 -13.6545 -13.4023 -2.8516 52.0329
#
#
#
# Elastic Compliance Matrix: (Units=1/GPa)
#
#
# Indices 1 2 3 4 5 6 
#
# 1 0.016807 -0.004333 -0.000375 0.004835 0.001328 0.008711
# 2 -0.004333 0.009403 -0.003185 0.000257 0.001013 0.002104
# 3 -0.000375 -0.003185 0.008164 0.004450 0.002131 0.001357
# 4 0.004835 0.000257 0.004450 0.025163 0.006351 0.011015
# 5 0.001328 0.001013 0.002131 0.006351 0.019647 0.004641
# 6 0.008711 0.002104 0.001357 0.011015 0.004641 0.029043
#
#
# Mechanical properties :
#
#
# Convention : Reuss Voigt Hill
#
# Bulk Modulus (GPa) = 53.80355 94.75870 74.28113
# Shear Modulus (GPa) = 38.39973 50.19892 44.29933
#
# Velocity S-wave (km/s) = 3.91361 4.47466 4.20351
# Velocity P-wave (km/s) = 6.47164 8.03074 7.29297
#
# Compressibility (1/GPa) = 0.01858613
#
# Stress axis : x y z
#
# Youngs Moduli (GPa) = 59.49775 106.35454 122.49388
#
# Poissons Ratio (x) = 0.46088 0.04599
# Poissons Ratio (y) = 0.25783 0.39011
# Poissons Ratio (z) = 0.02234 0.33871
#
# Static dielectric constant tensor:
#      x y z
#    x 2.276570 -0.174150 0.039840 
#    y -0.174150 2.519660 -0.025500 
#    z 0.039840 -0.025500 2.060410 
# 
# From -- ./inp_files/323779.got.cif
#   From: 2010.05.17/outbox.cif.g08.bks.cpg/sg2_162_cif.got.tgz:323779.got - 2010.06.03 11:33:40.
