data_PCOD9051650
_publ_section_title
;
Structure prediction by ZEFSAII (Michael W. Deem and Ramdas Pophale) SiO2 
 PCOD9051650
Probable space group: P -1
;
_chemical_formula_sum "Si O2"
_cell_formula_units_Z 16
_cell_length_a 12.442423
_cell_length_b 9.035368
_cell_length_c 12.609011
_cell_angle_alpha 120.756061
_cell_angle_beta 43.648664
_cell_angle_gamma 95.191070
_cell_volume 741.575396
_symmetry_space_group_name_H-M "P -1"
_symmetry_group_IT_number 2
_symmetry_cell_setting 'triclinic'
loop_
_space_group_symop_operation_xyz
x,y,z
-x,-y,-z
loop_
_atom_site_type_symbol
_atom_site_label
_atom_site_fract_x
_atom_site_fract_y
_atom_site_fract_z
Si Si1 0.551738 0.716364 0.576684
Si Si2 0.961625 0.703094 0.662341
Si Si3 0.349556 0.939452 0.612679
Si Si4 0.053575 0.920327 0.313365
Si Si5 0.443381 0.653868 0.003511
Si Si6 0.672602 0.423501 0.559843
Si Si7 0.882901 0.708232 0.214542
Si Si8 0.448569 0.053977 0.934773
O O1 0.383992 0.846776 0.670436
O O2 0.583360 0.525145 0.549522
O O3 0.720939 0.688569 0.377691
O O4 0.524455 0.859379 0.745005
O O5 0.000000 0.500000 0.500000
O O6 0.120028 0.638371 0.610180
O O7 0.966872 0.884414 0.661325
O O8 0.758911 0.805020 0.882143
O O9 0.356046 0.765152 0.472679
O O10 0.500000 0.000000 0.500000
O O11 0.176023 0.136074 0.782763
O O12 0.955618 0.809918 0.286044
O O13 0.254825 0.746738 0.115384
O O14 0.000000 0.000000 0.500000
O O15 0.585915 0.561955 0.773797
O O16 0.500000 0.500000 0.000000
O O17 0.446713 0.831701 0.127855
O O18 0.000000 0.500000 0.000000
O O19 0.500000 0.000000 0.000000
#
# Coordination Sequence:
#
# PCOD9051650 Si02
#       8
#     2   2   2   2   2   2   2   2
#     4  11  25  46  76  98 146 189 238 293 361 430
#     4  12  24  43  70 104 148 179 233 303 359 424
#     4  10  25  47  70  98 139 188 240 293 354 425
#     4  12  26  44  72 105 143 190 243 300 369 432
#     4  12  27  40  71 103 145 184 235 286 367 429
#     4  12  24  46  71 107 139 186 239 295 355 433
#     4  11  27  49  73 106 147 190 247 303 359 433
#     4  12  23  46  68 106 143 183 229 298 361 427
#
# _framework density 21.575689000000001
#
# number of rings (size 3 to 8) (size 9 to 14) (size 15 to 20)
#    0.000    0.500    5.000    1.875    8.750    1.000 
#    2.250    1.250    0.000    0.000    0.000    0.000 
#    0.000    0.000    0.000    0.000    0.000    0.000 
#
# Total GULP energy -89202.683140 kJ/mol
# GULP energy per Si atom -5575.167696 kJ/mol
# Density = 2.152658 g / cm^3
# Si number density = 21.575689 Si / 1000 Ang^3
#
#
#
# Elastic Constant Matrix: (Units=GPa)
#
#
# Indices 1 2 3 4 5 6 
#
# 1 76.3623 21.6318 19.7204 11.8528 1.5383 -16.7085
# 2 21.6318 120.4397 14.4734 37.2544 8.8144 -17.9233
# 3 19.7204 14.4734 98.4266 20.2523 4.2906 -13.7814
# 4 11.8528 37.2544 20.2523 35.2761 3.7377 4.9415
# 5 1.5383 8.8144 4.2906 3.7377 35.9227 8.6483
# 6 -16.7085 -17.9233 -13.7814 4.9415 8.6483 48.4981
#
#
#
# Elastic Compliance Matrix: (Units=1/GPa)
#
#
# Indices 1 2 3 4 5 6 
#
# 1 0.015498 -0.000136 -0.001192 -0.005036 -0.001337 0.005702
# 2 -0.000136 0.015543 0.003154 -0.019014 -0.004451 0.009325
# 3 -0.001192 0.003154 0.013181 -0.011074 -0.002612 0.006094
# 4 -0.005036 -0.019014 -0.011074 0.058610 0.004608 -0.018703
# 5 -0.001337 -0.004451 -0.002612 0.004608 0.030947 -0.008836
# 6 0.005702 0.009325 0.006094 -0.018703 -0.008836 0.031243
#
#
# Mechanical properties :
#
#
# Convention : Reuss Voigt Hill
#
# Bulk Modulus (GPa) = 20.88864 45.20887 33.04876
# Shear Modulus (GPa) = 28.19615 39.89957 34.04786
#
# Velocity S-wave (km/s) = 3.61896 4.30499 3.97680
# Velocity P-wave (km/s) = 5.21201 6.76090 6.03634
#
# Compressibility (1/GPa) = 0.04787290
#
# Stress axis : x y z
#
# Youngs Moduli (GPa) = 64.52379 64.33614 75.86795
#
# Poissons Ratio (x) = 0.00876 0.09046
# Poissons Ratio (y) = 0.00879 -0.23927
# Poissons Ratio (z) = 0.07693 -0.20290
#
# Static dielectric constant tensor:
#      x y z
#    x 1.847890 0.003080 -0.060290 
#    y 0.003080 1.754730 -0.013600 
#    z -0.060290 -0.013600 1.687900 
# 
# From -- ./inp_files/189034.got.cif
#   From: 2010.05.17/outbox.cif.g08.bks.cpg/sg2_95_cif.got.tgz:189034.got - 2010.06.03 11:33:40.
