data_PCOD9051609
_publ_section_title
;
Structure prediction by ZEFSAII (Michael W. Deem and Ramdas Pophale) SiO2 
 PCOD9051609
Probable space group: P -1
;
_chemical_formula_sum "Si O2"
_cell_formula_units_Z 16
_cell_length_a 14.955761
_cell_length_b 11.610105
_cell_length_c 7.763253
_cell_angle_alpha 68.624742
_cell_angle_beta 113.147902
_cell_angle_gamma 148.081797
_cell_volume 654.002132
_symmetry_space_group_name_H-M "P -1"
_symmetry_group_IT_number 2
_symmetry_cell_setting 'triclinic'
loop_
_space_group_symop_operation_xyz
x,y,z
-x,-y,-z
loop_
_atom_site_type_symbol
_atom_site_label
_atom_site_fract_x
_atom_site_fract_y
_atom_site_fract_z
Si Si1 0.620046 0.237928 0.521809
Si Si2 0.304212 0.778513 0.037536
Si Si3 0.865968 0.720142 0.694781
Si Si4 0.354360 0.175678 0.303084
Si Si5 0.542346 0.427829 0.827560
Si Si6 0.209204 0.959243 0.934107
Si Si7 0.773591 0.490655 0.166797
Si Si8 0.983047 0.117135 0.645957
O O1 0.696069 0.284797 0.739848
O O2 0.500881 0.233918 0.433208
O O3 0.751103 0.392588 0.379909
O O4 0.500000 0.000000 0.500000
O O5 0.385322 0.585085 0.957998
O O6 0.216148 0.599873 0.925545
O O7 0.500000 0.000000 0.000000
O O8 0.233389 0.841831 0.968182
O O9 0.670053 0.516640 0.723300
O O10 0.891977 0.733579 0.503314
O O11 0.933833 0.923414 0.701252
O O12 0.424150 0.390587 0.224621
O O13 0.200135 0.007311 0.417430
O O14 0.268620 0.046671 0.127188
O O15 0.342021 0.184080 0.800971
O O16 0.013029 0.786818 0.845752
O O17 0.922272 0.743399 0.184570
#
# Coordination Sequence:
#
# PCOD9051609 Si02
#       8
#     2   2   2   2   2   2   2   2
#     4  12  24  45  72 105 147 190 249 306 353 442
#     4  12  25  46  72 106 147 198 250 306 359 444
#     4  10  25  47  72 110 156 184 246 310 371 445
#     4  11  23  44  74 107 147 190 243 306 380 439
#     4  11  23  44  76 114 142 194 243 304 379 445
#     4  12  23  44  78 103 145 199 245 297 379 439
#     4  12  25  45  76 102 151 192 244 309 370 435
#     4  10  25  47  68 109 152 188 237 318 369 440
#
# _framework density 24.464751
#
# number of rings (size 3 to 8) (size 9 to 14) (size 15 to 20)
#    0.000    0.750    5.000    1.875    5.250    2.000 
#    0.000    7.500    2.750    0.000    0.000    0.000 
#    0.000    0.000    0.000    0.000    0.000    0.000 
#
# Total GULP energy -89567.887271 kJ/mol
# GULP energy per Si atom -5597.992954 kJ/mol
# Density = 2.440907 g / cm^3
# Si number density = 24.464751 Si / 1000 Ang^3
#
#
#
# Elastic Constant Matrix: (Units=GPa)
#
#
# Indices 1 2 3 4 5 6 
#
# 1 139.4642 37.2794 55.5602 16.4011 -29.9395 -17.7846
# 2 37.2794 108.7849 47.9430 19.9744 -36.0383 -16.8569
# 3 55.5602 47.9430 110.4579 9.3507 -27.9787 -9.0089
# 4 16.4011 19.9744 9.3507 45.9462 0.9963 -20.1619
# 5 -29.9395 -36.0383 -27.9787 0.9963 28.2744 -3.9573
# 6 -17.7846 -16.8569 -9.0089 -20.1619 -3.9573 50.4993
#
#
#
# Elastic Compliance Matrix: (Units=1/GPa)
#
#
# Indices 1 2 3 4 5 6 
#
# 1 0.011473 0.003419 -0.002993 -0.003336 0.014283 0.004435
# 2 0.003419 0.021494 -0.002171 -0.007557 0.030162 0.007338
# 3 -0.002993 -0.002171 0.013563 -0.000448 0.007649 0.001061
# 4 -0.003336 -0.007557 -0.000448 0.029705 -0.013673 0.007011
# 5 0.014283 0.030162 0.007649 -0.013673 0.099619 0.018810
# 6 0.004435 0.007338 0.001061 0.007011 0.018810 0.028276
#
#
# Mechanical properties :
#
#
# Convention : Reuss Voigt Hill
#
# Bulk Modulus (GPa) = 23.23415 71.14136 47.18775
# Shear Modulus (GPa) = 22.52591 39.47225 30.99908
#
# Velocity S-wave (km/s) = 3.03768 4.02111 3.56348
# Velocity P-wave (km/s) = 4.67129 7.12049 6.02172
#
# Compressibility (1/GPa) = 0.04304009
#
# Stress axis : x y z
#
# Youngs Moduli (GPa) = 87.16305 46.52425 73.73042
#
# Poissons Ratio (x) = -0.15905 0.22066
# Poissons Ratio (y) = -0.29799 0.16006
# Poissons Ratio (z) = 0.26086 0.10100
#
# Static dielectric constant tensor:
#      x y z
#    x 1.907580 0.029900 -0.047540 
#    y 0.029900 1.975740 -0.049050 
#    z -0.047540 -0.049050 2.023060 
# 
# From -- ./inp_files/417385.got.cif
#   From: 2010.05.17/outbox.cif.g08.bks.cpg/sg2_209_cif.got.tgz:417385.got - 2010.06.03 11:33:40.
