data_PCOD9051330
_publ_section_title
;
Structure prediction by ZEFSAII (Michael W. Deem and Ramdas Pophale) SiO2 
 PCOD9051330
Probable space group: P -1
;
_chemical_formula_sum "Si O2"
_cell_formula_units_Z 16
_cell_length_a 14.892363
_cell_length_b 8.979015
_cell_length_c 15.719032
_cell_angle_alpha 91.401015
_cell_angle_beta 40.095888
_cell_angle_gamma 122.706345
_cell_volume 793.401206
_symmetry_space_group_name_H-M "P -1"
_symmetry_group_IT_number 2
_symmetry_cell_setting 'triclinic'
loop_
_space_group_symop_operation_xyz
x,y,z
-x,-y,-z
loop_
_atom_site_type_symbol
_atom_site_label
_atom_site_fract_x
_atom_site_fract_y
_atom_site_fract_z
Si Si1 0.159004 0.872519 0.219826
Si Si2 0.916690 0.092588 0.534993
Si Si3 0.830443 0.432564 0.881954
Si Si4 0.774334 0.703116 0.192882
Si Si5 0.645743 0.140346 0.480845
Si Si6 0.450777 0.756918 0.758819
Si Si7 0.725439 0.559803 0.421477
Si Si8 0.383641 0.559352 0.100067
O O1 0.142012 0.874283 0.333857
O O2 0.156996 0.699485 0.190111
O O3 0.945604 0.780358 0.328655
O O4 0.408059 0.155769 0.012681
O O5 0.148189 0.358738 0.324500
O O6 0.690124 0.900954 0.633196
O O7 0.000000 0.000000 0.500000
O O8 0.693361 0.444939 0.935181
O O9 0.096554 0.709419 0.713444
O O10 0.697406 0.285813 0.062870
O O11 0.708447 0.509841 0.173983
O O12 0.803539 0.665304 0.268663
O O13 0.523922 0.576364 0.379072
O O14 0.000000 0.000000 0.000000
O O15 0.679906 0.345964 0.468583
O O16 0.500000 0.000000 0.500000
O O17 0.522197 0.942082 0.641473
O O18 0.500000 0.500000 0.000000
#
# Coordination Sequence:
#
# PCOD9051330 Si02
#       8
#     2   2   2   2   2   2   2   2
#     4  11  25  45  68 101 147 176 231 289 352 416
#     4  12  24  43  71 105 138 185 233 284 353 416
#     4  11  26  44  69 105 138 183 236 289 350 418
#     4  11  26  45  72 100 139 185 239 291 355 419
#     4  11  24  46  72 100 140 185 235 299 347 412
#     4  12  25  44  75 103 139 185 239 289 352 423
#     4  10  25  46  67 102 139 187 229 294 355 415
#     4  12  24  42  71 100 140 185 227 285 345 419
#
# _framework density 20.166342
#
# number of rings (size 3 to 8) (size 9 to 14) (size 15 to 20)
#    0.000    0.750    5.000    1.125    1.750    8.000 
#    0.000    0.000    0.000    0.000    0.000    0.000 
#    0.000    0.000    0.000    0.000    0.000    0.000 
#
# Total GULP energy -89339.348658 kJ/mol
# GULP energy per Si atom -5583.709291 kJ/mol
# Density = 2.012044 g / cm^3
# Si number density = 20.166342 Si / 1000 Ang^3
#
#
#
# Elastic Constant Matrix: (Units=GPa)
#
#
# Indices 1 2 3 4 5 6 
#
# 1 138.0674 46.6432 46.3497 -6.5789 15.6454 9.8875
# 2 46.6432 64.8320 45.4551 -8.2484 4.6259 13.2665
# 3 46.3497 45.4551 136.4159 -14.3965 29.9556 10.2487
# 4 -6.5789 -8.2484 -14.3965 38.7223 -2.1654 -4.4438
# 5 15.6454 4.6259 29.9556 -2.1654 32.1656 -2.2915
# 6 9.8875 13.2665 10.2487 -4.4438 -2.2915 31.7161
#
#
#
# Elastic Compliance Matrix: (Units=1/GPa)
#
#
# Indices 1 2 3 4 5 6 
#
# 1 0.010047 -0.006603 -0.000391 -0.000107 -0.003617 -0.000520
# 2 -0.006603 0.026177 -0.007148 0.001435 0.005775 -0.005963
# 3 -0.000391 -0.007148 0.012456 0.002312 -0.010321 -0.001335
# 4 -0.000107 0.001435 0.002312 0.027240 -0.000296 0.002481
# 5 -0.003617 0.005775 -0.010321 -0.000296 0.041969 0.005038
# 6 -0.000520 -0.005963 -0.001335 0.002481 0.005038 0.035329
#
#
# Mechanical properties :
#
#
# Convention : Reuss Voigt Hill
#
# Bulk Modulus (GPa) = 49.02993 68.46792 58.74893
# Shear Modulus (GPa) = 26.55325 33.91193 30.23259
#
# Velocity S-wave (km/s) = 3.63259 4.10519 3.87610
# Velocity P-wave (km/s) = 6.47764 7.51634 7.01624
#
# Compressibility (1/GPa) = 0.02039570
#
# Stress axis : x y z
#
# Youngs Moduli (GPa) = 99.53318 38.20131 80.28308
#
# Poissons Ratio (x) = 0.25224 0.03143
# Poissons Ratio (y) = 0.65721 0.57385
# Poissons Ratio (z) = 0.03896 0.27305
#
# Static dielectric constant tensor:
#      x y z
#    x 1.710260 0.025840 -0.008540 
#    y 0.025840 1.709770 0.023170 
#    z -0.008540 0.023170 1.715440 
# 
# From -- ./inp_files/529890.got.cif
#   From: 2010.05.17/outbox.cif.g08.bks.cpg/sg2_265_cif.got.tgz:529890.got - 2010.06.03 11:33:40.
