data_PCOD9051381
_publ_section_title
;
Structure prediction by ZEFSAII (Michael W. Deem and Ramdas Pophale) SiO2 
 PCOD9051381
Probable space group: P -1
;
_chemical_formula_sum "Si O2"
_cell_formula_units_Z 14
_cell_length_a 7.109399
_cell_length_b 11.828182
_cell_length_c 14.795874
_cell_angle_alpha 131.459964
_cell_angle_beta 40.967714
_cell_angle_gamma 121.844995
_cell_volume 610.360680
_symmetry_space_group_name_H-M "P -1"
_symmetry_group_IT_number 2
_symmetry_cell_setting 'triclinic'
loop_
_space_group_symop_operation_xyz
x,y,z
-x,-y,-z
loop_
_atom_site_type_symbol
_atom_site_label
_atom_site_fract_x
_atom_site_fract_y
_atom_site_fract_z
Si Si1 0.256401 0.895759 0.323451
Si Si2 0.793165 0.677258 0.328685
Si Si3 0.526132 0.195992 0.323607
Si Si4 0.841427 0.648431 0.806156
Si Si5 0.581823 0.337622 0.707806
Si Si6 0.545505 0.175561 0.097084
Si Si7 0.083092 0.372243 0.032082
O O1 0.352335 0.800563 0.324273
O O2 0.088543 0.776690 0.255004
O O3 0.495382 0.016465 0.262861
O O4 0.000000 0.000000 0.500000
O O5 0.685332 0.717369 0.488618
O O6 0.535984 0.712203 0.373050
O O7 0.873175 0.505564 0.198807
O O8 0.453239 0.209009 0.251394
O O9 0.842830 0.269469 0.266118
O O10 0.826488 0.471982 0.689750
O O11 0.633209 0.731865 0.859813
O O12 0.755794 0.655381 0.946824
O O13 0.310743 0.412109 0.893420
O O14 0.881290 0.228973 0.000554
O O15 0.500000 0.000000 0.000000
#
# Coordination Sequence:
#
# PCOD9051381 Si02
#       7
#     2   2   2   2   2   2   2
#     4  10  25  46  69 102 143 188 233 290 353 413
#     4  11  24  46  72 104 143 182 239 291 350 422
#     4  10  27  46  69 103 146 184 233 292 356 418
#     4  11  25  45  70 106 136 186 239 290 361 406
#     4  12  25  42  77 105 140 186 240 293 349 425
#     4  11  27  44  70 104 146 190 235 290 360 421
#     4  11  25  44  70 109 139 184 240 290 350 417
#
# _framework density 22.937256000000001
#
# number of rings (size 3 to 8) (size 9 to 14) (size 15 to 20)
#    0.000    1.143    2.857    0.857    6.000    8.571 
#    0.000    0.000    0.000    0.000    0.000    0.000 
#    0.000    0.000    0.000    0.000    0.000    0.000 
#
# Total GULP energy -78344.651780 kJ/mol
# GULP energy per Si atom -5596.046556 kJ/mol
# Density = 2.288505 g / cm^3
# Si number density = 22.937256 Si / 1000 Ang^3
#
#
#
# Elastic Constant Matrix: (Units=GPa)
#
#
# Indices 1 2 3 4 5 6 
#
# 1 171.8097 55.5783 24.2717 8.6373 17.0076 -13.2778
# 2 55.5783 149.7946 10.6419 11.6820 7.6428 16.5612
# 3 24.2717 10.6419 56.5960 -0.1130 14.1758 -2.2040
# 4 8.6373 11.6820 -0.1130 28.3902 -7.1776 -3.3478
# 5 17.0076 7.6428 14.1758 -7.1776 20.7180 3.0571
# 6 -13.2778 16.5612 -2.2040 -3.3478 3.0571 51.3316
#
#
#
# Elastic Compliance Matrix: (Units=1/GPa)
#
#
# Indices 1 2 3 4 5 6 
#
# 1 0.007785 -0.002646 -0.001271 -0.002402 -0.005820 0.003003
# 2 -0.002646 0.008407 -0.000231 -0.003437 -0.001439 -0.003545
# 3 -0.001271 -0.000231 0.022142 -0.003137 -0.015316 0.001404
# 4 -0.002402 -0.003437 -0.003137 0.042607 0.019859 0.001949
# 5 -0.005820 -0.001439 -0.015316 0.019859 0.071624 -0.004669
# 6 0.003003 -0.003545 0.001404 0.001949 -0.004669 0.021867
#
#
# Mechanical properties :
#
#
# Convention : Reuss Voigt Hill
#
# Bulk Modulus (GPa) = 33.28979 62.13159 47.71069
# Shear Modulus (GPa) = 25.94163 39.26854 32.60508
#
# Velocity S-wave (km/s) = 3.36666 4.14212 3.77436
# Velocity P-wave (km/s) = 5.44586 7.07267 6.31190
#
# Compressibility (1/GPa) = 0.03003924
#
# Stress axis : x y z
#
# Youngs Moduli (GPa) = 128.45560 118.94400 45.16272
#
# Poissons Ratio (x) = 0.31470 0.05741
# Poissons Ratio (y) = 0.33986 0.01041
# Poissons Ratio (z) = 0.16329 0.02742
#
# Static dielectric constant tensor:
#      x y z
#    x 1.849620 0.027470 -0.003610 
#    y 0.027470 1.915260 -0.017360 
#    z -0.003610 -0.017360 1.866940 
# 
# From -- ./inp_files/68337.got.cif
#   From: 2010.05.17/outbox.cif.g08.bks.cpg/sg2_35_cif.got.tgz:68337.got - 2010.06.03 11:33:40.
