data_PCOD9051873
_publ_section_title
;
Structure prediction by ZEFSAII (Michael W. Deem and Ramdas Pophale) SiO2 
 PCOD9051873
Probable space group: P -1
;
_chemical_formula_sum "Si O2"
_cell_formula_units_Z 14
_cell_length_a 7.691679
_cell_length_b 14.292939
_cell_length_c 6.882695
_cell_angle_alpha 126.850662
_cell_angle_beta 98.557120
_cell_angle_gamma 96.978312
_cell_volume 577.118420
_symmetry_space_group_name_H-M "P -1"
_symmetry_group_IT_number 2
_symmetry_cell_setting 'triclinic'
loop_
_space_group_symop_operation_xyz
x,y,z
-x,-y,-z
loop_
_atom_site_type_symbol
_atom_site_label
_atom_site_fract_x
_atom_site_fract_y
_atom_site_fract_z
Si Si1 0.877750 0.740731 0.618470
Si Si2 0.235034 0.703353 0.822487
Si Si3 0.070719 0.905588 0.523902
Si Si4 0.184423 0.246119 0.966993
Si Si5 0.806477 0.486004 0.067866
Si Si6 0.639510 0.475790 0.654423
Si Si7 0.432674 0.081055 0.749312
O O1 0.767849 0.775145 0.824512
O O2 0.805924 0.614206 0.332677
O O3 0.045102 0.722847 0.750564
O O4 0.954083 0.851030 0.623198
O O5 0.218304 0.615375 0.895643
O O6 0.283065 0.624397 0.557841
O O7 0.386271 0.831124 0.021027
O O8 0.276686 0.975366 0.698995
O O9 0.000000 0.000000 0.500000
O O10 0.015615 0.798567 0.222481
O O11 0.234921 0.388639 0.133710
O O12 0.320361 0.180117 0.794787
O O13 0.634185 0.441265 0.837423
O O14 0.000000 0.500000 0.000000
O O15 0.500000 0.500000 0.500000
O O16 0.500000 0.000000 0.500000
#
# Coordination Sequence:
#
# PCOD9051873 Si02
#       7
#     2   2   2   2   2   2   2
#     4  12  24  43  79 111 144 198 253 308 372 453
#     4  12  26  45  74 115 150 190 250 308 385 448
#     4  10  25  48  73 103 145 201 256 300 364 447
#     4  11  23  47  75 105 146 192 256 304 370 450
#     4  12  25  43  76 111 153 194 242 309 383 456
#     4  12  24  45  71 115 153 188 240 317 387 446
#     4  11  26  47  71 100 150 196 247 311 366 440
#
# _framework density 24.25845
#
# number of rings (size 3 to 8) (size 9 to 14) (size 15 to 20)
#    0.000    0.571    5.714    2.143    2.000    3.429 
#    5.143    4.286    0.000    0.000    0.000    0.000 
#    0.000    0.000    0.000    0.000    0.000    0.000 
#
# Total GULP energy -78026.882702 kJ/mol
# GULP energy per Si atom -5573.348764 kJ/mol
# Density = 2.420324 g / cm^3
# Si number density = 24.258450 Si / 1000 Ang^3
#
#
#
# Elastic Constant Matrix: (Units=GPa)
#
#
# Indices 1 2 3 4 5 6 
#
# 1 55.9852 11.6818 36.9390 3.7525 5.7780 1.4983
# 2 11.6818 115.6496 56.3608 -7.5876 2.0811 -2.8436
# 3 36.9390 56.3608 154.2245 14.9868 5.6375 5.5937
# 4 3.7525 -7.5876 14.9868 66.2727 -4.9017 7.8689
# 5 5.7780 2.0811 5.6375 -4.9017 47.7878 -3.0397
# 6 1.4983 -2.8436 5.5937 7.8689 -3.0397 13.9453
#
#
#
# Elastic Compliance Matrix: (Units=1/GPa)
#
#
# Indices 1 2 3 4 5 6 
#
# 1 0.021423 0.000370 -0.005163 -0.000089 -0.002041 -0.000550
# 2 0.000370 0.010941 -0.004393 0.001901 0.000381 0.002964
# 3 -0.005163 -0.004393 0.009671 -0.002071 -0.000742 -0.003213
# 4 -0.000089 0.001901 -0.002071 0.016829 0.001392 -0.007965
# 5 -0.002041 0.000381 -0.000742 0.001392 0.021675 0.004534
# 6 -0.000550 0.002964 -0.003213 -0.007965 0.004534 0.079143
#
#
# Mechanical properties :
#
#
# Convention : Reuss Voigt Hill
#
# Bulk Modulus (GPa) = 42.26200 59.53585 50.89892
# Shear Modulus (GPa) = 26.89013 40.32635 33.60824
#
# Velocity S-wave (km/s) = 3.33300 4.08163 3.72617
# Velocity P-wave (km/s) = 5.68078 6.84168 6.28808
#
# Compressibility (1/GPa) = 0.02366192
#
# Stress axis : x y z
#
# Youngs Moduli (GPa) = 46.67977 91.39767 103.40182
#
# Poissons Ratio (x) = -0.03378 0.53385
# Poissons Ratio (y) = -0.01725 0.45426
# Poissons Ratio (z) = 0.24100 0.40152
#
# Static dielectric constant tensor:
#      x y z
#    x 2.086620 -0.059250 -0.199980 
#    y -0.059250 2.034280 0.219590 
#    z -0.199980 0.219590 2.591320 
# 
# From -- ./inp_files/40269.got.cif
#   From: 2010.05.17/outbox.cif.g08.bks.cpg/sg2_21_cif.got.tgz:40269.got - 2010.06.03 11:33:40.
