data_PCOD9051571
_publ_section_title
;
Structure prediction by ZEFSAII (Michael W. Deem and Ramdas Pophale) SiO2 
 PCOD9051571
Probable space group: P -1
;
_chemical_formula_sum "Si O2"
_cell_formula_units_Z 12
_cell_length_a 14.961682
_cell_length_b 8.271554
_cell_length_c 5.049507
_cell_angle_alpha 68.680648
_cell_angle_beta 89.986671
_cell_angle_gamma 51.155355
_cell_volume 430.476491
_symmetry_space_group_name_H-M "P -1"
_symmetry_group_IT_number 2
_symmetry_cell_setting 'triclinic'
loop_
_space_group_symop_operation_xyz
x,y,z
-x,-y,-z
loop_
_atom_site_type_symbol
_atom_site_label
_atom_site_fract_x
_atom_site_fract_y
_atom_site_fract_z
Si Si1 0.198358 0.998664 0.204001
Si Si2 0.416034 0.711352 0.075755
Si Si3 0.169946 0.715252 0.708189
Si Si4 0.939191 0.317317 0.761444
Si Si5 0.279942 0.177077 0.450255
Si Si6 0.586812 0.741755 0.282285
O O1 0.182149 0.900925 0.521827
O O2 0.251907 0.116587 0.212378
O O3 0.301936 0.766757 0.174040
O O4 0.073014 0.178164 0.945143
O O5 0.350146 0.946244 0.763590
O O6 0.500000 0.500000 0.000000
O O7 0.500649 0.687529 0.314170
O O8 0.124212 0.720245 0.992089
O O9 0.296843 0.458350 0.777743
O O10 0.074711 0.760202 0.470257
O O11 0.853720 0.597526 0.583526
O O12 0.360937 0.243621 0.456360
O O13 0.500000 0.000000 0.000000
#
# Coordination Sequence:
#
# PCOD9051571 Si02
#       6
#     2   2   2   2   2   2
#     4  12  27  45  77 112 150 196 253 316 378 452
#     4  11  26  47  75 112 152 198 252 314 375 456
#     4  11  26  48  77 109 155 201 250 316 379 454
#     4  11  27  49  78 113 152 200 253 315 388 448
#     4  10  25  46  77 107 149 197 253 314 378 450
#     4   9  22  47  70 105 148 198 248 301 380 441
#
# _framework density 27.876086999999998
#
# number of rings (size 3 to 8) (size 9 to 14) (size 15 to 20)
#    0.000    1.333    0.000    2.500   14.000    4.000 
#    6.000    0.000    0.000    0.000    0.000    0.000 
#    0.000    0.000    0.000    0.000    0.000    0.000 
#
# Total GULP energy -67354.150651 kJ/mol
# GULP energy per Si atom -5612.845888 kJ/mol
# Density = 2.781264 g / cm^3
# Si number density = 27.876087 Si / 1000 Ang^3
#
#
#
# Elastic Constant Matrix: (Units=GPa)
#
#
# Indices 1 2 3 4 5 6 
#
# 1 199.6261 78.9594 66.8016 7.3579 45.4296 -13.1265
# 2 78.9594 154.0491 46.0602 -18.7232 16.7316 -19.2711
# 3 66.8016 46.0602 127.1916 -5.4255 21.7097 -4.7671
# 4 7.3579 -18.7232 -5.4255 56.5308 -8.9327 11.2354
# 5 45.4296 16.7316 21.7097 -8.9327 63.5457 3.0441
# 6 -13.1265 -19.2711 -4.7671 11.2354 3.0441 57.2948
#
#
#
# Elastic Compliance Matrix: (Units=1/GPa)
#
#
# Indices 1 2 3 4 5 6 
#
# 1 0.008520 -0.003308 -0.002527 -0.003541 -0.004931 0.001586
# 2 -0.003308 0.009121 -0.001520 0.003137 0.000851 0.001523
# 3 -0.002527 -0.001520 0.009940 0.000676 -0.001078 -0.000338
# 4 -0.003541 0.003137 0.000676 0.020778 0.004588 -0.004018
# 5 -0.004931 0.000851 -0.001078 0.004588 0.020190 -0.002906
# 6 0.001586 0.001523 -0.000338 -0.004018 -0.002906 0.019243
#
#
# Mechanical properties :
#
#
# Convention : Reuss Voigt Hill
#
# Bulk Modulus (GPa) = 77.69292 96.05656 86.87474
# Shear Modulus (GPa) = 46.81961 54.74396 50.78178
#
# Velocity S-wave (km/s) = 4.10269 4.43632 4.27276
# Velocity P-wave (km/s) = 7.09747 7.79580 7.45482
#
# Compressibility (1/GPa) = 0.01287118
#
# Stress axis : x y z
#
# Youngs Moduli (GPa) = 117.36565 109.63792 100.60522
#
# Poissons Ratio (x) = 0.36270 0.25423
# Poissons Ratio (y) = 0.38827 0.15290
# Poissons Ratio (z) = 0.29658 0.16663
#
# Static dielectric constant tensor:
#      x y z
#    x 2.145020 0.057950 -0.031530 
#    y 0.057950 2.193290 -0.028460 
#    z -0.031530 -0.028460 2.131000 
# 
# From -- ./inp_files/87217.got.cif
#   From: 2010.05.17/outbox.cif.g08.bks.cpg/sg2_44_cif.got.tgz:87217.got - 2010.06.03 11:33:40.
