data_PCOD9051853
_publ_section_title
;
Structure prediction by ZEFSAII (Michael W. Deem and Ramdas Pophale) SiO2 
 PCOD9051853
Probable space group: P -1
;
_chemical_formula_sum "Si O2"
_cell_formula_units_Z 14
_cell_length_a 11.871313
_cell_length_b 5.328772
_cell_length_c 11.412451
_cell_angle_alpha 122.405781
_cell_angle_beta 71.195737
_cell_angle_gamma 124.906700
_cell_volume 499.730469
_symmetry_space_group_name_H-M "P -1"
_symmetry_group_IT_number 2
_symmetry_cell_setting 'triclinic'
loop_
_space_group_symop_operation_xyz
x,y,z
-x,-y,-z
loop_
_atom_site_type_symbol
_atom_site_label
_atom_site_fract_x
_atom_site_fract_y
_atom_site_fract_z
Si Si1 0.154283 0.294603 0.730608
Si Si2 0.563403 0.913773 0.594826
Si Si3 0.878815 0.218016 0.553068
Si Si4 0.392428 0.005760 0.128948
Si Si5 0.758587 0.018818 0.025442
Si Si6 0.408398 0.262752 0.759961
Si Si7 0.060409 0.252837 0.155994
O O1 0.150580 0.643774 0.840238
O O2 0.296786 0.331751 0.746546
O O3 0.134150 0.146966 0.568972
O O4 0.035884 0.005055 0.775833
O O5 0.500000 0.500000 0.500000
O O6 0.584423 0.027775 0.753323
O O7 0.722763 0.129622 0.554086
O O8 0.438080 0.981303 0.621878
O O9 0.909259 0.376981 0.713411
O O10 0.000000 0.500000 0.500000
O O11 0.442318 0.407726 0.211676
O O12 0.500000 0.000000 0.000000
O O13 0.256297 0.813933 0.048645
O O14 0.639372 0.818107 0.109868
O O15 0.797219 0.746039 0.897902
O O16 0.000000 0.000000 0.000000
#
# Coordination Sequence:
#
# PCOD9051853 Si02
#       7
#     2   2   2   2   2   2   2
#     4  11  24  46  69 102 145 189 245 298 370 435
#     4  12  27  47  74 111 148 194 244 300 370 441
#     4  10  25  48  72 103 149 194 243 297 366 439
#     4  12  25  40  68 108 140 185 239 301 365 432
#     4  12  24  42  72 105 142 187 244 309 362 433
#     4  12  23  42  73 101 148 185 239 306 366 425
#     4  11  24  44  74 102 138 194 246 302 363 434
#
# _framework density 28.015103
#
# number of rings (size 3 to 8) (size 9 to 14) (size 15 to 20)
#    0.000    0.571    4.286    3.429    4.000    3.429 
#    0.000    0.714    0.000    0.000    0.000    0.000 
#    0.000    0.000    0.000    0.000    0.000    0.000 
#
# Total GULP energy -78080.431108 kJ/mol
# GULP energy per Si atom -5577.173651 kJ/mol
# Density = 2.795134 g / cm^3
# Si number density = 28.015103 Si / 1000 Ang^3
#
#
#
# Elastic Constant Matrix: (Units=GPa)
#
#
# Indices 1 2 3 4 5 6 
#
# 1 80.0538 12.2136 62.8707 3.8859 20.5601 20.8866
# 2 12.2136 69.8253 16.3944 19.7284 1.6689 23.7086
# 3 62.8707 16.3944 247.6476 33.6258 3.5769 5.5624
# 4 3.8859 19.7284 33.6258 62.6180 -0.2902 -12.0804
# 5 20.5601 1.6689 3.5769 -0.2902 50.0673 -0.0812
# 6 20.8866 23.7086 5.5624 -12.0804 -0.0812 36.6581
#
#
#
# Elastic Compliance Matrix: (Units=1/GPa)
#
#
# Indices 1 2 3 4 5 6 
#
# 1 0.022285 0.003340 -0.005053 -0.002655 -0.008941 -0.014986
# 2 0.003340 0.024647 -0.000328 -0.012004 -0.002275 -0.021754
# 3 -0.005053 -0.000328 0.005596 -0.002293 0.001675 0.001490
# 4 -0.002655 -0.012004 -0.002293 0.024576 0.001825 0.017727
# 5 -0.008941 -0.002275 0.001675 0.001825 0.023623 0.006965
# 6 -0.014986 -0.021754 0.001490 0.017727 0.006965 0.055518
#
#
# Mechanical properties :
#
#
# Convention : Reuss Voigt Hill
#
# Bulk Modulus (GPa) = 20.64132 64.49826 42.56979
# Shear Modulus (GPa) = 28.33273 50.27189 39.30231
#
# Velocity S-wave (km/s) = 3.18360 4.24070 3.74959
# Velocity P-wave (km/s) = 4.57140 6.85935 5.82874
#
# Compressibility (1/GPa) = 0.04844652
#
# Stress axis : x y z
#
# Youngs Moduli (GPa) = 44.87301 40.57369 178.69633
#
# Poissons Ratio (x) = -0.13552 0.90286
# Poissons Ratio (y) = -0.14988 0.05866
# Poissons Ratio (z) = 0.22672 0.01332
#
# Static dielectric constant tensor:
#      x y z
#    x 2.512400 0.309590 -0.031740 
#    y 0.309590 1.610480 0.215520 
#    z -0.031740 0.215520 2.254850 
# 
# From -- ./inp_files/72650.got.cif
#   From: 2010.05.17/outbox.cif.g08.bks.cpg/sg2_37_cif.got.tgz:72650.got - 2010.06.03 11:33:40.
