data_PCOD9051917
_publ_section_title
;
Structure prediction by ZEFSAII (Michael W. Deem and Ramdas Pophale) SiO2 
 PCOD9051917
Probable space group: P -1
;
_chemical_formula_sum "Si O2"
_cell_formula_units_Z 16
_cell_length_a 6.455488
_cell_length_b 15.737706
_cell_length_c 15.451387
_cell_angle_alpha 36.017021
_cell_angle_beta 99.224434
_cell_angle_gamma 77.304021
_cell_volume 727.507644
_symmetry_space_group_name_H-M "P -1"
_symmetry_group_IT_number 2
_symmetry_cell_setting 'triclinic'
loop_
_space_group_symop_operation_xyz
x,y,z
-x,-y,-z
loop_
_atom_site_type_symbol
_atom_site_label
_atom_site_fract_x
_atom_site_fract_y
_atom_site_fract_z
Si Si1 0.825888 0.589010 0.046536
Si Si2 0.479027 0.736730 0.068185
Si Si3 0.085013 0.079266 0.867606
Si Si4 0.408076 0.912893 0.631595
Si Si5 0.470266 0.650123 0.438486
Si Si6 0.754158 0.678075 0.296067
Si Si7 0.154374 0.753303 0.640511
Si Si8 0.353483 0.477337 0.256564
O O1 0.653378 0.698826 0.029235
O O2 0.817557 0.418579 0.174182
O O3 0.127112 0.500941 0.163260
O O4 0.670132 0.743922 0.835813
O O5 0.671925 0.619064 0.256956
O O6 0.304925 0.669398 0.092453
O O7 0.310145 0.929215 0.943569
O O8 0.173700 0.188816 0.829977
O O9 0.837648 0.212440 0.679997
O O10 0.000000 0.000000 0.000000
O O11 0.277485 0.828075 0.646432
O O12 0.500000 0.000000 0.500000
O O13 0.156715 0.082354 0.529327
O O14 0.500000 0.500000 0.500000
O O15 0.545802 0.753667 0.297291
O O16 0.638041 0.572578 0.601031
O O17 0.000000 0.500000 0.500000
O O18 0.353759 0.667862 0.642724
#
# Coordination Sequence:
#
# PCOD9051917 Si02
#       8
#     2   2   2   2   2   2   2   2
#     4  11  26  46  74 104 147 186 232 295 360 429
#     4  11  25  41  63  99 137 180 237 294 353 415
#     4  12  25  41  64  95 132 185 247 301 352 410
#     4  11  25  49  79 110 145 181 234 287 369 440
#     4  12  23  42  67  95 140 191 237 292 347 412
#     4  12  23  41  66  90 129 188 240 289 349 411
#     4  10  25  48  75 110 143 184 236 287 359 436
#     4  11  24  46  71 104 144 188 239 289 355 418
#
# _framework density 21.992895999999998
#
# number of rings (size 3 to 8) (size 9 to 14) (size 15 to 20)
#    0.000    0.750    3.750    2.250    3.500    7.000 
#    4.500    0.000    0.000    0.000    0.000    0.000 
#    0.000    0.000    0.000    0.000    0.000    0.000 
#
# Total GULP energy -89336.387578 kJ/mol
# GULP energy per Si atom -5583.524224 kJ/mol
# Density = 2.194284 g / cm^3
# Si number density = 21.992896 Si / 1000 Ang^3
#
#
#
# Elastic Constant Matrix: (Units=GPa)
#
#
# Indices 1 2 3 4 5 6 
#
# 1 123.5396 30.4649 51.0985 1.8032 -5.3271 13.7296
# 2 30.4649 71.0754 36.2060 -7.9255 -7.0680 2.4424
# 3 51.0985 36.2060 116.9993 2.7820 7.4825 7.4529
# 4 1.8032 -7.9255 2.7820 32.6638 4.6568 -1.0702
# 5 -5.3271 -7.0680 7.4825 4.6568 38.3565 2.9753
# 6 13.7296 2.4424 7.4529 -1.0702 2.9753 27.5454
#
#
#
# Elastic Compliance Matrix: (Units=1/GPa)
#
#
# Indices 1 2 3 4 5 6 
#
# 1 0.010909 -0.002496 -0.003822 -0.001359 0.002313 -0.004485
# 2 -0.002496 0.018524 -0.005019 0.004596 0.003428 0.000768
# 3 -0.003822 -0.005019 0.012073 -0.001544 -0.003578 -0.000590
# 4 -0.001359 0.004596 -0.001544 0.032462 -0.003159 0.002290
# 5 0.002313 0.003428 -0.003578 -0.003159 0.028391 -0.003678
# 6 -0.004485 0.000768 -0.000590 0.002290 -0.003678 0.039117
#
#
# Mechanical properties :
#
#
# Convention : Reuss Voigt Hill
#
# Bulk Modulus (GPa) = 53.10727 60.79479 56.95103
# Shear Modulus (GPa) = 29.33807 32.63614 30.98711
#
# Velocity S-wave (km/s) = 3.65633 3.85637 3.75768
# Velocity P-wave (km/s) = 6.48266 6.89433 6.69166
#
# Compressibility (1/GPa) = 0.01882981
#
# Stress axis : x y z
#
# Youngs Moduli (GPa) = 91.66756 53.98539 82.83232
#
# Poissons Ratio (x) = 0.13477 0.31657
# Poissons Ratio (y) = 0.22884 0.41577
# Poissons Ratio (z) = 0.35034 0.27097
#
# Static dielectric constant tensor:
#      x y z
#    x 1.935370 -0.037830 0.066760 
#    y -0.037830 1.782460 -0.039650 
#    z 0.066760 -0.039650 1.847930 
# 
# From -- ./inp_files/484270.got.cif
#   From: 2010.05.17/outbox.cif.g08.bks.cpg/sg2_243_cif.got.tgz:484270.got - 2010.06.03 11:33:40.
