data_PCOD9051963
_publ_section_title
;
Structure prediction by ZEFSAII (Michael W. Deem and Ramdas Pophale) SiO2 
 PCOD9051963
Probable space group: P -1
;
_chemical_formula_sum "Si O2"
_cell_formula_units_Z 16
_cell_length_a 15.570138
_cell_length_b 8.920202
_cell_length_c 8.968006
_cell_angle_alpha 109.584891
_cell_angle_beta 67.574089
_cell_angle_gamma 132.981989
_cell_volume 837.084612
_symmetry_space_group_name_H-M "P -1"
_symmetry_group_IT_number 2
_symmetry_cell_setting 'triclinic'
loop_
_space_group_symop_operation_xyz
x,y,z
-x,-y,-z
loop_
_atom_site_type_symbol
_atom_site_label
_atom_site_fract_x
_atom_site_fract_y
_atom_site_fract_z
Si Si1 0.230957 0.476889 0.715635
Si Si2 0.498874 0.687061 0.056577
Si Si3 0.019107 0.623926 0.180162
Si Si4 0.759401 0.908520 0.900203
Si Si5 0.861137 0.805354 0.045861
Si Si6 0.626810 0.219978 0.018515
Si Si7 0.836972 0.452503 0.760675
Si Si8 0.301772 0.493103 0.351000
O O1 0.188454 0.285947 0.787527
O O2 0.310852 0.684874 0.832589
O O3 0.301590 0.501252 0.530664
O O4 0.106610 0.424143 0.731193
O O5 0.430363 0.670138 0.245496
O O6 0.500000 0.500000 0.000000
O O7 0.637487 0.878899 0.993438
O O8 0.408558 0.641961 0.971213
O O9 0.056080 0.551667 0.271482
O O10 0.127466 0.866314 0.156923
O O11 0.000000 0.500000 0.000000
O O12 0.735470 0.725850 0.751869
O O13 0.790090 0.864034 0.024829
O O14 0.855158 0.629508 0.907631
O O15 0.000000 0.000000 0.000000
O O16 0.720630 0.248635 0.849212
O O17 0.500000 0.000000 0.000000
O O18 0.793494 0.480371 0.643104
#
# Coordination Sequence:
#
# PCOD9051963 Si02
#       8
#     2   2   2   2   2   2   2   2
#     4  11  22  35  60  88 116 146 193 241 284 335
#     4   9  18  36  59  80 107 154 194 230 276 338
#     4  12  20  34  60  90 113 146 200 238 272 340
#     4  10  20  36  63  84 112 153 194 227 285 344
#     4  10  17  35  55  85 109 150 190 225 276 341
#     4  10  19  35  58  80 108 153 195 230 281 337
#     4   9  19  35  55  79 117 150 187 228 280 342
#     4   9  21  39  56  85 119 154 184 234 294 334
#
# _framework density 19.113956999999999
#
# number of rings (size 3 to 8) (size 9 to 14) (size 15 to 20)
#    0.000    2.000    3.750    3.000    0.000    1.000 
#    0.000    8.125    2.750    0.000    0.000    0.000 
#    0.000    0.000    0.000    0.000    0.000    0.000 
#
# Total GULP energy -89076.238937 kJ/mol
# GULP energy per Si atom -5567.264934 kJ/mol
# Density = 1.907045 g / cm^3
# Si number density = 19.113957 Si / 1000 Ang^3
#
#
#
# Elastic Constant Matrix: (Units=GPa)
#
#
# Indices 1 2 3 4 5 6 
#
# 1 125.6724 16.2551 20.1697 -6.9592 0.9145 5.3234
# 2 16.2551 96.0214 22.7770 -2.7986 3.1341 20.3295
# 3 20.1697 22.7770 89.6200 -16.6201 13.3843 8.6061
# 4 -6.9592 -2.7986 -16.6201 13.0387 -2.0181 0.0465
# 5 0.9145 3.1341 13.3843 -2.0181 20.2355 -5.8002
# 6 5.3234 20.3295 8.6061 0.0465 -5.8002 36.4173
#
#
#
# Elastic Compliance Matrix: (Units=1/GPa)
#
#
# Indices 1 2 3 4 5 6 
#
# 1 0.008448 -0.001034 -0.001196 0.002884 0.000785 -0.000254
# 2 -0.001034 0.012580 -0.002100 -0.000898 -0.002546 -0.006779
# 3 -0.001196 -0.002100 0.017653 0.019785 -0.010626 -0.004542
# 4 0.002884 -0.000898 0.019785 0.102599 -0.004401 -0.005427
# 5 0.000785 -0.002546 -0.010626 -0.004401 0.060211 0.013413
# 6 -0.000254 -0.006779 -0.004542 -0.005427 0.013413 0.034498
#
#
# Mechanical properties :
#
#
# Convention : Reuss Voigt Hill
#
# Bulk Modulus (GPa) = 33.31091 47.74637 40.52864
# Shear Modulus (GPa) = 19.63434 30.74576 25.19005
#
# Velocity S-wave (km/s) = 3.20851 4.01502 3.63421
# Velocity P-wave (km/s) = 5.58493 6.82114 6.23376
#
# Compressibility (1/GPa) = 0.03002019
#
# Stress axis : x y z
#
# Youngs Moduli (GPa) = 118.37518 79.49287 56.64636
#
# Poissons Ratio (x) = 0.08221 0.06777
# Poissons Ratio (y) = 0.12242 0.11895
# Poissons Ratio (z) = 0.14162 0.16692
#
# Static dielectric constant tensor:
#      x y z
#    x 1.732720 0.001850 -0.001520 
#    y 0.001850 1.849380 -0.059720 
#    z -0.001520 -0.059720 1.647530 
# 
# From -- ./inp_files/216669.got.cif
#   From: 2010.05.17/outbox.cif.g08.bks.cpg/sg2_109_cif.got.tgz:216669.got - 2010.06.03 11:33:40.
