data_PCOD9051682
_publ_section_title
;
Structure prediction by ZEFSAII (Michael W. Deem and Ramdas Pophale) SiO2 
 PCOD9051682
Probable space group: P -1
;
_chemical_formula_sum "Si O2"
_cell_formula_units_Z 14
_cell_length_a 5.125283
_cell_length_b 23.231642
_cell_length_c 11.496077
_cell_angle_alpha 29.624183
_cell_angle_beta 65.358786
_cell_angle_gamma 56.233295
_cell_volume 555.127689
_symmetry_space_group_name_H-M "P -1"
_symmetry_group_IT_number 2
_symmetry_cell_setting 'triclinic'
loop_
_space_group_symop_operation_xyz
x,y,z
-x,-y,-z
loop_
_atom_site_type_symbol
_atom_site_label
_atom_site_fract_x
_atom_site_fract_y
_atom_site_fract_z
Si Si1 0.781863 0.179307 0.195877
Si Si2 0.610373 0.272150 0.653634
Si Si3 0.600385 0.518416 0.315606
Si Si4 0.826359 0.841334 0.614133
Si Si5 0.125575 0.922877 0.230812
Si Si6 0.173559 0.127631 0.990119
Si Si7 0.122832 0.540785 0.022597
O O1 0.521427 0.124715 0.336325
O O2 0.942856 0.160812 0.322520
O O3 0.611095 0.332394 0.934373
O O4 0.024469 0.118090 0.155359
O O5 0.505265 0.421858 0.428625
O O6 0.699000 0.222805 0.591513
O O7 0.366961 0.210816 0.832808
O O8 0.901855 0.208354 0.803585
O O9 0.500000 0.500000 0.500000
O O10 0.955614 0.493481 0.244065
O O11 0.844302 0.932631 0.349232
O O12 0.957797 0.695087 0.799276
O O13 0.323946 0.984697 0.155920
O O14 0.000000 0.000000 0.000000
O O15 0.500000 0.500000 0.000000
O O16 0.000000 0.500000 0.000000
#
# Coordination Sequence:
#
# PCOD9051682 Si02
#       7
#     2   2   2   2   2   2   2
#     4  11  25  44  67 105 142 182 230 285 365 426
#     4  11  24  43  70 102 141 179 235 294 351 406
#     4  11  24  45  74 111 145 192 240 297 358 433
#     4  11  25  44  69  99 142 183 231 294 355 428
#     4  10  25  47  72 101 134 185 242 295 349 421
#     4  11  24  43  68 100 139 181 236 289 347 416
#     4  11  24  45  68 104 147 193 236 288 362 436
#
# _framework density 25.219422000000002
#
# number of rings (size 3 to 8) (size 9 to 14) (size 15 to 20)
#    0.000    1.143    1.429    3.857    2.000   10.857 
#    0.000    0.000    0.000    0.000    0.000    0.000 
#    0.000    0.000    0.000    0.000    0.000    0.000 
#
# Total GULP energy -78333.351390 kJ/mol
# GULP energy per Si atom -5595.239385 kJ/mol
# Density = 2.516202 g / cm^3
# Si number density = 25.219422 Si / 1000 Ang^3
#
#
#
# Elastic Constant Matrix: (Units=GPa)
#
#
# Indices 1 2 3 4 5 6 
#
# 1 130.6557 23.7455 56.5416 3.1653 -22.8064 -1.1733
# 2 23.7455 128.6125 61.3304 4.6545 -19.8987 9.5074
# 3 56.5416 61.3304 176.8706 26.4050 -28.1719 1.7244
# 4 3.1653 4.6545 26.4050 63.7925 -0.0605 -23.5478
# 5 -22.8064 -19.8987 -28.1719 -0.0605 46.2736 6.0613
# 6 -1.1733 9.5074 1.7244 -23.5478 6.0613 29.9664
#
#
#
# Elastic Compliance Matrix: (Units=1/GPa)
#
#
# Indices 1 2 3 4 5 6 
#
# 1 0.009287 -0.000107 -0.002614 0.000874 0.002855 0.000658
# 2 -0.000107 0.009961 -0.002654 -0.001371 0.003235 -0.004743
# 3 -0.002614 -0.002654 0.008725 -0.004865 0.003437 -0.004281
# 4 0.000874 -0.001371 -0.004865 0.026012 -0.006022 0.022407
# 5 0.002855 0.003235 0.003437 -0.006022 0.028001 -0.011508
# 6 0.000658 -0.004743 -0.004281 0.022407 -0.011508 0.055083
#
#
# Mechanical properties :
#
#
# Convention : Reuss Voigt Hill
#
# Bulk Modulus (GPa) = 58.05683 79.93043 68.99363
# Shear Modulus (GPa) = 32.56047 47.64125 40.10086
#
# Velocity S-wave (km/s) = 3.59707 4.35106 3.99190
# Velocity P-wave (km/s) = 6.35000 7.55017 6.97594
#
# Compressibility (1/GPa) = 0.01722450
#
# Stress axis : x y z
#
# Youngs Moduli (GPa) = 107.67192 100.38897 114.61013
#
# Poissons Ratio (x) = 0.01071 0.29962
# Poissons Ratio (y) = 0.01148 0.30416
# Poissons Ratio (z) = 0.28148 0.26642
#
# Static dielectric constant tensor:
#      x y z
#    x 2.000660 -0.104400 0.021880 
#    y -0.104400 2.049900 -0.016350 
#    z 0.021880 -0.016350 2.037890 
# 
# From -- ./inp_files/370931.got.cif
#   From: 2010.05.17/outbox.cif.g08.bks.cpg/sg2_186_cif.got.tgz:370931.got - 2010.06.03 11:33:40.
