data_PCOD9051854
_publ_section_title
;
Structure prediction by ZEFSAII (Michael W. Deem and Ramdas Pophale) SiO2 
 PCOD9051854
Probable space group: P -1
;
_chemical_formula_sum "Si O2"
_cell_formula_units_Z 16
_cell_length_a 8.835184
_cell_length_b 15.299834
_cell_length_c 14.601241
_cell_angle_alpha 152.268771
_cell_angle_beta 69.880747
_cell_angle_gamma 92.683339
_cell_volume 696.496048
_symmetry_space_group_name_H-M "P -1"
_symmetry_group_IT_number 2
_symmetry_cell_setting 'triclinic'
loop_
_space_group_symop_operation_xyz
x,y,z
-x,-y,-z
loop_
_atom_site_type_symbol
_atom_site_label
_atom_site_fract_x
_atom_site_fract_y
_atom_site_fract_z
Si Si1 0.862248 0.112332 0.922699
Si Si2 0.027803 0.298207 0.193771
Si Si3 0.930526 0.656997 0.251149
Si Si4 0.356658 0.478124 0.781845
Si Si5 0.261143 0.165524 0.209226
Si Si6 0.686923 0.193346 0.760326
Si Si7 0.731935 0.112299 0.468260
Si Si8 0.267554 0.302440 0.978392
O O1 0.799390 0.947271 0.807548
O O2 0.947077 0.163491 0.040610
O O3 0.687471 0.358000 0.142543
O O4 0.042904 0.995977 0.704956
O O5 0.840036 0.564981 0.497360
O O6 0.155958 0.181629 0.150265
O O7 0.170097 0.301332 0.092184
O O8 0.757542 0.640640 0.313788
O O9 0.109575 0.536068 0.173625
O O10 0.845781 0.919620 0.490957
O O11 0.000000 0.500000 0.000000
O O12 0.585752 0.286261 0.580800
O O13 0.269442 0.648560 0.046517
O O14 0.500000 0.000000 0.000000
O O15 0.670155 0.228276 0.687606
O O16 0.477071 0.260156 0.904568
O O17 0.706473 0.904259 0.279305
#
# Coordination Sequence:
#
# PCOD9051854 Si02
#       8
#     2   2   2   2   2   2   2   2
#     4  11  26  46  69 103 141 179 222 289 343 409
#     4  10  25  48  72 104 136 175 223 285 352 411
#     4  12  23  43  65  93 141 186 236 282 328 394
#     4  12  26  39  67 103 135 188 239 274 333 404
#     4  11  27  47  78 103 131 170 230 284 359 422
#     4  12  26  41  69 100 143 194 234 281 330 395
#     4  11  23  45  65  99 147 186 234 274 341 400
#     4  11  23  43  71  97 141 186 225 284 341 397
#
# _framework density 22.972131000000001
#
# number of rings (size 3 to 8) (size 9 to 14) (size 15 to 20)
#    0.000    0.750    5.000    1.875    5.250    5.500 
#    0.000    0.000    0.000    0.000    0.000    0.000 
#    0.000    0.000    0.000    0.000    0.000    0.000 
#
# Total GULP energy -89702.723277 kJ/mol
# GULP energy per Si atom -5606.420205 kJ/mol
# Density = 2.291985 g / cm^3
# Si number density = 22.972131 Si / 1000 Ang^3
#
#
#
# Elastic Constant Matrix: (Units=GPa)
#
#
# Indices 1 2 3 4 5 6 
#
# 1 75.9333 9.9946 41.8164 8.9908 -4.9722 8.3681
# 2 9.9946 50.3362 4.2306 21.0476 -9.8488 -4.2544
# 3 41.8164 4.2306 81.7629 15.5980 -9.0329 -5.2287
# 4 8.9908 21.0476 15.5980 40.5343 -11.8389 -1.6202
# 5 -4.9722 -9.8488 -9.0329 -11.8389 41.6299 2.1666
# 6 8.3681 -4.2544 -5.2287 -1.6202 2.1666 37.2940
#
#
#
# Elastic Compliance Matrix: (Units=1/GPa)
#
#
# Indices 1 2 3 4 5 6 
#
# 1 0.020243 -0.004381 -0.010876 0.001662 -0.000169 -0.006485
# 2 -0.004381 0.026943 0.003985 -0.013626 0.002639 0.003870
# 3 -0.010876 0.003985 0.019331 -0.006375 0.001753 0.005227
# 4 0.001662 -0.013626 -0.006375 0.035447 0.005756 -0.001616
# 5 -0.000169 0.002639 0.001753 0.005756 0.026680 -0.000715
# 6 -0.006485 0.003870 0.005227 -0.001616 -0.000715 0.029415
#
#
# Mechanical properties :
#
#
# Convention : Reuss Voigt Hill
#
# Bulk Modulus (GPa) = 22.74223 35.56842 29.15533
# Shear Modulus (GPa) = 25.60689 34.02433 29.81561
#
# Velocity S-wave (km/s) = 3.34232 3.85270 3.60655
# Velocity P-wave (km/s) = 4.98159 5.94205 5.48289
#
# Compressibility (1/GPa) = 0.04397106
#
# Stress axis : x y z
#
# Youngs Moduli (GPa) = 49.40066 37.11605 51.73054
#
# Poissons Ratio (x) = 0.16261 0.56265
# Poissons Ratio (y) = 0.21643 -0.20615
# Poissons Ratio (z) = 0.53731 -0.14791
#
# Static dielectric constant tensor:
#      x y z
#    x 1.829340 -0.009920 0.015500 
#    y -0.009920 1.830690 -0.000460 
#    z 0.015500 -0.000460 1.860650 
# 
# From -- ./inp_files/505752.got.cif
#   From: 2010.05.17/outbox.cif.g08.bks.cpg/sg2_253_cif.got.tgz:505752.got - 2010.06.03 11:33:40.
