data_PCOD9051804
_publ_section_title
;
Structure prediction by ZEFSAII (Michael W. Deem and Ramdas Pophale) SiO2 
 PCOD9051804
Probable space group: P -1
;
_chemical_formula_sum "Si O2"
_cell_formula_units_Z 16
_cell_length_a 13.329498
_cell_length_b 15.205039
_cell_length_c 11.505539
_cell_angle_alpha 85.131934
_cell_angle_beta 59.295048
_cell_angle_gamma 31.676755
_cell_volume 666.036208
_symmetry_space_group_name_H-M "P -1"
_symmetry_group_IT_number 2
_symmetry_cell_setting 'triclinic'
loop_
_space_group_symop_operation_xyz
x,y,z
-x,-y,-z
loop_
_atom_site_type_symbol
_atom_site_label
_atom_site_fract_x
_atom_site_fract_y
_atom_site_fract_z
Si Si1 0.370991 0.910263 0.479478
Si Si2 0.176211 0.160596 0.990066
Si Si3 0.743332 0.388800 0.530785
Si Si4 0.601493 0.511521 0.862055
Si Si5 0.407610 0.291386 0.087806
Si Si6 0.595467 0.310162 0.543393
Si Si7 0.547536 0.848439 0.140286
Si Si8 0.371450 0.169767 0.471611
O O1 0.249545 0.897666 0.527743
O O2 0.593988 0.786163 0.253123
O O3 0.572254 0.780106 0.494989
O O4 0.020303 0.217099 0.660508
O O5 0.326254 0.971766 0.994989
O O6 0.379890 0.011540 0.765364
O O7 0.237426 0.556491 0.801381
O O8 0.268767 0.189432 0.987732
O O9 0.544799 0.540560 0.754089
O O10 0.806336 0.240340 0.481368
O O11 0.524337 0.580655 0.529525
O O12 0.125664 0.159959 0.340485
O O13 0.453559 0.709153 0.975061
O O14 0.500000 0.500000 0.000000
O O15 0.038305 0.546256 0.344841
O O16 0.335119 0.313554 0.996183
O O17 0.500000 0.000000 0.500000
#
# Coordination Sequence:
#
# PCOD9051804 Si02
#       8
#     2   2   2   2   2   2   2   2
#     4  11  26  42  69 101 140 177 223 286 338 399
#     4  12  26  45  73 102 135 185 229 279 343 403
#     4  10  25  48  67 100 141 174 232 280 336 408
#     4  11  27  45  68  99 139 184 224 270 351 410
#     4  12  26  44  72  99 138 181 225 282 343 404
#     4  11  26  45  72 101 132 183 232 284 333 397
#     4  11  24  45  70 102 138 179 231 274 341 406
#     4  12  24  43  65 104 143 167 224 284 342 398
#
# _framework density 24.022718999999999
#
# number of rings (size 3 to 8) (size 9 to 14) (size 15 to 20)
#    0.000    0.750    3.750    2.250   10.500    2.000 
#    0.000    1.250    0.000    0.000    0.000    0.000 
#    0.000    0.000    0.000    0.000    0.000    0.000 
#
# Total GULP energy -89628.851912 kJ/mol
# GULP energy per Si atom -5601.803245 kJ/mol
# Density = 2.396804 g / cm^3
# Si number density = 24.022719 Si / 1000 Ang^3
#
#
#
# Elastic Constant Matrix: (Units=GPa)
#
#
# Indices 1 2 3 4 5 6 
#
# 1 134.6976 25.3528 19.6075 -15.1973 9.7973 27.4498
# 2 25.3528 46.8410 3.2023 -1.4292 3.8502 18.0743
# 3 19.6075 3.2023 99.8131 -17.8057 18.8698 -3.1445
# 4 -15.1973 -1.4292 -17.8057 34.9951 -7.2416 0.1592
# 5 9.7973 3.8502 18.8698 -7.2416 42.8759 -3.8199
# 6 27.4498 18.0743 -3.1445 0.1592 -3.8199 42.6280
#
#
#
# Elastic Compliance Matrix: (Units=1/GPa)
#
#
# Indices 1 2 3 4 5 6 
#
# 1 0.009666 -0.002938 -0.001132 0.003243 -0.001362 -0.005196
# 2 -0.002938 0.026920 -0.000237 -0.000800 -0.002648 -0.009774
# 3 -0.001132 -0.000237 0.011894 0.004708 -0.004041 0.001327
# 4 0.003243 -0.000800 0.004708 0.032912 0.002703 -0.001282
# 5 -0.001362 -0.002648 -0.004041 0.002703 0.026469 0.004063
# 6 -0.005196 -0.009774 0.001327 -0.001282 0.004063 0.031415
#
#
# Mechanical properties :
#
#
# Convention : Reuss Voigt Hill
#
# Bulk Modulus (GPa) = 25.08413 41.96410 33.52411
# Shear Modulus (GPa) = 31.02127 39.64574 35.33351
#
# Velocity S-wave (km/s) = 3.59741 4.06685 3.83931
# Velocity P-wave (km/s) = 5.26494 6.28958 5.79993
#
# Compressibility (1/GPa) = 0.03986585
#
# Stress axis : x y z
#
# Youngs Moduli (GPa) = 103.45811 37.14719 84.07263
#
# Poissons Ratio (x) = 0.10915 0.09519
# Poissons Ratio (y) = 0.30400 0.01989
# Poissons Ratio (z) = 0.11713 0.00879
#
# Static dielectric constant tensor:
#      x y z
#    x 1.946090 -0.011110 -0.007930 
#    y -0.011110 1.910440 -0.007500 
#    z -0.007930 -0.007500 1.926030 
# 
# From -- ./inp_files/434033.got.cif
#   From: 2010.05.17/outbox.cif.g08.bks.cpg/sg2_218_cif.got.tgz:434033.got - 2010.06.03 11:33:40.
