data_PCOD9051845
_publ_section_title
;
Structure prediction by ZEFSAII (Michael W. Deem and Ramdas Pophale) SiO2 
 PCOD9051845
Probable space group: P -1
;
_chemical_formula_sum "Si O2"
_cell_formula_units_Z 16
_cell_length_a 11.804593
_cell_length_b 16.582098
_cell_length_c 8.609629
_cell_angle_alpha 49.717851
_cell_angle_beta 138.868827
_cell_angle_gamma 129.920095
_cell_volume 804.478445
_symmetry_space_group_name_H-M "P -1"
_symmetry_group_IT_number 2
_symmetry_cell_setting 'triclinic'
loop_
_space_group_symop_operation_xyz
x,y,z
-x,-y,-z
loop_
_atom_site_type_symbol
_atom_site_label
_atom_site_fract_x
_atom_site_fract_y
_atom_site_fract_z
Si Si1 0.779180 0.466191 0.306994
Si Si2 0.904391 0.059725 0.949376
Si Si3 0.376482 0.308017 0.604471
Si Si4 0.525792 0.499759 0.277647
Si Si5 0.884572 0.881955 0.602442
Si Si6 0.459342 0.054485 0.734906
Si Si7 0.454782 0.125790 0.111862
Si Si8 0.327070 0.795102 0.475267
O O1 0.679290 0.503559 0.303243
O O2 0.732026 0.334514 0.427915
O O3 0.000000 0.500000 0.500000
O O4 0.661999 0.493421 0.006331
O O5 0.018734 0.128731 0.124057
O O6 0.815271 0.147609 0.675628
O O7 0.747225 0.958453 0.990867
O O8 0.000000 0.000000 0.000000
O O9 0.473042 0.384464 0.464260
O O10 0.390403 0.397981 0.643880
O O11 0.181799 0.225023 0.446702
O O12 0.471989 0.222973 0.885245
O O13 0.700883 0.898941 0.452039
O O14 0.000000 0.000000 0.500000
O O15 0.619896 0.151932 0.704779
O O16 0.423330 0.952609 0.705226
O O17 0.500000 0.000000 0.000000
O O18 0.499642 0.168696 0.278250
#
# Coordination Sequence:
#
# PCOD9051845 Si02
#       8
#     2   2   2   2   2   2   2   2
#     4  11  25  46  72 101 127 173 240 289 339 395
#     4  11  23  38  62 101 135 166 216 271 329 400
#     4  11  22  44  68  93 133 184 219 272 353 399
#     4  10  25  48  71  94 135 180 232 290 336 395
#     4  12  22  39  61  99 133 167 213 269 337 400
#     4  11  21  38  61  93 131 171 211 256 327 409
#     4  11  21  41  62  91 132 174 214 255 334 414
#     4  11  23  42  66  92 130 178 218 268 332 406
#
# _framework density 19.888662
#
# number of rings (size 3 to 8) (size 9 to 14) (size 15 to 20)
#    0.000    1.000    3.750    4.500    1.750    1.000 
#    2.250    2.500    0.000    0.000    0.000    0.000 
#    0.000    0.000    0.000    0.000    0.000    0.000 
#
# Total GULP energy -89128.389402 kJ/mol
# GULP energy per Si atom -5570.524338 kJ/mol
# Density = 1.984340 g / cm^3
# Si number density = 19.888662 Si / 1000 Ang^3
#
#
#
# Elastic Constant Matrix: (Units=GPa)
#
#
# Indices 1 2 3 4 5 6 
#
# 1 83.0974 31.2777 33.6445 1.4200 5.7794 -7.1972
# 2 31.2777 124.8754 40.9159 3.5584 -3.8436 -6.7655
# 3 33.6445 40.9159 111.6419 2.8734 -2.0500 3.5641
# 4 1.4200 3.5584 2.8734 47.7544 -1.2447 -6.4818
# 5 5.7794 -3.8436 -2.0500 -1.2447 33.5980 -1.5441
# 6 -7.1972 -6.7655 3.5641 -6.4818 -1.5441 18.5050
#
#
#
# Elastic Compliance Matrix: (Units=1/GPa)
#
#
# Indices 1 2 3 4 5 6 
#
# 1 0.015207 -0.002287 -0.004001 0.000679 -0.002827 0.005851
# 2 -0.002287 0.009786 -0.002979 0.000017 0.001488 0.003392
# 3 -0.004001 -0.002979 0.011459 -0.001027 0.000772 -0.005147
# 4 0.000679 0.000017 -0.001027 0.022135 0.001024 0.008307
# 5 -0.002827 0.001488 0.000772 0.001024 0.030607 0.002208
# 6 0.005851 0.003392 -0.005147 0.008307 0.002208 0.061640
#
#
# Mechanical properties :
#
#
# Convention : Reuss Voigt Hill
#
# Bulk Modulus (GPa) = 55.80712 59.03233 57.41972
# Shear Modulus (GPa) = 28.51602 34.22325 31.36963
#
# Velocity S-wave (km/s) = 3.79064 4.15268 3.97578
# Velocity P-wave (km/s) = 6.87599 7.26215 7.07171
#
# Compressibility (1/GPa) = 0.01791886
#
# Stress axis : x y z
#
# Youngs Moduli (GPa) = 65.76104 102.18773 87.26494
#
# Poissons Ratio (x) = 0.23375 0.34911
# Poissons Ratio (y) = 0.15042 0.25992
# Poissons Ratio (z) = 0.26308 0.30437
#
# Static dielectric constant tensor:
#      x y z
#    x 1.724390 0.004880 0.035400 
#    y 0.004880 1.782450 0.094380 
#    z 0.035400 0.094380 1.742040 
# 
# From -- ./inp_files/271982.got.cif
#   From: 2010.05.17/outbox.cif.g08.bks.cpg/sg2_136_cif.got.tgz:271982.got - 2010.06.03 11:33:40.
