data_PCOD9051667
_publ_section_title
;
Structure prediction by ZEFSAII (Michael W. Deem and Ramdas Pophale) SiO2 
 PCOD9051667
Probable space group: P -1
;
_chemical_formula_sum "Si O2"
_cell_formula_units_Z 16
_cell_length_a 11.771633
_cell_length_b 14.306287
_cell_length_c 5.958157
_cell_angle_alpha 51.602981
_cell_angle_beta 93.125491
_cell_angle_gamma 114.623981
_cell_volume 684.867404
_symmetry_space_group_name_H-M "P -1"
_symmetry_group_IT_number 2
_symmetry_cell_setting 'triclinic'
loop_
_space_group_symop_operation_xyz
x,y,z
-x,-y,-z
loop_
_atom_site_type_symbol
_atom_site_label
_atom_site_fract_x
_atom_site_fract_y
_atom_site_fract_z
Si Si1 0.314361 0.987891 0.352994
Si Si2 0.947580 0.429722 0.344657
Si Si3 0.699516 0.390289 0.601445
Si Si4 0.890578 0.691819 0.320287
Si Si5 0.587102 0.199098 0.267295
Si Si6 0.506191 0.637130 0.715855
Si Si7 0.935886 0.088228 0.275883
Si Si8 0.767011 0.869552 0.234456
O O1 0.438364 0.083292 0.378409
O O2 0.346568 0.868140 0.473394
O O3 0.177868 0.922924 0.562892
O O4 0.305303 0.084776 0.021750
O O5 0.798998 0.394119 0.415660
O O6 0.000000 0.500000 0.500000
O O7 0.993232 0.315304 0.524959
O O8 0.000000 0.500000 0.000000
O O9 0.774644 0.537112 0.515002
O O10 0.566587 0.376223 0.507470
O O11 0.666179 0.262605 0.951685
O O12 0.840946 0.791944 0.261530
O O13 0.953642 0.758007 0.988574
O O14 0.574410 0.321646 0.187756
O O15 0.654394 0.758486 0.545048
O O16 0.500000 0.500000 0.000000
O O17 0.865665 0.008777 0.159839
O O18 0.000000 0.000000 0.500000
#
# Coordination Sequence:
#
# PCOD9051667 Si02
#       8
#     2   2   2   2   2   2   2   2
#     4  11  25  47  75 102 150 191 250 307 373 459
#     4  10  25  47  71 108 152 200 250 306 382 466
#     4  11  26  48  73 108 147 193 249 310 388 454
#     4  11  26  46  74 107 148 199 248 313 383 460
#     4  11  25  48  73 108 146 198 243 312 379 450
#     4  12  28  43  77 109 147 193 246 320 379 453
#     4  12  26  47  71 104 146 195 250 308 378 459
#     4  12  26  47  70 111 141 192 256 310 380 449
#
# _framework density 23.362186000000001
#
# number of rings (size 3 to 8) (size 9 to 14) (size 15 to 20)
#    0.000    0.750    3.750    1.875    8.750    4.500 
#    0.000    0.000    0.000    0.000    0.000    0.000 
#    0.000    0.000    0.000    0.000    0.000    0.000 
#
# Total GULP energy -89399.357184 kJ/mol
# GULP energy per Si atom -5587.459824 kJ/mol
# Density = 2.330901 g / cm^3
# Si number density = 23.362186 Si / 1000 Ang^3
#
#
#
# Elastic Constant Matrix: (Units=GPa)
#
#
# Indices 1 2 3 4 5 6 
#
# 1 126.3794 24.5837 46.9361 -9.8839 16.5929 -19.9049
# 2 24.5837 65.9343 -1.4796 -9.3833 4.2391 -11.2013
# 3 46.9361 -1.4796 113.7011 -16.7929 -0.7251 -23.7227
# 4 -9.8839 -9.3833 -16.7929 28.7298 -3.5818 2.1900
# 5 16.5929 4.2391 -0.7251 -3.5818 61.5897 -10.9342
# 6 -19.9049 -11.2013 -23.7227 2.1900 -10.9342 38.1311
#
#
#
# Elastic Compliance Matrix: (Units=1/GPa)
#
#
# Indices 1 2 3 4 5 6 
#
# 1 0.010731 -0.003823 -0.004342 -0.000491 -0.002515 0.001085
# 2 -0.003823 0.018592 0.004086 0.006847 0.001257 0.005975
# 3 -0.004342 0.004086 0.013343 0.007412 0.002830 0.007621
# 4 -0.000491 0.006847 0.007412 0.041211 0.003008 0.004862
# 5 -0.002515 0.001257 0.002830 0.003008 0.018070 0.005826
# 6 0.001085 0.005975 0.007621 0.004862 0.005826 0.034679
#
#
# Mechanical properties :
#
#
# Convention : Reuss Voigt Hill
#
# Bulk Modulus (GPa) = 28.97732 49.56614 39.27173
# Shear Modulus (GPa) = 31.99225 41.42176 36.70701
#
# Velocity S-wave (km/s) = 3.70456 4.21530 3.96816
# Velocity P-wave (km/s) = 5.54336 6.70478 6.15154
#
# Compressibility (1/GPa) = 0.03450974
#
# Stress axis : x y z
#
# Youngs Moduli (GPa) = 93.18370 53.78600 74.94445
#
# Poissons Ratio (x) = 0.20560 0.32540
# Poissons Ratio (y) = 0.35620 -0.30621
# Poissons Ratio (z) = 0.40459 -0.21976
#
# Static dielectric constant tensor:
#      x y z
#    x 1.866130 -0.016940 0.025940 
#    y -0.016940 1.878980 0.106680 
#    z 0.025940 0.106680 1.831120 
# 
# From -- ./inp_files/76991.got.cif
#   From: 2010.05.17/outbox.cif.g08.bks.cpg/sg2_39_cif.got.tgz:76991.got - 2010.06.03 11:33:40.
