data_PCOD9051129
_publ_section_title
;
Structure prediction by ZEFSAII (Michael W. Deem and Ramdas Pophale) SiO2 
 PCOD9051129
Probable space group: P -1
;
_chemical_formula_sum "Si O2"
_cell_formula_units_Z 12
_cell_length_a 11.819099
_cell_length_b 12.360518
_cell_length_c 4.974625
_cell_angle_alpha 64.248292
_cell_angle_beta 93.638804
_cell_angle_gamma 128.241545
_cell_volume 491.940694
_symmetry_space_group_name_H-M "P -1"
_symmetry_group_IT_number 2
_symmetry_cell_setting 'triclinic'
loop_
_space_group_symop_operation_xyz
x,y,z
-x,-y,-z
loop_
_atom_site_type_symbol
_atom_site_label
_atom_site_fract_x
_atom_site_fract_y
_atom_site_fract_z
Si Si1 0.848770 0.262544 0.738556
Si Si2 0.442254 0.654764 0.238929
Si Si3 0.153030 0.365766 0.810113
Si Si4 0.295844 0.066131 0.707382
Si Si5 0.248343 0.177173 0.072605
Si Si6 0.778883 0.365525 0.099621
O O1 0.790507 0.278197 0.436587
O O2 0.001656 0.293474 0.709242
O O3 0.871245 0.382561 0.836662
O O4 0.732506 0.089304 0.044712
O O5 0.297924 0.485295 0.511196
O O6 0.532747 0.777972 0.365833
O O7 0.571468 0.668186 0.096486
O O8 0.382353 0.716762 0.966445
O O9 0.168446 0.472690 0.936289
O O10 0.159478 0.235066 0.059513
O O11 0.244010 0.067842 0.405133
O O12 0.206878 0.091802 0.872463
#
# Coordination Sequence:
#
# PCOD9051129 Si02
#       6
#     2   2   2   2   2   2
#     4  12  28  45  72  99 144 179 230 275 341 412
#     4  10  25  45  70 105 135 178 229 282 341 399
#     4  12  26  46  73 103 138 180 226 290 335 405
#     4  10  25  48  66 107 133 183 225 281 343 400
#     4  10  25  45  74 100 138 173 237 276 346 398
#     4  12  26  45  70 104 138 182 227 279 341 405
#
# _framework density 24.393184000000002
#
# number of rings (size 3 to 8) (size 9 to 14) (size 15 to 20)
#    1.000    0.000    1.667    3.500    4.667    4.000 
#    0.000    0.000    0.000    0.000    0.000    0.000 
#    0.000    0.000    0.000    0.000    0.000    0.000 
#
# Total GULP energy -67110.311919 kJ/mol
# GULP energy per Si atom -5592.525993 kJ/mol
# Density = 2.433766 g / cm^3
# Si number density = 24.393184 Si / 1000 Ang^3
#
#
#
# Elastic Constant Matrix: (Units=GPa)
#
#
# Indices 1 2 3 4 5 6 
#
# 1 116.6450 7.9286 29.0632 11.4890 29.8262 2.5763
# 2 7.9286 21.6706 9.9092 1.1489 4.9309 1.3304
# 3 29.0632 9.9092 112.6679 18.1308 12.1109 10.6148
# 4 11.4890 1.1489 18.1308 20.9985 -8.4795 -0.4422
# 5 29.8262 4.9309 12.1109 -8.4795 32.0914 4.8290
# 6 2.5763 1.3304 10.6148 -0.4422 4.8290 21.1130
#
#
#
# Elastic Compliance Matrix: (Units=1/GPa)
#
#
# Indices 1 2 3 4 5 6 
#
# 1 0.014628 -0.000778 0.000619 -0.015786 -0.018147 0.001773
# 2 -0.000778 0.049394 -0.003132 -0.002088 -0.006227 -0.000062
# 3 0.000619 -0.003132 0.012594 -0.014343 -0.007930 -0.004697
# 4 -0.015786 -0.002088 -0.014343 0.086140 0.042979 0.001243
# 5 -0.018147 -0.006227 -0.007930 0.042979 0.064422 -0.007241
# 6 0.001773 -0.000062 -0.004697 0.001243 -0.007241 0.051195
#
#
# Mechanical properties :
#
#
# Convention : Reuss Voigt Hill
#
# Bulk Modulus (GPa) = 14.27876 38.30951 26.29414
# Shear Modulus (GPa) = 16.21800 28.44608 22.33204
#
# Velocity S-wave (km/s) = 2.58128 3.41860 3.02901
# Velocity P-wave (km/s) = 3.84061 5.59656 4.79957
#
# Compressibility (1/GPa) = 0.07003407
#
# Stress axis : x y z
#
# Youngs Moduli (GPa) = 68.36433 20.24551 79.39978
#
# Poissons Ratio (x) = 0.01574 -0.04916
# Poissons Ratio (y) = 0.05316 0.24870
# Poissons Ratio (z) = -0.04233 0.06342
#
# Static dielectric constant tensor:
#      x y z
#    x 1.970670 0.020790 -0.046070 
#    y 0.020790 1.938090 -0.036100 
#    z -0.046070 -0.036100 1.934020 
# 
# From -- ./inp_files/29049.got.cif
#   From: 2010.05.17/outbox.cif.g08.bks.cpg/sg2_15_cif.got.tgz:29049.got - 2010.06.03 11:33:40.
