data_PCOD9051681
_publ_section_title
;
Structure prediction by ZEFSAII (Michael W. Deem and Ramdas Pophale) SiO2 
 PCOD9051681
Probable space group: P -1
;
_chemical_formula_sum "Si O2"
_cell_formula_units_Z 14
_cell_length_a 8.854228
_cell_length_b 14.348793
_cell_length_c 14.327039
_cell_angle_alpha 28.664671
_cell_angle_beta 120.502873
_cell_angle_gamma 102.641450
_cell_volume 629.227228
_symmetry_space_group_name_H-M "P -1"
_symmetry_group_IT_number 2
_symmetry_cell_setting 'triclinic'
loop_
_space_group_symop_operation_xyz
x,y,z
-x,-y,-z
loop_
_atom_site_type_symbol
_atom_site_label
_atom_site_fract_x
_atom_site_fract_y
_atom_site_fract_z
Si Si1 0.211253 0.195924 0.316991
Si Si2 0.378470 0.452904 0.779812
Si Si3 0.217795 0.560164 0.109770
Si Si4 0.414768 0.335150 0.096791
Si Si5 0.557533 0.956559 0.948255
Si Si6 0.317083 0.482479 0.411154
Si Si7 0.038656 0.752123 0.255473
O O1 0.200242 0.340801 0.276242
O O2 0.275991 0.307205 0.155428
O O3 0.385275 0.927454 0.619163
O O4 0.987631 0.238167 0.184829
O O5 0.558176 0.505661 0.800440
O O6 0.191545 0.640199 0.490514
O O7 0.306119 0.420990 0.885903
O O8 0.495487 0.207225 0.977844
O O9 0.212379 0.624941 0.159296
O O10 0.500000 0.500000 0.000000
O O11 0.436343 0.218612 0.644085
O O12 0.500000 0.000000 0.000000
O O13 0.807460 0.814530 0.144434
O O14 0.500000 0.500000 0.500000
O O15 0.147692 0.574758 0.359086
O O16 0.000000 0.000000 0.000000
#
# Coordination Sequence:
#
# PCOD9051681 Si02
#       7
#     2   2   2   2   2   2   2
#     4  10  25  47  72 100 142 188 240 300 357 421
#     4  12  25  44  70 104 143 189 239 301 359 430
#     4  11  23  46  70 100 139 191 237 291 366 422
#     4  11  24  47  69 104 138 181 244 297 358 424
#     4  12  25  44  66 103 145 182 239 296 352 432
#     4  12  23  45  69 102 143 187 235 296 360 435
#     4  12  26  44  70 101 145 191 238 289 364 437
#
# _framework density 22.249514000000001
#
# number of rings (size 3 to 8) (size 9 to 14) (size 15 to 20)
#    0.000    0.571    5.714    1.286    2.000    1.714 
#    2.571    0.000    0.000    0.000    0.000    0.000 
#    0.000    0.000    0.000    0.000    0.000    0.000 
#
# Total GULP energy -78253.000744 kJ/mol
# GULP energy per Si atom -5589.500053 kJ/mol
# Density = 2.219887 g / cm^3
# Si number density = 22.249514 Si / 1000 Ang^3
#
#
#
# Elastic Constant Matrix: (Units=GPa)
#
#
# Indices 1 2 3 4 5 6 
#
# 1 84.1066 16.7353 35.1857 14.6731 12.2237 -12.1277
# 2 16.7353 99.2031 45.3635 12.9410 -6.4270 -7.0755
# 3 35.1857 45.3635 127.9716 4.7009 3.4914 -1.0209
# 4 14.6731 12.9410 4.7009 46.2437 -4.6106 -6.8547
# 5 12.2237 -6.4270 3.4914 -4.6106 46.0886 1.5479
# 6 -12.1277 -7.0755 -1.0209 -6.8547 1.5479 39.6134
#
#
#
# Elastic Compliance Matrix: (Units=1/GPa)
#
#
# Indices 1 2 3 4 5 6 
#
# 1 0.015538 -0.000297 -0.003856 -0.004300 -0.004436 0.004034
# 2 -0.000297 0.012695 -0.004362 -0.002600 0.001868 0.001541
# 3 -0.003856 -0.004362 0.010372 0.001149 -0.000206 -0.001485
# 4 -0.004300 -0.002600 0.001149 0.024247 0.003038 0.002326
# 5 -0.004436 0.001868 -0.000206 0.003038 0.023502 -0.001422
# 6 0.004034 0.001541 -0.001485 0.002326 -0.001422 0.027174
#
#
# Mechanical properties :
#
#
# Convention : Reuss Voigt Hill
#
# Bulk Modulus (GPa) = 46.34630 56.20558 51.27594
# Shear Modulus (GPa) = 36.29773 40.65559 38.47666
#
# Velocity S-wave (km/s) = 4.04343 4.27928 4.16303
# Velocity P-wave (km/s) = 6.53258 7.05214 6.79733
#
# Compressibility (1/GPa) = 0.02157670
#
# Stress axis : x y z
#
# Youngs Moduli (GPa) = 64.35700 78.77089 96.41234
#
# Poissons Ratio (x) = 0.02338 0.37175
# Poissons Ratio (y) = 0.01910 0.42052
# Poissons Ratio (z) = 0.24815 0.34357
#
# Static dielectric constant tensor:
#      x y z
#    x 1.888440 -0.002490 -0.075270 
#    y -0.002490 1.825180 -0.064010 
#    z -0.075270 -0.064010 1.803370 
# 
# From -- ./inp_files/505145.got.cif
#   From: 2010.05.17/outbox.cif.g08.bks.cpg/sg2_253_cif.got.tgz:505145.got - 2010.06.03 11:33:40.
