data_PCOD9051132
_publ_section_title
;
Structure prediction by ZEFSAII (Michael W. Deem and Ramdas Pophale) SiO2 
 PCOD9051132
Probable space group: P -1
;
_chemical_formula_sum "Si O2"
_cell_formula_units_Z 14
_cell_length_a 6.284289
_cell_length_b 10.826474
_cell_length_c 13.063052
_cell_angle_alpha 117.927070
_cell_angle_beta 53.119848
_cell_angle_gamma 107.444299
_cell_volume 627.907686
_symmetry_space_group_name_H-M "P -1"
_symmetry_group_IT_number 2
_symmetry_cell_setting 'triclinic'
loop_
_space_group_symop_operation_xyz
x,y,z
-x,-y,-z
loop_
_atom_site_type_symbol
_atom_site_label
_atom_site_fract_x
_atom_site_fract_y
_atom_site_fract_z
Si Si1 0.690799 0.668923 0.581537
Si Si2 0.887049 0.456131 0.289369
Si Si3 0.285484 0.038929 0.387094
Si Si4 0.785840 0.886828 0.189296
Si Si5 0.364133 0.250661 0.033933
Si Si6 0.781627 0.893587 0.792260
Si Si7 0.055238 0.625946 0.112440
O O1 0.836614 0.539422 0.440874
O O2 0.394268 0.623048 0.684300
O O3 0.658612 0.794553 0.556507
O O4 0.847078 0.749366 0.658237
O O5 0.130479 0.352516 0.175422
O O6 0.953134 0.571211 0.229019
O O7 0.300313 0.018734 0.250608
O O8 0.504765 0.940361 0.331611
O O9 0.000000 0.000000 0.500000
O O10 0.903202 0.762118 0.172525
O O11 0.749419 0.830462 0.063169
O O12 0.979606 0.022332 0.191111
O O13 0.419790 0.151860 0.077411
O O14 0.631803 0.335388 0.960883
O O15 0.000000 0.500000 0.000000
#
# Coordination Sequence:
#
# PCOD9051132 Si02
#       7
#     2   2   2   2   2   2   2
#     4   9  24  46  74 100 144 185 236 296 340 426
#     4  11  23  48  72 104 148 186 238 290 350 416
#     4  10  25  48  69 104 141 181 239 293 350 417
#     4  12  26  44  75 103 143 188 228 301 353 416
#     4  12  26  44  74 106 144 186 234 296 351 416
#     4  10  25  45  70 106 140 181 241 283 358 418
#     4  12  27  46  70 109 142 188 234 284 356 429
#
# _framework density 22.296271999999998
#
# number of rings (size 3 to 8) (size 9 to 14) (size 15 to 20)
#    0.857    0.286    1.429    3.429    4.000    3.429 
#    5.143    0.000    0.000    0.000    0.000    0.000 
#    0.000    0.000    0.000    0.000    0.000    0.000 
#
# Total GULP energy -78231.665958 kJ/mol
# GULP energy per Si atom -5587.976140 kJ/mol
# Density = 2.224553 g / cm^3
# Si number density = 22.296272 Si / 1000 Ang^3
#
#
#
# Elastic Constant Matrix: (Units=GPa)
#
#
# Indices 1 2 3 4 5 6 
#
# 1 80.7217 56.5564 52.2743 10.2024 -2.9428 17.8291
# 2 56.5564 133.1447 71.9841 -12.2976 -10.4124 20.4445
# 3 52.2743 71.9841 99.6108 3.4824 -32.7503 1.6248
# 4 10.2024 -12.2976 3.4824 52.0528 1.2221 4.5045
# 5 -2.9428 -10.4124 -32.7503 1.2221 38.2297 2.0214
# 6 17.8291 20.4445 1.6248 4.5045 2.0214 45.4935
#
#
#
# Elastic Compliance Matrix: (Units=1/GPa)
#
#
# Indices 1 2 3 4 5 6 
#
# 1 0.025699 -0.003185 -0.014473 -0.003940 -0.010778 -0.007255
# 2 -0.003185 0.016662 -0.012569 0.006079 -0.006346 -0.006111
# 3 -0.014473 -0.012569 0.034922 -0.003865 0.025009 0.009345
# 4 -0.003940 0.006079 -0.003865 0.022007 -0.002497 -0.003118
# 5 -0.010778 -0.006346 0.025009 -0.002497 0.044869 0.004436
# 6 -0.007255 -0.006111 0.009345 -0.003118 0.004436 0.027348
#
#
# Mechanical properties :
#
#
# Convention : Reuss Voigt Hill
#
# Bulk Modulus (GPa) = 59.41329 75.01186 67.21257
# Shear Modulus (GPa) = 21.04625 35.99938 28.52282
#
# Velocity S-wave (km/s) = 3.07569 4.02256 3.58056
# Velocity P-wave (km/s) = 6.27042 7.43578 6.87783
#
# Compressibility (1/GPa) = 0.01683125
#
# Stress axis : x y z
#
# Youngs Moduli (GPa) = 38.91174 60.01519 28.63486
#
# Poissons Ratio (x) = 0.19113 0.41442
# Poissons Ratio (y) = 0.12392 0.35992
# Poissons Ratio (z) = 0.56316 0.75434
#
# Static dielectric constant tensor:
#      x y z
#    x 1.843230 -0.037910 0.023810 
#    y -0.037910 1.836400 0.033380 
#    z 0.023810 0.033380 1.809660 
# 
# From -- ./inp_files/482263.got.cif
#   From: 2010.05.17/outbox.cif.g08.bks.cpg/sg2_242_cif.got.tgz:482263.got - 2010.06.03 11:33:40.
