data_PCOD9051722
_publ_section_title
;
Structure prediction by ZEFSAII (Michael W. Deem and Ramdas Pophale) SiO2 
 PCOD9051722
Probable space group: P -1
;
_chemical_formula_sum "Si O2"
_cell_formula_units_Z 14
_cell_length_a 22.793065
_cell_length_b 13.632028
_cell_length_c 14.101350
_cell_angle_alpha 148.889780
_cell_angle_beta 157.972494
_cell_angle_gamma 19.975005
_cell_volume 557.472917
_symmetry_space_group_name_H-M "P -1"
_symmetry_group_IT_number 2
_symmetry_cell_setting 'triclinic'
loop_
_space_group_symop_operation_xyz
x,y,z
-x,-y,-z
loop_
_atom_site_type_symbol
_atom_site_label
_atom_site_fract_x
_atom_site_fract_y
_atom_site_fract_z
Si Si1 0.048651 0.607353 0.897046
Si Si2 0.758747 0.777069 0.312010
Si Si3 0.295469 0.671085 0.910819
Si Si4 0.781293 0.147550 0.558260
Si Si5 0.567321 0.099686 0.609635
Si Si6 0.035020 0.603682 0.227707
Si Si7 0.414179 0.793846 0.878180
O O1 0.210968 0.358402 0.855484
O O2 0.004120 0.497053 0.823635
O O3 0.774922 0.863565 0.650625
O O4 0.177977 0.686589 0.191225
O O5 0.730374 0.027273 0.457484
O O6 0.000000 0.500000 0.500000
O O7 0.528687 0.894398 0.112561
O O8 0.034328 0.842754 0.638779
O O9 0.500000 0.500000 0.000000
O O10 0.264835 0.917201 0.093030
O O11 0.395335 0.478900 0.993824
O O12 0.616033 0.290784 0.336266
O O13 0.307588 0.427083 0.474174
O O14 0.500000 0.000000 0.500000
O O15 0.832182 0.948466 0.220274
O O16 0.000000 0.500000 0.000000
#
# Coordination Sequence:
#
# PCOD9051722 Si02
#       7
#     2   2   2   2   2   2   2
#     4  10  25  47  73 106 141 194 245 299 367 428
#     4  12  26  50  76 104 148 195 245 302 364 433
#     4  11  25  42  70 104 141 193 238 295 365 429
#     4  11  25  49  72 106 148 188 248 302 356 442
#     4   9  22  42  64  96 141 181 230 289 356 421
#     4  11  25  41  68 106 146 191 237 297 369 429
#     4  12  27  46  74 107 147 196 243 301 369 430
#
# _framework density 25.113327999999999
#
# number of rings (size 3 to 8) (size 9 to 14) (size 15 to 20)
#    0.000    1.143    2.857    1.286   12.000    2.286 
#    0.000    0.000    0.000    0.000    0.000    0.000 
#    0.000    0.000    0.000    0.000    0.000    0.000 
#
# Total GULP energy -78116.801376 kJ/mol
# GULP energy per Si atom -5579.771527 kJ/mol
# Density = 2.505617 g / cm^3
# Si number density = 25.113328 Si / 1000 Ang^3
#
#
#
# Elastic Constant Matrix: (Units=GPa)
#
#
# Indices 1 2 3 4 5 6 
#
# 1 72.6956 -0.5890 25.2316 2.8234 0.4156 8.1801
# 2 -0.5890 64.9055 16.8367 -5.2105 5.7824 -9.7620
# 3 25.2316 16.8367 102.9822 6.3083 4.3662 -2.8358
# 4 2.8234 -5.2105 6.3083 50.6437 -2.9449 9.1909
# 5 0.4156 5.7824 4.3662 -2.9449 45.9659 -0.8553
# 6 8.1801 -9.7620 -2.8358 9.1909 -0.8553 33.2954
#
#
#
# Elastic Compliance Matrix: (Units=1/GPa)
#
#
# Indices 1 2 3 4 5 6 
#
# 1 0.015621 0.000603 -0.004073 0.000455 0.000122 -0.004130
# 2 0.000603 0.017029 -0.002816 0.001201 -0.001725 0.004229
# 3 -0.004073 -0.002816 0.011357 -0.001817 -0.000774 0.001624
# 4 0.000455 0.001201 -0.001817 0.021184 0.001268 -0.005729
# 5 0.000122 -0.001725 -0.000774 0.001268 0.022119 -0.000383
# 6 -0.004130 0.004229 0.001624 -0.005729 -0.000383 0.033999
#
#
# Mechanical properties :
#
#
# Convention : Reuss Voigt Hill
#
# Bulk Modulus (GPa) = 31.81083 35.94911 33.87997
# Shear Modulus (GPa) = 34.63592 39.25460 36.94526
#
# Velocity S-wave (km/s) = 3.71777 3.95789 3.83971
# Velocity P-wave (km/s) = 5.57884 5.93569 5.76003
#
# Compressibility (1/GPa) = 0.03143584
#
# Stress axis : x y z
#
# Youngs Moduli (GPa) = 64.01720 58.72317 88.04805
#
# Poissons Ratio (x) = -0.03539 0.35858
# Poissons Ratio (y) = -0.03858 0.24792
# Poissons Ratio (z) = 0.26071 0.16535
#
# Static dielectric constant tensor:
#      x y z
#    x 1.901150 0.070560 -0.030920 
#    y 0.070560 2.018340 -0.038680 
#    z -0.030920 -0.038680 1.992050 
# 
# From -- ./inp_files/477677.got.cif
#   From: 2010.05.17/outbox.cif.g08.bks.cpg/sg2_239_cif.got.tgz:477677.got - 2010.06.03 11:33:40.
