data_PCOD9051737
_publ_section_title
;
Structure prediction by ZEFSAII (Michael W. Deem and Ramdas Pophale) SiO2 
 PCOD9051737
Probable space group: P -1
;
_chemical_formula_sum "Si O2"
_cell_formula_units_Z 10
_cell_length_a 9.309965
_cell_length_b 9.426275
_cell_length_c 11.118424
_cell_angle_alpha 108.512183
_cell_angle_beta 60.421094
_cell_angle_gamma 150.957331
_cell_volume 396.634465
_symmetry_space_group_name_H-M "P -1"
_symmetry_group_IT_number 2
_symmetry_cell_setting 'triclinic'
loop_
_space_group_symop_operation_xyz
x,y,z
-x,-y,-z
loop_
_atom_site_type_symbol
_atom_site_label
_atom_site_fract_x
_atom_site_fract_y
_atom_site_fract_z
Si Si1 0.709913 0.873299 0.317968
Si Si2 0.451751 0.107599 0.967110
Si Si3 0.930566 0.782530 0.520277
Si Si4 0.709429 0.605559 0.058765
Si Si5 0.267554 0.751908 0.353099
O O1 0.741202 0.773751 0.177054
O O2 0.591448 0.937869 0.332623
O O3 0.427468 0.579688 0.445575
O O4 0.036840 0.167374 0.336742
O O5 0.722824 0.313578 0.800993
O O6 0.509349 0.294394 0.080472
O O7 0.500000 0.000000 0.000000
O O8 0.093229 0.844942 0.978046
O O9 0.213263 0.885475 0.394145
O O10 0.000000 0.000000 0.500000
O O11 0.500000 0.500000 0.000000
O O12 0.000000 0.500000 0.500000
#
# Coordination Sequence:
#
# PCOD9051737 Si02
#       5
#     2   2   2   2   2
#     4  11  24  44  71 100 144 189 244 296 365 437
#     4  12  28  48  76 112 151 195 244 315 373 435
#     4  11  25  44  69 104 140 190 241 306 363 432
#     4  12  26  48  77 107 149 197 251 302 369 450
#     4  10  25  47  74 103 148 191 249 293 372 438
#
# _framework density 25.212132
#
# number of rings (size 3 to 8) (size 9 to 14) (size 15 to 20)
#    0.000    0.800    2.000    3.600    8.400    3.200 
#    0.000    0.000    0.000    0.000    0.000    0.000 
#    0.000    0.000    0.000    0.000    0.000    0.000 
#
# Total GULP energy -55799.943410 kJ/mol
# GULP energy per Si atom -5579.994341 kJ/mol
# Density = 2.515475 g / cm^3
# Si number density = 25.212132 Si / 1000 Ang^3
#
#
#
# Elastic Constant Matrix: (Units=GPa)
#
#
# Indices 1 2 3 4 5 6 
#
# 1 181.9311 40.5645 41.7806 -12.4465 -31.0111 -17.3850
# 2 40.5645 107.1399 9.3698 5.7068 -17.9486 18.2997
# 3 41.7806 9.3698 93.6747 10.4204 -13.8115 20.1389
# 4 -12.4465 5.7068 10.4204 39.4938 -13.5267 3.3853
# 5 -31.0111 -17.9486 -13.8115 -13.5267 36.1890 10.3049
# 6 -17.3850 18.2997 20.1389 3.3853 10.3049 45.2736
#
#
#
# Elastic Compliance Matrix: (Units=1/GPa)
#
#
# Indices 1 2 3 4 5 6 
#
# 1 0.009148 -0.003478 -0.004854 0.005863 0.004879 0.005529
# 2 -0.003478 0.013367 0.003558 -0.000473 0.007687 -0.010036
# 3 -0.004854 0.003558 0.016210 -0.003322 0.005852 -0.011596
# 4 0.005863 -0.000473 -0.003322 0.034150 0.016998 -0.002502
# 5 0.004879 0.007687 0.005852 0.016998 0.048832 -0.016223
# 6 0.005529 -0.010036 -0.011596 -0.002502 -0.016223 0.037305
#
#
# Mechanical properties :
#
#
# Convention : Reuss Voigt Hill
#
# Bulk Modulus (GPa) = 34.27512 62.90841 48.59177
# Shear Modulus (GPa) = 28.04498 43.59331 35.81914
#
# Velocity S-wave (km/s) = 3.33883 4.16271 3.77332
# Velocity P-wave (km/s) = 5.33740 6.93614 6.18861
#
# Compressibility (1/GPa) = 0.02917568
#
# Stress axis : x y z
#
# Youngs Moduli (GPa) = 109.31516 74.81388 61.69174
#
# Poissons Ratio (x) = 0.26023 0.29944
# Poissons Ratio (y) = 0.38024 -0.21950
# Poissons Ratio (z) = 0.53059 -0.26619
#
# Static dielectric constant tensor:
#      x y z
#    x 1.995690 0.000650 -0.004070 
#    y 0.000650 1.945560 -0.073490 
#    z -0.004070 -0.073490 2.116710 
# 
# From -- ./inp_files/18117.got.cif
#   From: 2010.05.17/outbox.cif.g08.bks.cpg/sg2_10_cif.got.tgz:18117.got - 2010.06.03 11:33:40.
