data_PCOD9051226
_publ_section_title
;
Structure prediction by ZEFSAII (Michael W. Deem and Ramdas Pophale) SiO2 
 PCOD9051226
Probable space group: P -1
;
_chemical_formula_sum "Si O2"
_cell_formula_units_Z 14
_cell_length_a 18.290452
_cell_length_b 17.515634
_cell_length_c 10.673118
_cell_angle_alpha 140.928028
_cell_angle_beta 137.271240
_cell_angle_gamma 15.247738
_cell_volume 564.642977
_symmetry_space_group_name_H-M "P -1"
_symmetry_group_IT_number 2
_symmetry_cell_setting 'triclinic'
loop_
_space_group_symop_operation_xyz
x,y,z
-x,-y,-z
loop_
_atom_site_type_symbol
_atom_site_label
_atom_site_fract_x
_atom_site_fract_y
_atom_site_fract_z
Si Si1 0.706386 0.539363 0.609266
Si Si2 0.742129 0.296079 0.140664
Si Si3 0.157026 0.108903 0.804218
Si Si4 0.851906 0.368624 0.173900
Si Si5 0.668995 0.144108 0.023844
Si Si6 0.074030 0.447324 0.230095
Si Si7 0.475069 0.966253 0.559315
O O1 0.655054 0.498070 0.380900
O O2 0.839946 0.524745 0.705194
O O3 0.418432 0.862039 0.728665
O O4 0.934627 0.257903 0.639483
O O5 0.936063 0.172266 0.125944
O O6 0.770470 0.166992 0.123532
O O7 0.500000 0.500000 0.000000
O O8 0.006656 0.393127 0.005939
O O9 0.267404 0.938806 0.856915
O O10 0.646379 0.544931 0.024857
O O11 0.117429 0.158225 0.177401
O O12 0.342634 0.343101 0.621804
O O13 0.824844 0.739075 0.381906
O O14 0.354432 0.125148 0.248356
O O15 0.500000 0.000000 0.500000
#
# Coordination Sequence:
#
# PCOD9051226 Si02
#       7
#     2   2   2   2   2   2   2
#     4  12  26  45  70  98 135 184 226 272 330 405
#     4  10  25  45  72  99 134 174 228 279 342 395
#     4  12  26  45  69  98 140 178 230 271 333 396
#     4  11  22  42  67  99 137 172 224 276 341 399
#     4  11  24  43  68  99 136 178 223 284 331 392
#     4  12  24  44  66 100 139 176 225 270 332 404
#     4  12  23  38  68 101 138 174 218 274 340 396
#
# _framework density 24.794426999999999
#
# number of rings (size 3 to 8) (size 9 to 14) (size 15 to 20)
#    0.000    0.571    1.429    6.857    2.000    3.429 
#    0.000    0.000    0.000    0.000    0.000    0.000 
#    0.000    0.000    0.000    0.000    0.000    0.000 
#
# Total GULP energy -78242.056691 kJ/mol
# GULP energy per Si atom -5588.718335 kJ/mol
# Density = 2.473799 g / cm^3
# Si number density = 24.794427 Si / 1000 Ang^3
#
#
#
# Elastic Constant Matrix: (Units=GPa)
#
#
# Indices 1 2 3 4 5 6 
#
# 1 117.8164 27.0036 62.6057 26.8176 -13.7309 8.5231
# 2 27.0036 159.8235 55.4321 50.8616 -20.8712 -3.8596
# 3 62.6057 55.4321 159.0041 35.4532 -26.3209 17.2726
# 4 26.8176 50.8616 35.4532 116.6616 -2.3249 9.1239
# 5 -13.7309 -20.8712 -26.3209 -2.3249 27.9261 2.7641
# 6 8.5231 -3.8596 17.2726 9.1239 2.7641 40.2112
#
#
#
# Elastic Compliance Matrix: (Units=1/GPa)
#
#
# Indices 1 2 3 4 5 6 
#
# 1 0.010999 0.000093 -0.003671 -0.001370 0.001959 -0.000569
# 2 0.000093 0.008501 -0.001791 -0.003256 0.004241 0.002013
# 3 -0.003671 -0.001791 0.010127 -0.001008 0.006710 -0.003976
# 4 -0.001370 -0.003256 -0.001008 0.010695 -0.002988 -0.001811
# 5 0.001959 0.004241 0.006710 -0.002988 0.046553 -0.005413
# 6 -0.000569 0.002013 -0.003976 -0.001811 -0.005413 0.027673
#
#
# Mechanical properties :
#
#
# Convention : Reuss Voigt Hill
#
# Bulk Modulus (GPa) = 52.94446 80.74742 66.84594
# Shear Modulus (GPa) = 37.99907 56.39995 47.19951
#
# Velocity S-wave (km/s) = 3.91905 4.77456 4.36780
# Velocity P-wave (km/s) = 6.47134 7.93931 7.24262
#
# Compressibility (1/GPa) = 0.01888772
#
# Stress axis : x y z
#
# Youngs Moduli (GPa) = 90.91992 117.63330 98.75026
#
# Poissons Ratio (x) = -0.01094 0.36256
# Poissons Ratio (y) = -0.00846 0.17684
# Poissons Ratio (z) = 0.33381 0.21066
#
# Static dielectric constant tensor:
#      x y z
#    x 2.272850 0.244420 0.240300 
#    y 0.244420 2.126650 0.152350 
#    z 0.240300 0.152350 2.189320 
# 
# From -- ./inp_files/357932.got.cif
#   From: 2010.05.17/outbox.cif.g08.bks.cpg/sg2_179_cif.got.tgz:357932.got - 2010.06.03 11:33:40.
