data_PCOD9051564
_publ_section_title
;
Structure prediction by ZEFSAII (Michael W. Deem and Ramdas Pophale) SiO2 
 PCOD9051564
Probable space group: P -1
;
_chemical_formula_sum "Si O2"
_cell_formula_units_Z 16
_cell_length_a 9.806964
_cell_length_b 9.472782
_cell_length_c 14.655644
_cell_angle_alpha 79.238522
_cell_angle_beta 89.357095
_cell_angle_gamma 146.142003
_cell_volume 709.980233
_symmetry_space_group_name_H-M "P -1"
_symmetry_group_IT_number 2
_symmetry_cell_setting 'triclinic'
loop_
_space_group_symop_operation_xyz
x,y,z
-x,-y,-z
loop_
_atom_site_type_symbol
_atom_site_label
_atom_site_fract_x
_atom_site_fract_y
_atom_site_fract_z
Si Si1 0.591633 0.735998 0.563898
Si Si2 0.582588 0.974291 0.085641
Si Si3 0.967502 0.207449 0.647979
Si Si4 0.702685 0.727537 0.827705
Si Si5 0.844905 0.407688 0.705756
Si Si6 0.474194 0.643765 0.370749
Si Si7 0.909713 0.184738 0.205273
Si Si8 0.703873 0.767071 0.038205
O O1 0.621182 0.772498 0.450462
O O2 0.646411 0.621082 0.608913
O O3 0.279183 0.474168 0.608148
O O4 0.791339 0.016077 0.582404
O O5 0.847381 0.223936 0.111897
O O6 0.366055 0.797772 0.186971
O O7 0.620314 0.851007 0.057826
O O8 0.500000 0.000000 0.000000
O O9 0.910861 0.315188 0.673054
O O10 0.849593 0.982662 0.744384
O O11 0.402252 0.424495 0.851737
O O12 0.852068 0.710090 0.818971
O O13 0.652386 0.715723 0.935587
O O14 0.735798 0.418886 0.629004
O O15 0.068735 0.690327 0.723950
O O16 0.677853 0.869223 0.265760
O O17 0.000000 0.000000 0.000000
#
# Coordination Sequence:
#
# PCOD9051564 Si02
#       8
#     2   2   2   2   2   2   2   2
#     4  11  27  47  76 111 144 189 244 300 353 432
#     4  11  24  43  64 102 138 182 235 291 364 423
#     4  12  28  46  73 110 147 190 240 302 357 425
#     4  11  23  43  69 101 135 186 244 292 355 422
#     4  11  26  46  69 101 146 193 234 293 367 429
#     4  10  25  46  76 104 144 187 241 293 365 430
#     4  11  22  44  74  99 140 194 234 293 359 437
#     4  11  23  41  69  99 134 181 239 298 350 418
#
# _framework density 22.535837000000001
#
# number of rings (size 3 to 8) (size 9 to 14) (size 15 to 20)
#    0.000    1.000    3.750    1.500    8.750    2.500 
#    0.000    0.000    0.000    0.000    0.000    0.000 
#    0.000    0.000    0.000    0.000    0.000    0.000 
#
# Total GULP energy -89168.758066 kJ/mol
# GULP energy per Si atom -5573.047379 kJ/mol
# Density = 2.248454 g / cm^3
# Si number density = 22.535837 Si / 1000 Ang^3
#
#
#
# Elastic Constant Matrix: (Units=GPa)
#
#
# Indices 1 2 3 4 5 6 
#
# 1 137.7877 36.7387 24.8784 -6.2819 8.1963 -16.3826
# 2 36.7387 74.5580 19.6378 12.0864 2.0538 -14.6281
# 3 24.8784 19.6378 78.4044 2.2581 8.7254 -0.2943
# 4 -6.2819 12.0864 2.2581 38.3039 2.0158 -15.4165
# 5 8.1963 2.0538 8.7254 2.0158 36.2674 4.8380
# 6 -16.3826 -14.6281 -0.2943 -15.4165 4.8380 37.9296
#
#
#
# Elastic Compliance Matrix: (Units=1/GPa)
#
#
# Indices 1 2 3 4 5 6 
#
# 1 0.009647 -0.004034 -0.001907 0.005101 -0.002441 0.004981
# 2 -0.004034 0.017550 -0.003023 -0.004856 0.000520 0.002963
# 3 -0.001907 -0.003023 0.014420 -0.000834 -0.002568 -0.001889
# 4 0.005101 -0.004856 -0.000834 0.034835 -0.004624 0.015072
# 5 -0.002441 0.000520 -0.002568 -0.004624 0.029845 -0.006560
# 6 0.004981 0.002963 -0.001889 0.015072 -0.006560 0.036607
#
#
# Mechanical properties :
#
#
# Convention : Reuss Voigt Hill
#
# Bulk Modulus (GPa) = 42.21289 50.36221 46.28755
# Shear Modulus (GPa) = 29.63345 36.46652 33.04999
#
# Velocity S-wave (km/s) = 3.63016 4.02700 3.83371
# Velocity P-wave (km/s) = 6.02850 6.63464 6.33882
#
# Compressibility (1/GPa) = 0.02368945
#
# Stress axis : x y z
#
# Youngs Moduli (GPa) = 103.65434 56.97891 69.35046
#
# Poissons Ratio (x) = 0.22984 0.13228
# Poissons Ratio (y) = 0.41812 0.20963
# Poissons Ratio (z) = 0.19772 0.17223
#
# Static dielectric constant tensor:
#      x y z
#    x 1.779760 0.055230 0.024510 
#    y 0.055230 1.684630 -0.032000 
#    z 0.024510 -0.032000 1.821060 
# 
# From -- ./inp_files/207475.got.cif
#   From: 2010.05.17/outbox.cif.g08.bks.cpg/sg2_104_cif.got.tgz:207475.got - 2010.06.03 11:33:40.
