data_PCOD9051998
_publ_section_title
;
Structure prediction by ZEFSAII (Michael W. Deem and Ramdas Pophale) SiO2 
 PCOD9051998
Probable space group: P -1
;
_chemical_formula_sum "Si O2"
_cell_formula_units_Z 12
_cell_length_a 4.731613
_cell_length_b 14.131060
_cell_length_c 9.946935
_cell_angle_alpha 135.602237
_cell_angle_beta 110.142252
_cell_angle_gamma 89.670273
_cell_volume 406.574966
_symmetry_space_group_name_H-M "P -1"
_symmetry_group_IT_number 2
_symmetry_cell_setting 'triclinic'
loop_
_space_group_symop_operation_xyz
x,y,z
-x,-y,-z
loop_
_atom_site_type_symbol
_atom_site_label
_atom_site_fract_x
_atom_site_fract_y
_atom_site_fract_z
Si Si1 0.294366 0.647487 0.164027
Si Si2 0.247666 0.535234 0.398771
Si Si3 0.651554 0.111154 0.018233
Si Si4 0.251730 0.230425 0.425491
Si Si5 0.464792 0.630353 0.871620
Si Si6 0.172774 0.922778 0.550925
O O1 0.595103 0.647103 0.307055
O O2 0.216910 0.787425 0.343451
O O3 0.441035 0.668976 0.060986
O O4 0.000000 0.500000 0.000000
O O5 0.500000 0.500000 0.500000
O O6 0.406214 0.698314 0.532920
O O7 0.233129 0.411471 0.160985
O O8 0.884241 0.497465 0.345789
O O9 0.532404 0.015428 0.765068
O O10 0.013978 0.189360 0.214781
O O11 0.528243 0.239379 0.091902
O O12 0.500000 0.000000 0.000000
O O13 0.038715 0.114509 0.384453
O O14 0.000000 0.000000 0.500000
#
# Coordination Sequence:
#
# PCOD9051998 Si02
#       6
#     2   2   2   2   2   2
#     4  12  27  47  78 117 157 213 270 338 407 480
#     4  12  26  47  80 119 159 212 270 346 405 484
#     4  10  25  49  73 111 154 213 266 331 405 486
#     4  11  25  46  76 113 158 205 272 332 404 484
#     4  12  27  47  79 116 161 211 276 333 415 485
#     4  11  27  50  78 114 164 213 269 333 412 496
#
# _framework density 29.514855000000001
#
# number of rings (size 3 to 8) (size 9 to 14) (size 15 to 20)
#    0.000    0.667    3.333    2.500    4.667    6.000 
#    3.000    0.000    0.000    0.000    0.000    0.000 
#    0.000    0.000    0.000    0.000    0.000    0.000 
#
# Total GULP energy -66973.397928 kJ/mol
# GULP energy per Si atom -5581.116494 kJ/mol
# Density = 2.944768 g / cm^3
# Si number density = 29.514855 Si / 1000 Ang^3
#
#
#
# Elastic Constant Matrix: (Units=GPa)
#
#
# Indices 1 2 3 4 5 6 
#
# 1 153.1679 54.2851 75.6236 8.1038 -10.0585 -11.8484
# 2 54.2851 163.1572 69.8797 -17.5527 -9.3817 -26.1979
# 3 75.6236 69.8797 200.0948 -14.6517 17.9524 -20.6702
# 4 8.1038 -17.5527 -14.6517 63.5572 -1.9526 16.8934
# 5 -10.0585 -9.3817 17.9524 -1.9526 66.6000 -1.6542
# 6 -11.8484 -26.1979 -20.6702 16.8934 -1.6542 43.4614
#
#
#
# Elastic Compliance Matrix: (Units=1/GPa)
#
#
# Indices 1 2 3 4 5 6 
#
# 1 0.008967 -0.001672 -0.003053 -0.002527 0.001893 0.001039
# 2 -0.001672 0.008263 -0.001976 0.001248 0.001559 0.003159
# 3 -0.003053 -0.001976 0.007255 0.001207 -0.002638 0.000858
# 4 -0.002527 0.001248 0.001207 0.018408 -0.000154 -0.006524
# 5 0.001893 0.001559 -0.002638 -0.000154 0.016249 0.000879
# 6 0.001039 0.003159 0.000858 -0.006524 0.000879 0.028174
#
#
# Mechanical properties :
#
#
# Convention : Reuss Voigt Hill
#
# Bulk Modulus (GPa) = 90.22207 101.77742 95.99974
# Shear Modulus (GPa) = 47.88739 55.83247 51.85993
#
# Velocity S-wave (km/s) = 4.03238 4.35406 4.19630
# Velocity P-wave (km/s) = 7.23290 7.73533 7.48833
#
# Compressibility (1/GPa) = 0.01108376
#
# Stress axis : x y z
#
# Youngs Moduli (GPa) = 111.52048 121.02349 137.83579
#
# Poissons Ratio (x) = 0.20238 0.42075
# Poissons Ratio (y) = 0.18649 0.27234
# Poissons Ratio (z) = 0.34042 0.23912
#
# Static dielectric constant tensor:
#      x y z
#    x 2.553340 -0.314830 -0.197200 
#    y -0.314830 2.659540 0.252890 
#    z -0.197200 0.252890 2.815040 
# 
# From -- ./inp_files/134655.got.cif
#   From: 2010.05.17/outbox.cif.g08.bks.cpg/sg2_68_cif.got.tgz:134655.got - 2010.06.03 11:33:40.
