data_PCOD9051107
_publ_section_title
;
Structure prediction by ZEFSAII (Michael W. Deem and Ramdas Pophale) SiO2 
 PCOD9051107
Probable space group: P -1
;
_chemical_formula_sum "Si O2"
_cell_formula_units_Z 12
_cell_length_a 7.725116
_cell_length_b 14.105076
_cell_length_c 4.786476
_cell_angle_alpha 65.499084
_cell_angle_beta 69.726334
_cell_angle_gamma 76.956625
_cell_volume 443.127250
_symmetry_space_group_name_H-M "P -1"
_symmetry_group_IT_number 2
_symmetry_cell_setting 'triclinic'
loop_
_space_group_symop_operation_xyz
x,y,z
-x,-y,-z
loop_
_atom_site_type_symbol
_atom_site_label
_atom_site_fract_x
_atom_site_fract_y
_atom_site_fract_z
Si Si1 0.351451 0.871451 0.459910
Si Si2 0.337548 0.164783 0.016241
Si Si3 0.451863 0.321259 0.107152
Si Si4 0.844758 0.320099 0.108904
Si Si5 0.950495 0.605582 0.571238
Si Si6 0.169272 0.058900 0.709635
O O1 0.498779 0.794990 0.647605
O O2 0.196470 0.791882 0.606326
O O3 0.282634 0.970546 0.559000
O O4 0.450803 0.891003 0.089252
O O5 0.395213 0.284976 0.871489
O O6 0.187276 0.152185 0.360139
O O7 0.244920 0.108897 0.881856
O O8 0.646736 0.366042 0.019773
O O9 0.265881 0.381062 0.252692
O O10 0.924699 0.386255 0.231504
O O11 0.988632 0.308506 0.787927
O O12 0.000000 0.500000 0.500000
O O13 0.000000 0.000000 0.000000
#
# Coordination Sequence:
#
# PCOD9051107 Si02
#       6
#     2   2   2   2   2   2
#     4  10  25  45  70 100 142 196 240 290 360 412
#     4  12  24  44  67  99 144 194 240 288 357 418
#     4  10  27  44  77 101 147 191 236 302 364 411
#     4  10  26  47  72 106 145 180 247 291 362 441
#     4  12  27  47  76 108 141 187 236 301 373 442
#     4  12  27  40  66 105 145 191 245 299 344 421
#
# _framework density 27.080259999999999
#
# number of rings (size 3 to 8) (size 9 to 14) (size 15 to 20)
#    1.000    0.000    1.667    3.000    9.333    1.333 
#    0.000    0.000    0.000    0.000    0.000    0.000 
#    0.000    0.000    0.000    0.000    0.000    0.000 
#
# Total GULP energy -66896.865984 kJ/mol
# GULP energy per Si atom -5574.738832 kJ/mol
# Density = 2.701862 g / cm^3
# Si number density = 27.080260 Si / 1000 Ang^3
#
#
#
# Elastic Constant Matrix: (Units=GPa)
#
#
# Indices 1 2 3 4 5 6 
#
# 1 181.4468 84.0010 43.2533 30.9255 -21.0917 28.9611
# 2 84.0010 131.5671 20.8415 42.5546 -7.0891 7.5163
# 3 43.2533 20.8415 149.9438 35.9724 -11.7005 15.3113
# 4 30.9255 42.5546 35.9724 58.3202 4.8409 -5.7424
# 5 -21.0917 -7.0891 -11.7005 4.8409 46.1849 16.4592
# 6 28.9611 7.5163 15.3113 -5.7424 16.4592 49.3654
#
#
#
# Elastic Compliance Matrix: (Units=1/GPa)
#
#
# Indices 1 2 3 4 5 6 
#
# 1 0.010463 -0.004666 -0.000118 -0.003491 0.007336 -0.008243
# 2 -0.004666 0.013264 0.001870 -0.008652 0.001810 -0.001472
# 3 -0.000118 0.001870 0.009456 -0.008189 0.005616 -0.005973
# 4 -0.003491 -0.008652 -0.008189 0.032886 -0.013518 0.014238
# 5 0.007336 0.001810 0.005616 -0.013518 0.035104 -0.019598
# 6 -0.008243 -0.001472 -0.005973 0.014238 -0.019598 0.035361
#
#
# Mechanical properties :
#
#
# Convention : Reuss Voigt Hill
#
# Bulk Modulus (GPa) = 36.55730 84.34992 60.45361
# Shear Modulus (GPa) = 33.00754 51.76489 42.38622
#
# Velocity S-wave (km/s) = 3.49503 4.37685 3.96056
# Velocity P-wave (km/s) = 5.46039 7.53381 6.57929
#
# Compressibility (1/GPa) = 0.02735432
#
# Stress axis : x y z
#
# Youngs Moduli (GPa) = 95.57374 75.39286 105.75369
#
# Poissons Ratio (x) = 0.35180 0.01246
# Poissons Ratio (y) = 0.44596 -0.19773
# Poissons Ratio (z) = 0.01126 -0.14096
#
# Static dielectric constant tensor:
#      x y z
#    x 2.568590 -0.124100 0.415830 
#    y -0.124100 2.152600 -0.145260 
#    z 0.415830 -0.145260 2.609300 
# 
# From -- ./inp_files/31546.got.cif
#   From: 2010.05.17/outbox.cif.g08.bks.cpg/sg2_16_cif.got.tgz:31546.got - 2010.06.03 11:33:40.
