data_PCOD9051070
_publ_section_title
;
Structure prediction by ZEFSAII (Michael W. Deem and Ramdas Pophale) SiO2 
 PCOD9051070
Probable space group: P -1
;
_chemical_formula_sum "Si O2"
_cell_formula_units_Z 16
_cell_length_a 11.330721
_cell_length_b 9.515301
_cell_length_c 9.279791
_cell_angle_alpha 63.790826
_cell_angle_beta 125.391892
_cell_angle_gamma 111.120848
_cell_volume 724.249290
_symmetry_space_group_name_H-M "P -1"
_symmetry_group_IT_number 2
_symmetry_cell_setting 'triclinic'
loop_
_space_group_symop_operation_xyz
x,y,z
-x,-y,-z
loop_
_atom_site_type_symbol
_atom_site_label
_atom_site_fract_x
_atom_site_fract_y
_atom_site_fract_z
Si Si1 0.605222 0.118615 0.749495
Si Si2 0.731656 0.869296 0.148734
Si Si3 0.227003 0.623710 0.050451
Si Si4 0.314672 0.761457 0.561363
Si Si5 0.747120 0.971061 0.432238
Si Si6 0.458984 0.660931 0.959343
Si Si7 0.868331 0.574765 0.442128
Si Si8 0.907213 0.686377 0.749164
O O1 0.662963 0.279904 0.803004
O O2 0.648115 0.148801 0.600621
O O3 0.428762 0.080914 0.653548
O O4 0.696633 0.991266 0.946686
O O5 0.774235 0.964134 0.283197
O O6 0.575433 0.756373 0.105089
O O7 0.834888 0.733078 0.264021
O O8 0.305983 0.632854 0.947686
O O9 0.183541 0.444153 0.153476
O O10 0.076143 0.697293 0.907154
O O11 0.258642 0.576588 0.582263
O O12 0.211778 0.859896 0.538560
O O13 0.451291 0.763496 0.763789
O O14 0.837410 0.846625 0.626542
O O15 0.500000 0.500000 0.000000
O O16 0.894516 0.622768 0.604911
O O17 0.000000 0.500000 0.500000
#
# Coordination Sequence:
#
# PCOD9051070 Si02
#       8
#     2   2   2   2   2   2   2   2
#     4  12  24  43  71 103 137 176 227 293 336 403
#     4  11  24  43  69 100 134 180 228 274 345 406
#     4  11  24  46  71  97 141 180 236 275 340 417
#     4  12  25  42  68 105 137 174 227 288 342 398
#     4  11  24  43  70  99 140 174 230 278 348 399
#     4  12  24  40  70 103 135 180 231 278 343 401
#     4  11  24  46  67 100 141 180 228 282 341 408
#     4  10  25  45  69 100 134 189 225 281 343 407
#
# _framework density 22.091840999999999
#
# number of rings (size 3 to 8) (size 9 to 14) (size 15 to 20)
#    0.000    0.750    5.000    2.250    1.750    1.500 
#    2.250    4.375    0.000    0.000    0.000    0.000 
#    0.000    0.000    0.000    0.000    0.000    0.000 
#
# Total GULP energy -89406.500729 kJ/mol
# GULP energy per Si atom -5587.906296 kJ/mol
# Density = 2.204156 g / cm^3
# Si number density = 22.091841 Si / 1000 Ang^3
#
#
#
# Elastic Constant Matrix: (Units=GPa)
#
#
# Indices 1 2 3 4 5 6 
#
# 1 58.9520 12.9735 34.3463 -16.5753 -6.1205 -12.7275
# 2 12.9735 62.1367 4.9384 -8.7650 -13.2285 -18.7795
# 3 34.3463 4.9384 118.9832 -31.9809 -11.0544 -18.4878
# 4 -16.5753 -8.7650 -31.9809 40.0528 -1.6276 9.1776
# 5 -6.1205 -13.2285 -11.0544 -1.6276 27.9488 1.5945
# 6 -12.7275 -18.7795 -18.4878 9.1776 1.5945 34.1149
#
#
#
# Elastic Compliance Matrix: (Units=1/GPa)
#
#
# Indices 1 2 3 4 5 6 
#
# 1 0.022225 -0.002155 -0.004372 0.004542 0.002188 0.003412
# 2 -0.002155 0.023091 0.003987 0.005029 0.011633 0.012171
# 3 -0.004372 0.003987 0.013228 0.008719 0.006379 0.005089
# 4 0.004542 0.005029 0.008719 0.035447 0.008931 -0.000766
# 5 0.002188 0.011633 0.006379 0.008931 0.044454 0.006196
# 6 0.003412 0.012171 0.005089 -0.000766 0.006196 0.039960
#
#
# Mechanical properties :
#
#
# Convention : Reuss Voigt Hill
#
# Bulk Modulus (GPa) = 18.70400 38.28760 28.49580
# Shear Modulus (GPa) = 24.83771 32.94423 28.89097
#
# Velocity S-wave (km/s) = 3.35669 3.86585 3.62023
# Velocity P-wave (km/s) = 4.84850 6.10697 5.51376
#
# Compressibility (1/GPa) = 0.05346451
#
# Stress axis : x y z
#
# Youngs Moduli (GPa) = 44.99376 43.30676 75.59801
#
# Poissons Ratio (x) = 0.09334 0.33051
# Poissons Ratio (y) = 0.09698 -0.30144
# Poissons Ratio (z) = 0.19671 -0.17268
#
# Static dielectric constant tensor:
#      x y z
#    x 1.805580 0.020580 0.028830 
#    y 0.020580 1.842280 -0.008500 
#    z 0.028830 -0.008500 1.813060 
# 
# From -- ./inp_files/242717.got.cif
#   From: 2010.05.17/outbox.cif.g08.bks.cpg/sg2_122_cif.got.tgz:242717.got - 2010.06.03 11:33:40.
