data_PCOD9051027
_publ_section_title
;
Structure prediction by ZEFSAII (Michael W. Deem and Ramdas Pophale) SiO2 
 PCOD9051027
Probable space group: P -1
;
_chemical_formula_sum "Si O2"
_cell_formula_units_Z 16
_cell_length_a 9.181298
_cell_length_b 8.706870
_cell_length_c 11.701466
_cell_angle_alpha 110.100029
_cell_angle_beta 103.809894
_cell_angle_gamma 116.512208
_cell_volume 695.250451
_symmetry_space_group_name_H-M "P -1"
_symmetry_group_IT_number 2
_symmetry_cell_setting 'triclinic'
loop_
_space_group_symop_operation_xyz
x,y,z
-x,-y,-z
loop_
_atom_site_type_symbol
_atom_site_label
_atom_site_fract_x
_atom_site_fract_y
_atom_site_fract_z
Si Si1 0.039333 0.368151 0.350652
Si Si2 0.586586 0.932738 0.848465
Si Si3 0.711327 0.615129 0.036124
Si Si4 0.831463 0.786837 0.864550
Si Si5 0.894210 0.965072 0.319901
Si Si6 0.751576 0.325292 0.114958
Si Si7 0.617680 0.208892 0.451770
Si Si8 0.720215 0.932412 0.503274
O O1 0.116146 0.294043 0.250137
O O2 0.208748 0.569448 0.489255
O O3 0.902175 0.394096 0.258745
O O4 0.938313 0.184450 0.372779
O O5 0.686820 0.830125 0.808423
O O6 0.443074 0.795861 0.886221
O O7 0.479460 0.924336 0.713752
O O8 0.728076 0.155374 0.982156
O O9 0.806499 0.839783 0.157318
O O10 0.784944 0.507156 0.093395
O O11 0.500000 0.500000 0.000000
O O12 0.749695 0.629454 0.913243
O O13 0.000000 0.000000 0.000000
O O14 0.085780 0.990266 0.381798
O O15 0.749648 0.855910 0.368968
O O16 0.694846 0.108913 0.516984
O O17 0.463019 0.214166 0.494462
#
# Coordination Sequence:
#
# PCOD9051027 Si02
#       8
#     2   2   2   2   2   2   2   2
#     4  12  26  45  71 102 138 181 228 278 349 406
#     4  11  24  45  71  99 139 182 227 282 341 405
#     4  12  26  42  72 103 134 180 231 285 337 407
#     4  12  24  46  68 101 140 178 222 284 344 400
#     4  11  24  45  69  96 138 181 224 282 342 409
#     4  11  25  44  71 101 136 181 230 279 341 410
#     4  11  26  43  70 102 136 179 226 288 336 405
#     4  10  25  45  67  96 141 176 228 278 343 402
#
# _framework density 23.013290000000001
#
# number of rings (size 3 to 8) (size 9 to 14) (size 15 to 20)
#    0.000    0.750    3.750    2.250    5.250    7.500 
#    0.000    0.000    0.000    0.000    0.000    0.000 
#    0.000    0.000    0.000    0.000    0.000    0.000 
#
# Total GULP energy -89547.001264 kJ/mol
# GULP energy per Si atom -5596.687579 kJ/mol
# Density = 2.296091 g / cm^3
# Si number density = 23.013290 Si / 1000 Ang^3
#
#
#
# Elastic Constant Matrix: (Units=GPa)
#
#
# Indices 1 2 3 4 5 6 
#
# 1 96.3512 16.0241 14.5040 -8.6302 7.5375 -6.9964
# 2 16.0241 83.4596 9.7249 -7.6611 11.7039 4.6476
# 3 14.5040 9.7249 77.6546 -2.1069 3.6901 7.9174
# 4 -8.6302 -7.6611 -2.1069 29.4219 -2.7045 1.5024
# 5 7.5375 11.7039 3.6901 -2.7045 36.0449 -10.0093
# 6 -6.9964 4.6476 7.9174 1.5024 -10.0093 28.4575
#
#
#
# Elastic Compliance Matrix: (Units=1/GPa)
#
#
# Indices 1 2 3 4 5 6 
#
# 1 0.011528 -0.001859 -0.002184 0.002524 -0.000433 0.003460
# 2 -0.001859 0.013603 -0.000596 0.002721 -0.004988 -0.004411
# 3 -0.002184 -0.000596 0.013992 0.000267 -0.002183 -0.005114
# 4 0.002524 0.002721 0.000267 0.035608 0.000819 -0.001490
# 5 -0.000433 -0.004988 -0.002183 0.000819 0.033349 0.013002
# 6 0.003460 -0.004411 -0.005114 -0.001490 0.013002 0.042786
#
#
# Mechanical properties :
#
#
# Convention : Reuss Voigt Hill
#
# Bulk Modulus (GPa) = 33.50545 37.55236 35.52891
# Shear Modulus (GPa) = 29.39589 33.26569 31.33079
#
# Velocity S-wave (km/s) = 3.57787 3.80610 3.69375
# Velocity P-wave (km/s) = 5.62663 5.97229 5.80204
#
# Compressibility (1/GPa) = 0.02984589
#
# Stress axis : x y z
#
# Youngs Moduli (GPa) = 86.74637 73.51284 71.46710
#
# Poissons Ratio (x) = 0.13666 0.15608
# Poissons Ratio (y) = 0.16126 0.04258
# Poissons Ratio (z) = 0.18945 0.04380
#
# Static dielectric constant tensor:
#      x y z
#    x 1.867030 0.002480 0.002440 
#    y 0.002480 1.893980 -0.019230 
#    z 0.002440 -0.019230 1.830300 
# 
# From -- ./inp_files/245596.got.cif
#   From: 2010.05.17/outbox.cif.g08.bks.cpg/sg2_123_cif.got.tgz:245596.got - 2010.06.03 11:33:40.
