data_PCOD9051497
_publ_section_title
;
Structure prediction by ZEFSAII (Michael W. Deem and Ramdas Pophale) SiO2 
 PCOD9051497
Probable space group: P -1
;
_chemical_formula_sum "Si O2"
_cell_formula_units_Z 16
_cell_length_a 9.104000
_cell_length_b 11.334620
_cell_length_c 11.603642
_cell_angle_alpha 55.362529
_cell_angle_beta 109.862907
_cell_angle_gamma 92.887967
_cell_volume 910.657192
_symmetry_space_group_name_H-M "P -1"
_symmetry_group_IT_number 2
_symmetry_cell_setting 'triclinic'
loop_
_space_group_symop_operation_xyz
x,y,z
-x,-y,-z
loop_
_atom_site_type_symbol
_atom_site_label
_atom_site_fract_x
_atom_site_fract_y
_atom_site_fract_z
Si Si1 0.127064 0.043294 0.922612
Si Si2 0.897409 0.598963 0.584735
Si Si3 0.619542 0.834536 0.957917
Si Si4 0.836985 0.717243 0.869977
Si Si5 0.004280 0.157566 0.360919
Si Si6 0.266516 0.818501 0.896270
Si Si7 0.828611 0.651204 0.286431
Si Si8 0.182309 0.559660 0.133163
O O1 0.078646 0.213067 0.781338
O O2 0.158489 0.943752 0.873935
O O3 0.296284 0.039335 0.034914
O O4 0.000000 0.000000 0.000000
O O5 0.798195 0.642344 0.418563
O O6 0.810142 0.507348 0.700915
O O7 0.945868 0.734566 0.590255
O O8 0.060303 0.494807 0.646140
O O9 0.706425 0.788371 0.886457
O O10 0.431502 0.865734 0.883964
O O11 0.677546 0.701029 0.136901
O O12 0.793613 0.577663 0.870531
O O13 0.876758 0.829713 0.721489
O O14 0.001880 0.650423 0.016694
O O15 0.832220 0.212216 0.225651
O O16 0.000000 0.000000 0.500000
O O17 0.290442 0.673728 0.061756
#
# Coordination Sequence:
#
# PCOD9051497 Si02
#       8
#     2   2   2   2   2   2   2   2
#     4  10  19  34  55  77 105 141 185 216 257 319
#     4  10  17  35  53  81 104 140 187 221 254 310
#     4  10  21  34  51  83 113 136 176 221 280 315
#     4   9  17  34  54  77 104 140 182 224 255 315
#     4  10  21  35  58  80 106 138 187 223 262 320
#     4  11  21  33  53  84 109 139 174 228 275 316
#     4   9  20  31  56  77 110 139 175 227 259 312
#     4   9  17  31  55  76 102 141 186 217 255 312
#
# _framework density 17.569728000000001
#
# number of rings (size 3 to 8) (size 9 to 14) (size 15 to 20)
#    0.750    1.500    1.250    4.125    0.000    0.500 
#    0.000    1.250    0.000    0.000    0.000    0.000 
#    0.000    0.000    0.000    0.000    0.000    0.000 
#
# Total GULP energy -89092.313069 kJ/mol
# GULP energy per Si atom -5568.269567 kJ/mol
# Density = 1.752974 g / cm^3
# Si number density = 17.569728 Si / 1000 Ang^3
#
#
#
# Elastic Constant Matrix: (Units=GPa)
#
#
# Indices 1 2 3 4 5 6 
#
# 1 57.2948 19.8704 13.7999 6.9896 -11.5145 6.1220
# 2 19.8704 72.0732 27.4632 5.0571 -16.4943 -6.8193
# 3 13.7999 27.4632 100.3074 4.9826 -27.2522 -3.3445
# 4 6.9896 5.0571 4.9826 29.3350 3.6641 -6.8416
# 5 -11.5145 -16.4943 -27.2522 3.6641 20.9645 -3.3583
# 6 6.1220 -6.8193 -3.3445 -6.8416 -3.3583 14.9846
#
#
#
# Elastic Compliance Matrix: (Units=1/GPa)
#
#
# Indices 1 2 3 4 5 6 
#
# 1 0.023599 -0.005415 0.000625 -0.009210 0.008850 -0.014188
# 2 -0.005415 0.020352 -0.000151 -0.000711 0.015295 0.014544
# 3 0.000625 -0.000151 0.016912 -0.004409 0.024074 0.006833
# 4 -0.009210 -0.000711 -0.004409 0.043520 -0.015952 0.018751
# 5 0.008850 0.015295 0.024074 -0.015952 0.102589 0.024427
# 6 -0.014188 0.014544 0.006833 0.018751 0.024427 0.094711
#
#
# Mechanical properties :
#
#
# Convention : Reuss Voigt Hill
#
# Bulk Modulus (GPa) = 19.61552 39.10472 29.36012
# Shear Modulus (GPa) = 15.21789 24.29295 19.75542
#
# Velocity S-wave (km/s) = 2.94622 3.72245 3.35685
# Velocity P-wave (km/s) = 4.77098 6.38597 5.63662
#
# Compressibility (1/GPa) = 0.05098005
#
# Stress axis : x y z
#
# Youngs Moduli (GPa) = 42.37406 49.13586 59.12909
#
# Poissons Ratio (x) = 0.26608 -0.03695
# Poissons Ratio (y) = 0.22946 0.00895
# Poissons Ratio (z) = -0.02648 0.00744
#
# Static dielectric constant tensor:
#      x y z
#    x 1.573570 0.011010 -0.004720 
#    y 0.011010 1.609480 0.008930 
#    z -0.004720 0.008930 1.622830 
# 
# From -- ./inp_files/389080.got.cif
#   From: 2010.05.17/outbox.cif.g08.bks.cpg/sg2_195_cif.got.tgz:389080.got - 2010.06.03 11:33:40.
