data_PCOD9051414
_publ_section_title
;
Structure prediction by ZEFSAII (Michael W. Deem and Ramdas Pophale) SiO2 
 PCOD9051414
Probable space group: P -1
;
_chemical_formula_sum "Si O2"
_cell_formula_units_Z 12
_cell_length_a 9.177623
_cell_length_b 11.589974
_cell_length_c 14.964048
_cell_angle_alpha 151.153833
_cell_angle_beta 38.630352
_cell_angle_gamma 129.936057
_cell_volume 474.657644
_symmetry_space_group_name_H-M "P -1"
_symmetry_group_IT_number 2
_symmetry_cell_setting 'triclinic'
loop_
_space_group_symop_operation_xyz
x,y,z
-x,-y,-z
loop_
_atom_site_type_symbol
_atom_site_label
_atom_site_fract_x
_atom_site_fract_y
_atom_site_fract_z
Si Si1 0.580113 0.570315 0.410505
Si Si2 0.778094 0.885642 0.647035
Si Si3 0.572451 0.778370 0.248259
Si Si4 0.900282 0.432051 0.407593
Si Si5 0.953546 0.276458 0.929481
Si Si6 0.593113 0.735542 0.004480
O O1 0.500000 0.500000 0.500000
O O2 0.780996 0.736339 0.451695
O O3 0.339471 0.688692 0.558391
O O4 0.701259 0.345041 0.143480
O O5 0.813225 0.684112 0.570294
O O6 0.962439 0.055194 0.706893
O O7 0.537520 0.070866 0.871160
O O8 0.478227 0.532419 0.159756
O O9 0.500000 0.000000 0.500000
O O10 0.506594 0.801471 0.191432
O O11 0.854279 0.750904 0.103761
O O12 0.000000 0.500000 0.500000
O O13 0.124756 0.286302 0.152140
O O14 0.000000 0.500000 0.000000
#
# Coordination Sequence:
#
# PCOD9051414 Si02
#       6
#     2   2   2   2   2   2
#     4  10  25  46  70 105 144 189 244 299 364 432
#     4  11  25  46  74 105 148 191 238 303 365 424
#     4  11  25  45  70 104 148 188 239 300 361 433
#     4  11  25  47  77 107 148 189 249 299 367 438
#     4  12  25  44  74 106 143 190 249 296 366 442
#     4  11  25  46  70 108 143 189 243 294 363 437
#
# _framework density 25.281379000000001
#
# number of rings (size 3 to 8) (size 9 to 14) (size 15 to 20)
#    0.000    1.000    1.667    4.000    2.333   10.000 
#    0.000    1.667    0.000    0.000    0.000    0.000 
#    0.000    0.000    0.000    0.000    0.000    0.000 
#
# Total GULP energy -67062.303340 kJ/mol
# GULP energy per Si atom -5588.525278 kJ/mol
# Density = 2.522384 g / cm^3
# Si number density = 25.281379 Si / 1000 Ang^3
#
#
#
# Elastic Constant Matrix: (Units=GPa)
#
#
# Indices 1 2 3 4 5 6 
#
# 1 176.1671 25.9146 39.0436 11.1997 4.6498 -1.8220
# 2 25.9146 44.2309 28.8649 15.9674 -0.1385 -10.7164
# 3 39.0436 28.8649 120.7537 -2.9852 4.4413 -14.4590
# 4 11.1997 15.9674 -2.9852 50.1732 7.7953 1.6669
# 5 4.6498 -0.1385 4.4413 7.7953 57.5328 11.1251
# 6 -1.8220 -10.7164 -14.4590 1.6669 11.1251 47.4271
#
#
#
# Elastic Compliance Matrix: (Units=1/GPa)
#
#
# Indices 1 2 3 4 5 6 
#
# 1 0.006456 -0.002756 -0.001530 -0.000602 -0.000178 -0.000778
# 2 -0.002756 0.034058 -0.006900 -0.011014 0.001251 0.005580
# 3 -0.001530 -0.006900 0.010795 0.003357 -0.001552 0.001919
# 4 -0.000602 -0.011014 0.003357 0.024324 -0.003226 -0.001586
# 5 -0.000178 0.001251 -0.001552 -0.003226 0.018826 -0.004500
# 6 -0.000778 0.005580 0.001919 -0.001586 -0.004500 0.024012
#
#
# Mechanical properties :
#
#
# Convention : Reuss Voigt Hill
#
# Bulk Modulus (GPa) = 34.55797 58.75533 46.65665
# Shear Modulus (GPa) = 33.22474 47.51520 40.36997
#
# Velocity S-wave (km/s) = 3.62912 4.33997 4.00037
# Velocity P-wave (km/s) = 5.59104 6.95736 6.31128
#
# Compressibility (1/GPa) = 0.02893688
#
# Stress axis : x y z
#
# Youngs Moduli (GPa) = 154.89864 29.36143 92.63179
#
# Poissons Ratio (x) = 0.08092 0.14174
# Poissons Ratio (y) = 0.42688 0.63919
# Poissons Ratio (z) = 0.23701 0.20260
#
# Static dielectric constant tensor:
#      x y z
#    x 1.999880 0.096490 -0.035640 
#    y 0.096490 2.148440 0.027700 
#    z -0.035640 0.027700 2.143880 
# 
# From -- ./inp_files/498589.got.cif
#   From: 2010.05.17/outbox.cif.g08.bks.cpg/sg2_250_cif.got.tgz:498589.got - 2010.06.03 11:33:40.
