data_PCOD9051152
_publ_section_title
;
Structure prediction by ZEFSAII (Michael W. Deem and Ramdas Pophale) SiO2 
 PCOD9051152
Probable space group: P -1
;
_chemical_formula_sum "Si O2"
_cell_formula_units_Z 16
_cell_length_a 10.489015
_cell_length_b 11.182812
_cell_length_c 11.620553
_cell_angle_alpha 96.712054
_cell_angle_beta 61.937869
_cell_angle_gamma 46.266192
_cell_volume 626.272794
_symmetry_space_group_name_H-M "P -1"
_symmetry_group_IT_number 2
_symmetry_cell_setting 'triclinic'
loop_
_space_group_symop_operation_xyz
x,y,z
-x,-y,-z
loop_
_atom_site_type_symbol
_atom_site_label
_atom_site_fract_x
_atom_site_fract_y
_atom_site_fract_z
Si Si1 0.141087 0.818216 0.511560
Si Si2 0.986723 0.815029 0.941910
Si Si3 0.684205 0.926349 0.514828
Si Si4 0.301602 0.508363 0.233788
Si Si5 0.637929 0.280160 0.371108
Si Si6 0.277036 0.379269 0.875945
Si Si7 0.578755 0.764382 0.665913
Si Si8 0.348976 0.894562 0.096578
O O1 0.322770 0.597090 0.332260
O O2 0.220891 0.852319 0.584462
O O3 0.901537 0.914915 0.687178
O O4 0.000000 0.000000 0.500000
O O5 0.150896 0.815225 0.824207
O O6 0.193237 0.568478 0.878030
O O7 0.775283 0.936705 0.937323
O O8 0.756494 0.997507 0.157811
O O9 0.688904 0.814952 0.594208
O O10 0.001263 0.731664 0.329027
O O11 0.500000 0.000000 0.500000
O O12 0.508989 0.155989 0.672402
O O13 0.302863 0.379662 0.286522
O O14 0.569457 0.294780 0.016265
O O15 0.500000 0.500000 0.500000
O O16 0.400446 0.353978 0.451779
O O17 0.388598 0.282983 0.948889
O O18 0.000000 0.500000 0.000000
#
# Coordination Sequence:
#
# PCOD9051152 Si02
#       8
#     2   2   2   2   2   2   2   2
#     4  11  25  43  70 103 143 187 238 296 353 427
#     4  10  25  45  71 103 139 190 234 297 354 427
#     4  12  27  43  70 106 142 185 235 296 359 427
#     4  11  24  47  70 101 143 184 238 291 363 419
#     4  11  24  42  70 102 134 186 238 287 359 417
#     4  12  24  45  72 105 145 186 238 289 361 424
#     4  11  24  47  70  99 143 184 239 296 350 427
#     4  10  25  46  70 103 143 188 237 294 357 422
#
# _framework density 25.547972999999999
#
# number of rings (size 3 to 8) (size 9 to 14) (size 15 to 20)
#    0.000    1.000    3.750    1.500    5.250    1.000 
#    2.250    0.000    0.000    0.000    0.000    0.000 
#    0.000    0.000    0.000    0.000    0.000    0.000 
#
# Total GULP energy -89165.946439 kJ/mol
# GULP energy per Si atom -5572.871652 kJ/mol
# Density = 2.548982 g / cm^3
# Si number density = 25.547973 Si / 1000 Ang^3
#
#
#
# Elastic Constant Matrix: (Units=GPa)
#
#
# Indices 1 2 3 4 5 6 
#
# 1 67.0176 24.4449 19.8295 9.9400 -15.8100 -10.6427
# 2 24.4449 135.0616 -8.1132 20.4660 -2.5598 -5.4272
# 3 19.8295 -8.1132 106.9283 29.5541 2.8315 7.2067
# 4 9.9400 20.4660 29.5541 42.0617 1.0022 -2.8931
# 5 -15.8100 -2.5598 2.8315 1.0022 28.6461 3.2037
# 6 -10.6427 -5.4272 7.2067 -2.8931 3.2037 51.5861
#
#
#
# Elastic Compliance Matrix: (Units=1/GPa)
#
#
# Indices 1 2 3 4 5 6 
#
# 1 0.020948 -0.003746 -0.004798 0.000245 0.011255 0.003913
# 2 -0.003746 0.009075 0.003011 -0.005647 -0.001304 -0.000474
# 3 -0.004798 0.003011 0.013496 -0.009943 -0.003038 -0.002928
# 4 0.000245 -0.005647 -0.009943 0.033663 -0.000876 0.002788
# 5 0.011255 -0.001304 -0.003038 -0.000876 0.041335 -0.000007
# 6 0.003913 -0.000474 -0.002928 0.002788 -0.000007 0.020708
#
#
# Mechanical properties :
#
#
# Convention : Reuss Voigt Hill
#
# Bulk Modulus (GPa) = 30.81572 42.37001 36.59286
# Shear Modulus (GPa) = 31.03459 42.64852 36.84156
#
# Velocity S-wave (km/s) = 3.48912 4.09020 3.80156
# Velocity P-wave (km/s) = 5.32166 6.23914 5.79857
#
# Compressibility (1/GPa) = 0.03245097
#
# Stress axis : x y z
#
# Youngs Moduli (GPa) = 47.73789 110.19457 74.09488
#
# Poissons Ratio (x) = 0.41281 0.35553
# Poissons Ratio (y) = 0.17883 -0.22307
# Poissons Ratio (z) = 0.22906 -0.33175
#
# Static dielectric constant tensor:
#      x y z
#    x 2.180840 -0.050990 -0.260650 
#    y -0.050990 2.022090 0.227410 
#    z -0.260650 0.227410 2.587460 
# 
# From -- ./inp_files/285893.got.cif
#   From: 2010.05.17/outbox.cif.g08.bks.cpg/sg2_143_cif.got.tgz:285893.got - 2010.06.03 11:33:40.
