data_PCOD9051032
_publ_section_title
;
Structure prediction by ZEFSAII (Michael W. Deem and Ramdas Pophale) SiO2 
 PCOD9051032
Probable space group: P -1
;
_chemical_formula_sum "Si O2"
_cell_formula_units_Z 16
_cell_length_a 15.561716
_cell_length_b 9.573295
_cell_length_c 7.252561
_cell_angle_alpha 104.924040
_cell_angle_beta 84.937330
_cell_angle_gamma 45.746193
_cell_volume 689.459650
_symmetry_space_group_name_H-M "P -1"
_symmetry_group_IT_number 2
_symmetry_cell_setting 'triclinic'
loop_
_space_group_symop_operation_xyz
x,y,z
-x,-y,-z
loop_
_atom_site_type_symbol
_atom_site_label
_atom_site_fract_x
_atom_site_fract_y
_atom_site_fract_z
Si Si1 0.926010 0.838030 0.148143
Si Si2 0.997860 0.951312 0.700551
Si Si3 0.846613 0.480082 0.263341
Si Si4 0.774865 0.103204 0.626473
Si Si5 0.598640 0.774142 0.209015
Si Si6 0.305183 0.107709 0.359292
Si Si7 0.452778 0.427732 0.121270
Si Si8 0.686997 0.958095 0.073123
O O1 0.811351 0.894340 0.089841
O O2 0.876506 0.910811 0.393145
O O3 0.954820 0.973320 0.161601
O O4 0.061204 0.607955 0.961687
O O5 0.083427 0.709353 0.665568
O O6 0.850051 0.079491 0.776975
O O7 0.000000 0.000000 0.500000
O O8 0.708989 0.584224 0.264972
O O9 0.809320 0.675138 0.434437
O O10 0.669606 0.353256 0.667492
O O11 0.696857 0.060669 0.682428
O O12 0.645761 0.875973 0.179989
O O13 0.446751 0.978771 0.355038
O O14 0.594695 0.654713 0.010856
O O15 0.288520 0.154461 0.162624
O O16 0.569162 0.219494 0.153604
O O17 0.500000 0.500000 0.000000
#
# Coordination Sequence:
#
# PCOD9051032 Si02
#       8
#     2   2   2   2   2   2   2   2
#     4  11  26  43  67 104 142 178 237 288 340 419
#     4  10  25  45  68 100 136 181 237 288 340 421
#     4  12  26  43  72  98 142 191 225 290 359 403
#     4  11  23  45  71 103 137 181 240 289 342 423
#     4  11  25  45  70 108 142 177 238 289 348 422
#     4  11  24  44  70 101 139 184 237 285 348 419
#     4  11  22  42  75 100 138 191 225 286 357 399
#     4  11  25  44  70 105 144 181 234 292 346 419
#
# _framework density 23.206578
#
# number of rings (size 3 to 8) (size 9 to 14) (size 15 to 20)
#    0.000    1.000    2.500    4.500    1.750   10.500 
#    0.000    0.000    0.000    0.000    0.000    0.000 
#    0.000    0.000    0.000    0.000    0.000    0.000 
#
# Total GULP energy -89238.188270 kJ/mol
# GULP energy per Si atom -5577.386767 kJ/mol
# Density = 2.315376 g / cm^3
# Si number density = 23.206578 Si / 1000 Ang^3
#
#
#
# Elastic Constant Matrix: (Units=GPa)
#
#
# Indices 1 2 3 4 5 6 
#
# 1 174.9182 49.0782 16.9616 8.0992 3.7186 -9.8583
# 2 49.0782 92.1487 35.9002 20.5485 -0.6494 -0.2146
# 3 16.9616 35.9002 110.6128 20.4020 -8.7514 6.1698
# 4 8.0992 20.5485 20.4020 40.3214 -0.3615 1.3199
# 5 3.7186 -0.6494 -8.7514 -0.3615 21.9075 -0.6906
# 6 -9.8583 -0.2146 6.1698 1.3199 -0.6906 36.1830
#
#
#
# Elastic Compliance Matrix: (Units=1/GPa)
#
#
# Indices 1 2 3 4 5 6 
#
# 1 0.006884 -0.003731 -0.000143 0.000520 -0.001270 0.001835
# 2 -0.003731 0.015372 -0.003455 -0.005335 -0.000384 -0.000149
# 3 -0.000143 -0.003455 0.011335 -0.003849 0.004331 -0.001769
# 4 0.000520 -0.005335 -0.003849 0.029362 -0.001310 -0.000330
# 5 -0.001270 -0.000384 0.004331 -0.001310 0.047555 -0.000131
# 6 0.001835 -0.000149 -0.001769 -0.000330 -0.000131 0.028448
#
#
# Mechanical properties :
#
#
# Convention : Reuss Voigt Hill
#
# Bulk Modulus (GPa) = 52.82050 64.61775 58.71912
# Shear Modulus (GPa) = 31.26468 38.06501 34.66484
#
# Velocity S-wave (km/s) = 3.67445 4.05442 3.86910
# Velocity P-wave (km/s) = 6.38847 7.05852 6.73184
#
# Compressibility (1/GPa) = 0.01893204
#
# Stress axis : x y z
#
# Youngs Moduli (GPa) = 145.26268 65.05406 88.22115
#
# Poissons Ratio (x) = 0.24273 0.01264
# Poissons Ratio (y) = 0.54200 0.30480
# Poissons Ratio (z) = 0.02082 0.22476
#
# Static dielectric constant tensor:
#      x y z
#    x 1.911110 0.030390 -0.039160 
#    y 0.030390 1.725770 -0.080480 
#    z -0.039160 -0.080480 1.977720 
# 
# From -- ./inp_files/299181.got.cif
#   From: 2010.05.17/outbox.cif.g08.bks.cpg/sg2_150_cif.got.tgz:299181.got - 2010.06.03 11:33:40.
