data_PCOD9051458
_publ_section_title
;
Structure prediction by ZEFSAII (Michael W. Deem and Ramdas Pophale) SiO2 
 PCOD9051458
Probable space group: P -1
;
_chemical_formula_sum "Si O2"
_cell_formula_units_Z 13
_cell_length_a 8.514667
_cell_length_b 5.332177
_cell_length_c 12.275657
_cell_angle_alpha 85.472761
_cell_angle_beta 64.691833
_cell_angle_gamma 108.452750
_cell_volume 462.782583
_symmetry_space_group_name_H-M "P -1"
_symmetry_group_IT_number 2
_symmetry_cell_setting 'triclinic'
loop_
_space_group_symop_operation_xyz
x,y,z
-x,-y,-z
loop_
_atom_site_type_symbol
_atom_site_label
_atom_site_fract_x
_atom_site_fract_y
_atom_site_fract_z
Si Si1 0.712843 0.605545 0.796124
Si Si2 0.709714 0.441214 0.040943
Si Si3 0.736357 0.127686 0.660282
Si Si4 0.000000 0.000000 0.500000
Si Si5 0.817614 0.775936 0.341890
Si Si6 0.037236 0.794282 0.076595
Si Si7 0.380774 0.834772 0.642245
O O1 0.493562 0.563884 0.873012
O O2 0.735898 0.358590 0.733865
O O3 0.810126 0.880741 0.684347
O O4 0.776524 0.616049 0.902637
O O5 0.857397 0.529280 0.094010
O O6 0.747075 0.174893 0.002369
O O7 0.879779 0.207905 0.515700
O O8 0.522463 0.956818 0.696134
O O9 0.850269 0.785104 0.459574
O O10 0.995164 0.795023 0.215064
O O11 0.666501 0.481130 0.358985
O O12 0.777316 0.038756 0.305970
O O13 0.000000 0.000000 0.000000
O O14 0.500000 0.000000 0.500000
#
# Coordination Sequence:
#
# PCOD9051458 Si02
#       7
#     2   2   2   1   2   2   2
#     4  11  27  46  77 107 151 196 255 314 373 462
#     4  10  25  46  71 110 146 200 252 310 380 446
#     4  12  27  48  74 112 150 200 253 313 391 449
#     4  12  30  48  78 112 156 196 250 332 382 456
#     4  12  29  49  79 112 156 201 260 312 393 453
#     4  11  26  45  76 112 154 203 250 317 383 471
#     4  12  26  51  77 109 149 210 258 316 374 474
#
# _framework density 28.090947
#
# number of rings (size 3 to 8) (size 9 to 14) (size 15 to 20)
#    0.000    0.615    1.538    4.154   15.077    3.692 
#    0.000    0.000    0.000    0.000    0.000    0.000 
#    0.000    0.000    0.000    0.000    0.000    0.000 
#
# Total GULP energy -72514.634983 kJ/mol
# GULP energy per Si atom -5578.048845 kJ/mol
# Density = 2.802701 g / cm^3
# Si number density = 28.090947 Si / 1000 Ang^3
#
#
#
# Elastic Constant Matrix: (Units=GPa)
#
#
# Indices 1 2 3 4 5 6 
#
# 1 158.9063 39.1226 30.8467 34.0483 -9.2941 -14.0918
# 2 39.1226 140.9439 50.9466 25.8027 12.5054 -5.2550
# 3 30.8467 50.9466 129.4975 39.0967 -0.5763 -6.0486
# 4 34.0483 25.8027 39.0967 54.3258 -4.6530 3.7934
# 5 -9.2941 12.5054 -0.5763 -4.6530 68.7371 12.0793
# 6 -14.0918 -5.2550 -6.0486 3.7934 12.0793 49.7025
#
#
#
# Elastic Compliance Matrix: (Units=1/GPa)
#
#
# Indices 1 2 3 4 5 6 
#
# 1 0.007791 -0.001366 0.000129 -0.004434 0.000604 0.002272
# 2 -0.001366 0.008970 -0.002645 -0.001743 -0.002112 0.000885
# 3 0.000129 -0.002645 0.010848 -0.006759 -0.000154 0.001630
# 4 -0.004434 -0.001743 -0.006759 0.027427 0.002385 -0.004937
# 5 0.000604 -0.002112 -0.000154 0.002385 0.015898 -0.004117
# 6 0.002272 0.000885 0.001630 -0.004937 -0.004117 0.022433
#
#
# Mechanical properties :
#
#
# Convention : Reuss Voigt Hill
#
# Bulk Modulus (GPa) = 50.39271 74.57551 62.48411
# Shear Modulus (GPa) = 46.40481 55.11518 50.76000
#
# Velocity S-wave (km/s) = 4.06883 4.43428 4.25548
# Velocity P-wave (km/s) = 6.32866 7.26792 6.81449
#
# Compressibility (1/GPa) = 0.01984414
#
# Stress axis : x y z
#
# Youngs Moduli (GPa) = 128.35003 111.48208 92.18224
#
# Poissons Ratio (x) = 0.15234 -0.01191
# Poissons Ratio (y) = 0.17539 0.24385
# Poissons Ratio (z) = -0.01658 0.29490
#
# Static dielectric constant tensor:
#      x y z
#    x 2.273600 0.009830 -0.211090 
#    y 0.009830 2.421550 0.111020 
#    z -0.211090 0.111020 3.646150 
# 
# From -- ./inp_files/372554.got.cif
#   From: 2010.05.17/outbox.cif.g08.bks.cpg/sg2_187_cif.got.tgz:372554.got - 2010.06.03 11:33:40.
