data_PCOD9051655
_publ_section_title
;
Structure prediction by ZEFSAII (Michael W. Deem and Ramdas Pophale) SiO2 
 PCOD9051655
Probable space group: P -1
;
_chemical_formula_sum "Si O2"
_cell_formula_units_Z 14
_cell_length_a 24.513199
_cell_length_b 17.284483
_cell_length_c 13.591559
_cell_angle_alpha 156.564734
_cell_angle_beta 24.054921
_cell_angle_gamma 162.838384
_cell_volume 642.286441
_symmetry_space_group_name_H-M "P -1"
_symmetry_group_IT_number 2
_symmetry_cell_setting 'triclinic'
loop_
_space_group_symop_operation_xyz
x,y,z
-x,-y,-z
loop_
_atom_site_type_symbol
_atom_site_label
_atom_site_fract_x
_atom_site_fract_y
_atom_site_fract_z
Si Si1 0.523746 0.716917 0.378369
Si Si2 0.135625 0.055300 0.576712
Si Si3 0.322385 0.857224 0.553301
Si Si4 0.077293 0.274281 0.639335
Si Si5 0.053715 0.389849 0.022809
Si Si6 0.149201 0.254218 0.130451
Si Si7 0.642189 0.984286 0.709312
O O1 0.290509 0.459022 0.459765
O O2 0.598017 0.948722 0.446569
O O3 0.573481 0.837455 0.546935
O O4 0.652302 0.659715 0.085524
O O5 0.321302 0.155704 0.440250
O O6 0.068579 0.852279 0.358494
O O7 0.966883 0.874348 0.725779
O O8 0.149613 0.291343 0.790104
O O9 0.216786 0.543896 0.332478
O O10 0.168160 0.829979 0.833459
O O11 0.500000 0.000000 0.500000
O O12 0.077205 0.421640 0.902948
O O13 0.000000 0.000000 0.500000
O O14 0.157269 0.685910 0.243700
O O15 0.000000 0.000000 0.000000
O O16 0.500000 0.000000 0.000000
#
# Coordination Sequence:
#
# PCOD9051655 Si02
#       7
#     2   2   2   2   2   2   2
#     4  12  26  46  75 106 145 185 242 298 357 431
#     4  11  24  45  73  98 144 188 232 293 357 418
#     4  12  28  44  75 113 141 188 247 299 356 428
#     4  10  25  47  71 102 142 195 233 291 362 428
#     4  11  24  47  71 101 148 184 237 294 357 420
#     4  12  25  45  73 107 148 190 237 295 370 424
#     4  12  26  46  70 107 140 187 240 291 355 434
#
# _framework density 21.797129999999999
#
# number of rings (size 3 to 8) (size 9 to 14) (size 15 to 20)
#    0.000    0.571    5.714    0.857    6.000    4.571 
#    2.571    0.000    0.000    0.000    0.000    0.000 
#    0.000    0.000    0.000    0.000    0.000    0.000 
#
# Total GULP energy -78293.935098 kJ/mol
# GULP energy per Si atom -5592.423936 kJ/mol
# Density = 2.174752 g / cm^3
# Si number density = 21.797130 Si / 1000 Ang^3
#
#
#
# Elastic Constant Matrix: (Units=GPa)
#
#
# Indices 1 2 3 4 5 6 
#
# 1 139.1367 18.0729 44.7636 -1.4876 -3.5346 -0.8111
# 2 18.0729 72.9993 16.7301 4.7360 0.7611 -8.0873
# 3 44.7636 16.7301 92.5903 -2.5038 -22.3018 -11.0704
# 4 -1.4876 4.7360 -2.5038 37.7649 -7.5923 -0.3999
# 5 -3.5346 0.7611 -22.3018 -7.5923 28.5294 -0.5782
# 6 -0.8111 -8.0873 -11.0704 -0.3999 -0.5782 36.8737
#
#
#
# Elastic Compliance Matrix: (Units=1/GPa)
#
#
# Indices 1 2 3 4 5 6 
#
# 1 0.008851 -0.001171 -0.004971 -0.000435 -0.002907 -0.001605
# 2 -0.001171 0.015104 -0.002777 -0.002785 -0.003412 0.002370
# 3 -0.004971 -0.002777 0.017974 0.004366 0.014771 0.004957
# 4 -0.000435 -0.002785 0.004366 0.029381 0.011276 0.001186
# 5 -0.002907 -0.003412 0.014771 0.011276 0.049422 0.004520
# 6 -0.001605 0.002370 0.004957 0.001186 0.004520 0.029176
#
#
# Mechanical properties :
#
#
# Convention : Reuss Voigt Hill
#
# Bulk Modulus (GPa) = 41.51015 51.53994 46.52504
# Shear Modulus (GPa) = 28.44544 35.64424 32.04484
#
# Velocity S-wave (km/s) = 3.61641 4.04824 3.83840
# Velocity P-wave (km/s) = 6.04343 6.74890 6.40588
#
# Compressibility (1/GPa) = 0.02409050
#
# Stress axis : x y z
#
# Youngs Moduli (GPa) = 112.98424 66.20823 55.63630
#
# Poissons Ratio (x) = 0.07754 0.27658
# Poissons Ratio (y) = 0.13233 0.15448
# Poissons Ratio (z) = 0.56166 0.18384
#
# Static dielectric constant tensor:
#      x y z
#    x 1.782370 0.043240 -0.007260 
#    y 0.043240 1.853720 0.006930 
#    z -0.007260 0.006930 1.845920 
# 
# From -- ./inp_files/258732.got.cif
#   From: 2010.05.17/outbox.cif.g08.bks.cpg/sg2_130_cif.got.tgz:258732.got - 2010.06.03 11:33:40.
