data_PCOD9051638
_publ_section_title
;
Structure prediction by ZEFSAII (Michael W. Deem and Ramdas Pophale) SiO2 
 PCOD9051638
Probable space group: P -1
;
_chemical_formula_sum "Si O2"
_cell_formula_units_Z 12
_cell_length_a 12.902990
_cell_length_b 8.906892
_cell_length_c 12.555405
_cell_angle_alpha 146.654533
_cell_angle_beta 144.284155
_cell_angle_gamma 49.252839
_cell_volume 461.552537
_symmetry_space_group_name_H-M "P -1"
_symmetry_group_IT_number 2
_symmetry_cell_setting 'triclinic'
loop_
_space_group_symop_operation_xyz
x,y,z
-x,-y,-z
loop_
_atom_site_type_symbol
_atom_site_label
_atom_site_fract_x
_atom_site_fract_y
_atom_site_fract_z
Si Si1 0.330095 0.793323 0.200503
Si Si2 0.943088 0.091515 0.624915
Si Si3 0.517075 0.675486 0.825027
Si Si4 0.180573 0.298330 0.329034
Si Si5 0.748206 0.640831 0.810306
Si Si6 0.132953 0.475926 0.696798
O O1 0.342144 0.509750 0.107475
O O2 0.500000 0.000000 0.500000
O O3 0.183328 0.015809 0.228587
O O4 0.306155 0.675554 0.989238
O O5 0.824605 0.347439 0.679981
O O6 0.836050 0.836859 0.443009
O O7 0.000000 0.000000 0.500000
O O8 0.116324 0.180555 0.892704
O O9 0.332004 0.531096 0.628523
O O10 0.566856 0.621504 0.713146
O O11 0.500000 0.000000 0.000000
O O12 0.239373 0.227814 0.217618
O O13 0.998038 0.435046 0.265696
O O14 0.000000 0.500000 0.500000
#
# Coordination Sequence:
#
# PCOD9051638 Si02
#       6
#     2   2   2   2   2   2
#     4  10  25  47  70 102 147 194 242 304 372 438
#     4  11  23  42  70 111 143 186 246 305 364 443
#     4  11  25  45  73 105 145 197 247 302 362 440
#     4  11  24  46  69 106 147 191 243 302 373 443
#     4  11  24  42  73 104 149 191 239 306 373 428
#     4  12  25  43  76 108 148 192 251 305 369 448
#
# _framework density 25.999207999999999
#
# number of rings (size 3 to 8) (size 9 to 14) (size 15 to 20)
#    0.000    1.000    1.667    4.000    7.000    0.000 
#    0.000    4.167    0.000    0.000    0.000    0.000 
#    0.000    0.000    0.000    0.000    0.000    0.000 
#
# Total GULP energy -66977.041615 kJ/mol
# GULP energy per Si atom -5581.420135 kJ/mol
# Density = 2.594003 g / cm^3
# Si number density = 25.999208 Si / 1000 Ang^3
#
#
#
# Elastic Constant Matrix: (Units=GPa)
#
#
# Indices 1 2 3 4 5 6 
#
# 1 57.8662 4.7364 10.4620 8.4350 -17.4659 -5.0327
# 2 4.7364 161.2129 67.3793 47.2294 -9.5080 13.5980
# 3 10.4620 67.3793 181.2385 17.8214 -11.4893 23.4600
# 4 8.4350 47.2294 17.8214 54.0874 3.5538 -0.6396
# 5 -17.4659 -9.5080 -11.4893 3.5538 41.2961 -1.5552
# 6 -5.0327 13.5980 23.4600 -0.6396 -1.5552 34.5777
#
#
#
# Elastic Compliance Matrix: (Units=1/GPa)
#
#
# Indices 1 2 3 4 5 6 
#
# 1 0.021290 0.001561 -0.001192 -0.004877 0.009589 0.003635
# 2 0.001561 0.010011 -0.002546 -0.008360 0.002900 -0.002006
# 3 -0.001192 -0.002546 0.007094 -0.000023 0.000736 -0.003952
# 4 -0.004877 -0.008360 -0.000023 0.026998 -0.006211 0.002814
# 5 0.009589 0.002900 0.000736 -0.006211 0.029715 0.000977
# 6 0.003635 -0.002006 -0.003952 0.002814 0.000977 0.033016
#
#
# Mechanical properties :
#
#
# Convention : Reuss Voigt Hill
#
# Bulk Modulus (GPa) = 29.37807 62.83033 46.10420
# Shear Modulus (GPa) = 34.76420 47.17490 40.96955
#
# Velocity S-wave (km/s) = 3.66064 4.26429 3.97394
# Velocity P-wave (km/s) = 5.40289 6.96163 6.23119
#
# Compressibility (1/GPa) = 0.03403899
#
# Stress axis : x y z
#
# Youngs Moduli (GPa) = 46.96962 99.89160 140.97320
#
# Poissons Ratio (x) = -0.15588 0.16807
# Poissons Ratio (y) = -0.07330 0.35894
# Poissons Ratio (z) = 0.05600 0.25434
#
# Static dielectric constant tensor:
#      x y z
#    x 2.019780 0.031630 0.052710 
#    y 0.031630 2.039610 -0.107980 
#    z 0.052710 -0.107980 2.222780 
# 
# From -- ./inp_files/360611.got.cif
#   From: 2010.05.17/outbox.cif.g08.bks.cpg/sg2_181_cif.got.tgz:360611.got - 2010.06.03 11:33:40.
