data_PCOD9051884
_publ_section_title
;
Structure prediction by ZEFSAII (Michael W. Deem and Ramdas Pophale) SiO2 
 PCOD9051884
Probable space group: P -1
;
_chemical_formula_sum "Si O2"
_cell_formula_units_Z 16
_cell_length_a 15.681758
_cell_length_b 9.507262
_cell_length_c 13.937960
_cell_angle_alpha 76.074618
_cell_angle_beta 34.395498
_cell_angle_gamma 101.221176
_cell_volume 794.128791
_symmetry_space_group_name_H-M "P -1"
_symmetry_group_IT_number 2
_symmetry_cell_setting 'triclinic'
loop_
_space_group_symop_operation_xyz
x,y,z
-x,-y,-z
loop_
_atom_site_type_symbol
_atom_site_label
_atom_site_fract_x
_atom_site_fract_y
_atom_site_fract_z
Si Si1 0.232701 0.181995 0.299869
Si Si2 0.802134 0.567519 0.184307
Si Si3 0.575694 0.495852 0.780624
Si Si4 0.275733 0.907451 0.972663
Si Si5 0.377237 0.955379 0.220634
Si Si6 0.433638 0.340721 0.725065
Si Si7 0.736639 0.209652 0.210864
Si Si8 0.904406 0.479547 0.490458
O O1 0.252695 0.277449 0.367138
O O2 0.332386 0.093365 0.238373
O O3 0.367131 0.362230 0.064748
O O4 0.000000 0.000000 0.500000
O O5 0.643418 0.453791 0.443863
O O6 0.721694 0.652118 0.186049
O O7 0.766510 0.396888 0.183737
O O8 0.056025 0.736921 0.949207
O O9 0.514495 0.462431 0.731516
O O10 0.678507 0.408727 0.715515
O O11 0.267011 0.823695 0.892605
O O12 0.474382 0.988309 0.838388
O O13 0.309595 0.103311 0.897540
O O14 0.064200 0.702773 0.256261
O O15 0.154448 0.711038 0.475119
O O16 0.500000 0.000000 0.000000
O O17 0.500000 0.000000 0.500000
O O18 0.000000 0.500000 0.500000
#
# Coordination Sequence:
#
# PCOD9051884 Si02
#       8
#     2   2   2   2   2   2   2   2
#     4  11  25  44  64  96 141 181 220 284 341 394
#     4  10  25  48  73  98 141 176 230 296 347 408
#     4  11  24  42  65  99 138 173 230 279 334 412
#     4  12  25  41  73 103 135 185 229 274 350 411
#     4  12  23  44  67  98 135 178 231 276 330 411
#     4  11  23  48  71 103 136 184 234 286 345 418
#     4  11  24  48  71 105 140 177 227 293 353 413
#     4  12  23  41  70  98 137 183 229 278 330 403
#
# _framework density 20.147864999999999
#
# number of rings (size 3 to 8) (size 9 to 14) (size 15 to 20)
#    0.000    0.750    5.000    1.500    3.500    1.500 
#    4.500    0.000    0.000    0.000    0.000    0.000 
#    0.000    0.000    0.000    0.000    0.000    0.000 
#
# Total GULP energy -89363.813570 kJ/mol
# GULP energy per Si atom -5585.238348 kJ/mol
# Density = 2.010201 g / cm^3
# Si number density = 20.147865 Si / 1000 Ang^3
#
#
#
# Elastic Constant Matrix: (Units=GPa)
#
#
# Indices 1 2 3 4 5 6 
#
# 1 163.8420 75.2477 66.0992 0.3608 -7.2976 16.2125
# 2 75.2477 115.9308 34.2052 -6.1827 7.9165 11.0837
# 3 66.0992 34.2052 109.7966 -17.8401 -2.9358 1.1410
# 4 0.3608 -6.1827 -17.8401 33.8857 1.6146 -2.8826
# 5 -7.2976 7.9165 -2.9358 1.6146 27.0241 -1.3328
# 6 16.2125 11.0837 1.1410 -2.8826 -1.3328 46.0895
#
#
#
# Elastic Compliance Matrix: (Units=1/GPa)
#
#
# Indices 1 2 3 4 5 6 
#
# 1 0.011775 -0.006251 -0.005763 -0.004743 0.004537 -0.002662
# 2 -0.006251 0.013351 -0.000113 0.002634 -0.005819 -0.001013
# 3 -0.005763 -0.000113 0.013800 0.007508 -0.000365 0.002172
# 4 -0.004743 0.002634 0.007508 0.034393 -0.003148 0.002909
# 5 0.004537 -0.005819 -0.000365 -0.003148 0.040120 0.000776
# 6 -0.002662 -0.001013 0.002172 0.002909 0.000776 0.023027
#
#
# Mechanical properties :
#
#
# Convention : Reuss Voigt Hill
#
# Bulk Modulus (GPa) = 68.15707 82.29709 75.22708
# Shear Modulus (GPa) = 30.19103 35.66766 32.92934
#
# Velocity S-wave (km/s) = 3.87521 4.21205 4.04714
# Velocity P-wave (km/s) = 7.34336 8.03682 7.69790
#
# Compressibility (1/GPa) = 0.01467199
#
# Stress axis : x y z
#
# Youngs Moduli (GPa) = 84.92420 74.89977 72.46280
#
# Poissons Ratio (x) = 0.46819 0.41761
# Poissons Ratio (y) = 0.53085 0.00821
# Poissons Ratio (z) = 0.48943 0.00849
#
# Static dielectric constant tensor:
#      x y z
#    x 1.846510 0.092610 0.341220 
#    y 0.092610 1.711190 0.168230 
#    z 0.341220 0.168230 2.418510 
# 
# From -- ./inp_files/215702.got.cif
#   From: 2010.05.17/outbox.cif.g08.bks.cpg/sg2_108_cif.got.tgz:215702.got - 2010.06.03 11:33:40.
