data_PCOD9051870
_publ_section_title
;
Structure prediction by ZEFSAII (Michael W. Deem and Ramdas Pophale) SiO2 
 PCOD9051870
Probable space group: P -1
;
_chemical_formula_sum "Si O2"
_cell_formula_units_Z 15
_cell_length_a 9.074416
_cell_length_b 11.384468
_cell_length_c 13.207667
_cell_angle_alpha 127.930170
_cell_angle_beta 126.606598
_cell_angle_gamma 40.050173
_cell_volume 670.903812
_symmetry_space_group_name_H-M "P -1"
_symmetry_group_IT_number 2
_symmetry_cell_setting 'triclinic'
loop_
_space_group_symop_operation_xyz
x,y,z
-x,-y,-z
loop_
_atom_site_type_symbol
_atom_site_label
_atom_site_fract_x
_atom_site_fract_y
_atom_site_fract_z
Si Si1 0.533877 0.905827 0.311315
Si Si2 0.271245 0.306661 0.506982
Si Si3 0.125572 0.113449 0.905897
Si Si4 0.539324 0.456481 0.612075
Si Si5 0.230236 0.808852 0.042626
Si Si6 0.935001 0.886086 0.349827
Si Si7 0.000000 0.500000 0.000000
Si Si8 0.464672 0.693393 0.891817
O O1 0.642349 0.779992 0.391052
O O2 0.425632 0.830363 0.161464
O O3 0.736968 0.892569 0.329024
O O4 0.324477 0.128528 0.371876
O O5 0.438015 0.348497 0.548201
O O6 0.000000 0.500000 0.500000
O O7 0.877269 0.200181 0.903631
O O8 0.134753 0.050991 0.760919
O O9 0.332054 0.920276 0.946759
O O10 0.133094 0.286926 0.996212
O O11 0.500000 0.500000 0.500000
O O12 0.821055 0.329209 0.673763
O O13 0.426356 0.629404 0.735696
O O14 0.344907 0.661248 0.917838
O O15 0.000000 0.000000 0.000000
O O16 0.000000 0.000000 0.500000
O O17 0.260132 0.431400 0.040779
#
# Coordination Sequence:
#
# PCOD9051870 Si02
#       8
#     2   2   2   2   2   2   1   2
#     4  11  25  46  75 104 149 193 245 303 368 434
#     4  11  26  46  74 110 146 190 244 304 366 443
#     4  11  25  47  72 102 143 190 242 298 358 432
#     4  12  25  47  74 110 143 192 241 301 366 436
#     4  10  25  48  73 102 144 201 242 299 366 431
#     4  12  23  45  73 108 147 188 239 305 366 434
#     4  12  24  46  72 106 140 182 244 286 366 426
#     4  11  26  47  72 103 146 188 241 300 360 433
#
# _framework density 22.357897999999999
#
# number of rings (size 3 to 8) (size 9 to 14) (size 15 to 20)
#    0.000    0.800    2.667    3.600    5.600    1.600 
#    2.400    0.000    0.000    0.000    0.000    0.000 
#    0.000    0.000    0.000    0.000    0.000    0.000 
#
# Total GULP energy -83578.823755 kJ/mol
# GULP energy per Si atom -5571.921584 kJ/mol
# Density = 2.230701 g / cm^3
# Si number density = 22.357898 Si / 1000 Ang^3
#
#
#
# Elastic Constant Matrix: (Units=GPa)
#
#
# Indices 1 2 3 4 5 6 
#
# 1 167.7443 30.0176 57.5222 -3.3269 -27.5071 -1.5703
# 2 30.0176 117.8400 21.4390 3.4320 -6.8342 -3.0397
# 3 57.5222 21.4390 53.8215 4.3148 -34.3744 -4.0978
# 4 -3.3269 3.4320 4.3148 29.8409 -0.3739 3.6573
# 5 -27.5071 -6.8342 -34.3744 -0.3739 37.1872 -0.7951
# 6 -1.5703 -3.0397 -4.0978 3.6573 -0.7951 37.7486
#
#
#
# Elastic Compliance Matrix: (Units=1/GPa)
#
#
# Indices 1 2 3 4 5 6 
#
# 1 0.010369 -0.000308 -0.015938 0.003630 -0.007121 -0.001825
# 2 -0.000308 0.009425 -0.005950 -0.000314 -0.003998 0.000046
# 3 -0.015938 -0.005950 0.077046 -0.012687 0.058416 0.009681
# 4 0.003630 -0.000314 -0.012687 0.036283 -0.008841 -0.004953
# 5 -0.007121 -0.003998 0.058416 -0.008841 0.074971 0.008159
# 6 -0.001825 0.000046 0.009681 -0.004953 0.008159 0.028122
#
#
# Mechanical properties :
#
#
# Convention : Reuss Voigt Hill
#
# Bulk Modulus (GPa) = 19.06587 61.92928 40.49757
# Shear Modulus (GPa) = 16.77345 36.31715 26.54530
#
# Velocity S-wave (km/s) = 2.74199 4.03470 3.44945
# Velocity P-wave (km/s) = 4.30939 7.03308 5.83246
#
# Compressibility (1/GPa) = 0.05244975
#
# Stress axis : x y z
#
# Youngs Moduli (GPa) = 96.44255 106.09540 12.97921
#
# Poissons Ratio (x) = 0.03263 0.20686
# Poissons Ratio (y) = 0.02966 0.07723
# Poissons Ratio (z) = 1.53705 0.63131
#
# Static dielectric constant tensor:
#      x y z
#    x 1.834570 0.031400 -0.048200 
#    y 0.031400 1.815810 0.006430 
#    z -0.048200 0.006430 1.870490 
# 
# From -- ./inp_files/391133.got.cif
#   From: 2010.05.17/outbox.cif.g08.bks.cpg/sg2_196_cif.got.tgz:391133.got - 2010.06.03 11:33:40.
