data_PCOD9051615
_publ_section_title
;
Structure prediction by ZEFSAII (Michael W. Deem and Ramdas Pophale) SiO2 
 PCOD9051615
Probable space group: P -1
;
_chemical_formula_sum "Si O2"
_cell_formula_units_Z 16
_cell_length_a 13.542490
_cell_length_b 13.629958
_cell_length_c 8.823082
_cell_angle_alpha 123.611469
_cell_angle_beta 89.816142
_cell_angle_gamma 135.000896
_cell_volume 721.119519
_symmetry_space_group_name_H-M "P -1"
_symmetry_group_IT_number 2
_symmetry_cell_setting 'triclinic'
loop_
_space_group_symop_operation_xyz
x,y,z
-x,-y,-z
loop_
_atom_site_type_symbol
_atom_site_label
_atom_site_fract_x
_atom_site_fract_y
_atom_site_fract_z
Si Si1 0.414749 0.850183 0.518039
Si Si2 0.543984 0.341109 0.265736
Si Si3 0.160479 0.550720 0.708419
Si Si4 0.924403 0.801599 0.156156
Si Si5 0.726012 0.715411 0.373109
Si Si6 0.907326 0.532920 0.018905
Si Si7 0.250875 0.855734 0.767523
Si Si8 0.547026 0.373815 0.626904
O O1 0.380443 0.906124 0.701145
O O2 0.508700 0.820679 0.529083
O O3 0.500000 0.000000 0.500000
O O4 0.217519 0.609087 0.249632
O O5 0.706552 0.406880 0.341238
O O6 0.613120 0.500450 0.275227
O O7 0.516460 0.376608 0.455629
O O8 0.360927 0.084448 0.001068
O O9 0.188445 0.555598 0.890973
O O10 0.210934 0.733486 0.809609
O O11 0.944769 0.317420 0.463336
O O12 0.816576 0.754434 0.255295
O O13 0.001903 0.754096 0.177403
O O14 0.761556 0.614636 0.875910
O O15 0.100527 0.059714 0.336685
O O16 0.585756 0.681283 0.316192
O O17 0.000000 0.500000 0.000000
#
# Coordination Sequence:
#
# PCOD9051615 Si02
#       8
#     2   2   2   2   2   2   2   2
#     4  11  24  40  65 102 133 172 220 273 342 400
#     4  12  25  44  69  99 136 178 226 271 331 401
#     4  11  23  43  66  97 139 177 214 276 339 396
#     4  10  25  47  68  98 135 171 228 278 329 397
#     4  11  25  47  70  94 131 184 227 275 333 383
#     4  11  22  40  68 100 131 166 221 273 335 402
#     4  11  25  42  67 101 137 179 217 271 348 401
#     4  11  26  44  67  99 135 173 225 278 327 401
#
# _framework density 22.187723999999999
#
# number of rings (size 3 to 8) (size 9 to 14) (size 15 to 20)
#    0.000    1.000    3.750    1.875    5.250    2.500 
#    0.000    0.000    0.000    0.000    0.000    0.000 
#    0.000    0.000    0.000    0.000    0.000    0.000 
#
# Total GULP energy -89391.972721 kJ/mol
# GULP energy per Si atom -5586.998295 kJ/mol
# Density = 2.213722 g / cm^3
# Si number density = 22.187724 Si / 1000 Ang^3
#
#
#
# Elastic Constant Matrix: (Units=GPa)
#
#
# Indices 1 2 3 4 5 6 
#
# 1 81.1868 2.3060 10.7826 11.5919 -0.6476 7.9449
# 2 2.3060 66.8382 33.3016 16.1022 -11.7170 -16.9298
# 3 10.7826 33.3016 113.9981 19.5440 -13.3373 -6.1275
# 4 11.5919 16.1022 19.5440 37.2997 0.9737 -2.7497
# 5 -0.6476 -11.7170 -13.3373 0.9737 25.1408 2.8143
# 6 7.9449 -16.9298 -6.1275 -2.7497 2.8143 21.3215
#
#
#
# Elastic Compliance Matrix: (Units=1/GPa)
#
#
# Indices 1 2 3 4 5 6 
#
# 1 0.013641 -0.000681 -0.000672 -0.004081 0.000554 -0.006416
# 2 -0.000681 0.024171 -0.004013 -0.007111 0.007561 0.016378
# 3 -0.000672 -0.004013 0.011165 -0.004081 0.004285 -0.000819
# 4 -0.004081 -0.007111 -0.004081 0.033460 -0.006872 -0.000076
# 5 0.000554 0.007561 0.004285 -0.006872 0.045843 0.000092
# 6 -0.006416 0.016378 -0.000819 -0.000076 0.000092 0.062039
#
#
# Mechanical properties :
#
#
# Convention : Reuss Voigt Hill
#
# Bulk Modulus (GPa) = 26.14625 39.42261 32.78443
# Shear Modulus (GPa) = 23.38652 31.12792 27.25722
#
# Velocity S-wave (km/s) = 3.25010 3.74964 3.50877
# Velocity P-wave (km/s) = 5.08861 6.04589 5.58778
#
# Compressibility (1/GPa) = 0.03824640
#
# Stress axis : x y z
#
# Youngs Moduli (GPa) = 73.30973 41.37155 89.56676
#
# Poissons Ratio (x) = 0.02817 0.06017
# Poissons Ratio (y) = 0.04991 0.35940
# Poissons Ratio (z) = 0.04925 0.16601
#
# Static dielectric constant tensor:
#      x y z
#    x 1.823050 0.029370 -0.055140 
#    y 0.029370 1.832700 0.007610 
#    z -0.055140 0.007610 1.818300 
# 
# From -- ./inp_files/313939.got.cif
#   From: 2010.05.17/outbox.cif.g08.bks.cpg/sg2_157_cif.got.tgz:313939.got - 2010.06.03 11:33:40.
