data_PCOD9051754
_publ_section_title
;
Structure prediction by ZEFSAII (Michael W. Deem and Ramdas Pophale) SiO2 
 PCOD9051754
Probable space group: P -1
;
_chemical_formula_sum "Si O2"
_cell_formula_units_Z 16
_cell_length_a 20.151826
_cell_length_b 11.479791
_cell_length_c 13.836077
_cell_angle_alpha 47.865200
_cell_angle_beta 150.289585
_cell_angle_gamma 150.754285
_cell_volume 723.336908
_symmetry_space_group_name_H-M "P -1"
_symmetry_group_IT_number 2
_symmetry_cell_setting 'triclinic'
loop_
_space_group_symop_operation_xyz
x,y,z
-x,-y,-z
loop_
_atom_site_type_symbol
_atom_site_label
_atom_site_fract_x
_atom_site_fract_y
_atom_site_fract_z
Si Si1 0.676230 0.451277 0.322592
Si Si2 0.121942 0.130438 0.182226
Si Si3 0.563596 0.390201 0.565108
Si Si4 0.819559 0.164007 0.218181
Si Si5 0.425994 0.937902 0.206820
Si Si6 0.799658 0.213357 0.368379
Si Si7 0.069817 0.144276 0.721630
Si Si8 0.705879 0.714304 0.381401
O O1 0.515251 0.160329 0.261811
O O2 0.627452 0.523628 0.306860
O O3 0.711306 0.579394 0.195527
O O4 0.921207 0.617673 0.562831
O O5 0.312327 0.175381 0.396096
O O6 0.271721 0.416095 0.246327
O O7 0.940657 0.949505 0.137530
O O8 0.000000 0.000000 0.000000
O O9 0.598109 0.552724 0.434644
O O10 0.611571 0.255882 0.673209
O O11 0.692345 0.880193 0.232635
O O12 0.749875 0.208250 0.196385
O O13 0.771049 0.186463 0.039413
O O14 0.606276 0.062670 0.282456
O O15 0.897147 0.127338 0.529745
O O16 0.000000 0.500000 0.500000
O O17 0.962446 0.942745 0.611448
#
# Coordination Sequence:
#
# PCOD9051754 Si02
#       8
#     2   2   2   2   2   2   2   2
#     4  10  21  39  61  81 117 153 196 247 281 331
#     4  10  21  37  60  84 118 160 188 229 290 356
#     4  10  23  39  56  87 124 151 188 234 292 351
#     4  10  22  36  60  87 109 153 200 238 287 336
#     4  12  22  35  58  90 120 147 187 243 294 343
#     4  10  17  35  54  83 121 149 178 239 299 344
#     4   9  17  34  61  83 110 149 196 237 285 332
#     4   9  20  42  60  79 116 161 196 238 283 333
#
# _framework density 22.119706999999998
#
# number of rings (size 3 to 8) (size 9 to 14) (size 15 to 20)
#    0.000    2.250    3.750    1.875    1.750    4.000 
#    0.000    3.125    0.000    0.000    0.000    0.000 
#    0.000    0.000    0.000    0.000    0.000    0.000 
#
# Total GULP energy -89164.278613 kJ/mol
# GULP energy per Si atom -5572.767413 kJ/mol
# Density = 2.206936 g / cm^3
# Si number density = 22.119707 Si / 1000 Ang^3
#
#
#
# Elastic Constant Matrix: (Units=GPa)
#
#
# Indices 1 2 3 4 5 6 
#
# 1 38.3721 4.9390 19.4956 10.3400 -20.0376 -15.6215
# 2 4.9390 71.3647 41.3512 0.9605 -18.1019 -13.2200
# 3 19.4956 41.3512 89.6322 19.6415 -17.4571 -11.4672
# 4 10.3400 0.9605 19.6415 19.8693 -4.1109 -10.8702
# 5 -20.0376 -18.1019 -17.4571 -4.1109 28.9823 14.2335
# 6 -15.6215 -13.2200 -11.4672 -10.8702 14.2335 31.5115
#
#
#
# Elastic Compliance Matrix: (Units=1/GPa)
#
#
# Indices 1 2 3 4 5 6 
#
# 1 0.050859 0.010169 -0.006451 -0.008636 0.031538 0.009907
# 2 0.010169 0.026328 -0.014136 0.015929 0.011755 0.011128
# 3 -0.006451 -0.014136 0.023578 -0.024237 0.002378 -0.009983
# 4 -0.008636 0.015929 -0.024237 0.092470 -0.012874 0.031295
# 5 0.031538 0.011755 0.002378 -0.012874 0.070566 -0.014883
# 6 0.009907 0.011128 -0.009983 0.031295 -0.014883 0.055199
#
#
# Mechanical properties :
#
#
# Convention : Reuss Voigt Hill
#
# Bulk Modulus (GPa) = 12.51097 36.77117 24.64107
# Shear Modulus (GPa) = 13.64337 24.97816 19.31076
#
# Velocity S-wave (km/s) = 2.48623 3.36404 2.95788
# Velocity P-wave (km/s) = 3.72963 5.63461 4.77802
#
# Compressibility (1/GPa) = 0.07992985
#
# Stress axis : x y z
#
# Youngs Moduli (GPa) = 19.66239 37.98222 42.41176
#
# Poissons Ratio (x) = -0.38626 0.27362
# Poissons Ratio (y) = -0.19996 0.59952
# Poissons Ratio (z) = 0.12685 0.53690
#
# Static dielectric constant tensor:
#      x y z
#    x 1.880630 -0.003460 0.005610 
#    y -0.003460 1.878820 -0.047550 
#    z 0.005610 -0.047550 1.864360 
# 
# From -- ./inp_files/471186.got.cif
#   From: 2010.05.17/outbox.cif.g08.bks.cpg/sg2_236_cif.got.tgz:471186.got - 2010.06.03 11:33:40.
