data_PCOD9051613
_publ_section_title
;
Structure prediction by ZEFSAII (Michael W. Deem and Ramdas Pophale) SiO2 
 PCOD9051613
Probable space group: P -1
;
_chemical_formula_sum "Si O2"
_cell_formula_units_Z 16
_cell_length_a 6.591197
_cell_length_b 12.032925
_cell_length_c 17.974657
_cell_angle_alpha 32.898628
_cell_angle_beta 121.355638
_cell_angle_gamma 100.725381
_cell_volume 556.231503
_symmetry_space_group_name_H-M "P -1"
_symmetry_group_IT_number 2
_symmetry_cell_setting 'triclinic'
loop_
_space_group_symop_operation_xyz
x,y,z
-x,-y,-z
loop_
_atom_site_type_symbol
_atom_site_label
_atom_site_fract_x
_atom_site_fract_y
_atom_site_fract_z
Si Si1 0.984249 0.550672 0.297909
Si Si2 0.587219 0.560832 0.345609
Si Si3 0.747338 0.995634 0.352338
Si Si4 0.835149 0.831616 0.671270
Si Si5 0.659710 0.511435 0.948414
Si Si6 0.162109 0.620597 0.105985
Si Si7 0.464810 0.968917 0.874174
Si Si8 0.101274 0.857937 0.246715
O O1 0.832279 0.522821 0.357145
O O2 0.174616 0.273402 0.464474
O O3 0.135618 0.684626 0.282478
O O4 0.747817 0.737856 0.090472
O O5 0.710423 0.317699 0.553018
O O6 0.524397 0.789550 0.254875
O O7 0.103384 0.101358 0.103895
O O8 0.984603 0.977664 0.597177
O O9 0.491944 0.198247 0.239329
O O10 0.653617 0.048543 0.217940
O O11 0.919428 0.578126 0.790578
O O12 0.500000 0.000000 0.500000
O O13 0.013856 0.694848 0.857334
O O14 0.646786 0.455480 0.890410
O O15 0.500000 0.500000 0.000000
O O16 0.340803 0.606650 0.218311
O O17 0.224710 0.023392 0.858133
#
# Coordination Sequence:
#
# PCOD9051613 Si02
#       8
#     2   2   2   2   2   2   2   2
#     4  11  19  34  62 102 134 174 223 291 352 393
#     4  11  20  34  62 105 135 172 226 296 349 394
#     4  11  23  46  70 101 148 179 230 284 345 421
#     4  11  26  46  69 100 139 192 237 282 338 410
#     4  10  25  47  68  97 143 193 230 283 339 412
#     4  12  24  42  70 100 142 179 235 283 348 418
#     4  11  19  35  63 101 137 172 227 292 349 394
#     4  11  19  34  62 100 140 169 222 300 349 392
#
# _framework density 28.765001000000002
#
# number of rings (size 3 to 8) (size 9 to 14) (size 15 to 20)
#    0.000    1.000    5.000    4.125    1.750    0.000 
#    2.250    1.875    0.000    1.500    0.000    8.750 
#    0.000    4.000    0.000    0.000    0.000    0.000 
#
# Total GULP energy -89713.770311 kJ/mol
# GULP energy per Si atom -5607.110644 kJ/mol
# Density = 2.869953 g / cm^3
# Si number density = 28.765001 Si / 1000 Ang^3
#
#
#
# Elastic Constant Matrix: (Units=GPa)
#
#
# Indices 1 2 3 4 5 6 
#
# 1 152.7318 72.5473 58.9412 -3.0572 12.2924 24.0210
# 2 72.5473 207.6757 108.2428 -9.1846 -27.9609 12.5603
# 3 58.9412 108.2428 263.0606 -14.6393 -14.4492 1.2490
# 4 -3.0572 -9.1846 -14.6393 74.3045 3.9966 -7.7664
# 5 12.2924 -27.9609 -14.4492 3.9966 48.8840 -1.3667
# 6 24.0210 12.5603 1.2490 -7.7664 -1.3667 56.6805
#
#
#
# Elastic Compliance Matrix: (Units=1/GPa)
#
#
# Indices 1 2 3 4 5 6 
#
# 1 0.009329 -0.003127 -0.001053 -0.000322 -0.004514 -0.003391
# 2 -0.003127 0.007682 -0.002205 0.000123 0.004513 -0.000203
# 3 -0.001053 -0.002205 0.005006 0.000744 0.000449 0.000937
# 4 -0.000322 0.000123 0.000744 0.013851 -0.000706 0.001974
# 5 -0.004514 0.004513 0.000449 -0.000706 0.024403 0.001395
# 6 -0.003391 -0.000203 0.000937 0.001974 0.001395 0.019408
#
#
# Mechanical properties :
#
#
# Convention : Reuss Voigt Hill
#
# Bulk Modulus (GPa) = 108.13750 122.54787 115.34269
# Shear Modulus (GPa) = 52.33868 61.55625 56.94747
#
# Velocity S-wave (km/s) = 4.27022 4.63100 4.45426
# Velocity P-wave (km/s) = 7.87325 8.44337 8.16329
#
# Compressibility (1/GPa) = 0.00924749
#
# Stress axis : x y z
#
# Youngs Moduli (GPa) = 107.18789 130.17608 199.75151
#
# Poissons Ratio (x) = 0.40705 0.21043
# Poissons Ratio (y) = 0.33517 0.44038
# Poissons Ratio (z) = 0.11292 0.28699
#
# Static dielectric constant tensor:
#      x y z
#    x 2.441710 0.012320 -0.058630 
#    y 0.012320 2.189210 -0.011860 
#    z -0.058630 -0.011860 2.168510 
# 
# From -- ./inp_files/500059.got.cif
#   From: 2010.05.17/outbox.cif.g08.bks.cpg/sg2_251_cif.got.tgz:500059.got - 2010.06.03 11:33:40.
