data_PCOD9051729
_publ_section_title
;
Structure prediction by ZEFSAII (Michael W. Deem and Ramdas Pophale) SiO2 
 PCOD9051729
Probable space group: P -1
;
_chemical_formula_sum "Si O2"
_cell_formula_units_Z 12
_cell_length_a 5.033130
_cell_length_b 9.481206
_cell_length_c 19.553581
_cell_angle_alpha 140.552064
_cell_angle_beta 119.575488
_cell_angle_gamma 50.399621
_cell_volume 456.809864
_symmetry_space_group_name_H-M "P -1"
_symmetry_group_IT_number 2
_symmetry_cell_setting 'triclinic'
loop_
_space_group_symop_operation_xyz
x,y,z
-x,-y,-z
loop_
_atom_site_type_symbol
_atom_site_label
_atom_site_fract_x
_atom_site_fract_y
_atom_site_fract_z
Si Si1 0.938253 0.865438 0.806429
Si Si2 0.850047 0.303149 0.745965
Si Si3 0.715265 0.394853 0.917925
Si Si4 0.327073 0.189956 0.111121
Si Si5 0.250069 0.427730 0.612175
Si Si6 0.810091 0.264513 0.414306
O O1 0.785780 0.933200 0.888614
O O2 0.343855 0.772424 0.816854
O O3 0.933535 0.608120 0.689974
O O4 0.803206 0.106696 0.833530
O O5 0.654928 0.407402 0.832909
O O6 0.960525 0.523618 0.829426
O O7 0.603511 0.299030 0.651609
O O8 0.149665 0.016582 0.685560
O O9 0.500000 0.500000 0.000000
O O10 0.000000 0.500000 0.000000
O O11 0.500000 0.000000 0.000000
O O12 0.205929 0.629552 0.623507
O O13 0.149594 0.241043 0.488392
O O14 0.500000 0.500000 0.500000
#
# Coordination Sequence:
#
# PCOD9051729 Si02
#       6
#     2   2   2   2   2   2
#     4  11  23  44  70 100 155 191 245 316 380 449
#     4  11  25  48  78 113 153 205 260 315 390 470
#     4  12  26  46  74 115 154 205 260 318 386 464
#     4  11  24  44  72 108 148 198 253 311 376 454
#     4  10  25  47  73 111 150 197 256 321 394 462
#     4  11  25  49  77 109 154 197 257 330 393 462
#
# _framework density 26.269138000000002
#
# number of rings (size 3 to 8) (size 9 to 14) (size 15 to 20)
#    0.000    1.000    1.667    4.000    4.667    6.000 
#   12.000    0.000    0.000    0.000    0.000    0.000 
#    0.000    0.000    0.000    0.000    0.000    0.000 
#
# Total GULP energy -66861.405637 kJ/mol
# GULP energy per Si atom -5571.783803 kJ/mol
# Density = 2.620935 g / cm^3
# Si number density = 26.269138 Si / 1000 Ang^3
#
#
#
# Elastic Constant Matrix: (Units=GPa)
#
#
# Indices 1 2 3 4 5 6 
#
# 1 89.1184 4.3658 6.3407 -19.4380 -6.1021 12.3037
# 2 4.3658 132.8907 47.1410 -4.3086 2.1879 16.7459
# 3 6.3407 47.1410 127.5321 1.4013 -4.0823 -1.2393
# 4 -19.4380 -4.3086 1.4013 53.9489 10.5046 -7.5686
# 5 -6.1021 2.1879 -4.0823 10.5046 37.0098 -2.0503
# 6 12.3037 16.7459 -1.2393 -7.5686 -2.0503 30.7034
#
#
#
# Elastic Compliance Matrix: (Units=1/GPa)
#
#
# Indices 1 2 3 4 5 6 
#
# 1 0.012773 0.000587 -0.000919 0.003928 0.000608 -0.004467
# 2 0.000587 0.009542 -0.003659 0.000551 -0.001334 -0.005540
# 3 -0.000919 -0.003659 0.009320 -0.000779 0.001460 0.002646
# 4 0.003928 0.000551 -0.000779 0.021493 -0.005403 0.003031
# 5 0.000608 -0.001334 0.001460 -0.005403 0.028957 0.001145
# 6 -0.004467 -0.005540 0.002646 0.003031 0.001145 0.038312
#
#
# Mechanical properties :
#
#
# Convention : Reuss Voigt Hill
#
# Bulk Modulus (GPa) = 42.27928 51.69292 46.98610
# Shear Modulus (GPa) = 36.69391 43.77866 40.23629
#
# Velocity S-wave (km/s) = 3.74149 4.08676 3.91793
# Velocity P-wave (km/s) = 5.89870 6.47995 6.19614
#
# Compressibility (1/GPa) = 0.02365224
#
# Stress axis : x y z
#
# Youngs Moduli (GPa) = 78.29231 104.80501 107.29304
#
# Poissons Ratio (x) = -0.06148 0.09860
# Poissons Ratio (y) = -0.04592 0.39255
# Poissons Ratio (z) = 0.07195 0.38345
#
# Static dielectric constant tensor:
#      x y z
#    x 2.148040 -0.116700 -0.058540 
#    y -0.116700 2.343790 0.542470 
#    z -0.058540 0.542470 4.748460 
# 
# From -- ./inp_files/581443.got.cif
#   From: 2010.05.17/outbox.cif.g08.bks.cpg/sg2_291_cif.got.tgz:581443.got - 2010.06.03 11:33:40.
