data_PCOD9051513
_publ_section_title
;
Structure prediction by ZEFSAII (Michael W. Deem and Ramdas Pophale) SiO2 
 PCOD9051513
Probable space group: P -1
;
_chemical_formula_sum "Si O2"
_cell_formula_units_Z 10
_cell_length_a 8.821677
_cell_length_b 14.622210
_cell_length_c 7.800027
_cell_angle_alpha 121.843777
_cell_angle_beta 77.700124
_cell_angle_gamma 146.101782
_cell_volume 419.557019
_symmetry_space_group_name_H-M "P -1"
_symmetry_group_IT_number 2
_symmetry_cell_setting 'triclinic'
loop_
_space_group_symop_operation_xyz
x,y,z
-x,-y,-z
loop_
_atom_site_type_symbol
_atom_site_label
_atom_site_fract_x
_atom_site_fract_y
_atom_site_fract_z
Si Si1 0.770442 0.949719 0.429861
Si Si2 0.883832 0.643903 0.416073
Si Si3 0.865874 0.193486 0.091876
Si Si4 0.883762 0.438670 0.663577
Si Si5 0.219942 0.198832 0.018318
O O1 0.480600 0.793637 0.466618
O O2 0.655440 0.815576 0.157415
O O3 0.000000 0.000000 0.500000
O O4 0.942532 0.161422 0.542469
O O5 0.516462 0.428987 0.266353
O O6 0.001806 0.728256 0.667114
O O7 0.975634 0.576458 0.282968
O O8 0.013882 0.380078 0.133693
O O9 0.002196 0.162761 0.958808
O O10 0.500000 0.000000 0.000000
O O11 0.000000 0.500000 0.500000
O O12 0.000000 0.000000 0.000000
#
# Coordination Sequence:
#
# PCOD9051513 Si02
#       5
#     2   2   2   2   2
#     4  12  28  46  76 111 148 194 251 302 366 435
#     4  11  25  48  76 106 152 191 246 303 366 435
#     4  11  24  45  78 108 145 197 244 296 374 440
#     4  10  25  46  73 104 149 192 240 299 364 431
#     4  12  26  46  77 108 152 193 245 306 369 433
#
# _framework density 23.834662000000002
#
# number of rings (size 3 to 8) (size 9 to 14) (size 15 to 20)
#    0.000    0.800    2.000    3.600   11.200    4.000 
#    0.000    0.000    0.000    0.000    0.000    0.000 
#    0.000    0.000    0.000    0.000    0.000    0.000 
#
# Total GULP energy -55950.974549 kJ/mol
# GULP energy per Si atom -5595.097455 kJ/mol
# Density = 2.378041 g / cm^3
# Si number density = 23.834662 Si / 1000 Ang^3
#
#
#
# Elastic Constant Matrix: (Units=GPa)
#
#
# Indices 1 2 3 4 5 6 
#
# 1 226.8357 83.8757 46.7908 46.8223 -11.2407 -16.0364
# 2 83.8757 168.2421 65.1239 44.6212 4.2058 -4.7892
# 3 46.7908 65.1239 114.1905 36.2427 16.3716 0.6786
# 4 46.8223 44.6212 36.2427 48.1880 5.3549 -2.8173
# 5 -11.2407 4.2058 16.3716 5.3549 48.7306 20.0477
# 6 -16.0364 -4.7892 0.6786 -2.8173 20.0477 50.4502
#
#
#
# Elastic Compliance Matrix: (Units=1/GPa)
#
#
# Indices 1 2 3 4 5 6 
#
# 1 0.006182 -0.001838 -0.000445 -0.004127 0.001845 0.000833
# 2 -0.001838 0.009253 -0.003163 -0.004446 0.000349 -0.000050
# 3 -0.000445 -0.003163 0.013237 -0.006136 -0.003833 0.000561
# 4 -0.004127 -0.004446 -0.006136 0.033882 -0.002784 0.001347
# 5 0.001845 0.000349 -0.003833 -0.002784 0.026656 -0.010077
# 6 0.000833 -0.000050 0.000561 0.001347 -0.010077 0.024153
#
#
# Mechanical properties :
#
#
# Convention : Reuss Voigt Hill
#
# Bulk Modulus (GPa) = 56.23804 100.09432 78.16618
# Shear Modulus (GPa) = 38.40811 50.37230 44.39020
#
# Velocity S-wave (km/s) = 4.01863 4.60217 4.32026
# Velocity P-wave (km/s) = 6.72152 8.38608 7.59951
#
# Compressibility (1/GPa) = 0.01778156
#
# Stress axis : x y z
#
# Youngs Moduli (GPa) = 161.76362 108.07068 75.54489
#
# Poissons Ratio (x) = 0.19860 0.03359
# Poissons Ratio (y) = 0.29727 0.23895
# Poissons Ratio (z) = 0.07193 0.34183
#
# Static dielectric constant tensor:
#      x y z
#    x 1.881640 0.030670 -0.095230 
#    y 0.030670 1.868820 -0.112330 
#    z -0.095230 -0.112330 2.018600 
# 
# From -- ./inp_files/17897.got.cif
#   From: 2010.05.17/outbox.cif.g08.bks.cpg/sg2_9_cif.got.tgz:17897.got - 2010.06.03 11:33:40.
