data_PCOD9051396
_publ_section_title
;
Structure prediction by ZEFSAII (Michael W. Deem and Ramdas Pophale) SiO2 
 PCOD9051396
Probable space group: P -1
;
_chemical_formula_sum "Si O2"
_cell_formula_units_Z 16
_cell_length_a 11.935437
_cell_length_b 9.277757
_cell_length_c 8.971353
_cell_angle_alpha 91.393888
_cell_angle_beta 103.059989
_cell_angle_gamma 52.778054
_cell_volume 762.480560
_symmetry_space_group_name_H-M "P -1"
_symmetry_group_IT_number 2
_symmetry_cell_setting 'triclinic'
loop_
_space_group_symop_operation_xyz
x,y,z
-x,-y,-z
loop_
_atom_site_type_symbol
_atom_site_label
_atom_site_fract_x
_atom_site_fract_y
_atom_site_fract_z
Si Si1 0.451471 0.951529 0.331750
Si Si2 0.857936 0.757932 0.634439
Si Si3 0.921537 0.158323 0.859306
Si Si4 0.985605 0.601148 0.148179
Si Si5 0.713632 0.894130 0.268590
Si Si6 0.939679 0.121423 0.338805
Si Si7 0.364188 0.722674 0.821142
Si Si8 0.599647 0.317002 0.810557
O O1 0.558260 0.932380 0.236718
O O2 0.463904 0.768789 0.304726
O O3 0.500000 0.000000 0.500000
O O4 0.277322 0.113012 0.288920
O O5 0.937029 0.550660 0.702102
O O6 0.796900 0.800637 0.448327
O O7 0.967965 0.809015 0.674589
O O8 0.927800 0.322960 0.872841
O O9 0.758825 0.228376 0.792323
O O10 0.028969 0.039216 0.757460
O O11 0.000000 0.000000 0.000000
O O12 0.822880 0.763459 0.164796
O O13 0.000000 0.500000 0.000000
O O14 0.671258 0.094551 0.251726
O O15 0.769444 0.279234 0.266277
O O16 0.000000 0.000000 0.500000
O O17 0.503702 0.535795 0.789080
O O18 0.381227 0.728303 0.005920
#
# Coordination Sequence:
#
# PCOD9051396 Si02
#       8
#     2   2   2   2   2   2   2   2
#     4  10  25  46  69  98 144 191 230 295 363 424
#     4  11  24  45  69 102 143 187 235 298 360 425
#     4  12  23  46  72 100 141 183 239 294 348 424
#     4  12  27  41  71 107 138 185 237 296 362 427
#     4  11  24  48  66  99 146 186 238 293 363 429
#     4  12  22  43  73 101 138 186 236 293 356 418
#     4  11  25  43  72 107 141 189 241 292 367 424
#     4  11  25  44  72 105 144 186 240 300 355 433
#
# _framework density 20.984141999999999
#
# number of rings (size 3 to 8) (size 9 to 14) (size 15 to 20)
#    0.000    0.750    5.000    1.125    5.250    1.500 
#    2.250    3.125    0.000    0.000    0.000    0.000 
#    0.000    0.000    0.000    0.000    0.000    0.000 
#
# Total GULP energy -89166.080933 kJ/mol
# GULP energy per Si atom -5572.880058 kJ/mol
# Density = 2.093638 g / cm^3
# Si number density = 20.984142 Si / 1000 Ang^3
#
#
#
# Elastic Constant Matrix: (Units=GPa)
#
#
# Indices 1 2 3 4 5 6 
#
# 1 140.5207 42.1679 -3.8472 -12.4418 -0.3729 11.9787
# 2 42.1679 110.8565 24.0577 -22.1938 -11.3396 6.4165
# 3 -3.8472 24.0577 68.9557 -14.4896 -6.2833 14.9466
# 4 -12.4418 -22.1938 -14.4896 24.2661 -2.7173 -2.4178
# 5 -0.3729 -11.3396 -6.2833 -2.7173 16.9344 2.3496
# 6 11.9787 6.4165 14.9466 -2.4178 2.3496 47.4719
#
#
#
# Elastic Compliance Matrix: (Units=1/GPa)
#
#
# Indices 1 2 3 4 5 6 
#
# 1 0.008599 -0.003150 0.002704 0.002886 -0.000115 -0.002443
# 2 -0.003150 0.013941 -0.001581 0.011321 0.010571 -0.000538
# 3 0.002704 -0.001581 0.020081 0.012318 0.009348 -0.006627
# 4 0.002886 0.011321 0.012318 0.062548 0.022818 -0.004081
# 5 -0.000115 0.010571 0.009348 0.022818 0.074208 -0.006854
# 6 -0.002443 -0.000538 -0.006627 -0.004081 -0.006854 0.023972
#
#
# Mechanical properties :
#
#
# Convention : Reuss Voigt Hill
#
# Bulk Modulus (GPa) = 25.92827 49.45440 37.69133
# Shear Modulus (GPa) = 22.70056 34.93144 28.81600
#
# Velocity S-wave (km/s) = 3.29263 4.08445 3.70973
# Velocity P-wave (km/s) = 5.18056 6.77217 6.02912
#
# Compressibility (1/GPa) = 0.03856795
#
# Stress axis : x y z
#
# Youngs Moduli (GPa) = 116.28818 71.73021 49.79836
#
# Poissons Ratio (x) = 0.22598 -0.13468
# Poissons Ratio (y) = 0.36636 0.07872
# Poissons Ratio (z) = -0.31450 0.11339
#
# Static dielectric constant tensor:
#      x y z
#    x 1.728210 -0.004880 0.020730 
#    y -0.004880 1.679260 0.055490 
#    z 0.020730 0.055490 1.800900 
# 
# From -- ./inp_files/244106.got.cif
#   From: 2010.05.17/outbox.cif.g08.bks.cpg/sg2_123_cif.got.tgz:244106.got - 2010.06.03 11:33:40.
