data_PCOD9051847
_publ_section_title
;
Structure prediction by ZEFSAII (Michael W. Deem and Ramdas Pophale) SiO2 
 PCOD9051847
Probable space group: P -1
;
_chemical_formula_sum "Si O2"
_cell_formula_units_Z 14
_cell_length_a 14.692691
_cell_length_b 12.682591
_cell_length_c 9.536893
_cell_angle_alpha 122.625143
_cell_angle_beta 40.030194
_cell_angle_gamma 149.541719
_cell_volume 538.107301
_symmetry_space_group_name_H-M "P -1"
_symmetry_group_IT_number 2
_symmetry_cell_setting 'triclinic'
loop_
_space_group_symop_operation_xyz
x,y,z
-x,-y,-z
loop_
_atom_site_type_symbol
_atom_site_label
_atom_site_fract_x
_atom_site_fract_y
_atom_site_fract_z
Si Si1 0.918684 0.123858 0.037210
Si Si2 0.727624 0.720678 0.484468
Si Si3 0.219673 0.906909 0.543002
Si Si4 0.351459 0.730714 0.353825
Si Si5 0.761328 0.265990 0.035624
Si Si6 0.360582 0.637661 0.972041
Si Si7 0.073918 0.321347 0.558115
O O1 0.856446 0.046921 0.217622
O O2 0.646050 0.978575 0.210505
O O3 0.028393 0.107609 0.782306
O O4 0.142634 0.389340 0.984303
O O5 0.500000 0.500000 0.500000
O O6 0.624471 0.775731 0.703962
O O7 0.765938 0.662839 0.535240
O O8 0.202209 0.750214 0.511978
O O9 0.050496 0.803377 0.532241
O O10 0.512265 0.120983 0.308324
O O11 0.237969 0.564987 0.495375
O O12 0.352179 0.644389 0.152768
O O13 0.702452 0.275384 0.957024
O O14 0.000000 0.500000 0.000000
O O15 0.855150 0.196880 0.838745
#
# Coordination Sequence:
#
# PCOD9051847 Si02
#       7
#     2   2   2   2   2   2   2
#     4  11  24  45  68 101 142 183 228 288 342 413
#     4  10  25  48  71  99 142 186 235 287 344 419
#     4  12  24  44  70 110 143 174 238 292 343 417
#     4  12  24  43  74 105 141 183 230 292 352 405
#     4  12  24  42  73 104 138 186 232 286 353 412
#     4  11  24  47  69 101 145 181 233 293 343 413
#     4  12  24  44  73 102 139 187 231 285 353 412
#
# _framework density 26.017115
#
# number of rings (size 3 to 8) (size 9 to 14) (size 15 to 20)
#    0.000    0.571    2.857    6.429    2.000    1.143 
#    0.000    3.571    0.000    0.000    0.000    0.000 
#    0.000    0.000    0.000    0.000    0.000    0.000 
#
# Total GULP energy -78373.192082 kJ/mol
# GULP energy per Si atom -5598.085149 kJ/mol
# Density = 2.595790 g / cm^3
# Si number density = 26.017115 Si / 1000 Ang^3
#
#
#
# Elastic Constant Matrix: (Units=GPa)
#
#
# Indices 1 2 3 4 5 6 
#
# 1 153.8414 49.4098 42.0164 0.1907 -4.8872 23.9839
# 2 49.4098 88.8308 32.6246 5.6827 2.6969 26.4832
# 3 42.0164 32.6246 173.2780 10.5988 4.4534 8.5654
# 4 0.1907 5.6827 10.5988 45.0518 -3.1141 2.0562
# 5 -4.8872 2.6969 4.4534 -3.1141 38.7483 -0.6280
# 6 23.9839 26.4832 8.5654 2.0562 -0.6280 40.8868
#
#
#
# Elastic Compliance Matrix: (Units=1/GPa)
#
#
# Indices 1 2 3 4 5 6 
#
# 1 0.008440 -0.003602 -0.001348 0.000948 0.001508 -0.002360
# 2 -0.003602 0.016450 -0.001693 -0.001404 -0.001649 -0.008142
# 3 -0.001348 -0.001693 0.006497 -0.001398 -0.000902 0.000583
# 4 0.000948 -0.001404 -0.001398 0.022873 0.002209 -0.000470
# 5 0.001508 -0.001649 -0.000902 0.002209 0.026405 0.000667
# 6 -0.002360 -0.008142 0.000583 -0.000470 0.000667 0.031027
#
#
# Mechanical properties :
#
#
# Convention : Reuss Voigt Hill
#
# Bulk Modulus (GPa) = 55.25029 73.78353 64.51691
# Shear Modulus (GPa) = 38.16445 44.39733 41.28089
#
# Velocity S-wave (km/s) = 3.83417 4.13542 3.98764
# Velocity P-wave (km/s) = 6.39401 7.15706 6.78626
#
# Compressibility (1/GPa) = 0.01809945
#
# Stress axis : x y z
#
# Youngs Moduli (GPa) = 118.48312 60.78998 153.92523
#
# Poissons Ratio (x) = 0.21898 0.20755
# Poissons Ratio (y) = 0.42681 0.26059
# Poissons Ratio (z) = 0.15976 0.10292
#
# Static dielectric constant tensor:
#      x y z
#    x 2.031700 -0.031990 0.069000 
#    y -0.031990 2.115780 -0.065700 
#    z 0.069000 -0.065700 2.072110 
# 
# From -- ./inp_files/242376.got.cif
#   From: 2010.05.17/outbox.cif.g08.bks.cpg/sg2_122_cif.got.tgz:242376.got - 2010.06.03 11:33:40.
