data_PCOD9051823
_publ_section_title
;
Structure prediction by ZEFSAII (Michael W. Deem and Ramdas Pophale) SiO2 
 PCOD9051823
Probable space group: P -1
;
_chemical_formula_sum "Si O2"
_cell_formula_units_Z 16
_cell_length_a 18.877768
_cell_length_b 15.104038
_cell_length_c 5.392742
_cell_angle_alpha 69.707029
_cell_angle_beta 77.639159
_cell_angle_gamma 27.944771
_cell_volume 660.768430
_symmetry_space_group_name_H-M "P -1"
_symmetry_group_IT_number 2
_symmetry_cell_setting 'triclinic'
loop_
_space_group_symop_operation_xyz
x,y,z
-x,-y,-z
loop_
_atom_site_type_symbol
_atom_site_label
_atom_site_fract_x
_atom_site_fract_y
_atom_site_fract_z
Si Si1 0.768044 0.704711 0.580099
Si Si2 0.047523 0.838950 0.703053
Si Si3 0.092020 0.085855 0.758980
Si Si4 0.612047 0.129021 0.827343
Si Si5 0.596068 0.325469 0.337829
Si Si6 0.084672 0.292458 0.819937
Si Si7 0.391308 0.482294 0.953326
Si Si8 0.520770 0.892793 0.292434
O O1 0.851203 0.683656 0.360430
O O2 0.682532 0.721396 0.475637
O O3 0.908890 0.505394 0.835764
O O4 0.625837 0.921007 0.602453
O O5 0.225520 0.633226 0.859330
O O6 0.009185 0.822945 0.498756
O O7 0.000000 0.000000 0.500000
O O8 0.959644 0.904653 0.953800
O O9 0.087756 0.202795 0.706946
O O10 0.263452 0.851674 0.791208
O O11 0.636308 0.204124 0.630600
O O12 0.523185 0.252342 0.030013
O O13 0.496930 0.190703 0.718235
O O14 0.779980 0.890458 0.918450
O O15 0.595411 0.435849 0.295588
O O16 0.434871 0.475237 0.194120
O O17 0.500000 0.000000 0.000000
#
# Coordination Sequence:
#
# PCOD9051823 Si02
#       8
#     2   2   2   2   2   2   2   2
#     4  10  25  48  70 100 145 180 240 299 374 439
#     4  12  28  47  73 105 154 196 245 305 372 435
#     4  12  26  48  73 109 145 197 247 304 364 444
#     4  12  25  44  75 107 145 188 250 301 369 440
#     4  11  25  47  73 103 148 195 244 303 361 439
#     4  11  24  47  73 106 137 189 242 302 362 441
#     4  11  27  44  73 105 146 196 246 298 370 433
#     4  11  24  45  72 102 140 184 233 302 371 438
#
# _framework density 24.214234000000001
#
# number of rings (size 3 to 8) (size 9 to 14) (size 15 to 20)
#    0.000    0.750    3.750    2.250    3.500    2.500 
#    2.250    0.000    0.000    0.000    0.000    0.000 
#    0.000    0.000    0.000    0.000    0.000    0.000 
#
# Total GULP energy -89405.048300 kJ/mol
# GULP energy per Si atom -5587.815519 kJ/mol
# Density = 2.415912 g / cm^3
# Si number density = 24.214234 Si / 1000 Ang^3
#
#
#
# Elastic Constant Matrix: (Units=GPa)
#
#
# Indices 1 2 3 4 5 6 
#
# 1 128.9761 40.5186 11.5908 7.1527 35.5459 -12.9889
# 2 40.5186 86.1524 26.3140 -17.0741 1.1053 -20.3217
# 3 11.5908 26.3140 58.0912 -0.1778 14.9494 -25.2629
# 4 7.1527 -17.0741 -0.1778 36.5550 2.7375 10.7239
# 5 35.5459 1.1053 14.9494 2.7375 29.9019 -9.5634
# 6 -12.9889 -20.3217 -25.2629 10.7239 -9.5634 34.9289
#
#
#
# Elastic Compliance Matrix: (Units=1/GPa)
#
#
# Indices 1 2 3 4 5 6 
#
# 1 0.017921 -0.011893 0.008791 -0.007799 -0.023922 0.001948
# 2 -0.011893 0.023383 -0.012118 0.011116 0.019021 0.002212
# 3 0.008791 -0.012118 0.034359 -0.011299 -0.020053 0.019048
# 4 -0.007799 0.011116 -0.011299 0.037774 0.006432 -0.014441
# 5 -0.023922 0.019021 -0.020053 0.006432 0.072376 0.005508
# 6 0.001948 0.002212 0.019048 -0.014441 0.005508 0.050360
#
#
# Mechanical properties :
#
#
# Convention : Reuss Voigt Hill
#
# Bulk Modulus (GPa) = 22.11260 47.78519 34.94889
# Shear Modulus (GPa) = 17.75023 33.26358 25.50690
#
# Velocity S-wave (km/s) = 2.71043 3.71039 3.24911
# Velocity P-wave (km/s) = 4.35283 6.17521 5.34230
#
# Compressibility (1/GPa) = 0.04522309
#
# Stress axis : x y z
#
# Youngs Moduli (GPa) = 55.79992 42.76654 29.10440
#
# Poissons Ratio (x) = 0.50861 -0.25585
# Poissons Ratio (y) = 0.66362 0.35268
# Poissons Ratio (z) = -0.49052 0.51824
#
# Static dielectric constant tensor:
#      x y z
#    x 1.927730 0.032310 0.005900 
#    y 0.032310 2.030290 0.014230 
#    z 0.005900 0.014230 2.037630 
# 
# From -- ./inp_files/110730.got.cif
#   From: 2010.05.17/outbox.cif.g08.bks.cpg/sg2_56_cif.got.tgz:110730.got - 2010.06.03 11:33:40.
