data_PCOD9051387
_publ_section_title
;
Structure prediction by ZEFSAII (Michael W. Deem and Ramdas Pophale) SiO2 
 PCOD9051387
Probable space group: P -1
;
_chemical_formula_sum "Si O2"
_cell_formula_units_Z 16
_cell_length_a 11.315230
_cell_length_b 14.915498
_cell_length_c 8.545770
_cell_angle_alpha 65.080803
_cell_angle_beta 110.710740
_cell_angle_gamma 147.614385
_cell_volume 700.585950
_symmetry_space_group_name_H-M "P -1"
_symmetry_group_IT_number 2
_symmetry_cell_setting 'triclinic'
loop_
_space_group_symop_operation_xyz
x,y,z
-x,-y,-z
loop_
_atom_site_type_symbol
_atom_site_label
_atom_site_fract_x
_atom_site_fract_y
_atom_site_fract_z
Si Si1 0.327854 0.543895 0.352799
Si Si2 0.821433 0.147427 0.969031
Si Si3 0.322071 0.746365 0.029592
Si Si4 0.188945 0.396648 0.738725
Si Si5 0.901536 0.782789 0.696914
Si Si6 0.270713 0.229068 0.817506
Si Si7 0.557793 0.292308 0.154922
Si Si8 0.180663 0.063868 0.352447
O O1 0.285612 0.626334 0.206813
O O2 0.240954 0.477479 0.535996
O O3 0.587233 0.689341 0.335750
O O4 0.216917 0.386365 0.312599
O O5 0.974553 0.174575 0.122645
O O6 0.576391 0.946311 0.005647
O O7 0.815341 0.249589 0.976275
O O8 0.931438 0.225614 0.792407
O O9 0.294163 0.691958 0.878173
O O10 0.281167 0.345103 0.807625
O O11 0.298540 0.530680 0.828506
O O12 0.757470 0.785111 0.677951
O O13 0.078316 0.938595 0.540745
O O14 0.394100 0.236056 0.990207
O O15 0.018194 0.050900 0.781410
O O16 0.391579 0.146822 0.316096
#
# Coordination Sequence:
#
# PCOD9051387 Si02
#       8
#     2   2   2   2   2   2   2   2
#     4  11  24  41  64  98 132 167 206 263 314 372
#     4  11  24  47  68  91 121 169 216 262 317 377
#     4  10  25  46  69  89 124 166 214 266 319 370
#     4  12  24  38  66  96 132 164 212 259 314 376
#     4  11  23  39  65  94 132 170 205 257 316 377
#     4  11  21  40  61  93 135 171 203 256 313 379
#     4  11  23  38  64  96 128 166 214 257 313 373
#     4  11  23  37  66  99 132 168 209 257 313 379
#
# _framework density 22.838025999999999
#
# number of rings (size 3 to 8) (size 9 to 14) (size 15 to 20)
#    0.000    1.000    1.250    6.375    5.250    2.500 
#    0.000    0.625    0.000    0.000    0.000    0.000 
#    0.000    0.000    0.000    0.000    0.000    0.000 
#
# Total GULP energy -89571.724234 kJ/mol
# GULP energy per Si atom -5598.232765 kJ/mol
# Density = 2.278605 g / cm^3
# Si number density = 22.838026 Si / 1000 Ang^3
#
#
#
# Elastic Constant Matrix: (Units=GPa)
#
#
# Indices 1 2 3 4 5 6 
#
# 1 109.5241 12.1644 32.7664 -20.7813 -16.8137 -29.7403
# 2 12.1644 82.9694 16.2167 -1.2020 2.7566 -17.8859
# 3 32.7664 16.2167 84.2145 -18.4174 -28.7786 0.0644
# 4 -20.7813 -1.2020 -18.4174 33.4418 -3.9469 -6.6645
# 5 -16.8137 2.7566 -28.7786 -3.9469 25.9289 -7.0427
# 6 -29.7403 -17.8859 0.0644 -6.6645 -7.0427 41.9768
#
#
#
# Elastic Compliance Matrix: (Units=1/GPa)
#
#
# Indices 1 2 3 4 5 6 
#
# 1 0.030502 -0.000733 0.015341 0.040952 0.053081 0.036682
# 2 -0.000733 0.014367 -0.006114 -0.003564 -0.008340 0.003646
# 3 0.015341 -0.006114 0.041321 0.045892 0.070882 0.027379
# 4 0.040952 -0.003564 0.045892 0.106151 0.111119 0.062922
# 5 0.053081 -0.008340 0.070882 0.111119 0.192233 0.083839
# 6 0.036682 0.003646 0.027379 0.062922 0.083839 0.075380
#
#
# Mechanical properties :
#
#
# Convention : Reuss Voigt Hill
#
# Bulk Modulus (GPa) = 9.69203 44.33367 27.01285
# Shear Modulus (GPa) = 10.47433 34.64021 22.55727
#
# Velocity S-wave (km/s) = 2.14390 3.89881 3.14619
# Velocity P-wave (km/s) = 3.22202 6.30254 5.00517
#
# Compressibility (1/GPa) = 0.10317760
#
# Stress axis : x y z
#
# Youngs Moduli (GPa) = 32.78459 69.60612 24.20087
#
# Poissons Ratio (x) = 0.05103 -0.37126
# Poissons Ratio (y) = 0.02403 0.14795
# Poissons Ratio (z) = -0.50294 0.42554
#
# Static dielectric constant tensor:
#      x y z
#    x 1.814140 -0.000500 -0.039420 
#    y -0.000500 1.899450 -0.018420 
#    z -0.039420 -0.018420 1.877330 
# 
# From -- ./inp_files/272563.got.cif
#   From: 2010.05.17/outbox.cif.g08.bks.cpg/sg2_137_cif.got.tgz:272563.got - 2010.06.03 11:33:40.
