data_PCOD9051855
_publ_section_title
;
Structure prediction by ZEFSAII (Michael W. Deem and Ramdas Pophale) SiO2 
 PCOD9051855
Probable space group: P -1
;
_chemical_formula_sum "Si O2"
_cell_formula_units_Z 14
_cell_length_a 17.746076
_cell_length_b 7.651962
_cell_length_c 12.970676
_cell_angle_alpha 103.499464
_cell_angle_beta 150.988024
_cell_angle_gamma 60.414189
_cell_volume 655.584650
_symmetry_space_group_name_H-M "P -1"
_symmetry_group_IT_number 2
_symmetry_cell_setting 'triclinic'
loop_
_space_group_symop_operation_xyz
x,y,z
-x,-y,-z
loop_
_atom_site_type_symbol
_atom_site_label
_atom_site_fract_x
_atom_site_fract_y
_atom_site_fract_z
Si Si1 0.219795 0.817615 0.278250
Si Si2 0.939433 0.056043 0.673287
Si Si3 0.028465 0.264487 0.488293
Si Si4 0.561426 0.041286 0.966449
Si Si5 0.589133 0.704283 0.584304
Si Si6 0.303218 0.554649 0.730317
Si Si7 0.330238 0.030828 0.146401
O O1 0.190306 0.873672 0.370612
O O2 0.386067 0.818030 0.421394
O O3 0.290153 0.564160 0.309828
O O4 0.000000 0.000000 0.000000
O O5 0.803104 0.271153 0.465109
O O6 0.971092 0.833910 0.634349
O O7 0.146433 0.020109 0.924855
O O8 0.219590 0.057825 0.749438
O O9 0.000000 0.500000 0.500000
O O10 0.840426 0.327834 0.330172
O O11 0.500000 0.000000 0.000000
O O12 0.376798 0.301984 0.759685
O O13 0.614641 0.937938 0.898630
O O14 0.515973 0.806315 0.395888
O O15 0.708388 0.774368 0.796250
O O16 0.500000 0.500000 0.000000
#
# Coordination Sequence:
#
# PCOD9051855 Si02
#       7
#     2   2   2   2   2   2   2
#     4  11  24  47  72 106 139 181 238 292 355 417
#     4  12  25  45  72 103 141 191 233 295 356 416
#     4  12  26  45  66 103 143 182 241 287 347 435
#     4  12  25  44  68 104 139 185 234 288 358 420
#     4  10  25  48  72 104 141 184 237 292 352 416
#     4  12  24  43  70  96 143 186 230 290 346 424
#     4  11  24  47  73 102 142 186 238 293 347 423
#
# _framework density 21.354984000000002
#
# number of rings (size 3 to 8) (size 9 to 14) (size 15 to 20)
#    0.000    0.571    5.714    2.143    2.000    1.714 
#    2.571    0.000    0.000    0.000    0.000    0.000 
#    0.000    0.000    0.000    0.000    0.000    0.000 
#
# Total GULP energy -78004.834782 kJ/mol
# GULP energy per Si atom -5571.773913 kJ/mol
# Density = 2.130638 g / cm^3
# Si number density = 21.354984 Si / 1000 Ang^3
#
#
#
# Elastic Constant Matrix: (Units=GPa)
#
#
# Indices 1 2 3 4 5 6 
#
# 1 118.7169 45.5804 30.5361 6.3490 -3.3849 -19.1997
# 2 45.5804 105.7863 59.6617 -1.4277 -6.9475 -8.9976
# 3 30.5361 59.6617 93.1600 7.6669 10.0972 -3.1023
# 4 6.3490 -1.4277 7.6669 34.6904 -8.9797 -0.7433
# 5 -3.3849 -6.9475 10.0972 -8.9797 31.5435 -8.7948
# 6 -19.1997 -8.9976 -3.1023 -0.7433 -8.7948 31.9974
#
#
#
# Elastic Compliance Matrix: (Units=1/GPa)
#
#
# Indices 1 2 3 4 5 6 
#
# 1 0.011229 -0.003293 -0.001534 -0.001091 0.002417 0.006302
# 2 -0.003293 0.019767 -0.013318 0.007599 0.012037 0.005777
# 3 -0.001534 -0.013318 0.021859 -0.009007 -0.014542 -0.006752
# 4 -0.001091 0.007599 -0.009007 0.035659 0.016236 0.005900
# 5 0.002417 0.012037 -0.014542 0.016236 0.048681 0.017183
# 6 0.006302 0.005777 -0.006752 0.005900 0.017183 0.040864
#
#
# Mechanical properties :
#
#
# Convention : Reuss Voigt Hill
#
# Bulk Modulus (GPa) = 60.36796 65.46885 62.91840
# Shear Modulus (GPa) = 22.74081 31.77191 27.25636
#
# Velocity S-wave (km/s) = 3.26681 3.86138 3.57647
# Velocity P-wave (km/s) = 6.52377 7.11367 6.82510
#
# Compressibility (1/GPa) = 0.01656508
#
# Stress axis : x y z
#
# Youngs Moduli (GPa) = 89.05706 50.58867 45.74864
#
# Poissons Ratio (x) = 0.16658 0.07018
# Poissons Ratio (y) = 0.29325 0.60927
# Poissons Ratio (z) = 0.13662 0.67373
#
# Static dielectric constant tensor:
#      x y z
#    x 1.983480 0.037390 -0.095370 
#    y 0.037390 1.833050 0.064300 
#    z -0.095370 0.064300 1.781800 
# 
# From -- ./inp_files/445587.got.cif
#   From: 2010.05.17/outbox.cif.g08.bks.cpg/sg2_223_cif.got.tgz:445587.got - 2010.06.03 11:33:40.
