data_PCOD9051243
_publ_section_title
;
Structure prediction by ZEFSAII (Michael W. Deem and Ramdas Pophale) SiO2 
 PCOD9051243
Probable space group: P -1
;
_chemical_formula_sum "Si O2"
_cell_formula_units_Z 12
_cell_length_a 6.904785
_cell_length_b 11.884739
_cell_length_c 21.978908
_cell_angle_alpha 31.624616
_cell_angle_beta 37.611285
_cell_angle_gamma 32.758950
_cell_volume 492.993797
_symmetry_space_group_name_H-M "P -1"
_symmetry_group_IT_number 2
_symmetry_cell_setting 'triclinic'
loop_
_space_group_symop_operation_xyz
x,y,z
-x,-y,-z
loop_
_atom_site_type_symbol
_atom_site_label
_atom_site_fract_x
_atom_site_fract_y
_atom_site_fract_z
Si Si1 0.662324 0.334720 0.476509
Si Si2 0.529419 0.619532 0.263964
Si Si3 0.291190 0.186109 0.307694
Si Si4 0.432125 0.126804 0.107619
Si Si5 0.782220 0.221815 0.082884
Si Si6 0.657963 0.613620 0.107663
O O1 0.500000 0.500000 0.500000
O O2 0.431640 0.488517 0.402733
O O3 0.088468 0.260703 0.389394
O O4 0.670383 0.076408 0.597414
O O5 0.970328 0.413738 0.243372
O O6 0.471742 0.874853 0.187807
O O7 0.402554 0.638464 0.217092
O O8 0.660432 0.174498 0.200675
O O9 0.708239 0.064581 0.124046
O O10 0.520266 0.269955 0.966762
O O11 0.008451 0.332420 0.138241
O O12 0.156330 0.223114 0.994906
O O13 0.500000 0.500000 0.000000
#
# Coordination Sequence:
#
# PCOD9051243 Si02
#       6
#     2   2   2   2   2   2
#     4   9  17  29  50  76  98 134 177 209 252 299
#     4  10  18  31  51  75 105 134 172 214 251 302
#     4   9  18  30  48  79 104 127 174 217 243 303
#     4  10  19  32  53  74 105 144 165 200 264 303
#     4  10  17  35  52  74 110 134 163 214 254 302
#     4  10  21  34  49  80 110 131 170 211 250 310
#
# _framework density 24.341076999999999
#
# number of rings (size 3 to 8) (size 9 to 14) (size 15 to 20)
#    1.000    1.333    3.333    1.500    0.000    0.667 
#    0.000    0.000    0.000    1.000    0.000   32.667 
#    0.000    0.000    0.000    0.000    0.000    0.000 
#
# Total GULP energy -66957.748343 kJ/mol
# GULP energy per Si atom -5579.812362 kJ/mol
# Density = 2.428568 g / cm^3
# Si number density = 24.341077 Si / 1000 Ang^3
#
#
#
# Elastic Constant Matrix: (Units=GPa)
#
#
# Indices 1 2 3 4 5 6 
#
# 1 83.1896 39.5491 29.3159 2.3162 12.1293 19.6791
# 2 39.5491 192.8091 81.3184 -3.9245 11.6968 23.4277
# 3 29.3159 81.3184 113.6813 0.3552 14.9128 5.3021
# 4 2.3162 -3.9245 0.3552 51.1760 2.1060 8.2826
# 5 12.1293 11.6968 14.9128 2.1060 15.2848 -0.1302
# 6 19.6791 23.4277 5.3021 8.2826 -0.1302 26.2251
#
#
#
# Elastic Compliance Matrix: (Units=1/GPa)
#
#
# Indices 1 2 3 4 5 6 
#
# 1 0.017791 -0.000378 -0.002116 0.001819 -0.012128 -0.013219
# 2 -0.000378 0.008540 -0.005550 0.001860 -0.001134 -0.006816
# 3 -0.002116 -0.005550 0.014150 -0.000737 -0.007744 0.003880
# 4 0.001819 0.001860 -0.000737 0.021382 -0.005176 -0.009657
# 5 -0.012128 -0.001134 -0.007744 -0.005176 0.084302 0.013733
# 6 -0.013219 -0.006816 0.003880 -0.009657 0.013733 0.056474
#
#
# Mechanical properties :
#
#
# Convention : Reuss Voigt Hill
#
# Bulk Modulus (GPa) = 40.99656 76.67185 58.83421
# Shear Modulus (GPa) = 22.04030 34.50361 28.27196
#
# Velocity S-wave (km/s) = 3.01238 3.76906 3.41176
# Velocity P-wave (km/s) = 5.38315 7.10693 6.30424
#
# Compressibility (1/GPa) = 0.02439229
#
# Stress axis : x y z
#
# Youngs Moduli (GPa) = 56.20894 117.09889 70.67337
#
# Poissons Ratio (x) = 0.04425 0.14952
# Poissons Ratio (y) = 0.02124 0.39226
# Poissons Ratio (z) = 0.11892 0.64993
#
# Static dielectric constant tensor:
#      x y z
#    x 2.019740 -0.015530 0.027820 
#    y -0.015530 2.016360 0.035930 
#    z 0.027820 0.035930 1.932010 
# 
# From -- ./inp_files/301168.got.cif
#   From: 2010.05.17/outbox.cif.g08.bks.cpg/sg2_151_cif.got.tgz:301168.got - 2010.06.03 11:33:40.
