data_PCOD9051599
_publ_section_title
;
Structure prediction by ZEFSAII (Michael W. Deem and Ramdas Pophale) SiO2 
 PCOD9051599
Probable space group: P -1
;
_chemical_formula_sum "Si O2"
_cell_formula_units_Z 14
_cell_length_a 5.076367
_cell_length_b 9.406810
_cell_length_c 15.611286
_cell_angle_alpha 71.337071
_cell_angle_beta 117.994395
_cell_angle_gamma 81.480583
_cell_volume 582.630490
_symmetry_space_group_name_H-M "P -1"
_symmetry_group_IT_number 2
_symmetry_cell_setting 'triclinic'
loop_
_space_group_symop_operation_xyz
x,y,z
-x,-y,-z
loop_
_atom_site_type_symbol
_atom_site_label
_atom_site_fract_x
_atom_site_fract_y
_atom_site_fract_z
Si Si1 0.845433 0.476190 0.096654
Si Si2 0.403524 0.347574 0.536911
Si Si3 0.129664 0.201328 0.665597
Si Si4 0.683213 0.084013 0.377205
Si Si5 0.460940 0.899178 0.094365
Si Si6 0.020025 0.236018 0.024005
Si Si7 0.956004 0.710017 0.669608
O O1 0.042629 0.315166 0.103294
O O2 0.920898 0.429752 0.215001
O O3 0.500000 0.500000 0.000000
O O4 0.908135 0.637342 0.051921
O O5 0.500000 0.500000 0.500000
O O6 0.235021 0.332688 0.603706
O O7 0.168885 0.334051 0.429688
O O8 0.760582 0.216488 0.607482
O O9 0.242205 0.187646 0.783132
O O10 0.313584 0.043828 0.668860
O O11 0.355776 0.150084 0.366660
O O12 0.754905 0.230071 0.316389
O O13 0.000000 0.000000 0.500000
O O14 0.311162 0.773974 0.058809
O O15 0.231576 0.047336 0.088436
O O16 0.500000 0.000000 0.000000
#
# Coordination Sequence:
#
# PCOD9051599 Si02
#       7
#     2   2   2   2   2   2   2
#     4  11  26  45  72 104 142 191 238 298 363 432
#     4  12  27  47  68 106 143 192 234 289 356 431
#     4  12  27  45  75 102 143 184 239 297 354 428
#     4  12  23  46  72 107 136 182 240 293 358 415
#     4  11  26  45  73 103 141 191 239 300 364 429
#     4  10  25  47  67 104 140 182 247 290 366 425
#     4  12  26  44  75 102 144 184 237 296 356 429
#
# _framework density 24.028950999999999
#
# number of rings (size 3 to 8) (size 9 to 14) (size 15 to 20)
#    0.000    0.571    2.857    3.429   14.000    1.143 
#    0.000    0.000    0.000    0.000    0.000    0.000 
#    0.000    0.000    0.000    0.000    0.000    0.000 
#
# Total GULP energy -78299.274320 kJ/mol
# GULP energy per Si atom -5592.805309 kJ/mol
# Density = 2.397426 g / cm^3
# Si number density = 24.028951 Si / 1000 Ang^3
#
#
#
# Elastic Constant Matrix: (Units=GPa)
#
#
# Indices 1 2 3 4 5 6 
#
# 1 94.4251 31.2582 36.9398 6.3055 -5.4656 21.3334
# 2 31.2582 111.3388 21.2569 5.2505 1.6752 32.7351
# 3 36.9398 21.2569 171.0122 10.5985 -5.8168 19.9781
# 4 6.3055 5.2505 10.5985 21.5159 5.7388 -2.3222
# 5 -5.4656 1.6752 -5.8168 5.7388 31.2246 -6.7009
# 6 21.3334 32.7351 19.9781 -2.3222 -6.7009 53.3414
#
#
#
# Elastic Compliance Matrix: (Units=1/GPa)
#
#
# Indices 1 2 3 4 5 6 
#
# 1 0.013116 -0.002315 -0.001931 -0.003185 0.002004 -0.002989
# 2 -0.002315 0.011729 -0.000116 -0.002291 -0.002048 -0.006586
# 3 -0.001931 -0.000116 0.006711 -0.003198 0.001149 -0.001665
# 4 -0.003185 -0.002291 -0.003198 0.052652 -0.009643 0.004958
# 5 0.002004 -0.002048 0.001149 -0.009643 0.035341 0.004045
# 6 -0.002989 -0.006586 -0.001665 0.004958 0.004045 0.025332
#
#
# Mechanical properties :
#
#
# Convention : Reuss Voigt Hill
#
# Bulk Modulus (GPa) = 43.79832 61.74288 52.77060
# Shear Modulus (GPa) = 31.01462 40.37113 35.69287
#
# Velocity S-wave (km/s) = 3.59655 4.10335 3.85828
# Velocity P-wave (km/s) = 5.95935 6.94269 6.46973
#
# Compressibility (1/GPa) = 0.02283193
#
# Stress axis : x y z
#
# Youngs Moduli (GPa) = 76.24289 85.26038 149.01454
#
# Poissons Ratio (x) = 0.19737 0.28770
# Poissons Ratio (y) = 0.17650 0.01732
# Poissons Ratio (z) = 0.14720 0.00991
#
# Static dielectric constant tensor:
#      x y z
#    x 2.028770 -0.171700 0.009200 
#    y -0.171700 2.159230 -0.144410 
#    z 0.009200 -0.144410 1.907340 
# 
# From -- ./inp_files/53742.got.cif
#   From: 2010.05.17/outbox.cif.g08.bks.cpg/sg2_27_cif.got.tgz:53742.got - 2010.06.03 11:33:40.
