data_PCOD9051935
_publ_section_title
;
Structure prediction by ZEFSAII (Michael W. Deem and Ramdas Pophale) SiO2 
 PCOD9051935
Probable space group: P -1
;
_chemical_formula_sum "Si O2"
_cell_formula_units_Z 12
_cell_length_a 4.855260
_cell_length_b 8.737813
_cell_length_c 20.826796
_cell_angle_alpha 30.644668
_cell_angle_beta 97.154260
_cell_angle_gamma 100.389665
_cell_volume 442.152295
_symmetry_space_group_name_H-M "P -1"
_symmetry_group_IT_number 2
_symmetry_cell_setting 'triclinic'
loop_
_space_group_symop_operation_xyz
x,y,z
-x,-y,-z
loop_
_atom_site_type_symbol
_atom_site_label
_atom_site_fract_x
_atom_site_fract_y
_atom_site_fract_z
Si Si1 0.954053 0.856328 0.120520
Si Si2 0.736067 0.773369 0.888644
Si Si3 0.248130 0.051811 0.540165
Si Si4 0.559514 0.661238 0.375256
Si Si5 0.609847 0.553027 0.745495
Si Si6 0.969542 0.906226 0.727992
O O1 0.625219 0.742038 0.158196
O O2 0.114838 0.564485 0.230283
O O3 0.094540 0.069821 0.103040
O O4 0.000000 0.000000 0.000000
O O5 0.958609 0.702936 0.866115
O O6 0.575741 0.034787 0.754208
O O7 0.500000 0.500000 0.000000
O O8 0.417501 0.393399 0.422508
O O9 0.537116 0.180531 0.383317
O O10 0.000000 0.000000 0.500000
O O11 0.129033 0.976137 0.637884
O O12 0.500000 0.500000 0.500000
O O13 0.894198 0.775148 0.347616
O O14 0.690750 0.707056 0.761455
#
# Coordination Sequence:
#
# PCOD9051935 Si02
#       6
#     2   2   2   2   2   2
#     4  12  29  52  82 117 166 225 287 355 428 511
#     4  12  29  51  81 120 171 226 291 353 430 514
#     4  11  25  49  85 126 171 222 285 358 435 518
#     4  10  25  48  78 123 165 222 277 357 427 515
#     4  12  26  53  79 121 165 217 287 355 426 509
#     4  11  25  48  84 115 175 215 289 345 441 497
#
# _framework density 27.139966999999999
#
# number of rings (size 3 to 8) (size 9 to 14) (size 15 to 20)
#    0.000    0.667    1.667    4.500    4.667    7.333 
#    3.000    0.000    0.000    0.000    0.000    0.000 
#    0.000    0.000    0.000    0.000    0.000    0.000 
#
# Total GULP energy -66940.294691 kJ/mol
# GULP energy per Si atom -5578.357891 kJ/mol
# Density = 2.707820 g / cm^3
# Si number density = 27.139967 Si / 1000 Ang^3
#
#
#
# Elastic Constant Matrix: (Units=GPa)
#
#
# Indices 1 2 3 4 5 6 
#
# 1 104.7024 63.1822 38.3580 -8.2046 -8.6682 25.0287
# 2 63.1822 259.9550 79.5334 -6.0502 -12.7409 47.0611
# 3 38.3580 79.5334 175.4043 -1.0376 -21.1525 8.7081
# 4 -8.2046 -6.0502 -1.0376 62.7483 5.6471 -16.2791
# 5 -8.6682 -12.7409 -21.1525 5.6471 64.3408 -14.0477
# 6 25.0287 47.0611 8.7081 -16.2791 -14.0477 49.4426
#
#
#
# Elastic Compliance Matrix: (Units=1/GPa)
#
#
# Indices 1 2 3 4 5 6 
#
# 1 0.012215 -0.001678 -0.001723 0.000327 -0.000206 -0.004234
# 2 -0.001678 0.005679 -0.002069 -0.000855 -0.000728 -0.004680
# 3 -0.001723 -0.002069 0.007171 0.000074 0.002195 0.002227
# 4 0.000327 -0.000855 0.000074 0.017568 -0.000257 0.006346
# 5 -0.000206 -0.000728 0.002195 -0.000257 0.017256 0.005229
# 6 -0.004234 -0.004680 0.002227 0.006346 0.005229 0.030007
#
#
# Mechanical properties :
#
#
# Convention : Reuss Voigt Hill
#
# Bulk Modulus (GPa) = 70.79301 100.24543 85.51922
# Shear Modulus (GPa) = 47.37349 59.23889 53.30619
#
# Velocity S-wave (km/s) = 4.18248 4.67702 4.43665
# Velocity P-wave (km/s) = 7.03315 8.13528 7.60421
#
# Compressibility (1/GPa) = 0.01412569
#
# Stress axis : x y z
#
# Youngs Moduli (GPa) = 81.86457 176.07939 139.45740
#
# Poissons Ratio (x) = 0.29540 0.24033
# Poissons Ratio (y) = 0.13734 0.28851
# Poissons Ratio (z) = 0.14108 0.36427
#
# Static dielectric constant tensor:
#      x y z
#    x 2.275290 -0.075190 -0.007960 
#    y -0.075190 2.204300 0.069120 
#    z -0.007960 0.069120 2.234880 
# 
# From -- ./inp_files/37489.got.cif
#   From: 2010.05.17/outbox.cif.g08.bks.cpg/sg2_19_cif.got.tgz:37489.got - 2010.06.03 11:33:40.
