data_PCOD9051656
_publ_section_title
;
Structure prediction by ZEFSAII (Michael W. Deem and Ramdas Pophale) SiO2 
 PCOD9051656
Probable space group: P -1
;
_chemical_formula_sum "Si O2"
_cell_formula_units_Z 16
_cell_length_a 18.349986
_cell_length_b 5.179887
_cell_length_c 9.049941
_cell_angle_alpha 58.285572
_cell_angle_beta 76.682738
_cell_angle_gamma 79.320577
_cell_volume 709.934049
_symmetry_space_group_name_H-M "P -1"
_symmetry_group_IT_number 2
_symmetry_cell_setting 'triclinic'
loop_
_space_group_symop_operation_xyz
x,y,z
-x,-y,-z
loop_
_atom_site_type_symbol
_atom_site_label
_atom_site_fract_x
_atom_site_fract_y
_atom_site_fract_z
Si Si1 0.206932 0.125297 0.319171
Si Si2 0.488573 0.144358 0.124791
Si Si3 0.721252 0.330271 0.361097
Si Si4 0.049827 0.196643 0.522895
Si Si5 0.163014 0.298297 0.975463
Si Si6 0.348952 0.222936 0.356157
Si Si7 0.426709 0.317943 0.572280
Si Si8 0.922301 0.104467 0.084204
O O1 0.128008 0.243888 0.391480
O O2 0.272837 0.337208 0.274439
O O3 0.233820 0.792114 0.474995
O O4 0.198142 0.115619 0.152318
O O5 0.404972 0.095412 0.240143
O O6 0.545517 0.999462 0.267437
O O7 0.500000 0.500000 0.000000
O O8 0.500000 0.000000 0.000000
O O9 0.778825 0.475058 0.184719
O O10 0.648309 0.555078 0.348658
O O11 0.684501 0.015015 0.439432
O O12 0.072313 0.017977 0.715433
O O13 0.000000 0.500000 0.500000
O O14 0.000000 0.000000 0.500000
O O15 0.137514 0.071348 0.930076
O O16 0.096547 0.533220 0.001759
O O17 0.403918 0.374461 0.394797
O O18 0.500000 0.500000 0.500000
O O19 0.000000 0.000000 0.000000
#
# Coordination Sequence:
#
# PCOD9051656 Si02
#       8
#     2   2   2   2   2   2   2   2
#     4  10  25  48  71 106 146 190 249 299 379 443
#     4  12  28  45  72 111 146 188 250 309 369 448
#     4  10  26  45  74 104 147 195 246 307 378 444
#     4  12  25  44  73 106 144 195 241 301 362 438
#     4  12  26  47  74 109 148 194 243 316 368 450
#     4  10  25  47  71 102 147 195 242 310 373 447
#     4  12  24  46  77 101 147 201 250 306 387 449
#     4  12  25  47  73 109 150 191 252 306 375 445
#
# _framework density 22.537306999999998
#
# number of rings (size 3 to 8) (size 9 to 14) (size 15 to 20)
#    0.750    0.000    2.500    3.750    7.000    1.000 
#    0.000    0.000    0.000    0.000    0.000    0.000 
#    0.000    0.000    0.000    0.000    0.000    0.000 
#
# Total GULP energy -89286.786820 kJ/mol
# GULP energy per Si atom -5580.424176 kJ/mol
# Density = 2.248601 g / cm^3
# Si number density = 22.537307 Si / 1000 Ang^3
#
#
#
# Elastic Constant Matrix: (Units=GPa)
#
#
# Indices 1 2 3 4 5 6 
#
# 1 157.4375 46.5960 52.1140 21.4071 16.6072 -1.6401
# 2 46.5960 89.1487 9.5437 1.6790 24.3844 17.3761
# 3 52.1140 9.5437 115.1260 5.5452 20.2817 12.8627
# 4 21.4071 1.6790 5.5452 39.6144 -3.0973 16.5291
# 5 16.6072 24.3844 20.2817 -3.0973 33.3116 -0.8806
# 6 -1.6401 17.3761 12.8627 16.5291 -0.8806 33.5353
#
#
#
# Elastic Compliance Matrix: (Units=1/GPa)
#
#
# Indices 1 2 3 4 5 6 
#
# 1 0.012405 -0.009228 -0.006501 -0.010612 0.003891 0.013214
# 2 -0.009228 0.023737 0.006980 0.010479 -0.016606 -0.021029
# 3 -0.006501 0.006980 0.013947 0.005609 -0.010164 -0.012315
# 4 -0.010612 0.010479 0.005609 0.041477 -0.002695 -0.028614
# 5 0.003891 -0.016606 -0.010164 -0.002695 0.046576 0.015245
# 6 0.013214 -0.021029 -0.012315 -0.028614 0.015245 0.060589
#
#
# Mechanical properties :
#
#
# Convention : Reuss Voigt Hill
#
# Bulk Modulus (GPa) = 30.68463 64.24662 47.46562
# Shear Modulus (GPa) = 22.01752 38.18948 30.10350
#
# Velocity S-wave (km/s) = 3.12899 4.12090 3.65871
# Velocity P-wave (km/s) = 5.16708 7.15619 6.24138
#
# Compressibility (1/GPa) = 0.03258960
#
# Stress axis : x y z
#
# Youngs Moduli (GPa) = 80.61350 42.12879 71.70162
#
# Poissons Ratio (x) = 0.38876 0.46614
# Poissons Ratio (y) = 0.74389 -0.50045
# Poissons Ratio (z) = 0.52408 -0.29404
#
# Static dielectric constant tensor:
#      x y z
#    x 1.892990 0.047780 0.026890 
#    y 0.047780 1.940560 0.034170 
#    z 0.026890 0.034170 1.903650 
# 
# From -- ./inp_files/322197.got.cif
#   From: 2010.05.17/outbox.cif.g08.bks.cpg/sg2_162_cif.got.tgz:322197.got - 2010.06.03 11:33:40.
