data_PCOD9051160
_publ_section_title
;
Structure prediction by ZEFSAII (Michael W. Deem and Ramdas Pophale) SiO2 
 PCOD9051160
Probable space group: P -1
;
_chemical_formula_sum "Si O2"
_cell_formula_units_Z 16
_cell_length_a 8.845021
_cell_length_b 12.065888
_cell_length_c 25.289028
_cell_angle_alpha 153.746575
_cell_angle_beta 47.773870
_cell_angle_gamma 142.397454
_cell_volume 721.021311
_symmetry_space_group_name_H-M "P -1"
_symmetry_group_IT_number 2
_symmetry_cell_setting 'triclinic'
loop_
_space_group_symop_operation_xyz
x,y,z
-x,-y,-z
loop_
_atom_site_type_symbol
_atom_site_label
_atom_site_fract_x
_atom_site_fract_y
_atom_site_fract_z
Si Si1 0.639824 0.167616 0.695603
Si Si2 0.065032 0.680824 0.968371
Si Si3 0.764221 0.743678 0.979999
Si Si4 0.649761 0.306754 0.631244
Si Si5 0.908127 0.466122 0.447505
Si Si6 0.725342 0.836839 0.609488
Si Si7 0.484218 0.721846 0.822562
Si Si8 0.387582 0.939975 0.166022
O O1 0.652412 0.429314 0.839244
O O2 0.696600 0.259592 0.660324
O O3 0.363497 0.852208 0.627877
O O4 0.811984 0.076499 0.643810
O O5 0.225440 0.660373 0.875852
O O6 0.872652 0.729027 0.004503
O O7 0.894315 0.364823 0.905341
O O8 0.278458 0.964675 0.073731
O O9 0.573710 0.837959 0.071613
O O10 0.000000 0.000000 0.000000
O O11 0.495999 0.453138 0.727365
O O12 0.909231 0.535416 0.637652
O O13 0.500000 0.000000 0.500000
O O14 0.910244 0.763508 0.559441
O O15 0.000000 0.500000 0.500000
O O16 0.500000 0.500000 0.500000
O O17 0.619930 0.948208 0.726323
O O18 0.527467 0.787072 0.778157
#
# Coordination Sequence:
#
# PCOD9051160 Si02
#       8
#     2   2   2   2   2   2   2   2
#     4  11  26  47  71 107 144 189 240 303 360 435
#     4  11  25  47  70 104 145 189 238 301 360 435
#     4  12  25  47  73 108 148 186 242 301 364 435
#     4  12  27  44  75 104 143 197 236 298 370 419
#     4  11  24  49  74 104 146 190 244 298 354 436
#     4  10  25  45  71 105 140 184 241 291 352 430
#     4  11  27  46  70 106 144 185 248 296 360 433
#     4  12  25  46  77 103 141 195 236 297 371 427
#
# _framework density 22.190746000000001
#
# number of rings (size 3 to 8) (size 9 to 14) (size 15 to 20)
#    0.000    0.750    3.750    2.250    7.000    4.500 
#    0.000    0.000    0.000    0.000    0.000    0.000 
#    0.000    0.000    0.000    0.000    0.000    0.000 
#
# Total GULP energy -89512.412090 kJ/mol
# GULP energy per Si atom -5594.525756 kJ/mol
# Density = 2.214024 g / cm^3
# Si number density = 22.190746 Si / 1000 Ang^3
#
#
#
# Elastic Constant Matrix: (Units=GPa)
#
#
# Indices 1 2 3 4 5 6 
#
# 1 107.8848 21.0865 25.4126 0.3088 -1.7083 -27.3729
# 2 21.0865 81.7449 0.1472 3.6536 6.2716 -0.5769
# 3 25.4126 0.1472 84.8233 9.9434 -2.4113 6.9662
# 4 0.3088 3.6536 9.9434 27.9214 -5.2945 4.9399
# 5 -1.7083 6.2716 -2.4113 -5.2945 23.9477 5.5914
# 6 -27.3729 -0.5769 6.9662 4.9399 5.5914 43.8059
#
#
#
# Elastic Compliance Matrix: (Units=1/GPa)
#
#
# Indices 1 2 3 4 5 6 
#
# 1 0.013352 -0.003325 -0.004793 0.000239 -0.000738 0.009129
# 2 -0.003325 0.013503 0.001284 -0.002705 -0.003939 -0.001296
# 3 -0.004793 0.001284 0.014133 -0.004097 0.000980 -0.004889
# 4 0.000239 -0.002705 -0.004097 0.040520 0.010472 -0.005140
# 5 -0.000738 -0.003939 0.000980 0.010472 0.046983 -0.007847
# 6 0.009129 -0.001296 -0.004889 -0.005140 -0.007847 0.030874
#
#
# Mechanical properties :
#
#
# Convention : Reuss Voigt Hill
#
# Bulk Modulus (GPa) = 36.60434 40.86064 38.73249
# Shear Modulus (GPa) = 27.45163 34.32210 30.88687
#
# Velocity S-wave (km/s) = 3.52102 3.93706 3.73484
# Velocity P-wave (km/s) = 5.74989 6.25464 6.00757
#
# Compressibility (1/GPa) = 0.02731917
#
# Stress axis : x y z
#
# Youngs Moduli (GPa) = 74.89533 74.05963 70.75818
#
# Poissons Ratio (x) = 0.24627 0.33916
# Poissons Ratio (y) = 0.24905 -0.09088
# Poissons Ratio (z) = 0.35899 -0.09512
#
# Static dielectric constant tensor:
#      x y z
#    x 1.876740 -0.014080 -0.001090 
#    y -0.014080 1.820770 0.011730 
#    z -0.001090 0.011730 1.807110 
# 
# From -- ./inp_files/607662.got.cif
#   From: 2010.05.17/outbox.cif.g08.bks.cpg/sg2_304_cif.got.tgz:607662.got - 2010.06.03 11:33:40.
