data_PCOD9051694
_publ_section_title
;
Structure prediction by ZEFSAII (Michael W. Deem and Ramdas Pophale) SiO2 
 PCOD9051694
Probable space group: P -1
;
_chemical_formula_sum "Si O2"
_cell_formula_units_Z 12
_cell_length_a 9.990989
_cell_length_b 9.910734
_cell_length_c 8.138692
_cell_angle_alpha 127.954490
_cell_angle_beta 47.900109
_cell_angle_gamma 119.228878
_cell_volume 467.486131
_symmetry_space_group_name_H-M "P -1"
_symmetry_group_IT_number 2
_symmetry_cell_setting 'triclinic'
loop_
_space_group_symop_operation_xyz
x,y,z
-x,-y,-z
loop_
_atom_site_type_symbol
_atom_site_label
_atom_site_fract_x
_atom_site_fract_y
_atom_site_fract_z
Si Si1 0.513499 0.114241 0.909639
Si Si2 0.005766 0.435255 0.753264
Si Si3 0.870386 0.085968 0.419323
Si Si4 0.631984 0.510838 0.051149
Si Si5 0.177540 0.912814 0.925296
Si Si6 0.609928 0.389692 0.444978
O O1 0.665644 0.045296 0.619101
O O2 0.582454 0.317915 0.027186
O O3 0.317793 0.087563 0.960760
O O4 0.708039 0.227441 0.197953
O O5 0.209249 0.485674 0.557328
O O6 0.954626 0.237380 0.588117
O O7 0.000000 0.500000 0.000000
O O8 0.847648 0.530926 0.871052
O O9 0.998899 0.936201 0.192895
O O10 0.863672 0.134668 0.266750
O O11 0.550337 0.658689 0.329687
O O12 0.500000 0.500000 0.000000
O O13 0.500000 0.000000 0.000000
O O14 0.500000 0.500000 0.500000
#
# Coordination Sequence:
#
# PCOD9051694 Si02
#       6
#     2   2   2   2   2   2
#     4  11  24  45  74 106 148 196 245 309 379 446
#     4  11  24  46  74 103 148 194 249 311 369 441
#     4  10  25  47  72 105 145 192 250 306 378 452
#     4  11  25  46  75 108 142 195 256 307 369 441
#     4  11  25  45  73 109 147 194 246 310 381 445
#     4  12  24  43  70 105 145 193 251 302 370 441
#
# _framework density 25.669212000000002
#
# number of rings (size 3 to 8) (size 9 to 14) (size 15 to 20)
#    0.000    1.000    1.667    4.500    2.333    7.333 
#    3.000    0.000    0.000    0.000    0.000    0.000 
#    0.000    0.000    0.000    0.000    0.000    0.000 
#
# Total GULP energy -66969.132823 kJ/mol
# GULP energy per Si atom -5580.761069 kJ/mol
# Density = 2.561079 g / cm^3
# Si number density = 25.669212 Si / 1000 Ang^3
#
#
#
# Elastic Constant Matrix: (Units=GPa)
#
#
# Indices 1 2 3 4 5 6 
#
# 1 159.8703 11.3159 61.6804 7.8361 -26.0524 2.9700
# 2 11.3159 63.3107 11.8130 15.4088 2.8130 5.0970
# 3 61.6804 11.8130 178.0679 4.2618 -26.3281 -10.0408
# 4 7.8361 15.4088 4.2618 39.9621 14.0904 -6.0763
# 5 -26.0524 2.8130 -26.3281 14.0904 61.3582 0.0718
# 6 2.9700 5.0970 -10.0408 -6.0763 0.0718 36.7206
#
#
#
# Elastic Compliance Matrix: (Units=1/GPa)
#
#
# Indices 1 2 3 4 5 6 
#
# 1 0.007779 -0.000382 -0.002274 -0.002401 0.002898 -0.001601
# 2 -0.000382 0.018215 -0.001083 -0.007545 0.000276 -0.004043
# 3 -0.002274 -0.001083 0.006918 -0.000290 0.002117 0.002174
# 4 -0.002401 -0.007545 -0.000290 0.032329 -0.008230 0.006528
# 5 0.002898 0.000276 0.002117 -0.008230 0.020315 -0.001095
# 6 -0.001601 -0.004043 0.002174 0.006528 -0.001095 0.029600
#
#
# Mechanical properties :
#
#
# Convention : Reuss Voigt Hill
#
# Bulk Modulus (GPa) = 39.31510 63.42973 51.37241
# Shear Modulus (GPa) = 38.13589 48.70414 43.42002
#
# Velocity S-wave (km/s) = 3.85862 4.36061 4.11727
# Velocity P-wave (km/s) = 5.93306 7.07936 6.53141
#
# Compressibility (1/GPa) = 0.02543552
#
# Stress axis : x y z
#
# Youngs Moduli (GPa) = 128.55220 54.90006 144.55763
#
# Poissons Ratio (x) = 0.02096 0.32865
# Poissons Ratio (y) = 0.04907 0.15652
# Poissons Ratio (z) = 0.29226 0.05944
#
# Static dielectric constant tensor:
#      x y z
#    x 2.146390 0.013330 0.122080 
#    y 0.013330 2.172320 0.032190 
#    z 0.122080 0.032190 2.067730 
# 
# From -- ./inp_files/216077.got.cif
#   From: 2010.05.17/outbox.cif.g08.bks.cpg/sg2_109_cif.got.tgz:216077.got - 2010.06.03 11:33:40.
