data_PCOD9051734
_publ_section_title
;
Structure prediction by ZEFSAII (Michael W. Deem and Ramdas Pophale) SiO2 
 PCOD9051734
Probable space group: P -1
;
_chemical_formula_sum "Si O2"
_cell_formula_units_Z 16
_cell_length_a 10.185981
_cell_length_b 14.672443
_cell_length_c 8.436570
_cell_angle_alpha 56.495056
_cell_angle_beta 82.536701
_cell_angle_gamma 126.987731
_cell_volume 604.906091
_symmetry_space_group_name_H-M "P -1"
_symmetry_group_IT_number 2
_symmetry_cell_setting 'triclinic'
loop_
_space_group_symop_operation_xyz
x,y,z
-x,-y,-z
loop_
_atom_site_type_symbol
_atom_site_label
_atom_site_fract_x
_atom_site_fract_y
_atom_site_fract_z
Si Si1 0.759544 0.126674 0.979796
Si Si2 0.031988 0.287032 0.076867
Si Si3 0.467073 0.423837 0.332153
Si Si4 0.490380 0.698234 0.009001
Si Si5 0.661856 0.122582 0.517349
Si Si6 0.978422 0.416200 0.422029
Si Si7 0.256311 0.129237 0.875578
Si Si8 0.824224 0.927013 0.475907
O O1 0.936957 0.283107 0.940305
O O2 0.527404 0.028226 0.171824
O O3 0.703462 0.959130 0.135907
O O4 0.874290 0.235648 0.691665
O O5 0.887717 0.213915 0.326863
O O6 0.963640 0.118900 0.197245
O O7 0.299766 0.469654 0.874638
O O8 0.471110 0.553757 0.167581
O O9 0.426549 0.342113 0.589331
O O10 0.256021 0.226561 0.467866
O O11 0.666328 0.844514 0.982743
O O12 0.237248 0.574490 0.176340
O O13 0.603593 0.815404 0.716394
O O14 0.801422 0.317531 0.397909
O O15 0.500000 0.000000 0.500000
O O16 0.000000 0.500000 0.500000
O O17 0.000000 0.000000 0.000000
O O18 0.000000 0.000000 0.500000
#
# Coordination Sequence:
#
# PCOD9051734 Si02
#       8
#     2   2   2   2   2   2   2   2
#     4  11  24  48  70 103 144 187 243 299 362 432
#     4  11  24  46  71 105 142 193 237 302 358 434
#     4  12  24  46  69 103 145 185 238 293 359 433
#     4  12  26  41  70 106 143 188 240 299 360 431
#     4  10  25  47  74 100 139 188 242 295 366 433
#     4  12  27  47  73 107 144 189 245 306 366 433
#     4  12  24  44  72 104 143 193 238 292 363 434
#     4  12  25  42  69 102 147 185 239 292 368 424
#
# _framework density 26.450389999999999
#
# number of rings (size 3 to 8) (size 9 to 14) (size 15 to 20)
#    0.000    0.500    2.500    5.625    5.250    0.000 
#    0.000    1.875    0.000    0.000    0.000    0.000 
#    0.000    0.000    0.000    0.000    0.000    0.000 
#
# Total GULP energy -89271.665984 kJ/mol
# GULP energy per Si atom -5579.479124 kJ/mol
# Density = 2.639019 g / cm^3
# Si number density = 26.450390 Si / 1000 Ang^3
#
#
#
# Elastic Constant Matrix: (Units=GPa)
#
#
# Indices 1 2 3 4 5 6 
#
# 1 64.5049 16.3286 20.4429 -15.9432 -19.4846 -1.2424
# 2 16.3286 150.8465 -5.8305 -30.9545 -11.2146 16.0351
# 3 20.4429 -5.8305 111.6477 -14.6696 -30.0885 2.3387
# 4 -15.9432 -30.9545 -14.6696 39.6863 3.5425 -1.4340
# 5 -19.4846 -11.2146 -30.0885 3.5425 52.3448 -10.8190
# 6 -1.2424 16.0351 2.3387 -1.4340 -10.8190 34.4401
#
#
#
# Elastic Compliance Matrix: (Units=1/GPa)
#
#
# Indices 1 2 3 4 5 6 
#
# 1 0.019775 -0.000702 -0.001007 0.006535 0.006924 0.003556
# 2 -0.000702 0.008694 0.001993 0.006972 0.001567 -0.003426
# 3 -0.001007 0.001993 0.011631 0.004886 0.006509 0.000494
# 4 0.006535 0.006972 0.004886 0.034665 0.004274 -0.000556
# 5 0.006924 0.001567 0.006509 0.004274 0.027074 0.007761
# 6 0.003556 -0.003426 0.000494 -0.000556 0.007761 0.033141
#
#
# Mechanical properties :
#
#
# Convention : Reuss Voigt Hill
#
# Bulk Modulus (GPa) = 24.59033 43.20902 33.89967
# Shear Modulus (GPa) = 33.79138 45.03145 39.41141
#
# Velocity S-wave (km/s) = 3.57814 4.13060 3.86426
# Velocity P-wave (km/s) = 5.13690 6.25463 5.72312
#
# Compressibility (1/GPa) = 0.04066639
#
# Stress axis : x y z
#
# Youngs Moduli (GPa) = 50.56951 115.02844 85.97737
#
# Poissons Ratio (x) = 0.08071 0.08660
# Poissons Ratio (y) = 0.03548 -0.17131
# Poissons Ratio (z) = 0.05094 -0.22919
#
# Static dielectric constant tensor:
#      x y z
#    x -21.484640 -2.828820 -6.110320 
#    y -2.828820 1.817090 -0.634160 
#    z -6.110320 -0.634160 0.541630 
# 
# From -- ./inp_files/272488.got.cif
#   From: 2010.05.17/outbox.cif.g08.bks.cpg/sg2_137_cif.got.tgz:272488.got - 2010.06.03 11:33:40.
