data_PCOD9051460
_publ_section_title
;
Structure prediction by ZEFSAII (Michael W. Deem and Ramdas Pophale) SiO2 
 PCOD9051460
Probable space group: P -1
;
_chemical_formula_sum "Si O2"
_cell_formula_units_Z 16
_cell_length_a 19.119096
_cell_length_b 11.515395
_cell_length_c 9.070084
_cell_angle_alpha 80.787873
_cell_angle_beta 43.047713
_cell_angle_gamma 46.100493
_cell_volume 696.828539
_symmetry_space_group_name_H-M "P -1"
_symmetry_group_IT_number 2
_symmetry_cell_setting 'triclinic'
loop_
_space_group_symop_operation_xyz
x,y,z
-x,-y,-z
loop_
_atom_site_type_symbol
_atom_site_label
_atom_site_fract_x
_atom_site_fract_y
_atom_site_fract_z
Si Si1 0.468667 0.172016 0.639500
Si Si2 0.331711 0.042375 0.917581
Si Si3 0.574414 0.691353 0.865305
Si Si4 0.079039 0.477097 0.534609
Si Si5 0.439814 0.417284 0.791523
Si Si6 0.220996 0.796073 0.863536
Si Si7 0.849685 0.309168 0.271688
Si Si8 0.095517 0.296225 0.809013
O O1 0.363516 0.150638 0.822159
O O2 0.349589 0.389017 0.862419
O O3 0.522008 0.152190 0.393450
O O4 0.681713 0.944560 0.433652
O O5 0.402856 0.925747 0.989450
O O6 0.099286 0.257234 0.199824
O O7 0.719972 0.646906 0.722424
O O8 0.694314 0.500646 0.595616
O O9 0.512012 0.665257 0.099008
O O10 0.098514 0.342360 0.631604
O O11 0.000000 0.500000 0.500000
O O12 0.300739 0.664511 0.920258
O O13 0.630777 0.256252 0.428897
O O14 0.224143 0.689394 0.757966
O O15 0.009560 0.063386 0.146860
O O16 0.962746 0.313826 0.039543
O O17 0.000000 0.500000 0.000000
#
# Coordination Sequence:
#
# PCOD9051460 Si02
#       8
#     2   2   2   2   2   2   2   2
#     4  11  21  40  67  95 137 184 229 274 332 418
#     4  11  24  40  66 104 139 188 221 274 351 415
#     4  12  26  45  68 105 144 176 226 292 346 405
#     4  12  27  40  63 108 147 181 220 277 352 414
#     4  11  25  44  67  99 131 182 231 291 339 397
#     4  10  25  46  71  95 129 185 240 279 335 408
#     4  11  23  45  72 100 132 180 233 282 337 409
#     4  12  21  42  71 100 138 181 225 273 341 425
#
# _framework density 22.961169999999999
#
# number of rings (size 3 to 8) (size 9 to 14) (size 15 to 20)
#    0.000    0.750    5.000    1.500    7.000    2.000 
#    2.250    0.000    0.000    0.000    0.000    0.000 
#    0.000    0.000    0.000    0.000    0.000    0.000 
#
# Total GULP energy -89478.556989 kJ/mol
# GULP energy per Si atom -5592.409812 kJ/mol
# Density = 2.290891 g / cm^3
# Si number density = 22.961170 Si / 1000 Ang^3
#
#
#
# Elastic Constant Matrix: (Units=GPa)
#
#
# Indices 1 2 3 4 5 6 
#
# 1 63.5913 25.6604 -0.9921 -12.9601 2.0175 -1.4403
# 2 25.6604 140.7909 33.9921 -21.6646 8.5152 -37.2744
# 3 -0.9921 33.9921 41.3864 -9.9953 3.5014 -10.9150
# 4 -12.9601 -21.6646 -9.9953 37.5590 -7.2836 7.8722
# 5 2.0175 8.5152 3.5014 -7.2836 32.8436 1.1758
# 6 -1.4403 -37.2744 -10.9150 7.8722 1.1758 49.5449
#
#
#
# Elastic Compliance Matrix: (Units=1/GPa)
#
#
# Indices 1 2 3 4 5 6 
#
# 1 0.018687 -0.004399 0.004701 0.005899 0.000896 -0.002689
# 2 -0.004399 0.011922 -0.007524 0.001517 -0.001932 0.006988
# 3 0.004701 -0.007524 0.032017 0.005559 -0.000542 0.000659
# 4 0.005899 0.001517 0.005559 0.032772 0.006020 -0.002813
# 5 0.000896 -0.001932 -0.000542 0.006020 0.032403 -0.003273
# 6 -0.002689 0.006988 0.000659 -0.002813 -0.003273 0.026033
#
#
# Mechanical properties :
#
#
# Convention : Reuss Voigt Hill
#
# Bulk Modulus (GPa) = 20.75532 40.34329 30.54931
# Shear Modulus (GPa) = 27.12390 36.46338 31.79364
#
# Velocity S-wave (km/s) = 3.44073 3.98935 3.72515
# Velocity P-wave (km/s) = 4.98435 6.23123 5.64234
#
# Compressibility (1/GPa) = 0.04818041
#
# Stress axis : x y z
#
# Youngs Moduli (GPa) = 53.51348 83.88122 31.23301
#
# Poissons Ratio (x) = 0.36902 -0.14682
# Poissons Ratio (y) = 0.23542 0.23500
# Poissons Ratio (z) = -0.25156 0.63114
#
# Static dielectric constant tensor:
#      x y z
#    x 1.913070 0.018490 0.023750 
#    y 0.018490 1.884250 -0.020230 
#    z 0.023750 -0.020230 1.937050 
# 
# From -- ./inp_files/346082.got.cif
#   From: 2010.05.17/outbox.cif.g08.bks.cpg/sg2_174_cif.got.tgz:346082.got - 2010.06.03 11:33:40.
