data_PCOD9051110
_publ_section_title
;
Structure prediction by ZEFSAII (Michael W. Deem and Ramdas Pophale) SiO2 
 PCOD9051110
Probable space group: P -1
;
_chemical_formula_sum "Si O2"
_cell_formula_units_Z 12
_cell_length_a 14.716685
_cell_length_b 9.426301
_cell_length_c 8.227512
_cell_angle_alpha 31.725420
_cell_angle_beta 71.446997
_cell_angle_gamma 57.469715
_cell_volume 480.422164
_symmetry_space_group_name_H-M "P -1"
_symmetry_group_IT_number 2
_symmetry_cell_setting 'triclinic'
loop_
_space_group_symop_operation_xyz
x,y,z
-x,-y,-z
loop_
_atom_site_type_symbol
_atom_site_label
_atom_site_fract_x
_atom_site_fract_y
_atom_site_fract_z
Si Si1 0.236252 0.488487 0.727937
Si Si2 0.926555 0.615999 0.263536
Si Si3 0.773220 0.157675 0.050921
Si Si4 0.478931 0.290335 0.335978
Si Si5 0.384603 0.795137 0.348340
Si Si6 0.847535 0.555131 0.822688
O O1 0.132062 0.566248 0.592814
O O2 0.290225 0.702671 0.505992
O O3 0.198860 0.444814 0.972481
O O4 0.335089 0.132933 0.959473
O O5 0.000000 0.500000 0.500000
O O6 0.019093 0.571522 0.123660
O O7 0.829497 0.962566 0.044866
O O8 0.781384 0.896982 0.431011
O O9 0.650466 0.462939 0.777804
O O10 0.836983 0.306821 0.957489
O O11 0.571117 0.162160 0.547520
O O12 0.500000 0.000000 0.500000
O O13 0.500000 0.500000 0.000000
O O14 0.500000 0.500000 0.500000
#
# Coordination Sequence:
#
# PCOD9051110 Si02
#       6
#     2   2   2   2   2   2
#     4  12  25  45  68  97 136 177 222 279 335 398
#     4  10  25  45  70 101 134 178 227 279 338 400
#     4  11  23  42  67  99 137 177 223 278 331 395
#     4  12  24  42  69 100 133 176 225 273 326 394
#     4  12  27  45  67  99 136 178 223 274 337 399
#     4  11  23  43  69 100 135 176 224 277 336 398
#
# _framework density 24.978031000000001
#
# number of rings (size 3 to 8) (size 9 to 14) (size 15 to 20)
#    0.000    0.667    0.000    8.500    0.000    9.333 
#    0.000    5.833    0.000    0.000    0.000    0.000 
#    0.000    0.000    0.000    0.000    0.000    0.000 
#
# Total GULP energy -67188.422696 kJ/mol
# GULP energy per Si atom -5599.035225 kJ/mol
# Density = 2.492118 g / cm^3
# Si number density = 24.978031 Si / 1000 Ang^3
#
#
#
# Elastic Constant Matrix: (Units=GPa)
#
#
# Indices 1 2 3 4 5 6 
#
# 1 192.6669 60.2574 42.8276 -6.0384 -11.6404 29.9545
# 2 60.2574 110.5748 32.2128 -13.3682 2.7930 -2.2919
# 3 42.8276 32.2128 109.7886 -9.6411 -21.2077 19.5049
# 4 -6.0384 -13.3682 -9.6411 39.3458 5.1341 2.8312
# 5 -11.6404 2.7930 -21.2077 5.1341 44.8789 -9.2080
# 6 29.9545 -2.2919 19.5049 2.8312 -9.2080 55.7576
#
#
#
# Elastic Compliance Matrix: (Units=1/GPa)
#
#
# Indices 1 2 3 4 5 6 
#
# 1 0.007168 -0.003776 -0.000899 -0.000278 0.000980 -0.003516
# 2 -0.003776 0.012487 -0.003009 0.003095 -0.002926 0.002954
# 3 -0.000899 -0.003009 0.011939 0.001361 0.004806 -0.003093
# 4 -0.000278 0.003095 0.001361 0.027325 -0.003181 -0.002112
# 5 0.000980 -0.002926 0.004806 -0.003181 0.025783 0.002091
# 6 -0.003516 0.002954 -0.003093 -0.002112 0.002091 0.021479
#
#
# Mechanical properties :
#
#
# Convention : Reuss Voigt Hill
#
# Bulk Modulus (GPa) = 61.62600 75.95844 68.79222
# Shear Modulus (GPa) = 39.38309 46.51195 42.94752
#
# Velocity S-wave (km/s) = 3.97509 4.31990 4.15108
# Velocity P-wave (km/s) = 6.76713 7.44031 7.11169
#
# Compressibility (1/GPa) = 0.01622692
#
# Stress axis : x y z
#
# Youngs Moduli (GPa) = 139.50855 80.08255 83.75695
#
# Poissons Ratio (x) = 0.30235 0.07529
# Poissons Ratio (y) = 0.52672 0.25205
# Poissons Ratio (z) = 0.12541 0.24099
#
# Static dielectric constant tensor:
#      x y z
#    x 2.523830 -0.294470 0.203010 
#    y -0.294470 2.134610 -0.056900 
#    z 0.203010 -0.056900 2.046070 
# 
# From -- ./inp_files/297218.got.cif
#   From: 2010.05.17/outbox.cif.g08.bks.cpg/sg2_149_cif.got.tgz:297218.got - 2010.06.03 11:33:40.
