data_PCOD9051220
_publ_section_title
;
Structure prediction by ZEFSAII (Michael W. Deem and Ramdas Pophale) SiO2 
 PCOD9051220
Probable space group: P -1
;
_chemical_formula_sum "Si O2"
_cell_formula_units_Z 14
_cell_length_a 17.153727
_cell_length_b 5.226608
_cell_length_c 7.805409
_cell_angle_alpha 62.417853
_cell_angle_beta 119.239694
_cell_angle_gamma 90.407422
_cell_volume 519.071205
_symmetry_space_group_name_H-M "P -1"
_symmetry_group_IT_number 2
_symmetry_cell_setting 'triclinic'
loop_
_space_group_symop_operation_xyz
x,y,z
-x,-y,-z
loop_
_atom_site_type_symbol
_atom_site_label
_atom_site_fract_x
_atom_site_fract_y
_atom_site_fract_z
Si Si1 0.225427 0.331068 0.608093
Si Si2 0.482070 0.305057 0.280782
Si Si3 0.308760 0.806485 0.455361
Si Si4 0.182970 0.238723 0.950398
Si Si5 0.984403 0.861201 0.345711
Si Si6 0.121668 0.194222 0.257454
Si Si7 0.585821 0.023772 0.964062
O O1 0.280999 0.502784 0.492503
O O2 0.196589 0.436925 0.742380
O O3 0.226521 0.971918 0.442658
O O4 0.310659 0.036680 0.832338
O O5 0.587484 0.270554 0.344045
O O6 0.444385 0.625311 0.233345
O O7 0.500000 0.000000 0.500000
O O8 0.414689 0.248872 0.079757
O O9 0.130437 0.359933 0.391939
O O10 0.280673 0.027144 0.194013
O O11 0.122271 0.036425 0.865231
O O12 0.123888 0.356948 0.025816
O O13 0.000000 0.500000 0.500000
O O14 0.047456 0.005946 0.244711
O O15 0.000000 0.000000 0.500000
O O16 0.500000 0.000000 0.000000
#
# Coordination Sequence:
#
# PCOD9051220 Si02
#       7
#     2   2   2   2   2   2   2
#     4  12  23  48  74 108 149 203 252 316 378 451
#     4  12  26  48  71 110 149 200 256 317 375 456
#     4  10  25  45  72 107 153 190 260 309 374 455
#     4  10  25  46  72 113 144 201 243 310 382 447
#     4  12  25  49  79 110 150 196 246 305 384 456
#     4  10  25  46  73 107 152 190 247 313 369 456
#     4  12  26  45  76 103 150 199 252 313 386 438
#
# _framework density 26.971249
#
# number of rings (size 3 to 8) (size 9 to 14) (size 15 to 20)
#    0.857    0.000    2.857    3.857    2.000    1.143 
#    5.143    2.143    0.000    0.000    0.000    0.000 
#    0.000    0.000    0.000    0.000    0.000    0.000 
#
# Total GULP energy -78030.396170 kJ/mol
# GULP energy per Si atom -5573.599726 kJ/mol
# Density = 2.690986 g / cm^3
# Si number density = 26.971249 Si / 1000 Ang^3
#
#
#
# Elastic Constant Matrix: (Units=GPa)
#
#
# Indices 1 2 3 4 5 6 
#
# 1 107.6367 20.4265 23.1593 10.7020 3.6933 30.3901
# 2 20.4265 115.1904 35.7677 2.8840 0.1952 19.6183
# 3 23.1593 35.7677 119.0056 16.3827 -19.7533 9.4866
# 4 10.7020 2.8840 16.3827 48.8261 11.6694 2.4164
# 5 3.6933 0.1952 -19.7533 11.6694 53.3172 -0.9000
# 6 30.3901 19.6183 9.4866 2.4164 -0.9000 41.6946
#
#
#
# Elastic Compliance Matrix: (Units=1/GPa)
#
#
# Indices 1 2 3 4 5 6 
#
# 1 0.012242 -0.000179 -0.001687 -0.001377 -0.001313 -0.008403
# 2 -0.000179 0.010368 -0.003143 0.001041 -0.001487 -0.004125
# 3 -0.001687 -0.003143 0.011112 -0.004450 0.005229 0.000551
# 4 -0.001377 0.001041 -0.004450 0.023833 -0.006773 -0.000001
# 5 -0.001313 -0.001487 0.005229 -0.006773 0.022294 0.001341
# 6 -0.008403 -0.004125 0.000551 -0.000001 0.001341 0.031954
#
#
# Mechanical properties :
#
#
# Convention : Reuss Voigt Hill
#
# Bulk Modulus (GPa) = 42.18551 55.61550 48.90050
# Shear Modulus (GPa) = 38.54384 46.26619 42.40501
#
# Velocity S-wave (km/s) = 3.78441 4.14622 3.96944
# Velocity P-wave (km/s) = 5.89665 6.60201 6.25928
#
# Compressibility (1/GPa) = 0.02370482
#
# Stress axis : x y z
#
# Youngs Moduli (GPa) = 81.68580 96.45183 89.98979
#
# Poissons Ratio (x) = 0.01728 0.15181
# Poissons Ratio (y) = 0.01463 0.28280
# Poissons Ratio (z) = 0.13780 0.30311
#
# Static dielectric constant tensor:
#      x y z
#    x 2.265770 -0.192930 -0.118430 
#    y -0.192930 2.602010 0.128000 
#    z -0.118430 0.128000 2.229500 
# 
# From -- ./inp_files/340185.got.cif
#   From: 2010.05.17/outbox.cif.g08.bks.cpg/sg2_171_cif.got.tgz:340185.got - 2010.06.03 11:33:40.
