data_PCOD9051034
_publ_section_title
;
Structure prediction by ZEFSAII (Michael W. Deem and Ramdas Pophale) SiO2 
 PCOD9051034
Probable space group: P -1
;
_chemical_formula_sum "Si O2"
_cell_formula_units_Z 16
_cell_length_a 8.747007
_cell_length_b 11.087851
_cell_length_c 16.894385
_cell_angle_alpha 38.181300
_cell_angle_beta 106.292080
_cell_angle_gamma 80.175978
_cell_volume 731.022187
_symmetry_space_group_name_H-M "P -1"
_symmetry_group_IT_number 2
_symmetry_cell_setting 'triclinic'
loop_
_space_group_symop_operation_xyz
x,y,z
-x,-y,-z
loop_
_atom_site_type_symbol
_atom_site_label
_atom_site_fract_x
_atom_site_fract_y
_atom_site_fract_z
Si Si1 0.420759 0.755958 0.309880
Si Si2 0.890715 0.500345 0.757455
Si Si3 0.328490 0.747188 0.120336
Si Si4 0.195724 0.425731 0.115805
Si Si5 0.682949 0.696827 0.157388
Si Si6 0.618661 0.919327 0.362434
Si Si7 0.021526 0.969892 0.840617
Si Si8 0.014616 0.678146 0.464933
O O1 0.500000 0.500000 0.500000
O O2 0.413293 0.738458 0.223541
O O3 0.549025 0.827821 0.330061
O O4 0.175689 0.986333 0.175851
O O5 0.794183 0.357809 0.824554
O O6 0.831471 0.627415 0.770454
O O7 0.751401 0.704192 0.561503
O O8 0.139876 0.351014 0.851470
O O9 0.533508 0.625784 0.156447
O O10 0.138835 0.999565 0.911095
O O11 0.414057 0.180300 0.236274
O O12 0.178045 0.675774 0.984782
O O13 0.000000 0.500000 0.000000
O O14 0.827995 0.508001 0.347567
O O15 0.500000 0.000000 0.000000
O O16 0.789207 0.918227 0.345719
O O17 0.925955 0.188135 0.648941
O O18 0.000000 0.500000 0.500000
#
# Coordination Sequence:
#
# PCOD9051034 Si02
#       8
#     2   2   2   2   2   2   2   2
#     4  12  22  38  67 100 132 178 225 283 349 408
#     4  10  25  45  68 100 137 181 232 288 344 412
#     4  11  24  40  67  99 140 176 224 285 353 411
#     4  11  24  44  69  96 135 189 238 278 334 417
#     4  11  25  39  67 102 136 177 223 285 355 416
#     4  11  23  44  70  96 137 185 231 286 347 405
#     4  11  25  42  64  97 142 180 228 278 349 412
#     4  11  24  43  64 103 143 174 225 292 355 417
#
# _framework density 21.887160000000002
#
# number of rings (size 3 to 8) (size 9 to 14) (size 15 to 20)
#    0.000    1.000    2.500    3.750    7.000    2.500 
#    0.000    1.250    0.000    8.250    0.000    0.000 
#    0.000    0.000    0.000    0.000    0.000    0.000 
#
# Total GULP energy -89201.333184 kJ/mol
# GULP energy per Si atom -5575.083324 kJ/mol
# Density = 2.183734 g / cm^3
# Si number density = 21.887160 Si / 1000 Ang^3
#
#
#
# Elastic Constant Matrix: (Units=GPa)
#
#
# Indices 1 2 3 4 5 6 
#
# 1 161.1390 42.3713 43.9329 -8.9427 24.5668 -26.1486
# 2 42.3713 83.8559 32.3061 8.4650 16.2714 -11.8931
# 3 43.9329 32.3061 99.7714 4.0763 17.1412 -8.1100
# 4 -8.9427 8.4650 4.0763 46.5105 -6.3867 10.6686
# 5 24.5668 16.2714 17.1412 -6.3867 49.3228 -5.3094
# 6 -26.1486 -11.8931 -8.1100 10.6686 -5.3094 30.1205
#
#
#
# Elastic Compliance Matrix: (Units=1/GPa)
#
#
# Indices 1 2 3 4 5 6 
#
# 1 0.008691 -0.002441 -0.002285 0.000815 -0.002052 0.005316
# 2 -0.002441 0.016027 -0.003027 -0.004575 -0.003131 0.004462
# 3 -0.002285 -0.003027 0.012490 -0.001364 -0.002353 0.000252
# 4 0.000815 -0.004575 -0.001364 0.025377 0.003810 -0.009783
# 5 -0.002052 -0.003131 -0.002353 0.003810 0.023549 -0.000850
# 6 0.005316 0.004462 0.000252 -0.009783 -0.000850 0.042960
#
#
# Mechanical properties :
#
#
# Convention : Reuss Voigt Hill
#
# Bulk Modulus (GPa) = 46.08054 64.66519 55.37287
# Shear Modulus (GPa) = 32.93035 40.26784 36.59910
#
# Velocity S-wave (km/s) = 3.88306 4.29393 4.09366
# Velocity P-wave (km/s) = 6.41900 7.36157 6.90639
#
# Compressibility (1/GPa) = 0.02170113
#
# Stress axis : x y z
#
# Youngs Moduli (GPa) = 115.05496 62.39358 80.06477
#
# Poissons Ratio (x) = 0.15233 0.18297
# Poissons Ratio (y) = 0.28090 0.24236
# Poissons Ratio (z) = 0.26294 0.18886
#
# Static dielectric constant tensor:
#      x y z
#    x 1.860930 0.010490 0.001880 
#    y 0.010490 1.853430 -0.011430 
#    z 0.001880 -0.011430 1.807380 
# 
# From -- ./inp_files/558974.got.cif
#   From: 2010.05.17/outbox.cif.g08.bks.cpg/sg2_280_cif.got.tgz:558974.got - 2010.06.03 11:33:40.
