data_PCOD9051624
_publ_section_title
;
Structure prediction by ZEFSAII (Michael W. Deem and Ramdas Pophale) SiO2 
 PCOD9051624
Probable space group: P -1
;
_chemical_formula_sum "Si O2"
_cell_formula_units_Z 15
_cell_length_a 14.597626
_cell_length_b 21.315782
_cell_length_c 12.835404
_cell_angle_alpha 154.375203
_cell_angle_beta 139.255848
_cell_angle_gamma 24.285629
_cell_volume 662.468934
_symmetry_space_group_name_H-M "P -1"
_symmetry_group_IT_number 2
_symmetry_cell_setting 'triclinic'
loop_
_space_group_symop_operation_xyz
x,y,z
-x,-y,-z
loop_
_atom_site_type_symbol
_atom_site_label
_atom_site_fract_x
_atom_site_fract_y
_atom_site_fract_z
Si Si1 0.360363 0.082998 0.898219
Si Si2 0.258095 0.738478 0.711177
Si Si3 0.500000 0.000000 0.500000
Si Si4 0.511694 0.650699 0.989406
Si Si5 0.196953 0.453300 0.571265
Si Si6 0.806660 0.219417 0.918913
Si Si7 0.932796 0.401156 0.567741
Si Si8 0.029067 0.108436 0.611480
O O1 0.557908 0.838123 0.632862
O O2 0.158751 0.132118 0.814862
O O3 0.500000 0.000000 0.000000
O O4 0.232283 0.335006 0.126747
O O5 0.500000 0.500000 0.500000
O O6 0.329089 0.779019 0.929859
O O7 0.141161 0.688094 0.577329
O O8 0.061168 0.985756 0.844833
O O9 0.790509 0.790518 0.464516
O O10 0.533228 0.800464 0.259507
O O11 0.766082 0.381242 0.763815
O O12 0.409084 0.638567 0.976501
O O13 0.148317 0.530846 0.522459
O O14 0.000000 0.500000 0.500000
O O15 0.201410 0.605575 0.859356
O O16 0.818345 0.085930 0.641799
O O17 0.000000 0.000000 0.500000
#
# Coordination Sequence:
#
# PCOD9051624 Si02
#       8
#     2   2   1   2   2   2   2   2
#     4  10  25  47  69 103 146 191 245 304 368 441
#     4  12  25  47  78 108 146 205 247 311 380 456
#     4  12  24  44  78 104 150 196 238 316 376 446
#     4  12  25  49  73 110 151 188 253 307 379 453
#     4  11  26  44  75 108 143 199 251 305 374 453
#     4  12  26  47  75 109 151 197 250 312 378 451
#     4  11  24  48  76 106 150 193 249 313 377 450
#     4  12  28  46  74 105 146 197 246 311 370 440
#
# _framework density 22.642572000000001
#
# number of rings (size 3 to 8) (size 9 to 14) (size 15 to 20)
#    0.000    0.533    5.333    2.000    7.467    3.200 
#    2.400    2.000    0.000    0.000    0.000    0.000 
#    0.000    0.000    0.000    0.000    0.000    0.000 
#
# Total GULP energy -83660.633704 kJ/mol
# GULP energy per Si atom -5577.375580 kJ/mol
# Density = 2.259104 g / cm^3
# Si number density = 22.642572 Si / 1000 Ang^3
#
#
#
# Elastic Constant Matrix: (Units=GPa)
#
#
# Indices 1 2 3 4 5 6 
#
# 1 43.8403 7.8282 23.9472 -10.6376 1.0752 -21.5489
# 2 7.8282 132.4887 43.6216 -5.7131 2.9477 -18.0294
# 3 23.9472 43.6216 136.2588 6.2572 21.2665 -17.1106
# 4 -10.6376 -5.7131 6.2572 50.1506 -5.4248 7.0230
# 5 1.0752 2.9477 21.2665 -5.4248 35.9775 -5.1851
# 6 -21.5489 -18.0294 -17.1106 7.0230 -5.1851 34.2722
#
#
#
# Elastic Compliance Matrix: (Units=1/GPa)
#
#
# Indices 1 2 3 4 5 6 
#
# 1 0.037890 0.002915 -0.006163 0.006773 0.006445 0.021867
# 2 0.002915 0.009133 -0.003191 0.001571 0.002012 0.005027
# 3 -0.006163 -0.003191 0.010544 -0.003606 -0.006406 -0.000520
# 4 0.006773 0.001571 -0.003606 0.022642 0.005131 -0.000579
# 5 0.006445 0.002012 -0.006406 0.005131 0.032838 0.005829
# 6 0.021867 0.005027 -0.000520 -0.000579 0.005829 0.046313
#
#
# Mechanical properties :
#
#
# Convention : Reuss Voigt Hill
#
# Bulk Modulus (GPa) = 22.37735 51.48687 36.93211
# Shear Modulus (GPa) = 26.71885 39.89276 33.30581
#
# Velocity S-wave (km/s) = 3.43888 4.20199 3.83944
# Velocity P-wave (km/s) = 5.06677 6.80666 6.00012
#
# Compressibility (1/GPa) = 0.04468804
#
# Stress axis : x y z
#
# Youngs Moduli (GPa) = 26.39234 109.48969 94.84242
#
# Poissons Ratio (x) = -0.31914 0.58453
# Poissons Ratio (y) = -0.07693 0.30265
# Poissons Ratio (z) = 0.16266 0.34939
#
# Static dielectric constant tensor:
#      x y z
#    x 1.661930 -0.044830 -0.141750 
#    y -0.044830 1.835440 0.006540 
#    z -0.141750 0.006540 1.851830 
# 
# From -- ./inp_files/259306.got.cif
#   From: 2010.05.17/outbox.cif.g08.bks.cpg/sg2_130_cif.got.tgz:259306.got - 2010.06.03 11:33:40.
