data_PCOD9051200
_publ_section_title
;
Structure prediction by ZEFSAII (Michael W. Deem and Ramdas Pophale) SiO2 
 PCOD9051200
Probable space group: P -1
;
_chemical_formula_sum "Si O2"
_cell_formula_units_Z 12
_cell_length_a 12.697391
_cell_length_b 10.264289
_cell_length_c 8.456475
_cell_angle_alpha 140.421568
_cell_angle_beta 81.131792
_cell_angle_gamma 123.471515
_cell_volume 503.929574
_symmetry_space_group_name_H-M "P -1"
_symmetry_group_IT_number 2
_symmetry_cell_setting 'triclinic'
loop_
_space_group_symop_operation_xyz
x,y,z
-x,-y,-z
loop_
_atom_site_type_symbol
_atom_site_label
_atom_site_fract_x
_atom_site_fract_y
_atom_site_fract_z
Si Si1 0.903760 0.688390 0.660437
Si Si2 0.473208 0.565606 0.902251
Si Si3 0.795328 0.080313 0.716339
Si Si4 0.445571 0.963220 0.157886
Si Si5 0.625311 0.560282 0.635586
Si Si6 0.065715 0.565548 0.296967
O O1 0.759610 0.626786 0.584427
O O2 0.986065 0.657354 0.483122
O O3 0.870395 0.487559 0.625097
O O4 0.000000 0.000000 0.000000
O O5 0.629843 0.741069 0.934544
O O6 0.320684 0.257766 0.587765
O O7 0.500000 0.500000 0.000000
O O8 0.447343 0.769694 0.083901
O O9 0.711697 0.140027 0.896195
O O10 0.828819 0.211611 0.656785
O O11 0.948407 0.265409 0.948449
O O12 0.552464 0.281041 0.490843
O O13 0.500000 0.000000 0.000000
O O14 0.500000 0.500000 0.500000
#
# Coordination Sequence:
#
# PCOD9051200 Si02
#       6
#     2   2   2   2   2   2
#     4  11  27  43  77 104 146 186 248 301 362 432
#     4  11  27  42  72 106 144 187 247 301 362 430
#     4  10  25  45  72 102 144 189 245 293 370 433
#     4  11  23  42  73 101 143 187 241 299 364 429
#     4  11  25  44  70 106 140 188 242 297 369 433
#     4  10  25  48  69 105 146 192 238 300 364 438
#
# _framework density 23.812850000000001
#
# number of rings (size 3 to 8) (size 9 to 14) (size 15 to 20)
#    0.000    1.333    1.667    1.000   11.667    2.667 
#    0.000    3.333    0.000    0.000    0.000    0.000 
#    0.000    0.000    0.000    0.000    0.000    0.000 
#
# Total GULP energy -66895.202468 kJ/mol
# GULP energy per Si atom -5574.600206 kJ/mol
# Density = 2.375865 g / cm^3
# Si number density = 23.812850 Si / 1000 Ang^3
#
#
#
# Elastic Constant Matrix: (Units=GPa)
#
#
# Indices 1 2 3 4 5 6 
#
# 1 116.3556 39.4119 23.2854 11.5551 -1.4606 -7.6301
# 2 39.4119 138.6474 10.9355 0.7475 0.8426 -6.5925
# 3 23.2854 10.9355 85.0904 23.1555 -4.4183 -9.2714
# 4 11.5551 0.7475 23.1555 42.0027 -5.5571 -6.6556
# 5 -1.4606 0.8426 -4.4183 -5.5571 20.6205 1.9404
# 6 -7.6301 -6.5925 -9.2714 -6.6556 1.9404 40.9300
#
#
#
# Elastic Compliance Matrix: (Units=1/GPa)
#
#
# Indices 1 2 3 4 5 6 
#
# 1 0.010086 -0.002671 -0.001912 -0.001562 -0.000079 0.000767
# 2 -0.002671 0.008049 -0.000488 0.000938 -0.000451 0.000862
# 3 -0.001912 -0.000488 0.014490 -0.007069 0.000929 0.001654
# 4 -0.001562 0.000938 -0.007069 0.029345 0.005986 0.002747
# 5 -0.000079 -0.000451 0.000929 0.005986 0.050442 -0.001295
# 6 0.000767 0.000862 0.001654 0.002747 -0.001295 0.025596
#
#
# Mechanical properties :
#
#
# Convention : Reuss Voigt Hill
#
# Bulk Modulus (GPa) = 44.47927 54.15101 49.31514
# Shear Modulus (GPa) = 32.12419 38.47468 35.29943
#
# Velocity S-wave (km/s) = 3.67690 4.02395 3.85433
# Velocity P-wave (km/s) = 6.06179 6.66177 6.36885
#
# Compressibility (1/GPa) = 0.02248238
#
# Stress axis : x y z
#
# Youngs Moduli (GPa) = 99.14597 124.24003 69.01192
#
# Poissons Ratio (x) = 0.33183 0.13198
# Poissons Ratio (y) = 0.26481 0.03369
# Poissons Ratio (z) = 0.18961 0.06065
#
# Static dielectric constant tensor:
#      x y z
#    x 1.950940 -0.046100 0.126360 
#    y -0.046100 2.322580 -0.330170 
#    z 0.126360 -0.330170 2.284360 
# 
# From -- ./inp_files/32488.got.cif
#   From: 2010.05.17/outbox.cif.g08.bks.cpg/sg2_17_cif.got.tgz:32488.got - 2010.06.03 11:33:40.
