data_PCOD9051636
_publ_section_title
;
Structure prediction by ZEFSAII (Michael W. Deem and Ramdas Pophale) SiO2 
 PCOD9051636
Probable space group: P -1
;
_chemical_formula_sum "Si O2"
_cell_formula_units_Z 14
_cell_length_a 10.267347
_cell_length_b 9.330283
_cell_length_c 10.021554
_cell_angle_alpha 138.133869
_cell_angle_beta 67.185339
_cell_angle_gamma 121.496554
_cell_volume 546.323709
_symmetry_space_group_name_H-M "P -1"
_symmetry_group_IT_number 2
_symmetry_cell_setting 'triclinic'
loop_
_space_group_symop_operation_xyz
x,y,z
-x,-y,-z
loop_
_atom_site_type_symbol
_atom_site_label
_atom_site_fract_x
_atom_site_fract_y
_atom_site_fract_z
Si Si1 0.663691 0.432076 0.005939
Si Si2 0.457691 0.732078 0.790804
Si Si3 0.215057 0.135441 0.895448
Si Si4 0.119118 0.966465 0.087843
Si Si5 0.280287 0.008914 0.312353
Si Si6 0.971563 0.293869 0.471219
Si Si7 0.148157 0.369326 0.695153
O O1 0.663316 0.622808 0.032749
O O2 0.824232 0.562700 0.114254
O O3 0.545224 0.388741 0.147135
O O4 0.661638 0.184122 0.785167
O O5 0.576744 0.771138 0.651453
O O6 0.284244 0.580764 0.713508
O O7 0.500000 0.000000 0.000000
O O8 0.052327 0.171751 0.991844
O O9 0.181762 0.924613 0.657848
O O10 0.227956 0.035452 0.965197
O O11 0.182455 0.883017 0.132733
O O12 0.102567 0.197247 0.312919
O O13 0.181886 0.132622 0.511839
O O14 0.999708 0.347095 0.653711
O O15 0.000000 0.500000 0.500000
#
# Coordination Sequence:
#
# PCOD9051636 Si02
#       7
#     2   2   2   2   2   2   2
#     4   9  20  31  51  77 105 130 167 211 254 286
#     4   8  17  32  52  75 100 132 166 208 255 294
#     4   9  18  36  46  73 109 127 174 202 243 312
#     4   8  19  33  51  70  99 139 171 191 254 305
#     4  10  17  35  54  76  99 138 168 206 252 295
#     4   9  18  32  51  73 100 138 166 202 252 299
#     4   9  19  32  50  79  99 128 175 205 249 300
#
# _framework density 25.625834000000001
#
# number of rings (size 3 to 8) (size 9 to 14) (size 15 to 20)
#    1.714    1.429    0.000    0.429    2.000    1.143 
#    2.571    0.714    0.000    0.000    0.000    7.000 
#    0.000    0.000    0.000    0.000    0.000    0.000 
#
# Total GULP energy -77973.234017 kJ/mol
# GULP energy per Si atom -5569.516716 kJ/mol
# Density = 2.556751 g / cm^3
# Si number density = 25.625834 Si / 1000 Ang^3
#
#
#
# Elastic Constant Matrix: (Units=GPa)
#
#
# Indices 1 2 3 4 5 6 
#
# 1 36.1779 7.5811 12.4084 12.2058 17.7857 13.6139
# 2 7.5811 124.1968 26.8161 29.9717 4.1004 2.9739
# 3 12.4084 26.8161 89.6856 13.1197 -8.0288 -6.8600
# 4 12.2058 29.9717 13.1197 40.5188 -4.7448 6.6130
# 5 17.7857 4.1004 -8.0288 -4.7448 34.4682 6.4995
# 6 13.6139 2.9739 -6.8600 6.6130 6.4995 33.0454
#
#
#
# Elastic Compliance Matrix: (Units=1/GPa)
#
#
# Indices 1 2 3 4 5 6 
#
# 1 0.059775 0.004910 -0.011233 -0.019150 -0.033478 -0.016983
# 2 0.004910 0.010808 -0.003158 -0.008993 -0.005654 -0.000740
# 3 -0.011233 -0.003158 0.014743 0.000958 0.008589 0.006091
# 4 -0.019150 -0.008993 0.000958 0.039153 0.016994 -0.002280
# 5 -0.033478 -0.005654 0.008589 0.016994 0.050792 0.002693
# 6 -0.016983 -0.000740 0.006091 -0.002280 0.002693 0.038515
#
#
# Mechanical properties :
#
#
# Convention : Reuss Voigt Hill
#
# Bulk Modulus (GPa) = 15.06828 38.18573 26.62700
# Shear Modulus (GPa) = 19.61777 35.15679 27.38728
#
# Velocity S-wave (km/s) = 2.76985 3.70797 3.27270
# Velocity P-wave (km/s) = 4.01526 5.76764 4.96931
#
# Compressibility (1/GPa) = 0.06636458
#
# Stress axis : x y z
#
# Youngs Moduli (GPa) = 16.72935 92.51986 67.82763
#
# Poissons Ratio (x) = -0.45427 0.76190
# Poissons Ratio (y) = -0.08214 0.21422
# Poissons Ratio (z) = 0.18792 0.29220
#
# Static dielectric constant tensor:
#      x y z
#    x 2.118280 0.060700 0.014050 
#    y 0.060700 2.097360 -0.018430 
#    z 0.014050 -0.018430 2.091430 
# 
# From -- ./inp_files/445343.got.cif
#   From: 2010.05.17/outbox.cif.g08.bks.cpg/sg2_223_cif.got.tgz:445343.got - 2010.06.03 11:33:40.
