data_PCOD9051198
_publ_section_title
;
Structure prediction by ZEFSAII (Michael W. Deem and Ramdas Pophale) SiO2 
 PCOD9051198
Probable space group: P -1
;
_chemical_formula_sum "Si O2"
_cell_formula_units_Z 14
_cell_length_a 15.441930
_cell_length_b 5.214718
_cell_length_c 10.245600
_cell_angle_alpha 85.487635
_cell_angle_beta 140.099219
_cell_angle_gamma 84.734606
_cell_volume 512.437553
_symmetry_space_group_name_H-M "P -1"
_symmetry_group_IT_number 2
_symmetry_cell_setting 'triclinic'
loop_
_space_group_symop_operation_xyz
x,y,z
-x,-y,-z
loop_
_atom_site_type_symbol
_atom_site_label
_atom_site_fract_x
_atom_site_fract_y
_atom_site_fract_z
Si Si1 0.822566 0.558065 0.495540
Si Si2 0.002224 0.182678 0.873906
Si Si3 0.058275 0.806149 0.696673
Si Si4 0.703791 0.861819 0.785729
Si Si5 0.370663 0.795347 0.067090
Si Si6 0.455448 0.688440 0.595909
Si Si7 0.357868 0.853023 0.756292
O O1 0.732960 0.368924 0.339968
O O2 0.867095 0.418187 0.690883
O O3 0.971165 0.579878 0.607447
O O4 0.738608 0.856851 0.384318
O O5 0.020102 0.989454 0.775214
O O6 0.139430 0.293037 0.043549
O O7 0.000000 0.000000 0.000000
O O8 0.225778 0.695237 0.890909
O O9 0.000000 0.000000 0.500000
O O10 0.587305 0.698540 0.656107
O O11 0.666240 0.110656 0.632077
O O12 0.686143 0.966316 0.909595
O O13 0.416258 0.836809 0.971051
O O14 0.503935 0.617093 0.301868
O O15 0.448992 0.802051 0.732782
#
# Coordination Sequence:
#
# PCOD9051198 Si02
#       7
#     2   2   2   2   2   2   2
#     4  12  25  49  71 115 146 192 234 309 363 437
#     4  11  24  46  74 111 145 192 241 301 365 440
#     4  11  23  45  73 110 146 187 235 302 369 433
#     4  10  25  45  72 101 148 188 248 298 367 420
#     4  11  24  45  72 107 138 193 237 305 355 435
#     4  11  25  48  67 105 140 202 242 303 351 438
#     4  12  28  45  79 104 151 189 247 296 365 430
#
# _framework density 27.320401
#
# number of rings (size 3 to 8) (size 9 to 14) (size 15 to 20)
#    0.000    0.857    2.857    2.571    4.000    3.429 
#   10.286    0.000    0.000    0.000    0.000    0.000 
#    0.000    0.000    0.000    0.000    0.000    0.000 
#
# Total GULP energy -78334.020713 kJ/mol
# GULP energy per Si atom -5595.287194 kJ/mol
# Density = 2.725822 g / cm^3
# Si number density = 27.320401 Si / 1000 Ang^3
#
#
#
# Elastic Constant Matrix: (Units=GPa)
#
#
# Indices 1 2 3 4 5 6 
#
# 1 121.5243 30.2859 47.8473 16.8965 -49.2689 8.4061
# 2 30.2859 101.9272 26.9629 -9.5908 -19.0057 10.1513
# 3 47.8473 26.9629 117.6848 -4.5287 -32.9132 -5.0350
# 4 16.8965 -9.5908 -4.5287 40.9371 -2.4968 -3.4935
# 5 -49.2689 -19.0057 -32.9132 -2.4968 46.0507 2.6427
# 6 8.4061 10.1513 -5.0350 -3.4935 2.6427 47.8813
#
#
#
# Elastic Compliance Matrix: (Units=1/GPa)
#
#
# Indices 1 2 3 4 5 6 
#
# 1 0.017532 -0.001769 -0.002742 -0.007359 0.015922 -0.004407
# 2 -0.001769 0.011625 -0.001268 0.003268 0.002301 -0.002176
# 3 -0.002742 -0.001268 0.011401 0.002544 0.004722 0.001874
# 4 -0.007359 0.003268 0.002544 0.028576 -0.003337 0.003136
# 5 0.015922 0.002301 0.004722 -0.003337 0.043204 -0.005415
# 6 -0.004407 -0.002176 0.001874 0.003136 -0.005415 0.022845
#
#
# Mechanical properties :
#
#
# Convention : Reuss Voigt Hill
#
# Bulk Modulus (GPa) = 34.48089 61.25872 47.86981
# Shear Modulus (GPa) = 31.96759 42.70982 37.33870
#
# Velocity S-wave (km/s) = 3.42438 3.95814 3.70090
# Velocity P-wave (km/s) = 5.31823 6.58485 5.98514
#
# Compressibility (1/GPa) = 0.02900157
#
# Stress axis : x y z
#
# Youngs Moduli (GPa) = 57.03792 86.01954 87.70937
#
# Poissons Ratio (x) = 0.15215 0.24047
# Poissons Ratio (y) = 0.10089 0.11122
# Poissons Ratio (z) = 0.15638 0.10908
#
# Static dielectric constant tensor:
#      x y z
#    x 2.149680 0.042410 0.001620 
#    y 0.042410 2.216010 0.091070 
#    z 0.001620 0.091070 2.145560 
# 
# From -- ./inp_files/459085.got.cif
#   From: 2010.05.17/outbox.cif.g08.bks.cpg/sg2_230_cif.got.tgz:459085.got - 2010.06.03 11:33:40.
