data_PCOD9051972
_publ_section_title
;
Structure prediction by ZEFSAII (Michael W. Deem and Ramdas Pophale) SiO2 
 PCOD9051972
Probable space group: P -1
;
_chemical_formula_sum "Si O2"
_cell_formula_units_Z 14
_cell_length_a 22.533966
_cell_length_b 10.122749
_cell_length_c 10.542328
_cell_angle_alpha 141.132851
_cell_angle_beta 154.953883
_cell_angle_gamma 35.663318
_cell_volume 584.661904
_symmetry_space_group_name_H-M "P -1"
_symmetry_group_IT_number 2
_symmetry_cell_setting 'triclinic'
loop_
_space_group_symop_operation_xyz
x,y,z
-x,-y,-z
loop_
_atom_site_type_symbol
_atom_site_label
_atom_site_fract_x
_atom_site_fract_y
_atom_site_fract_z
Si Si1 0.168807 0.433553 0.712553
Si Si2 0.811221 0.503081 0.798033
Si Si3 0.600731 0.860509 0.849338
Si Si4 0.107526 0.159408 0.194072
Si Si5 0.652238 0.276628 0.141567
Si Si6 0.653836 0.273057 0.667213
Si Si7 0.125425 0.074421 0.865283
O O1 0.168518 0.340884 0.502327
O O2 0.000000 0.500000 0.500000
O O3 0.289701 0.245081 0.897411
O O4 0.239317 0.622377 0.978571
O O5 0.667258 0.670083 0.724898
O O6 0.767496 0.369916 0.502267
O O7 0.882390 0.681358 0.020843
O O8 0.926089 0.307275 0.965469
O O9 0.429950 0.882677 0.556510
O O10 0.616517 0.093903 0.020550
O O11 0.208224 0.927855 0.292711
O O12 0.119563 0.101340 0.024898
O O13 0.718962 0.132048 0.035346
O O14 0.500000 0.500000 0.000000
O O15 0.500000 0.500000 0.500000
O O16 0.000000 0.000000 0.500000
#
# Coordination Sequence:
#
# PCOD9051972 Si02
#       7
#     2   2   2   2   2   2   2
#     4  11  25  47  77 108 143 189 247 302 367 433
#     4  11  25  44  73 109 141 193 245 301 371 427
#     4  10  25  49  71 108 150 184 252 300 358 447
#     4  12  26  43  77 104 144 192 239 305 372 421
#     4  11  27  45  75 104 148 199 237 299 372 431
#     4  10  27  47  70 109 148 190 244 298 361 436
#     4  11  26  45  69 108 146 181 251 303 359 441
#
# _framework density 23.945464000000001
#
# number of rings (size 3 to 8) (size 9 to 14) (size 15 to 20)
#    0.000    1.143    2.857    0.429    8.000    7.429 
#    0.000    0.000    0.000    0.000    0.000    0.000 
#    0.000    0.000    0.000    0.000    0.000    0.000 
#
# Total GULP energy -78060.762827 kJ/mol
# GULP energy per Si atom -5575.768773 kJ/mol
# Density = 2.389096 g / cm^3
# Si number density = 23.945464 Si / 1000 Ang^3
#
#
#
# Elastic Constant Matrix: (Units=GPa)
#
#
# Indices 1 2 3 4 5 6 
#
# 1 89.2599 31.8473 56.4589 19.3669 7.1893 9.5316
# 2 31.8473 155.6141 51.5216 2.9473 19.0366 -12.1357
# 3 56.4589 51.5216 188.0269 28.7075 7.8573 -8.4696
# 4 19.3669 2.9473 28.7075 47.1314 -5.6576 -0.7356
# 5 7.1893 19.0366 7.8573 -5.6576 37.7389 10.8310
# 6 9.5316 -12.1357 -8.4696 -0.7356 10.8310 19.3317
#
#
#
# Elastic Compliance Matrix: (Units=1/GPa)
#
#
# Indices 1 2 3 4 5 6 
#
# 1 0.017483 -0.003529 -0.004430 -0.004140 0.002935 -0.014578
# 2 -0.003529 0.009066 -0.000757 0.000702 -0.006772 0.010920
# 3 -0.004430 -0.000757 0.007729 -0.003064 -0.002707 0.006496
# 4 -0.004140 0.000702 -0.003064 0.025340 0.005086 -0.000746
# 5 0.002935 -0.006772 -0.002707 0.005086 0.038848 -0.028456
# 6 -0.014578 0.010920 0.006496 -0.000746 -0.028456 0.084533
#
#
# Mechanical properties :
#
#
# Convention : Reuss Voigt Hill
#
# Bulk Modulus (GPa) = 59.35688 79.17297 69.26493
# Shear Modulus (GPa) = 24.26658 40.37862 32.32260
#
# Velocity S-wave (km/s) = 3.18686 4.11088 3.67801
# Velocity P-wave (km/s) = 6.19545 7.46111 6.85754
#
# Compressibility (1/GPa) = 0.01684725
#
# Stress axis : x y z
#
# Youngs Moduli (GPa) = 57.19863 110.30601 129.37585
#
# Poissons Ratio (x) = 0.38925 0.57312
# Poissons Ratio (y) = 0.20184 0.09790
# Poissons Ratio (z) = 0.25338 0.08347
#
# Static dielectric constant tensor:
#      x y z
#    x 2.061150 -0.032490 -0.006190 
#    y -0.032490 2.011610 -0.019680 
#    z -0.006190 -0.019680 1.900250 
# 
# From -- ./inp_files/476664.got.cif
#   From: 2010.05.17/outbox.cif.g08.bks.cpg/sg2_239_cif.got.tgz:476664.got - 2010.06.03 11:33:40.
