data_PCOD9051735
_publ_section_title
;
Structure prediction by ZEFSAII (Michael W. Deem and Ramdas Pophale) SiO2 
 PCOD9051735
Probable space group: P -1
;
_chemical_formula_sum "Si O2"
_cell_formula_units_Z 16
_cell_length_a 21.444267
_cell_length_b 8.699206
_cell_length_c 24.681570
_cell_angle_alpha 151.406066
_cell_angle_beta 20.811811
_cell_angle_gamma 138.843564
_cell_volume 717.959827
_symmetry_space_group_name_H-M "P -1"
_symmetry_group_IT_number 2
_symmetry_cell_setting 'triclinic'
loop_
_space_group_symop_operation_xyz
x,y,z
-x,-y,-z
loop_
_atom_site_type_symbol
_atom_site_label
_atom_site_fract_x
_atom_site_fract_y
_atom_site_fract_z
Si Si1 0.064999 0.596974 0.250503
Si Si2 0.621347 0.929858 0.745655
Si Si3 0.016424 0.728559 0.109162
Si Si4 0.062355 0.317566 0.049312
Si Si5 0.516022 0.129876 0.465970
Si Si6 0.636300 0.110562 0.152266
Si Si7 0.569374 0.281242 0.003484
Si Si8 0.656745 0.279096 0.584193
O O1 0.019547 0.509464 0.200198
O O2 0.852532 0.800568 0.511189
O O3 0.205968 0.802593 0.196503
O O4 0.213031 0.225971 0.042131
O O5 0.499664 0.991861 0.808777
O O6 0.581537 0.615246 0.710308
O O7 0.545855 0.248734 0.948360
O O8 0.975677 0.559871 0.143749
O O9 0.226840 0.728831 0.938570
O O10 0.883794 0.139244 0.351129
O O11 0.000000 0.500000 0.000000
O O12 0.287625 0.142898 0.802201
O O13 0.000000 0.000000 0.000000
O O14 0.498799 0.526869 0.596153
O O15 0.500000 0.000000 0.500000
O O16 0.366171 0.050700 0.526468
O O17 0.441687 0.626483 0.248145
O O18 0.500000 0.000000 0.000000
#
# Coordination Sequence:
#
# PCOD9051735 Si02
#       8
#     2   2   2   2   2   2   2   2
#     4  12  26  47  71 109 144 181 238 299 358 419
#     4  11  24  46  74 100 141 187 241 294 359 413
#     4  12  23  42  71 105 144 193 235 279 357 435
#     4  12  26  40  65 106 147 182 232 288 349 427
#     4  12  21  40  69  97 142 187 225 278 354 424
#     4  12  25  41  76 106 140 191 235 287 359 431
#     4  10  25  47  74 100 139 191 240 298 355 415
#     4  11  21  42  71 102 139 186 236 287 347 424
#
# _framework density 22.285368999999999
#
# number of rings (size 3 to 8) (size 9 to 14) (size 15 to 20)
#    0.000    0.500    6.250    1.875    1.750    3.000 
#    0.000    1.875    0.000    0.000    0.000    0.000 
#    0.000    0.000    0.000    0.000    0.000    0.000 
#
# Total GULP energy -89226.943977 kJ/mol
# GULP energy per Si atom -5576.683999 kJ/mol
# Density = 2.223465 g / cm^3
# Si number density = 22.285369 Si / 1000 Ang^3
#
#
#
# Elastic Constant Matrix: (Units=GPa)
#
#
# Indices 1 2 3 4 5 6 
#
# 1 125.3976 36.8653 51.1920 16.0547 15.0473 12.4616
# 2 36.8653 97.3532 5.0207 -2.3287 1.4757 7.3189
# 3 51.1920 5.0207 116.9151 -0.8775 20.7384 3.2971
# 4 16.0547 -2.3287 -0.8775 31.9267 1.5939 -6.2829
# 5 15.0473 1.4757 20.7384 1.5939 39.0623 7.3526
# 6 12.4616 7.3189 3.2971 -6.2829 7.3526 37.6870
#
#
#
# Elastic Compliance Matrix: (Units=1/GPa)
#
#
# Indices 1 2 3 4 5 6 
#
# 1 0.012948 -0.004498 -0.005251 -0.007733 -0.000952 -0.004052
# 2 -0.004498 0.012010 0.001401 0.003040 0.000517 -0.000562
# 3 -0.005251 0.001401 0.011600 0.003687 -0.004712 0.001983
# 4 -0.007733 0.003040 0.003687 0.037272 -0.002173 0.008282
# 5 -0.000952 0.000517 -0.004712 -0.002173 0.029574 -0.005506
# 6 -0.004052 -0.000562 0.001983 0.008282 -0.005506 0.030264
#
#
# Mechanical properties :
#
#
# Convention : Reuss Voigt Hill
#
# Bulk Modulus (GPa) = 50.35046 58.42465 54.38756
# Shear Modulus (GPa) = 31.85026 38.17441 35.01233
#
# Velocity S-wave (km/s) = 3.78458 4.14331 3.96800
# Velocity P-wave (km/s) = 6.46064 7.01162 6.74176
#
# Compressibility (1/GPa) = 0.01986079
#
# Stress axis : x y z
#
# Youngs Moduli (GPa) = 77.23452 83.26354 86.20801
#
# Poissons Ratio (x) = 0.37453 0.45268
# Poissons Ratio (y) = 0.34741 -0.12075
# Poissons Ratio (z) = 0.40556 -0.11663
#
# Static dielectric constant tensor:
#      x y z
#    x 1.690780 -0.031800 0.273330 
#    y -0.031800 1.810960 0.124110 
#    z 0.273330 0.124110 1.414220 
# 
# From -- ./inp_files/307785.got.cif
#   From: 2010.05.17/outbox.cif.g08.bks.cpg/sg2_154_cif.got.tgz:307785.got - 2010.06.03 11:33:40.
