data_PCOD9051014
_publ_section_title
;
Structure prediction by ZEFSAII (Michael W. Deem and Ramdas Pophale) SiO2 
 PCOD9051014
Probable space group: P -1
;
_chemical_formula_sum "Si O2"
_cell_formula_units_Z 16
_cell_length_a 10.236271
_cell_length_b 19.041962
_cell_length_c 8.407434
_cell_angle_alpha 123.786170
_cell_angle_beta 30.665914
_cell_angle_gamma 132.517942
_cell_volume 614.668182
_symmetry_space_group_name_H-M "P -1"
_symmetry_group_IT_number 2
_symmetry_cell_setting 'triclinic'
loop_
_space_group_symop_operation_xyz
x,y,z
-x,-y,-z
loop_
_atom_site_type_symbol
_atom_site_label
_atom_site_fract_x
_atom_site_fract_y
_atom_site_fract_z
Si Si1 0.121139 0.462175 0.468935
Si Si2 0.321828 0.628482 0.932071
Si Si3 0.993095 0.254055 0.223341
Si Si4 0.858967 0.240180 0.889667
Si Si5 0.488361 0.898160 0.655433
Si Si6 0.779851 0.794314 0.783638
Si Si7 0.649123 0.628535 0.267712
Si Si8 0.861985 0.992203 0.958933
O O1 0.043985 0.355079 0.365719
O O2 0.455436 0.533041 0.252200
O O3 0.000000 0.500000 0.500000
O O4 0.943427 0.455502 0.809148
O O5 0.556518 0.681943 0.890318
O O6 0.464787 0.614566 0.605017
O O7 0.250823 0.713734 0.069674
O O8 0.025871 0.189851 0.244712
O O9 0.673070 0.193116 0.408734
O O10 0.245965 0.283666 0.859265
O O11 0.066253 0.206037 0.543067
O O12 0.032390 0.332826 0.940419
O O13 0.635216 0.151290 0.109362
O O14 0.831867 0.952353 0.382235
O O15 0.350851 0.964845 0.816386
O O16 0.698051 0.878842 0.962742
O O17 0.000000 0.000000 0.000000
#
# Coordination Sequence:
#
# PCOD9051014 Si02
#       8
#     2   2   2   2   2   2   2   2
#     4  12  26  43  74 106 139 186 247 303 359 438
#     4  11  25  46  71 101 144 190 238 298 369 438
#     4  11  24  47  71 102 146 189 238 303 368 437
#     4  10  25  46  71 100 145 193 234 297 371 439
#     4  11  28  46  75 108 147 197 240 306 374 438
#     4  11  25  45  73 102 143 188 244 298 372 429
#     4  10  25  45  67 102 141 186 236 295 363 431
#     4  12  27  45  77 111 148 187 252 307 365 442
#
# _framework density 26.030304000000001
#
# number of rings (size 3 to 8) (size 9 to 14) (size 15 to 20)
#    0.000    1.000    2.500    1.875   12.250    1.500 
#    0.000    0.000    0.000    0.000    0.000    0.000 
#    0.000    0.000    0.000    0.000    0.000    0.000 
#
# Total GULP energy -89359.300016 kJ/mol
# GULP energy per Si atom -5584.956251 kJ/mol
# Density = 2.597106 g / cm^3
# Si number density = 26.030304 Si / 1000 Ang^3
#
#
#
# Elastic Constant Matrix: (Units=GPa)
#
#
# Indices 1 2 3 4 5 6 
#
# 1 80.7930 30.5251 8.3765 6.6272 12.5833 -7.4921
# 2 30.5251 111.9959 10.9832 -0.9036 0.3536 -5.1965
# 3 8.3765 10.9832 65.1108 -28.3073 13.6206 -13.1367
# 4 6.6272 -0.9036 -28.3073 43.2985 -8.6084 -4.9558
# 5 12.5833 0.3536 13.6206 -8.6084 33.0932 -7.7319
# 6 -7.4921 -5.1965 -13.1367 -4.9558 -7.7319 43.5290
#
#
#
# Elastic Compliance Matrix: (Units=1/GPa)
#
#
# Indices 1 2 3 4 5 6 
#
# 1 0.015543 -0.004041 -0.002335 -0.005276 -0.006334 -0.000238
# 2 -0.004041 0.010186 -0.001356 0.000453 0.002234 0.000560
# 3 -0.002335 -0.001356 0.026009 0.017706 -0.003154 0.008741
# 4 -0.005276 0.000453 0.017706 0.038021 0.006953 0.010053
# 5 -0.006334 0.002234 -0.003154 0.006953 0.037016 0.005591
# 6 -0.000238 0.000560 0.008741 0.010053 0.005591 0.027775
#
#
# Mechanical properties :
#
#
# Convention : Reuss Voigt Hill
#
# Bulk Modulus (GPa) = 27.56742 39.74102 33.65422
# Shear Modulus (GPa) = 27.45667 37.85181 32.65424
#
# Velocity S-wave (km/s) = 3.25129 3.81746 3.54569
# Velocity P-wave (km/s) = 4.97071 5.89330 5.45156
#
# Compressibility (1/GPa) = 0.03627471
#
# Stress axis : x y z
#
# Youngs Moduli (GPa) = 64.33575 98.17544 38.44838
#
# Poissons Ratio (x) = 0.39673 0.08977
# Poissons Ratio (y) = 0.25999 0.05213
# Poissons Ratio (z) = 0.15021 0.13311
#
# Static dielectric constant tensor:
#      x y z
#    x 2.058230 0.060890 -0.026570 
#    y 0.060890 2.055610 -0.004920 
#    z -0.026570 -0.004920 2.183890 
# 
# From -- ./inp_files/283187.got.cif
#   From: 2010.05.17/outbox.cif.g08.bks.cpg/sg2_142_cif.got.tgz:283187.got - 2010.06.03 11:33:40.
