data_PCOD9051719
_publ_section_title
;
Structure prediction by ZEFSAII (Michael W. Deem and Ramdas Pophale) SiO2 
 PCOD9051719
Probable space group: P -1
;
_chemical_formula_sum "Si O2"
_cell_formula_units_Z 13
_cell_length_a 9.115496
_cell_length_b 11.029104
_cell_length_c 11.236439
_cell_angle_alpha 64.225642
_cell_angle_beta 138.547107
_cell_angle_gamma 136.422500
_cell_volume 500.829760
_symmetry_space_group_name_H-M "P -1"
_symmetry_group_IT_number 2
_symmetry_cell_setting 'triclinic'
loop_
_space_group_symop_operation_xyz
x,y,z
-x,-y,-z
loop_
_atom_site_type_symbol
_atom_site_label
_atom_site_fract_x
_atom_site_fract_y
_atom_site_fract_z
Si Si1 0.741156 0.843582 0.740771
Si Si2 0.167508 0.442110 0.571637
Si Si3 0.672768 0.895345 0.401594
Si Si4 0.494921 0.386795 0.938611
Si Si5 0.374552 0.057445 0.136673
Si Si6 0.783367 0.524560 0.675989
Si Si7 0.000000 0.500000 0.000000
O O1 0.504328 0.628894 0.696810
O O2 0.714513 0.883066 0.572334
O O3 0.644517 0.920012 0.742973
O O4 0.045283 0.908560 0.947932
O O5 0.201745 0.314531 0.713844
O O6 0.070457 0.405580 0.392064
O O7 0.000000 0.500000 0.500000
O O8 0.376647 0.678846 0.279669
O O9 0.568592 0.002790 0.262773
O O10 0.000000 0.000000 0.500000
O O11 0.500000 0.500000 0.000000
O O12 0.457850 0.230681 0.049508
O O13 0.774404 0.475117 0.983238
O O14 0.500000 0.500000 0.500000
O O15 0.998496 0.641451 0.863459
#
# Coordination Sequence:
#
# PCOD9051719 Si02
#       7
#     2   2   2   2   2   2   1
#     4  10  25  47  73 104 143 194 253 303 381 449
#     4  11  24  46  75 108 150 192 255 317 377 454
#     4  11  28  46  72 107 149 194 246 308 385 445
#     4  12  26  47  77 114 150 202 254 312 384 451
#     4  11  26  47  75 106 150 194 252 312 378 455
#     4  11  26  46  71 104 146 194 246 312 377 440
#     4  12  28  46  80 110 156 192 266 312 380 448
#
# _framework density 25.956924999999998
#
# number of rings (size 3 to 8) (size 9 to 14) (size 15 to 20)
#    0.000    0.923    3.077    1.385    6.462    6.769 
#    0.000    0.000    0.000    0.000    0.000    0.000 
#    0.000    0.000    0.000    0.000    0.000    0.000 
#
# Total GULP energy -72465.951489 kJ/mol
# GULP energy per Si atom -5574.303961 kJ/mol
# Density = 2.589785 g / cm^3
# Si number density = 25.956925 Si / 1000 Ang^3
#
#
#
# Elastic Constant Matrix: (Units=GPa)
#
#
# Indices 1 2 3 4 5 6 
#
# 1 162.1323 35.3087 29.5961 -33.7073 12.2359 14.6418
# 2 35.3087 105.1018 14.1795 -11.4873 16.8249 -9.2846
# 3 29.5961 14.1795 98.7195 -39.6281 14.3351 10.1346
# 4 -33.7073 -11.4873 -39.6281 53.1918 -0.4687 -4.9884
# 5 12.2359 16.8249 14.3351 -0.4687 65.1739 -12.2929
# 6 14.6418 -9.2846 10.1346 -4.9884 -12.2929 34.9512
#
#
#
# Elastic Compliance Matrix: (Units=1/GPa)
#
#
# Indices 1 2 3 4 5 6 
#
# 1 0.008037 -0.002347 0.000396 0.004484 -0.001726 -0.004072
# 2 -0.002347 0.011052 -0.000777 0.000654 -0.001540 0.003696
# 3 0.000396 -0.000777 0.015776 0.011350 -0.004166 -0.004792
# 4 0.004484 0.000654 0.011350 0.030019 -0.003669 -0.002002
# 5 -0.001726 -0.001540 -0.004166 -0.003669 0.018361 0.007456
# 6 -0.004072 0.003696 -0.004792 -0.002002 0.007456 0.035025
#
#
# Mechanical properties :
#
#
# Convention : Reuss Voigt Hill
#
# Bulk Modulus (GPa) = 34.00294 58.23579 46.11937
# Shear Modulus (GPa) = 37.44516 49.78800 43.61658
#
# Velocity S-wave (km/s) = 3.80226 4.38436 4.10365
# Velocity P-wave (km/s) = 5.69249 6.93646 6.34503
#
# Compressibility (1/GPa) = 0.02940922
#
# Stress axis : x y z
#
# Youngs Moduli (GPa) = 124.42771 90.47892 63.38909
#
# Poissons Ratio (x) = 0.21233 -0.02513
# Poissons Ratio (y) = 0.29200 0.04928
# Poissons Ratio (z) = -0.04933 0.07034
#
# Static dielectric constant tensor:
#      x y z
#    x 2.119540 0.006320 0.093690 
#    y 0.006320 2.047390 -0.090660 
#    z 0.093690 -0.090660 1.971060 
# 
# From -- ./inp_files/392432.got.cif
#   From: 2010.05.17/outbox.cif.g08.bks.cpg/sg2_197_cif.got.tgz:392432.got - 2010.06.03 11:33:40.
