data_PCOD9051597
_publ_section_title
;
Structure prediction by ZEFSAII (Michael W. Deem and Ramdas Pophale) SiO2 
 PCOD9051597
Probable space group: P -1
;
_chemical_formula_sum "Si O2"
_cell_formula_units_Z 16
_cell_length_a 9.270927
_cell_length_b 15.192005
_cell_length_c 8.178624
_cell_angle_alpha 112.002521
_cell_angle_beta 86.443315
_cell_angle_gamma 49.059200
_cell_volume 724.825913
_symmetry_space_group_name_H-M "P -1"
_symmetry_group_IT_number 2
_symmetry_cell_setting 'triclinic'
loop_
_space_group_symop_operation_xyz
x,y,z
-x,-y,-z
loop_
_atom_site_type_symbol
_atom_site_label
_atom_site_fract_x
_atom_site_fract_y
_atom_site_fract_z
Si Si1 0.155815 0.614886 0.097202
Si Si2 0.237832 0.901905 0.970375
Si Si3 0.771334 0.060351 0.538153
Si Si4 0.434478 0.958963 0.170087
Si Si5 0.481170 0.861888 0.665765
Si Si6 0.946314 0.628963 0.422543
Si Si7 0.901440 0.655637 0.829550
Si Si8 0.610346 0.301606 0.882938
O O1 0.372639 0.453943 0.010955
O O2 0.014358 0.670829 0.308788
O O3 0.229763 0.687491 0.126237
O O4 0.047275 0.628268 0.946915
O O5 0.420915 0.807862 0.757625
O O6 0.309777 0.802776 0.046594
O O7 0.263318 0.000786 0.083335
O O8 0.000000 0.000000 0.000000
O O9 0.669472 0.033143 0.651532
O O10 0.733776 0.029393 0.347698
O O11 0.626062 0.224164 0.673961
O O12 0.000000 0.000000 0.500000
O O13 0.464902 0.055999 0.232530
O O14 0.661651 0.801909 0.999141
O O15 0.699511 0.726272 0.473100
O O16 0.957746 0.653719 0.632345
O O17 0.074048 0.470369 0.268271
#
# Coordination Sequence:
#
# PCOD9051597 Si02
#       8
#     2   2   2   2   2   2   2   2
#     4  11  24  46  73  99 144 192 230 304 347 435
#     4  11  24  44  68  96 142 187 225 290 360 428
#     4  11  24  41  66  99 140 186 234 294 360 427
#     4  11  24  43  68 101 144 182 239 296 355 434
#     4  12  24  41  69 104 136 180 242 300 351 421
#     4  11  24  41  71 106 139 180 244 296 357 423
#     4  11  24  43  72 104 143 183 242 292 367 416
#     4  10  25  47  66  98 144 187 239 276 376 429
#
# _framework density 22.074266999999999
#
# number of rings (size 3 to 8) (size 9 to 14) (size 15 to 20)
#    0.000    1.000    1.250    5.625    7.000    0.000 
#    2.250    1.250    0.000    0.000    0.000    0.000 
#    0.000    0.000    0.000    0.000    0.000    0.000 
#
# Total GULP energy -89201.065831 kJ/mol
# GULP energy per Si atom -5575.066614 kJ/mol
# Density = 2.202402 g / cm^3
# Si number density = 22.074267 Si / 1000 Ang^3
#
#
#
# Elastic Constant Matrix: (Units=GPa)
#
#
# Indices 1 2 3 4 5 6 
#
# 1 168.9097 78.1126 55.0327 -26.1249 -12.5735 -13.3468
# 2 78.1126 93.0139 42.1112 -4.7912 -3.2215 -10.4302
# 3 55.0327 42.1112 81.9906 -15.9743 -23.2759 7.5441
# 4 -26.1249 -4.7912 -15.9743 45.1480 -0.8543 4.4255
# 5 -12.5735 -3.2215 -23.2759 -0.8543 33.5264 -4.2306
# 6 -13.3468 -10.4302 7.5441 4.4255 -4.2306 37.6158
#
#
#
# Elastic Compliance Matrix: (Units=1/GPa)
#
#
# Indices 1 2 3 4 5 6 
#
# 1 0.011432 -0.008138 -0.002012 0.004900 0.002474 0.001905
# 2 -0.008138 0.021867 -0.009476 -0.006368 -0.007057 0.005032
# 3 -0.002012 -0.009476 0.024791 0.007622 0.014788 -0.007547
# 4 0.004900 -0.006368 0.007622 0.027528 0.006709 -0.004040
# 5 0.002474 -0.007057 0.014788 0.006709 0.040479 -0.000282
# 6 0.001905 0.005032 -0.007547 -0.004040 -0.000282 0.030613
#
#
# Mechanical properties :
#
#
# Convention : Reuss Voigt Hill
#
# Bulk Modulus (GPa) = 53.08144 77.15856 65.12000
# Shear Modulus (GPa) = 24.72294 34.50187 29.61240
#
# Velocity S-wave (km/s) = 3.35025 3.95776 3.66661
# Velocity P-wave (km/s) = 6.25016 7.47764 6.89129
#
# Compressibility (1/GPa) = 0.01883898
#
# Stress axis : x y z
#
# Youngs Moduli (GPa) = 87.47736 45.73081 40.33662
#
# Poissons Ratio (x) = 0.37214 0.08115
# Poissons Ratio (y) = 0.71186 0.38223
# Poissons Ratio (z) = 0.17598 0.43335
#
# Static dielectric constant tensor:
#      x y z
#    x 1.790000 -0.035200 0.026410 
#    y -0.035200 1.870310 -0.063060 
#    z 0.026410 -0.063060 1.996070 
# 
# From -- ./inp_files/208267.got.cif
#   From: 2010.05.17/outbox.cif.g08.bks.cpg/sg2_105_cif.got.tgz:208267.got - 2010.06.03 11:33:40.
