data_PCOD9051750
_publ_section_title
;
Structure prediction by ZEFSAII (Michael W. Deem and Ramdas Pophale) SiO2 
 PCOD9051750
Probable space group: P -1
;
_chemical_formula_sum "Si O2"
_cell_formula_units_Z 16
_cell_length_a 13.154236
_cell_length_b 12.848362
_cell_length_c 10.219339
_cell_angle_alpha 50.472109
_cell_angle_beta 43.752860
_cell_angle_gamma 35.296702
_cell_volume 685.379768
_symmetry_space_group_name_H-M "P -1"
_symmetry_group_IT_number 2
_symmetry_cell_setting 'triclinic'
loop_
_space_group_symop_operation_xyz
x,y,z
-x,-y,-z
loop_
_atom_site_type_symbol
_atom_site_label
_atom_site_fract_x
_atom_site_fract_y
_atom_site_fract_z
Si Si1 0.423576 0.888409 0.296066
Si Si2 0.309256 0.678550 0.685242
Si Si3 0.207609 0.232673 0.087456
Si Si4 0.466699 0.961941 0.705278
Si Si5 0.818272 0.535112 0.702148
Si Si6 0.366280 0.575564 0.194151
Si Si7 0.922353 0.412074 0.989893
Si Si8 0.095515 0.991324 0.054790
O O1 0.379137 0.760526 0.467293
O O2 0.230079 0.085302 0.268217
O O3 0.497693 0.932550 0.315581
O O4 0.583579 0.820798 0.088466
O O5 0.486730 0.541657 0.730347
O O6 0.244236 0.568538 0.789382
O O7 0.098887 0.853375 0.804640
O O8 0.118114 0.253519 0.013397
O O9 0.080623 0.424694 0.121647
O O10 0.637749 0.744222 0.742820
O O11 0.500000 0.000000 0.500000
O O12 0.257617 0.010513 0.865956
O O13 0.759454 0.476804 0.683083
O O14 0.000000 0.500000 0.500000
O O15 0.882652 0.416120 0.869418
O O16 0.225310 0.791760 0.158555
O O17 0.500000 0.500000 0.000000
O O18 0.000000 0.000000 0.000000
#
# Coordination Sequence:
#
# PCOD9051750 Si02
#       8
#     2   2   2   2   2   2   2   2
#     4  11  25  47  68 103 135 182 237 293 346 415
#     4  12  26  44  72 104 143 180 234 291 357 416
#     4  10  25  47  74  92 138 183 242 289 338 415
#     4  12  25  40  67 104 139 182 230 283 355 424
#     4  12  26  40  69 103 142 181 227 284 356 423
#     4  12  23  43  63 103 146 182 223 279 356 431
#     4  11  23  48  70 101 134 187 231 290 350 410
#     4  12  23  41  65  98 147 189 222 279 351 426
#
# _framework density 23.344722000000001
#
# number of rings (size 3 to 8) (size 9 to 14) (size 15 to 20)
#    0.000    0.500    5.000    2.250    8.750    1.000 
#    2.250    0.000    0.000    0.000    0.000    0.000 
#    0.000    0.000    0.000    0.000    0.000    0.000 
#
# Total GULP energy -89370.683630 kJ/mol
# GULP energy per Si atom -5585.667727 kJ/mol
# Density = 2.329159 g / cm^3
# Si number density = 23.344722 Si / 1000 Ang^3
#
#
#
# Elastic Constant Matrix: (Units=GPa)
#
#
# Indices 1 2 3 4 5 6 
#
# 1 48.1509 32.2721 10.9602 -3.3621 -16.5978 -22.7863
# 2 32.2721 86.4881 35.5648 -10.4179 -0.9142 -19.8062
# 3 10.9602 35.5648 113.5852 -15.2881 -22.9469 -23.6135
# 4 -3.3621 -10.4179 -15.2881 41.7129 -6.9316 5.0579
# 5 -16.5978 -0.9142 -22.9469 -6.9316 41.2448 0.4522
# 6 -22.7863 -19.8062 -23.6135 5.0579 0.4522 39.9440
#
#
#
# Elastic Compliance Matrix: (Units=1/GPa)
#
#
# Indices 1 2 3 4 5 6 
#
# 1 0.053634 -0.017831 0.012996 0.006035 0.029122 0.028343
# 2 -0.017831 0.020221 -0.007907 -0.000581 -0.011174 -0.004620
# 3 0.012996 -0.007907 0.016452 0.006124 0.015103 0.012273
# 4 0.006035 -0.000581 0.006124 0.027923 0.010482 0.003121
# 5 0.029122 -0.011174 0.015103 0.010482 0.045682 0.018156
# 6 0.028343 -0.004620 0.012273 0.003121 0.018156 0.045567
#
#
# Mechanical properties :
#
#
# Convention : Reuss Voigt Hill
#
# Bulk Modulus (GPa) = 15.42674 45.09092 30.25883
# Shear Modulus (GPa) = 19.48773 35.87548 27.68160
#
# Velocity S-wave (km/s) = 2.89239 3.92442 3.44725
# Velocity P-wave (km/s) = 4.21630 6.31601 5.36978
#
# Compressibility (1/GPa) = 0.06482252
#
# Stress axis : x y z
#
# Youngs Moduli (GPa) = 18.64504 49.45302 60.78108
#
# Poissons Ratio (x) = 0.88182 -0.78990
# Poissons Ratio (y) = 0.33247 0.48059
# Poissons Ratio (z) = -0.24231 0.39102
#
# Static dielectric constant tensor:
#      x y z
#    x 1.763540 0.035910 0.093120 
#    y 0.035910 2.059560 -0.037560 
#    z 0.093120 -0.037560 1.768470 
# 
# From -- ./inp_files/454501.got.cif
#   From: 2010.05.17/outbox.cif.g08.bks.cpg/sg2_228_cif.got.tgz:454501.got - 2010.06.03 11:33:40.
