data_PCOD9051251
_publ_section_title
;
Structure prediction by ZEFSAII (Michael W. Deem and Ramdas Pophale) SiO2 
 PCOD9051251
Probable space group: P -1
;
_chemical_formula_sum "Si O2"
_cell_formula_units_Z 16
_cell_length_a 15.236845
_cell_length_b 9.184706
_cell_length_c 9.473576
_cell_angle_alpha 134.252059
_cell_angle_beta 66.455648
_cell_angle_gamma 86.182890
_cell_volume 740.473613
_symmetry_space_group_name_H-M "P -1"
_symmetry_group_IT_number 2
_symmetry_cell_setting 'triclinic'
loop_
_space_group_symop_operation_xyz
x,y,z
-x,-y,-z
loop_
_atom_site_type_symbol
_atom_site_label
_atom_site_fract_x
_atom_site_fract_y
_atom_site_fract_z
Si Si1 0.384816 0.550676 0.039976
Si Si2 0.692953 0.517978 0.678527
Si Si3 0.036502 0.224979 0.270957
Si Si4 0.508804 0.266930 0.269688
Si Si5 0.422172 0.186582 0.554889
Si Si6 0.224737 0.114032 0.549390
Si Si7 0.110124 0.994668 0.768279
Si Si8 0.238614 0.139379 0.241943
O O1 0.338944 0.440708 0.108682
O O2 0.300748 0.830692 0.280654
O O3 0.500000 0.500000 0.000000
O O4 0.399206 0.434316 0.800985
O O5 0.584045 0.640669 0.731439
O O6 0.767020 0.231230 0.418184
O O7 0.763824 0.635380 0.672913
O O8 0.157623 0.078500 0.169570
O O9 0.000000 0.500000 0.500000
O O10 0.957322 0.133578 0.320034
O O11 0.050876 0.159552 0.052388
O O12 0.500000 0.500000 0.500000
O O13 0.477471 0.148980 0.339468
O O14 0.631870 0.076637 0.002064
O O15 0.307433 0.187847 0.614612
O O16 0.500000 0.000000 0.500000
O O17 0.194015 0.216237 0.481513
O O18 0.129012 0.139762 0.732706
#
# Coordination Sequence:
#
# PCOD9051251 Si02
#       8
#     2   2   2   2   2   2   2   2
#     4  11  22  38  59  90 132 177 218 259 315 387
#     4  11  22  41  65  96 135 170 217 264 323 396
#     4  11  24  47  74  97 124 171 224 274 329 383
#     4  12  25  39  61 100 137 178 214 261 324 396
#     4  12  24  37  60  91 135 178 216 260 320 384
#     4  11  25  42  61  98 131 169 216 270 326 385
#     4  10  25  45  73  99 126 169 225 271 324 393
#     4  12  24  42  67  94 136 176 215 269 328 386
#
# _framework density 21.607792
#
# number of rings (size 3 to 8) (size 9 to 14) (size 15 to 20)
#    0.000    0.750    3.750    4.125    5.250    0.500 
#    0.000    0.625    0.000    0.000    0.000    0.000 
#    0.000    0.000    0.000    0.000    0.000    0.000 
#
# Total GULP energy -89481.561128 kJ/mol
# GULP energy per Si atom -5592.597571 kJ/mol
# Density = 2.155861 g / cm^3
# Si number density = 21.607792 Si / 1000 Ang^3
#
#
#
# Elastic Constant Matrix: (Units=GPa)
#
#
# Indices 1 2 3 4 5 6 
#
# 1 124.4619 29.3917 15.4992 -16.6752 5.3160 14.7395
# 2 29.3917 109.1887 12.6257 -34.3148 -7.4611 22.1443
# 3 15.4992 12.6257 71.1516 -10.9891 10.4387 9.8914
# 4 -16.6752 -34.3148 -10.9891 39.6279 5.4113 -6.2625
# 5 5.3160 -7.4611 10.4387 5.4113 32.6627 -1.1852
# 6 14.7395 22.1443 9.8914 -6.2625 -1.1852 30.9032
#
#
#
# Elastic Compliance Matrix: (Units=1/GPa)
#
#
# Indices 1 2 3 4 5 6 
#
# 1 0.009157 -0.001159 -0.000705 0.002477 -0.002045 -0.002888
# 2 -0.001159 0.014450 0.000199 0.010683 0.001378 -0.007648
# 3 -0.000705 0.000199 0.016356 0.004540 -0.005977 -0.004351
# 4 0.002477 0.010683 0.004540 0.037088 -0.005667 -0.002992
# 5 -0.002045 0.001378 -0.005977 -0.005667 0.034187 0.002064
# 6 -0.002888 -0.007648 -0.004351 -0.002992 0.002064 0.040082
#
#
# Mechanical properties :
#
#
# Convention : Reuss Voigt Hill
#
# Bulk Modulus (GPa) = 27.29737 46.64836 36.97287
# Shear Modulus (GPa) = 29.96496 37.12447 33.54472
#
# Velocity S-wave (km/s) = 3.72797 4.14950 3.94437
# Velocity P-wave (km/s) = 5.58488 6.67783 6.15566
#
# Compressibility (1/GPa) = 0.03663356
#
# Stress axis : x y z
#
# Youngs Moduli (GPa) = 109.20229 69.20370 61.14112
#
# Poissons Ratio (x) = 0.08021 0.04311
# Poissons Ratio (y) = 0.12657 -0.01219
# Poissons Ratio (z) = 0.07699 -0.01380
#
# Static dielectric constant tensor:
#      x y z
#    x 1.782600 0.023720 -0.044290 
#    y 0.023720 1.818630 0.030110 
#    z -0.044290 0.030110 1.824010 
# 
# From -- ./inp_files/203354.got.cif
#   From: 2010.05.17/outbox.cif.g08.bks.cpg/sg2_102_cif.got.tgz:203354.got - 2010.06.03 11:33:40.
