data_PCOD9051169
_publ_section_title
;
Structure prediction by ZEFSAII (Michael W. Deem and Ramdas Pophale) SiO2 
 PCOD9051169
Probable space group: P -1
;
_chemical_formula_sum "Si O2"
_cell_formula_units_Z 14
_cell_length_a 8.275461
_cell_length_b 16.113772
_cell_length_c 15.433963
_cell_angle_alpha 147.087282
_cell_angle_beta 35.274181
_cell_angle_gamma 144.902456
_cell_volume 585.105796
_symmetry_space_group_name_H-M "P -1"
_symmetry_group_IT_number 2
_symmetry_cell_setting 'triclinic'
loop_
_space_group_symop_operation_xyz
x,y,z
-x,-y,-z
loop_
_atom_site_type_symbol
_atom_site_label
_atom_site_fract_x
_atom_site_fract_y
_atom_site_fract_z
Si Si1 0.948954 0.308733 0.863174
Si Si2 0.339415 0.154127 0.484372
Si Si3 0.255259 0.151610 0.966556
Si Si4 0.864689 0.335145 0.288285
Si Si5 0.699510 0.621925 0.596019
Si Si6 0.725345 0.062729 0.377901
Si Si7 0.696748 0.193923 0.050572
O O1 0.609388 0.198458 0.874717
O O2 0.236366 0.301211 0.680512
O O3 0.925208 0.228058 0.899127
O O4 0.000000 0.500000 0.000000
O O5 0.543255 0.193942 0.343411
O O6 0.563182 0.132199 0.438246
O O7 0.000000 0.000000 0.500000
O O8 0.208024 0.080139 0.826257
O O9 0.157972 0.303284 0.159274
O O10 0.000000 0.000000 0.000000
O O11 0.856099 0.509858 0.471944
O O12 0.853287 0.302923 0.162223
O O13 0.500000 0.500000 0.500000
O O14 0.513108 0.709369 0.805556
O O15 0.972521 0.788494 0.586300
O O16 0.500000 0.000000 0.500000
O O17 0.500000 0.000000 0.000000
#
# Coordination Sequence:
#
# PCOD9051169 Si02
#       7
#     2   2   2   2   2   2   2
#     4  12  28  46  71 108 152 186 234 305 369 416
#     4  12  25  46  70 106 148 189 234 300 366 423
#     4  12  24  49  70 106 142 192 246 291 351 444
#     4  11  25  44  75 101 143 186 243 297 354 425
#     4  10  25  45  71 106 139 183 241 300 354 424
#     4  12  28  44  73 104 145 187 242 293 364 428
#     4  11  23  44  77 102 138 191 249 279 357 436
#
# _framework density 23.927295999999998
#
# number of rings (size 3 to 8) (size 9 to 14) (size 15 to 20)
#    0.000    0.571    2.857    4.286   10.000    2.857 
#    0.000    1.429    0.000    0.000    0.000    0.000 
#    0.000    0.000    0.000    0.000    0.000    0.000 
#
# Total GULP energy -78233.775848 kJ/mol
# GULP energy per Si atom -5588.126846 kJ/mol
# Density = 2.387284 g / cm^3
# Si number density = 23.927296 Si / 1000 Ang^3
#
#
#
# Elastic Constant Matrix: (Units=GPa)
#
#
# Indices 1 2 3 4 5 6 
#
# 1 69.9795 14.6393 20.6402 -6.0917 5.4276 -2.3231
# 2 14.6393 89.9921 13.4391 -7.0732 23.4810 6.3459
# 3 20.6402 13.4391 154.4764 4.3047 -22.1362 -3.4822
# 4 -6.0917 -7.0732 4.3047 48.7083 -9.0829 -3.5583
# 5 5.4276 23.4810 -22.1362 -9.0829 46.8471 -0.0330
# 6 -2.3231 6.3459 -3.4822 -3.5583 -0.0330 31.0099
#
#
#
# Elastic Compliance Matrix: (Units=1/GPa)
#
#
# Indices 1 2 3 4 5 6 
#
# 1 0.015625 -0.001762 -0.002182 0.001695 -0.001628 0.001479
# 2 -0.001762 0.014008 -0.002181 0.000319 -0.007788 -0.003215
# 3 -0.002182 -0.002181 0.007694 -0.000268 0.004930 0.001121
# 4 0.001695 0.000319 -0.000268 0.021691 0.003724 0.002525
# 5 -0.001628 -0.007788 0.004930 0.003724 0.028491 0.002483
# 6 0.001479 -0.003215 0.001121 0.002525 0.002483 0.033435
#
#
# Mechanical properties :
#
#
# Convention : Reuss Voigt Hill
#
# Bulk Modulus (GPa) = 39.87509 45.76501 42.82005
# Shear Modulus (GPa) = 35.32247 43.02837 39.17542
#
# Velocity S-wave (km/s) = 3.84636 4.24523 4.05071
# Velocity P-wave (km/s) = 6.03550 6.57248 6.30971
#
# Compressibility (1/GPa) = 0.02507831
#
# Stress axis : x y z
#
# Youngs Moduli (GPa) = 64.00015 71.38648 129.97319
#
# Poissons Ratio (x) = 0.12580 0.28355
# Poissons Ratio (y) = 0.11278 0.28342
# Poissons Ratio (z) = 0.13962 0.15567
#
# Static dielectric constant tensor:
#      x y z
#    x 1.966970 0.008690 -0.059540 
#    y 0.008690 1.865610 0.079310 
#    z -0.059540 0.079310 1.990350 
# 
# From -- ./inp_files/562087.got.cif
#   From: 2010.05.17/outbox.cif.g08.bks.cpg/sg2_282_cif.got.tgz:562087.got - 2010.06.03 11:33:40.
