data_PCOD9051556
_publ_section_title
;
Structure prediction by ZEFSAII (Michael W. Deem and Ramdas Pophale) SiO2 
 PCOD9051556
Probable space group: P -1
;
_chemical_formula_sum "Si O2"
_cell_formula_units_Z 13
_cell_length_a 7.780607
_cell_length_b 5.056010
_cell_length_c 12.252250
_cell_angle_alpha 76.754903
_cell_angle_beta 98.946089
_cell_angle_gamma 72.739696
_cell_volume 434.897822
_symmetry_space_group_name_H-M "P -1"
_symmetry_group_IT_number 2
_symmetry_cell_setting 'triclinic'
loop_
_space_group_symop_operation_xyz
x,y,z
-x,-y,-z
loop_
_atom_site_type_symbol
_atom_site_label
_atom_site_fract_x
_atom_site_fract_y
_atom_site_fract_z
Si Si1 0.950928 0.689495 0.217953
Si Si2 0.064257 0.218186 0.414572
Si Si3 0.288406 0.823271 0.277502
Si Si4 0.601198 0.823660 0.421338
Si Si5 0.634732 0.200864 0.185340
Si Si6 0.000000 0.500000 0.000000
Si Si7 0.667593 0.212202 0.945515
O O1 0.913575 0.626082 0.097584
O O2 0.901965 0.477634 0.316534
O O3 0.168357 0.623050 0.261005
O O4 0.853374 0.016658 0.217220
O O5 0.193315 0.324538 0.498517
O O6 0.184679 0.043530 0.340917
O O7 0.000000 0.000000 0.500000
O O8 0.483332 0.648467 0.370370
O O9 0.267460 0.985561 0.139907
O O10 0.500000 0.000000 0.500000
O O11 0.581968 0.047204 0.297940
O O12 0.511600 0.535364 0.145656
O O13 0.598162 0.130979 0.061677
O O14 0.166894 0.662153 0.020339
#
# Coordination Sequence:
#
# PCOD9051556 Si02
#       7
#     2   2   2   2   2   1   2
#     4  11  27  46  79 111 150 200 249 313 382 450
#     4  11  26  50  76 113 152 196 258 314 373 455
#     4  10  25  48  76 110 148 198 255 311 376 449
#     4  10  25  46  75 106 150 201 254 308 374 444
#     4  11  26  48  71 114 151 196 251 312 381 444
#     4  10  26  44  80 112 146 198 250 312 384 448
#     4  10  26  47  78 110 154 196 251 318 380 448
#
# _framework density 29.892078000000001
#
# number of rings (size 3 to 8) (size 9 to 14) (size 15 to 20)
#    0.000    1.538    0.000    0.923   15.077    8.000 
#    2.769    0.000    0.000    0.000    0.000    0.000 
#    0.000    0.000    0.000    0.000    0.000    0.000 
#
# Total GULP energy -72511.174639 kJ/mol
# GULP energy per Si atom -5577.782665 kJ/mol
# Density = 2.982404 g / cm^3
# Si number density = 29.892078 Si / 1000 Ang^3
#
#
#
# Elastic Constant Matrix: (Units=GPa)
#
#
# Indices 1 2 3 4 5 6 
#
# 1 113.4402 19.8331 51.3785 19.7421 18.5022 0.1332
# 2 19.8331 76.1704 37.9875 26.5519 -7.3530 4.1841
# 3 51.3785 37.9875 256.5733 31.0880 -31.9989 3.6568
# 4 19.7421 26.5519 31.0880 82.8564 1.8990 6.4789
# 5 18.5022 -7.3530 -31.9989 1.8990 71.2486 18.1038
# 6 0.1332 4.1841 3.6568 6.4789 18.1038 33.5207
#
#
#
# Elastic Compliance Matrix: (Units=1/GPa)
#
#
# Indices 1 2 3 4 5 6 
#
# 1 0.011353 -0.001935 -0.002520 -0.001295 -0.005133 0.003494
# 2 -0.001935 0.015993 -0.001159 -0.004100 0.002334 -0.002330
# 3 -0.002520 -0.001159 0.005131 -0.000869 0.003387 -0.002067
# 4 -0.001295 -0.004100 -0.000869 0.014177 -0.000364 -0.001932
# 5 -0.005133 0.002334 0.003387 -0.000364 0.020034 -0.011390
# 6 0.003494 -0.002330 -0.002067 -0.001932 -0.011390 0.036860
#
#
# Mechanical properties :
#
#
# Convention : Reuss Voigt Hill
#
# Bulk Modulus (GPa) = 47.06281 73.84245 60.45263
# Shear Modulus (GPa) = 41.03035 59.99080 50.51057
#
# Velocity S-wave (km/s) = 3.70890 4.48472 4.11513
# Velocity P-wave (km/s) = 5.84121 7.18147 6.54573
#
# Compressibility (1/GPa) = 0.02124820
#
# Stress axis : x y z
#
# Youngs Moduli (GPa) = 88.07912 62.52684 194.89219
#
# Poissons Ratio (x) = 0.12102 0.49113
# Poissons Ratio (y) = 0.17047 0.22593
# Poissons Ratio (z) = 0.22196 0.07248
#
# Static dielectric constant tensor:
#      x y z
#    x 2.764010 -0.189050 0.114640 
#    y -0.189050 2.632590 -0.314290 
#    z 0.114640 -0.314290 2.537600 
# 
# From -- ./inp_files/372402.got.cif
#   From: 2010.05.17/outbox.cif.g08.bks.cpg/sg2_187_cif.got.tgz:372402.got - 2010.06.03 11:33:40.
