data_PCOD9051247
_publ_section_title
;
Structure prediction by ZEFSAII (Michael W. Deem and Ramdas Pophale) SiO2 
 PCOD9051247
Probable space group: P -1
;
_chemical_formula_sum "Si O2"
_cell_formula_units_Z 12
_cell_length_a 6.210270
_cell_length_b 9.391845
_cell_length_c 11.466287
_cell_angle_alpha 56.449835
_cell_angle_beta 106.333110
_cell_angle_gamma 78.465751
_cell_volume 479.165983
_symmetry_space_group_name_H-M "P -1"
_symmetry_group_IT_number 2
_symmetry_cell_setting 'triclinic'
loop_
_space_group_symop_operation_xyz
x,y,z
-x,-y,-z
loop_
_atom_site_type_symbol
_atom_site_label
_atom_site_fract_x
_atom_site_fract_y
_atom_site_fract_z
Si Si1 0.663369 0.781589 0.165646
Si Si2 0.593639 0.390436 0.943541
Si Si3 0.007829 0.039888 0.843043
Si Si4 0.283516 0.317490 0.306790
Si Si5 0.716617 0.576443 0.481567
Si Si6 0.168016 0.992395 0.418172
O O1 0.636510 0.623312 0.153960
O O2 0.570591 0.754963 0.289898
O O3 0.930476 0.780747 0.216540
O O4 0.500000 0.000000 0.000000
O O5 0.721516 0.503065 0.843051
O O6 0.500000 0.500000 0.000000
O O7 0.780314 0.166684 0.075290
O O8 0.850698 0.088266 0.675456
O O9 0.000000 0.000000 0.000000
O O10 0.233678 0.363436 0.412800
O O11 0.565557 0.151538 0.423372
O O12 0.129509 0.207285 0.289416
O O13 0.500000 0.500000 0.500000
O O14 0.000000 0.500000 0.500000
O O15 0.000000 0.000000 0.500000
#
# Coordination Sequence:
#
# PCOD9051247 Si02
#       6
#     2   2   2   2   2   2
#     4  10  25  45  73 110 157 203 261 327 407 479
#     4  11  25  47  73 112 153 204 267 327 406 484
#     4  11  27  45  75 111 159 207 265 333 411 487
#     4  11  27  46  78 109 153 203 271 334 400 485
#     4  12  28  47  77 116 156 205 269 337 403 479
#     4  11  26  49  75 109 152 208 262 332 412 485
#
# _framework density 25.043513000000001
#
# number of rings (size 3 to 8) (size 9 to 14) (size 15 to 20)
#    0.000    1.000    1.667    2.000   14.000    4.667 
#    0.000    0.000    0.000    0.000    0.000    0.000 
#    0.000    0.000    0.000    0.000    0.000    0.000 
#
# Total GULP energy -66824.428749 kJ/mol
# GULP energy per Si atom -5568.702396 kJ/mol
# Density = 2.498651 g / cm^3
# Si number density = 25.043513 Si / 1000 Ang^3
#
#
#
# Elastic Constant Matrix: (Units=GPa)
#
#
# Indices 1 2 3 4 5 6 
#
# 1 124.5896 65.1958 36.6916 13.8946 -30.8140 5.9561
# 2 65.1958 165.7972 21.4072 33.4413 -20.0229 2.9751
# 3 36.6916 21.4072 103.1483 6.9812 -44.4353 5.8194
# 4 13.8946 33.4413 6.9812 65.4820 -1.3025 -2.2203
# 5 -30.8140 -20.0229 -44.4353 -1.3025 54.8251 -1.4896
# 6 5.9561 2.9751 5.8194 -2.2203 -1.4896 64.9739
#
#
#
# Elastic Compliance Matrix: (Units=1/GPa)
#
#
# Indices 1 2 3 4 5 6 
#
# 1 0.011469 -0.003783 -0.001641 -0.000275 0.003710 -0.000656
# 2 -0.003783 0.008308 0.000335 -0.003460 0.001094 -0.000157
# 3 -0.001641 0.000335 0.015337 -0.001263 0.011574 -0.001016
# 4 -0.000275 -0.003460 -0.001263 0.017220 -0.002010 0.000839
# 5 0.003710 0.001094 0.011574 -0.002010 0.030035 -0.000807
# 6 -0.000656 -0.000157 -0.001016 0.000839 -0.000807 0.015559
#
#
# Mechanical properties :
#
#
# Convention : Reuss Voigt Hill
#
# Bulk Modulus (GPa) = 40.09805 71.12493 55.61149
# Shear Modulus (GPa) = 42.94918 55.07223 49.01070
#
# Velocity S-wave (km/s) = 4.14573 4.69450 4.42862
# Velocity P-wave (km/s) = 6.24197 7.60570 6.95733
#
# Compressibility (1/GPa) = 0.02493887
#
# Stress axis : x y z
#
# Youngs Moduli (GPa) = 87.19517 120.36207 65.20034
#
# Poissons Ratio (x) = 0.45527 0.10696
# Poissons Ratio (y) = 0.32982 -0.02187
# Poissons Ratio (z) = 0.14305 -0.04037
#
# Static dielectric constant tensor:
#      x y z
#    x 1.520590 0.099980 -0.061440 
#    y 0.099980 2.058660 -0.044760 
#    z -0.061440 -0.044760 2.097350 
# 
# From -- ./inp_files/359754.got.cif
#   From: 2010.05.17/outbox.cif.g08.bks.cpg/sg2_180_cif.got.tgz:359754.got - 2010.06.03 11:33:40.
