data_PCOD9051788
_publ_section_title
;
Structure prediction by ZEFSAII (Michael W. Deem and Ramdas Pophale) SiO2 
 PCOD9051788
Probable space group: P -1
;
_chemical_formula_sum "Si O2"
_cell_formula_units_Z 16
_cell_length_a 8.201050
_cell_length_b 17.088685
_cell_length_c 5.879471
_cell_angle_alpha 119.177570
_cell_angle_beta 109.233863
_cell_angle_gamma 65.015310
_cell_volume 644.113549
_symmetry_space_group_name_H-M "P -1"
_symmetry_group_IT_number 2
_symmetry_cell_setting 'triclinic'
loop_
_space_group_symop_operation_xyz
x,y,z
-x,-y,-z
loop_
_atom_site_type_symbol
_atom_site_label
_atom_site_fract_x
_atom_site_fract_y
_atom_site_fract_z
Si Si1 0.682012 0.204955 0.914231
Si Si2 0.286760 0.663833 0.521468
Si Si3 0.703220 0.018771 0.873832
Si Si4 0.216222 0.472916 0.118555
Si Si5 0.979833 0.238335 0.810812
Si Si6 0.597769 0.678454 0.343096
Si Si7 0.273886 0.056593 0.723773
Si Si8 0.088426 0.389367 0.316458
O O1 0.672940 0.302138 0.169567
O O2 0.852167 0.185258 0.795717
O O3 0.704557 0.125740 0.999874
O O4 0.496803 0.229316 0.720051
O O5 0.267198 0.560787 0.360463
O O6 0.441212 0.673847 0.436906
O O7 0.096331 0.733628 0.435514
O O8 0.492496 0.022506 0.779598
O O9 0.780392 0.975538 0.596941
O O10 0.779173 0.977123 0.099056
O O11 0.237657 0.393886 0.206476
O O12 0.341254 0.422361 0.899274
O O13 0.000000 0.500000 0.000000
O O14 0.960399 0.337724 0.068090
O O15 0.182890 0.169569 0.832920
O O16 0.792308 0.675997 0.527046
O O17 0.000000 0.500000 0.500000
#
# Coordination Sequence:
#
# PCOD9051788 Si02
#       8
#     2   2   2   2   2   2   2   2
#     4  11  27  45  70 103 140 189 228 302 361 441
#     4  11  25  46  64 102 144 180 243 291 361 430
#     4  10  25  49  75 108 151 184 242 298 381 431
#     4  12  23  42  67  98 136 189 235 294 353 422
#     4  11  26  43  71 105 140 187 244 293 360 428
#     4  11  26  42  68  98 137 191 230 298 357 431
#     4  10  25  47  77 110 142 193 239 306 357 453
#     4  12  24  43  69 103 140 186 239 296 350 424
#
# _framework density 24.840337999999999
#
# number of rings (size 3 to 8) (size 9 to 14) (size 15 to 20)
#    0.000    1.000    2.500    1.875    8.750    7.000 
#    0.000    0.000    0.000    0.000    0.000    0.000 
#    0.000    0.000    0.000    0.000    0.000    0.000 
#
# Total GULP energy -89388.159047 kJ/mol
# GULP energy per Si atom -5586.759940 kJ/mol
# Density = 2.478380 g / cm^3
# Si number density = 24.840338 Si / 1000 Ang^3
#
#
#
# Elastic Constant Matrix: (Units=GPa)
#
#
# Indices 1 2 3 4 5 6 
#
# 1 47.4314 29.7947 18.8627 -14.1678 -13.0815 11.7840
# 2 29.7947 83.3838 16.1105 -18.7774 -0.0380 -5.6048
# 3 18.8627 16.1105 83.2186 -5.2351 -5.1537 -5.8568
# 4 -14.1678 -18.7774 -5.2351 37.3862 -0.7239 2.2199
# 5 -13.0815 -0.0380 -5.1537 -0.7239 31.2037 -3.8534
# 6 11.7840 -5.6048 -5.8568 2.2199 -3.8534 37.5924
#
#
#
# Elastic Compliance Matrix: (Units=1/GPa)
#
#
# Indices 1 2 3 4 5 6 
#
# 1 0.042781 -0.012743 -0.006743 0.010075 0.015137 -0.015404
# 2 -0.012743 0.017801 -0.000191 0.003644 -0.004534 0.005939
# 3 -0.006743 -0.000191 0.013821 -0.000972 -0.000037 0.004292
# 4 0.010075 0.003644 -0.000972 0.032596 0.004299 -0.004251
# 5 0.015137 -0.004534 -0.000037 0.004299 0.038264 -0.001758
# 6 -0.015404 0.005939 0.004292 -0.004251 -0.001758 0.033055
#
#
# Mechanical properties :
#
#
# Convention : Reuss Voigt Hill
#
# Bulk Modulus (GPa) = 28.53259 38.17440 33.35349
# Shear Modulus (GPa) = 21.80032 31.18751 26.49392
#
# Velocity S-wave (km/s) = 2.96568 3.54717 3.26938
# Velocity P-wave (km/s) = 4.82061 5.67255 5.26385
#
# Compressibility (1/GPa) = 0.03504764
#
# Stress axis : x y z
#
# Youngs Moduli (GPa) = 23.37497 56.17691 72.35598
#
# Poissons Ratio (x) = 0.71588 0.48788
# Poissons Ratio (y) = 0.29787 0.01384
# Poissons Ratio (z) = 0.15761 0.01074
#
# Static dielectric constant tensor:
#      x y z
#    x 1.959880 -0.005900 -0.041330 
#    y -0.005900 1.994290 -0.068530 
#    z -0.041330 -0.068530 2.107520 
# 
# From -- ./inp_files/49071.got.cif
#   From: 2010.05.17/outbox.cif.g08.bks.cpg/sg2_25_cif.got.tgz:49071.got - 2010.06.03 11:33:40.
