data_PCOD9051664
_publ_section_title
;
Structure prediction by ZEFSAII (Michael W. Deem and Ramdas Pophale) SiO2 
 PCOD9051664
Probable space group: P -1
;
_chemical_formula_sum "Si O2"
_cell_formula_units_Z 16
_cell_length_a 5.043012
_cell_length_b 17.207833
_cell_length_c 11.941003
_cell_angle_alpha 50.743205
_cell_angle_beta 101.460218
_cell_angle_gamma 98.611142
_cell_volume 785.982362
_symmetry_space_group_name_H-M "P -1"
_symmetry_group_IT_number 2
_symmetry_cell_setting 'triclinic'
loop_
_space_group_symop_operation_xyz
x,y,z
-x,-y,-z
loop_
_atom_site_type_symbol
_atom_site_label
_atom_site_fract_x
_atom_site_fract_y
_atom_site_fract_z
Si Si1 0.755807 0.431446 0.586749
Si Si2 0.247857 0.099116 0.811417
Si Si3 0.269182 0.772889 0.367087
Si Si4 0.468233 0.855988 0.529571
Si Si5 0.636678 0.171570 0.203394
Si Si6 0.046762 0.015360 0.650802
Si Si7 0.235658 0.154449 0.991671
Si Si8 0.740779 0.282707 0.905374
O O1 0.500000 0.500000 0.500000
O O2 0.713244 0.333036 0.595250
O O3 0.805188 0.386836 0.755789
O O4 0.000000 0.500000 0.500000
O O5 0.533624 0.143823 0.751679
O O6 0.130992 0.017962 0.787103
O O7 0.249421 0.074592 0.965583
O O8 0.033428 0.187919 0.701856
O O9 0.360977 0.776360 0.500914
O O10 0.464205 0.814695 0.692474
O O11 0.751240 0.903068 0.466829
O O12 0.252286 0.945537 0.426850
O O13 0.871742 0.091071 0.293320
O O14 0.392533 0.127681 0.142993
O O15 0.739273 0.269012 0.052215
O O16 0.436611 0.245676 0.881209
O O17 0.950206 0.201886 0.950177
#
# Coordination Sequence:
#
# PCOD9051664 Si02
#       8
#     2   2   2   2   2   2   2   2
#     4  12  22  36  63  87 107 132 176 234 281 337
#     4  10  17  35  54  77 115 147 176 229 271 319
#     4  10  19  36  55  82 111 140 177 219 287 326
#     4  10  22  36  57  78 113 153 188 231 259 309
#     4  10  23  35  57  78 115 152 195 219 266 316
#     4  10  22  33  55  83 110 149 198 235 255 296
#     4  10  19  33  55  73 111 148 179 216 272 331
#     4  10  22  36  54  81 112 144 176 221 282 337
#
# _framework density 20.356694000000001
#
# number of rings (size 3 to 8) (size 9 to 14) (size 15 to 20)
#    0.750    1.000    2.500    2.250    3.500    0.500 
#    0.000    0.625    0.000    1.500    0.000    0.000 
#    0.000    0.000    0.000    0.000    0.000    0.000 
#
# Total GULP energy -89398.895430 kJ/mol
# GULP energy per Si atom -5587.430964 kJ/mol
# Density = 2.031036 g / cm^3
# Si number density = 20.356694 Si / 1000 Ang^3
#
#
#
# Elastic Constant Matrix: (Units=GPa)
#
#
# Indices 1 2 3 4 5 6 
#
# 1 97.6204 10.2847 29.8562 -3.2353 -5.2834 -5.9534
# 2 10.2847 65.1668 46.6289 13.4636 0.1389 -7.1483
# 3 29.8562 46.6289 131.0770 21.8988 -25.5592 1.1685
# 4 -3.2353 13.4636 21.8988 49.3297 -6.4032 -0.8727
# 5 -5.2834 0.1389 -25.5592 -6.4032 33.9215 1.3838
# 6 -5.9534 -7.1483 1.1685 -0.8727 1.3838 26.9403
#
#
#
# Elastic Compliance Matrix: (Units=1/GPa)
#
#
# Indices 1 2 3 4 5 6 
#
# 1 0.011394 0.000341 -0.003150 0.002060 -0.000326 0.002828
# 2 0.000341 0.023599 -0.009610 -0.003086 -0.008156 0.007073
# 3 -0.003150 -0.009610 0.014185 -0.002673 0.009914 -0.004457
# 4 0.002060 -0.003086 -0.002673 0.022780 0.002605 0.000357
# 5 -0.000326 -0.008156 0.009914 0.002605 0.037608 -0.004514
# 6 0.002828 0.007073 -0.004457 0.000357 -0.004514 0.040058
#
#
# Mechanical properties :
#
#
# Convention : Reuss Voigt Hill
#
# Bulk Modulus (GPa) = 41.08618 51.93374 46.50996
# Shear Modulus (GPa) = 27.38598 35.84458 31.61528
#
# Velocity S-wave (km/s) = 3.67182 4.20077 3.94517
# Velocity P-wave (km/s) = 6.18088 7.00685 6.60678
#
# Compressibility (1/GPa) = 0.02433908
#
# Stress axis : x y z
#
# Youngs Moduli (GPa) = 87.76365 42.37515 70.49861
#
# Poissons Ratio (x) = -0.01444 0.22204
# Poissons Ratio (y) = -0.02990 0.67752
# Poissons Ratio (z) = 0.27642 0.40724
#
# Static dielectric constant tensor:
#      x y z
#    x 1.756440 0.013370 -0.015890 
#    y 0.013370 1.710920 0.064900 
#    z -0.015890 0.064900 1.782870 
# 
# From -- ./inp_files/81202.got.cif
#   From: 2010.05.17/outbox.cif.g08.bks.cpg/sg2_41_cif.got.tgz:81202.got - 2010.06.03 11:33:40.
