data_PCOD9051723
_publ_section_title
;
Structure prediction by ZEFSAII (Michael W. Deem and Ramdas Pophale) SiO2 
 PCOD9051723
Probable space group: P -1
;
_chemical_formula_sum "Si O2"
_cell_formula_units_Z 13
_cell_length_a 16.624356
_cell_length_b 5.095351
_cell_length_c 8.332207
_cell_angle_alpha 72.643700
_cell_angle_beta 53.880136
_cell_angle_gamma 96.181362
_cell_volume 506.042955
_symmetry_space_group_name_H-M "P -1"
_symmetry_group_IT_number 2
_symmetry_cell_setting 'triclinic'
loop_
_space_group_symop_operation_xyz
x,y,z
-x,-y,-z
loop_
_atom_site_type_symbol
_atom_site_label
_atom_site_fract_x
_atom_site_fract_y
_atom_site_fract_z
Si Si1 0.828555 0.409496 0.661956
Si Si2 0.007485 0.277977 0.334353
Si Si3 0.500000 0.500000 0.500000
Si Si4 0.647027 0.143203 0.153427
Si Si5 0.217422 0.146139 0.582978
Si Si6 0.459979 0.371731 0.244651
Si Si7 0.821301 0.479004 0.151167
O O1 0.905967 0.452590 0.716735
O O2 0.817908 0.708616 0.555401
O O3 0.894016 0.312960 0.468232
O O4 0.713291 0.194682 0.899921
O O5 0.070033 0.288675 0.095512
O O6 0.000000 0.000000 0.500000
O O7 0.467702 0.598414 0.339377
O O8 0.605370 0.809341 0.323456
O O9 0.545199 0.241149 0.241963
O O10 0.725738 0.362921 0.152247
O O11 0.337679 0.164000 0.404756
O O12 0.212734 0.365222 0.690664
O O13 0.156679 0.814708 0.774403
O O14 0.500000 0.500000 0.000000
#
# Coordination Sequence:
#
# PCOD9051723 Si02
#       7
#     2   2   1   2   2   2   2
#     4  10  25  47  73 106 148 195 249 316 381 458
#     4  10  25  48  76 106 144 199 250 308 390 467
#     4  12  26  44  74 102 160 200 262 308 378 450
#     4  11  25  47  71 106 151 207 245 313 377 455
#     4  12  27  48  74 113 150 195 255 317 376 456
#     4  12  26  45  70 110 151 205 254 309 376 457
#     4  11  28  47  78 107 150 200 251 316 387 445
#
# _framework density 25.689515
#
# number of rings (size 3 to 8) (size 9 to 14) (size 15 to 20)
#    0.000    0.923    3.077    1.385   10.769    4.308 
#    0.000    0.000    0.000    0.000    0.000    0.000 
#    0.000    0.000    0.000    0.000    0.000    0.000 
#
# Total GULP energy -72516.780825 kJ/mol
# GULP energy per Si atom -5578.213910 kJ/mol
# Density = 2.563104 g / cm^3
# Si number density = 25.689515 Si / 1000 Ang^3
#
#
#
# Elastic Constant Matrix: (Units=GPa)
#
#
# Indices 1 2 3 4 5 6 
#
# 1 124.6892 25.2399 38.4312 13.2205 3.9930 -21.0019
# 2 25.2399 76.3967 33.5448 -11.6744 -10.7193 -14.5646
# 3 38.4312 33.5448 176.8444 -3.9544 -9.9885 -17.3690
# 4 13.2205 -11.6744 -3.9544 34.4128 -4.9744 10.5320
# 5 3.9930 -10.7193 -9.9885 -4.9744 45.3854 12.3687
# 6 -21.0019 -14.5646 -17.3690 10.5320 12.3687 43.7877
#
#
#
# Elastic Compliance Matrix: (Units=1/GPa)
#
#
# Indices 1 2 3 4 5 6 
#
# 1 0.011638 -0.003867 -0.001575 -0.008962 -0.005259 0.007312
# 2 -0.003867 0.017067 -0.001969 0.007814 0.004851 -0.000209
# 3 -0.001575 -0.001969 0.006513 0.000593 0.000965 0.000758
# 4 -0.008962 0.007814 0.000593 0.041313 0.011267 -0.014583
# 5 -0.005259 0.004851 0.000965 0.011267 0.028137 -0.011184
# 6 0.007312 -0.000209 0.000758 -0.014583 -0.011184 0.033242
#
#
# Mechanical properties :
#
#
# Convention : Reuss Voigt Hill
#
# Bulk Modulus (GPa) = 49.02826 63.59577 56.31202
# Shear Modulus (GPa) = 31.34206 43.43149 37.38678
#
# Velocity S-wave (km/s) = 3.49669 4.11619 3.81902
# Velocity P-wave (km/s) = 5.95221 6.88476 6.43540
#
# Compressibility (1/GPa) = 0.02039640
#
# Stress axis : x y z
#
# Youngs Moduli (GPa) = 85.92251 58.59425 153.54852
#
# Poissons Ratio (x) = 0.22658 0.24183
# Poissons Ratio (y) = 0.33225 0.30229
# Poissons Ratio (z) = 0.13533 0.11535
#
# Static dielectric constant tensor:
#      x y z
#    x 2.096460 0.104380 0.002460 
#    y 0.104380 -8.648930 -5.290150 
#    z 0.002460 -5.290150 -0.589220 
# 
# From -- ./inp_files/88035.got.cif
#   From: 2010.05.17/outbox.cif.g08.bks.cpg/sg2_45_cif.got.tgz:88035.got - 2010.06.03 11:33:40.
