data_PCOD9051270
_publ_section_title
;
Structure prediction by ZEFSAII (Michael W. Deem and Ramdas Pophale) SiO2 
 PCOD9051270
Probable space group: P -1
;
_chemical_formula_sum "Si O2"
_cell_formula_units_Z 12
_cell_length_a 9.230142
_cell_length_b 9.575579
_cell_length_c 9.842610
_cell_angle_alpha 97.130207
_cell_angle_beta 43.616931
_cell_angle_gamma 66.594867
_cell_volume 418.362124
_symmetry_space_group_name_H-M "P -1"
_symmetry_group_IT_number 2
_symmetry_cell_setting 'triclinic'
loop_
_space_group_symop_operation_xyz
x,y,z
-x,-y,-z
loop_
_atom_site_type_symbol
_atom_site_label
_atom_site_fract_x
_atom_site_fract_y
_atom_site_fract_z
Si Si1 0.906750 0.493700 0.212288
Si Si2 0.932632 0.871288 0.999087
Si Si3 0.485293 0.186982 0.114937
Si Si4 0.582062 0.191807 0.759826
Si Si5 0.834690 0.820480 0.368276
Si Si6 0.169065 0.628146 0.382572
O O1 0.841061 0.358873 0.237862
O O2 0.230008 0.352626 0.043552
O O3 0.716613 0.713240 0.429377
O O4 0.000000 0.500000 0.000000
O O5 0.866944 0.845049 0.192384
O O6 0.686340 0.007335 0.064192
O O7 0.000000 0.000000 0.000000
O O8 0.381948 0.395614 0.246011
O O9 0.167003 0.256485 0.331467
O O10 0.316550 0.891139 0.165837
O O11 0.692421 0.291908 0.650993
O O12 0.665406 0.032492 0.576858
O O13 0.120479 0.672547 0.257621
#
# Coordination Sequence:
#
# PCOD9051270 Si02
#       6
#     2   2   2   2   2   2
#     4  10  25  45  74 110 149 202 256 309 384 468
#     4  11  26  48  79 113 158 204 259 323 386 459
#     4  11  26  48  77 120 154 196 268 325 375 466
#     4  12  25  48  83 108 157 207 253 322 392 455
#     4  11  25  49  75 112 150 208 255 308 394 462
#     4  11  25  47  79 114 156 206 258 314 395 463
#
# _framework density 28.683285999999999
#
# number of rings (size 3 to 8) (size 9 to 14) (size 15 to 20)
#    0.000    1.000    1.667    3.000    4.667   10.000 
#    0.000    0.833    0.000    0.000    0.000    0.000 
#    0.000    0.000    0.000    0.000    0.000    0.000 
#
# Total GULP energy -67128.139100 kJ/mol
# GULP energy per Si atom -5594.011592 kJ/mol
# Density = 2.861800 g / cm^3
# Si number density = 28.683286 Si / 1000 Ang^3
#
#
#
# Elastic Constant Matrix: (Units=GPa)
#
#
# Indices 1 2 3 4 5 6 
#
# 1 118.9769 104.8577 42.0365 3.4162 26.8446 31.2618
# 2 104.8577 283.9408 69.8737 9.5166 27.8104 44.7355
# 3 42.0365 69.8737 85.4819 4.1318 17.5041 25.3412
# 4 3.4162 9.5166 4.1318 49.3205 6.9585 18.1715
# 5 26.8446 27.8104 17.5041 6.9585 45.6921 11.3379
# 6 31.2618 44.7355 25.3412 18.1715 11.3379 103.6922
#
#
#
# Elastic Compliance Matrix: (Units=1/GPa)
#
#
# Indices 1 2 3 4 5 6 
#
# 1 0.014238 -0.003992 -0.002307 0.001286 -0.004824 -0.001704
# 2 -0.003992 0.005720 -0.002529 -0.000407 0.000039 -0.000579
# 3 -0.002307 -0.002529 0.016021 0.000402 -0.002835 -0.001889
# 4 0.001286 -0.000407 0.000402 0.022081 -0.003070 -0.003844
# 5 -0.004824 0.000039 -0.002835 -0.003070 0.026301 -0.000207
# 6 -0.001704 -0.000579 -0.001889 -0.003844 -0.000207 0.011565
#
#
# Mechanical properties :
#
#
# Convention : Reuss Voigt Hill
#
# Bulk Modulus (GPa) = 54.57896 102.43727 78.50812
# Shear Modulus (GPa) = 41.77437 57.84973 49.81205
#
# Velocity S-wave (km/s) = 3.82042 4.49580 4.17180
# Velocity P-wave (km/s) = 6.20728 7.92088 7.11585
#
# Compressibility (1/GPa) = 0.01832208
#
# Stress axis : x y z
#
# Youngs Moduli (GPa) = 70.23397 174.84035 62.41732
#
# Poissons Ratio (x) = 0.69802 0.14403
# Poissons Ratio (y) = 0.28040 0.15783
# Poissons Ratio (z) = 0.16206 0.44209
#
# Static dielectric constant tensor:
#      x y z
#    x -0.705860 2.420670 -0.468960 
#    y 2.420670 0.233420 0.346840 
#    z -0.468960 0.346840 2.247390 
# 
# From -- ./inp_files/374443.got.cif
#   From: 2010.05.17/outbox.cif.g08.bks.cpg/sg2_188_cif.got.tgz:374443.got - 2010.06.03 11:33:40.
