data_PCOD9051004
_publ_section_title
;
Structure prediction by ZEFSAII (Michael W. Deem and Ramdas Pophale) SiO2 
 PCOD9051004
Probable space group: P -1
;
_chemical_formula_sum "Si O2"
_cell_formula_units_Z 16
_cell_length_a 9.473852
_cell_length_b 17.618797
_cell_length_c 12.084572
_cell_angle_alpha 130.642725
_cell_angle_beta 101.648290
_cell_angle_gamma 38.868942
_cell_volume 737.228730
_symmetry_space_group_name_H-M "P -1"
_symmetry_group_IT_number 2
_symmetry_cell_setting 'triclinic'
loop_
_space_group_symop_operation_xyz
x,y,z
-x,-y,-z
loop_
_atom_site_type_symbol
_atom_site_label
_atom_site_fract_x
_atom_site_fract_y
_atom_site_fract_z
Si Si1 0.566385 0.457153 0.100089
Si Si2 0.739439 0.782717 0.469987
Si Si3 0.089830 0.896890 0.532274
Si Si4 0.503673 0.141334 0.729424
Si Si5 0.382036 0.365136 0.091629
Si Si6 0.028929 0.287296 0.147602
Si Si7 0.562516 0.109214 0.053800
Si Si8 0.435334 0.270246 0.427128
O O1 0.317246 0.672440 0.325381
O O2 0.537248 0.364129 0.056256
O O3 0.868286 0.328094 0.060155
O O4 0.500000 0.500000 0.000000
O O5 0.610641 0.805063 0.362075
O O6 0.671129 0.758276 0.542748
O O7 0.087363 0.579611 0.310397
O O8 0.580836 0.985659 0.641507
O O9 0.257802 0.874871 0.613780
O O10 0.000000 0.000000 0.500000
O O11 0.805845 0.019909 0.657213
O O12 0.299095 0.332551 0.955274
O O13 0.583578 0.182162 0.035185
O O14 0.799639 0.499602 0.372103
O O15 0.300718 0.190645 0.059204
O O16 0.154709 0.128664 0.101242
O O17 0.468510 0.216827 0.256314
#
# Coordination Sequence:
#
# PCOD9051004 Si02
#       8
#     2   2   2   2   2   2   2   2
#     4  11  26  45  72 102 143 178 228 291 346 409
#     4  11  24  43  67 102 137 180 233 282 350 397
#     4  11  22  44  67 104 133 179 228 278 351 404
#     4  11  25  42  65 101 143 179 225 290 340 416
#     4  12  26  44  68 103 139 182 227 283 344 406
#     4  10  25  45  66 104 134 182 233 278 335 408
#     4  11  26  45  71  98 139 189 233 275 340 409
#     4  11  24  43  74  95 138 180 231 288 332 409
#
# _framework density 21.702897
#
# number of rings (size 3 to 8) (size 9 to 14) (size 15 to 20)
#    0.000    1.000    3.750    1.500    8.750    1.500 
#    0.000    1.250    0.000    0.000    0.000    0.000 
#    0.000    0.000    0.000    0.000    0.000    0.000 
#
# Total GULP energy -89580.590652 kJ/mol
# GULP energy per Si atom -5598.786916 kJ/mol
# Density = 2.165350 g / cm^3
# Si number density = 21.702897 Si / 1000 Ang^3
#
#
#
# Elastic Constant Matrix: (Units=GPa)
#
#
# Indices 1 2 3 4 5 6 
#
# 1 122.1446 76.6998 35.2374 -20.0635 5.9241 12.1509
# 2 76.6998 129.4875 23.4437 -9.3242 -0.9037 6.4161
# 3 35.2374 23.4437 55.5098 -11.5043 12.2988 5.0804
# 4 -20.0635 -9.3242 -11.5043 32.7048 -1.1355 -5.5802
# 5 5.9241 -0.9037 12.2988 -1.1355 28.9009 1.5579
# 6 12.1509 6.4161 5.0804 -5.5802 1.5579 43.2453
#
#
#
# Elastic Compliance Matrix: (Units=1/GPa)
#
#
# Indices 1 2 3 4 5 6 
#
# 1 0.015759 -0.007931 -0.005182 0.005220 -0.000964 -0.001934
# 2 -0.007931 0.012519 -0.001136 -0.001575 0.002427 0.000214
# 3 -0.005182 -0.001136 0.024898 0.004874 -0.009359 -0.000335
# 4 0.005220 -0.001575 0.004874 0.035461 -0.001953 0.002841
# 5 -0.000964 0.002427 -0.009359 -0.001953 0.038815 -0.000640
# 6 -0.001934 0.000214 -0.000335 0.002841 -0.000640 0.024064
#
#
# Mechanical properties :
#
#
# Convention : Reuss Voigt Hill
#
# Bulk Modulus (GPa) = 40.52206 64.21151 52.36679
# Shear Modulus (GPa) = 26.56154 32.42096 29.49125
#
# Velocity S-wave (km/s) = 3.50218 3.86923 3.69027
# Velocity P-wave (km/s) = 5.92161 7.04359 6.50683
#
# Compressibility (1/GPa) = 0.02467792
#
# Stress axis : x y z
#
# Youngs Moduli (GPa) = 63.45601 79.87567 40.16335
#
# Poissons Ratio (x) = 0.63353 0.20811
# Poissons Ratio (y) = 0.50330 0.04564
# Poissons Ratio (z) = 0.32880 0.09077
#
# Static dielectric constant tensor:
#      x y z
#    x 1.763650 -0.014220 0.013480 
#    y -0.014220 1.782710 0.016580 
#    z 0.013480 0.016580 1.797570 
# 
# From -- ./inp_files/280059.got.cif
#   From: 2010.05.17/outbox.cif.g08.bks.cpg/sg2_141_cif.got.tgz:280059.got - 2010.06.03 11:33:40.
