data_PCOD9051646
_publ_section_title
;
Structure prediction by ZEFSAII (Michael W. Deem and Ramdas Pophale) SiO2 
 PCOD9051646
Probable space group: P -1
;
_chemical_formula_sum "Si O2"
_cell_formula_units_Z 14
_cell_length_a 15.089266
_cell_length_b 6.621569
_cell_length_c 15.705553
_cell_angle_alpha 78.976280
_cell_angle_beta 153.078399
_cell_angle_gamma 112.933013
_cell_volume 606.687573
_symmetry_space_group_name_H-M "P -1"
_symmetry_group_IT_number 2
_symmetry_cell_setting 'triclinic'
loop_
_space_group_symop_operation_xyz
x,y,z
-x,-y,-z
loop_
_atom_site_type_symbol
_atom_site_label
_atom_site_fract_x
_atom_site_fract_y
_atom_site_fract_z
Si Si1 0.937829 0.484115 0.245809
Si Si2 0.523179 0.268977 0.542302
Si Si3 0.277825 0.909694 0.028644
Si Si4 0.912612 0.798983 0.512115
Si Si5 0.458257 0.414559 0.068356
Si Si6 0.795752 0.048008 0.845079
Si Si7 0.723306 0.982853 0.478419
O O1 0.920641 0.304109 0.319417
O O2 0.154648 0.735357 0.427748
O O3 0.733998 0.534773 0.066798
O O4 0.916477 0.336640 0.154710
O O5 0.500000 0.500000 0.500000
O O6 0.757966 0.271067 0.766486
O O7 0.426256 0.149274 0.377703
O O8 0.350562 0.122651 0.482525
O O9 0.365296 0.136307 0.023979
O O10 0.497084 0.887969 0.237917
O O11 0.214158 0.967891 0.060729
O O12 0.683007 0.576069 0.300826
O O13 0.871918 0.904317 0.556115
O O14 0.000000 0.000000 0.500000
O O15 0.500000 0.500000 0.000000
O O16 0.000000 0.000000 0.000000
#
# Coordination Sequence:
#
# PCOD9051646 Si02
#       7
#     2   2   2   2   2   2   2
#     4  12  26  46  75 104 150 191 242 300 363 431
#     4  10  25  48  74 106 148 192 242 312 368 432
#     4  11  25  48  74 106 145 195 243 299 366 432
#     4  12  27  45  73 109 146 193 241 302 366 431
#     4  12  27  46  73 108 147 187 246 302 358 440
#     4  10  25  47  70 108 145 187 247 298 369 441
#     4  11  25  48  75 106 148 193 245 299 367 435
#
# _framework density 23.076127
#
# number of rings (size 3 to 8) (size 9 to 14) (size 15 to 20)
#    0.000    0.857    2.857    2.571    8.000    4.000 
#    0.000    0.000    0.000    0.000    0.000    0.000 
#    0.000    0.000    0.000    0.000    0.000    0.000 
#
# Total GULP energy -78227.965624 kJ/mol
# GULP energy per Si atom -5587.711830 kJ/mol
# Density = 2.302361 g / cm^3
# Si number density = 23.076127 Si / 1000 Ang^3
#
#
#
# Elastic Constant Matrix: (Units=GPa)
#
#
# Indices 1 2 3 4 5 6 
#
# 1 78.3044 17.9031 -7.3523 3.4628 -16.3480 -6.4518
# 2 17.9031 118.5510 15.1399 0.5057 -11.7877 0.6224
# 3 -7.3523 15.1399 78.1184 4.5017 -7.1382 -7.3988
# 4 3.4628 0.5057 4.5017 41.2486 -16.7777 -4.1533
# 5 -16.3480 -11.7877 -7.1382 -16.7777 39.9240 -2.9227
# 6 -6.4518 0.6224 -7.3988 -4.1533 -2.9227 25.7607
#
#
#
# Elastic Compliance Matrix: (Units=1/GPa)
#
#
# Indices 1 2 3 4 5 6 
#
# 1 0.015499 -0.002006 0.002989 0.002095 0.007607 0.005990
# 2 -0.002006 0.009172 -0.001937 0.000934 0.001865 -0.000918
# 3 0.002989 -0.001937 0.014290 0.000262 0.003710 0.005363
# 4 0.002095 0.000934 0.000262 0.030690 0.014603 0.007182
# 5 0.007607 0.001865 0.003710 0.014603 0.036201 0.009387
# 6 0.005990 -0.000918 0.005363 0.007182 0.009387 0.044104
#
#
# Mechanical properties :
#
#
# Convention : Reuss Voigt Hill
#
# Bulk Modulus (GPa) = 26.98829 36.26169 31.62499
# Shear Modulus (GPa) = 30.44791 38.00553 34.22672
#
# Velocity S-wave (km/s) = 3.63637 4.06268 3.85542
# Velocity P-wave (km/s) = 5.41772 6.14453 5.79253
#
# Compressibility (1/GPa) = 0.03705311
#
# Stress axis : x y z
#
# Youngs Moduli (GPa) = 64.51954 109.02956 69.98095
#
# Poissons Ratio (x) = 0.21875 -0.20920
# Poissons Ratio (y) = 0.12945 0.13553
# Poissons Ratio (z) = -0.19287 0.21116
#
# Static dielectric constant tensor:
#      x y z
#    x 1.854390 -0.027220 -0.013980 
#    y -0.027220 1.873550 0.047700 
#    z -0.013980 0.047700 1.777060 
# 
# From -- ./inp_files/98422.got.cif
#   From: 2010.05.17/outbox.cif.g08.bks.cpg/sg2_50_cif.got.tgz:98422.got - 2010.06.03 11:33:40.
