data_PCOD9051946
_publ_section_title
;
Structure prediction by ZEFSAII (Michael W. Deem and Ramdas Pophale) SiO2 
 PCOD9051946
Probable space group: P -1
;
_chemical_formula_sum "Si O2"
_cell_formula_units_Z 12
_cell_length_a 9.096522
_cell_length_b 9.272116
_cell_length_c 14.499771
_cell_angle_alpha 38.516999
_cell_angle_beta 39.251175
_cell_angle_gamma 53.831528
_cell_volume 481.496206
_symmetry_space_group_name_H-M "P -1"
_symmetry_group_IT_number 2
_symmetry_cell_setting 'triclinic'
loop_
_space_group_symop_operation_xyz
x,y,z
-x,-y,-z
loop_
_atom_site_type_symbol
_atom_site_label
_atom_site_fract_x
_atom_site_fract_y
_atom_site_fract_z
Si Si1 0.141102 0.795761 0.497114
Si Si2 0.594832 0.473607 0.186733
Si Si3 0.186302 0.969696 0.770441
Si Si4 0.234987 0.543319 0.072660
Si Si5 0.517180 0.356634 0.470895
Si Si6 0.265418 0.842227 0.199113
O O1 0.344969 0.841603 0.449950
O O2 0.210120 0.799314 0.355309
O O3 0.974003 0.570813 0.711131
O O4 0.000000 0.000000 0.500000
O O5 0.759656 0.571888 0.975848
O O6 0.641236 0.199159 0.285837
O O7 0.648870 0.500719 0.254911
O O8 0.347276 0.598139 0.236104
O O9 0.179525 0.812062 0.945483
O O10 0.294694 0.226914 0.602272
O O11 0.941209 0.020240 0.816550
O O12 0.500000 0.500000 0.000000
O O13 0.500000 0.500000 0.500000
O O14 0.500000 0.000000 0.000000
#
# Coordination Sequence:
#
# PCOD9051946 Si02
#       6
#     2   2   2   2   2   2
#     4  12  26  46  80 114 164 207 269 332 408 480
#     4  10  25  49  81 107 166 201 278 321 415 458
#     4  10  27  49  83 111 166 212 269 336 411 470
#     4  10  25  48  81 112 157 212 271 328 406 476
#     4  12  25  48  77 119 158 212 270 337 401 482
#     4  12  27  49  83 123 159 212 274 336 406 483
#
# _framework density 24.922312999999999
#
# number of rings (size 3 to 8) (size 9 to 14) (size 15 to 20)
#    1.000    0.000    1.667    3.500    4.667    3.333 
#    0.000    2.500    0.000    0.000    0.000    0.000 
#    0.000    0.000    0.000    0.000    0.000    0.000 
#
# Total GULP energy -66819.549289 kJ/mol
# GULP energy per Si atom -5568.295774 kJ/mol
# Density = 2.486559 g / cm^3
# Si number density = 24.922313 Si / 1000 Ang^3
#
#
#
# Elastic Constant Matrix: (Units=GPa)
#
#
# Indices 1 2 3 4 5 6 
#
# 1 132.5374 33.5051 72.4158 0.5714 -2.8879 -15.1684
# 2 33.5051 133.8893 38.2098 18.5927 7.5831 -16.2389
# 3 72.4158 38.2098 178.3939 12.2459 20.9047 9.7610
# 4 0.5714 18.5927 12.2459 32.0045 5.6176 13.0808
# 5 -2.8879 7.5831 20.9047 5.6176 35.8166 4.1329
# 6 -15.1684 -16.2389 9.7610 13.0808 4.1329 40.3809
#
#
#
# Elastic Compliance Matrix: (Units=1/GPa)
#
#
# Indices 1 2 3 4 5 6 
#
# 1 0.011110 -0.000950 -0.004954 -0.000296 0.003489 0.004728
# 2 -0.000950 0.010086 -0.001499 -0.007851 -0.000878 0.006695
# 3 -0.004954 -0.001499 0.008706 0.000144 -0.004709 -0.004133
# 4 -0.000296 -0.007851 0.000144 0.043274 -0.003273 -0.016986
# 5 0.003489 -0.000878 -0.004709 -0.003273 0.031659 -0.000084
# 6 0.004728 0.006695 -0.004133 -0.016986 -0.000084 0.035742
#
#
# Mechanical properties :
#
#
# Convention : Reuss Voigt Hill
#
# Bulk Modulus (GPa) = 66.24019 81.45355 73.84687
# Shear Modulus (GPa) = 31.16918 41.68639 36.42778
#
# Velocity S-wave (km/s) = 3.54029 4.09425 3.82731
# Velocity P-wave (km/s) = 6.58392 7.42323 7.01614
#
# Compressibility (1/GPa) = 0.01509657
#
# Stress axis : x y z
#
# Youngs Moduli (GPa) = 90.00812 99.14325 114.86795
#
# Poissons Ratio (x) = 0.09415 0.56903
# Poissons Ratio (y) = 0.08548 0.17223
# Poissons Ratio (z) = 0.44588 0.14865
#
# Static dielectric constant tensor:
#      x y z
#    x 1.966060 0.021570 0.040850 
#    y 0.021570 2.132670 -0.085880 
#    z 0.040850 -0.085880 1.998240 
# 
# From -- ./inp_files/491907.got.cif
#   From: 2010.05.17/outbox.cif.g08.bks.cpg/sg2_246_cif.got.tgz:491907.got - 2010.06.03 11:33:40.
