data_PCOD9051459
_publ_section_title
;
Structure prediction by ZEFSAII (Michael W. Deem and Ramdas Pophale) SiO2 
 PCOD9051459
Probable space group: P -1
;
_chemical_formula_sum "Si O2"
_cell_formula_units_Z 10
_cell_length_a 7.178106
_cell_length_b 13.617405
_cell_length_c 14.185901
_cell_angle_alpha 158.893063
_cell_angle_beta 68.721432
_cell_angle_gamma 121.672360
_cell_volume 386.808574
_symmetry_space_group_name_H-M "P -1"
_symmetry_group_IT_number 2
_symmetry_cell_setting 'triclinic'
loop_
_space_group_symop_operation_xyz
x,y,z
-x,-y,-z
loop_
_atom_site_type_symbol
_atom_site_label
_atom_site_fract_x
_atom_site_fract_y
_atom_site_fract_z
Si Si1 0.686936 0.959723 0.989128
Si Si2 0.112473 0.578180 0.946087
Si Si3 0.117824 0.058100 0.880391
Si Si4 0.725817 0.735596 0.503499
Si Si5 0.612472 0.381251 0.796020
O O1 0.521599 0.565277 0.679477
O O2 0.782754 0.086191 0.191218
O O3 0.926873 0.095723 0.007009
O O4 0.500000 0.000000 0.000000
O O5 0.299559 0.963781 0.244304
O O6 0.189852 0.353091 0.686762
O O7 0.000000 0.500000 0.000000
O O8 0.890394 0.518822 0.875087
O O9 0.352147 0.401556 0.108042
O O10 0.945589 0.832427 0.623406
O O11 0.500000 0.000000 0.500000
O O12 0.500000 0.500000 0.000000
#
# Coordination Sequence:
#
# PCOD9051459 Si02
#       5
#     2   2   2   2   2
#     4  11  24  46  79 107 148 200 249 312 378 440
#     4  11  25  44  72 105 145 189 245 300 362 448
#     4  10  25  46  71 112 151 190 255 310 365 456
#     4  11  24  47  72 108 147 190 245 305 374 436
#     4  11  24  43  69 103 144 189 237 299 373 434
#
# _framework density 25.852581000000001
#
# number of rings (size 3 to 8) (size 9 to 14) (size 15 to 20)
#    0.000    1.200    0.000    6.000    5.600    0.800 
#    0.000    8.000    0.000    0.000    0.000    0.000 
#    0.000    0.000    0.000    0.000    0.000    0.000 
#
# Total GULP energy -55800.189219 kJ/mol
# GULP energy per Si atom -5580.018922 kJ/mol
# Density = 2.579374 g / cm^3
# Si number density = 25.852581 Si / 1000 Ang^3
#
#
#
# Elastic Constant Matrix: (Units=GPa)
#
#
# Indices 1 2 3 4 5 6 
#
# 1 123.2194 42.4034 -0.4462 -21.2843 13.8990 1.7389
# 2 42.4034 201.5404 56.0336 6.7274 1.4747 -3.5408
# 3 -0.4462 56.0336 105.9887 9.7296 -0.2608 7.1877
# 4 -21.2843 6.7274 9.7296 52.2340 5.8462 1.4336
# 5 13.8990 1.4747 -0.2608 5.8462 30.5962 -4.1546
# 6 1.7389 -3.5408 7.1877 1.4336 -4.1546 52.2536
#
#
#
# Elastic Compliance Matrix: (Units=1/GPa)
#
#
# Indices 1 2 3 4 5 6 
#
# 1 0.010610 -0.002679 0.001060 0.005160 -0.005842 -0.001287
# 2 -0.002679 0.006531 -0.003403 -0.001477 0.001311 0.001145
# 3 0.001060 -0.003403 0.011471 -0.001189 -0.000241 -0.001830
# 4 0.005160 -0.001477 -0.001189 0.022448 -0.006744 -0.001260
# 5 -0.005842 0.001311 -0.000241 -0.006744 0.037029 0.003446
# 6 -0.001287 0.001145 -0.001830 -0.001260 0.003446 0.019818
#
#
# Mechanical properties :
#
#
# Convention : Reuss Voigt Hill
#
# Bulk Modulus (GPa) = 53.85425 69.63666 61.74546
# Shear Modulus (GPa) = 40.27659 49.20061 44.73860
#
# Velocity S-wave (km/s) = 3.95135 4.36721 4.16447
# Velocity P-wave (km/s) = 6.45709 7.24048 6.85998
#
# Compressibility (1/GPa) = 0.01856864
#
# Stress axis : x y z
#
# Youngs Moduli (GPa) = 94.25149 153.10553 87.17443
#
# Poissons Ratio (x) = 0.41020 -0.09243
# Poissons Ratio (y) = 0.25252 0.29666
# Poissons Ratio (z) = -0.09993 0.52103
#
# Static dielectric constant tensor:
#      x y z
#    x 3.246730 -1.131070 -0.619620 
#    y -1.131070 2.888180 0.590750 
#    z -0.619620 0.590750 2.556980 
# 
# From -- ./inp_files/25345.got.cif
#   From: 2010.05.17/outbox.cif.g08.bks.cpg/sg2_13_cif.got.tgz:25345.got - 2010.06.03 11:33:40.
