data_PCOD9051969
_publ_section_title
;
Structure prediction by ZEFSAII (Michael W. Deem and Ramdas Pophale) SiO2 
 PCOD9051969
Probable space group: P -1
;
_chemical_formula_sum "Si O2"
_cell_formula_units_Z 10
_cell_length_a 8.040992
_cell_length_b 16.127991
_cell_length_c 10.215282
_cell_angle_alpha 36.604527
_cell_angle_beta 148.983779
_cell_angle_gamma 145.833934
_cell_volume 362.724896
_symmetry_space_group_name_H-M "P -1"
_symmetry_group_IT_number 2
_symmetry_cell_setting 'triclinic'
loop_
_space_group_symop_operation_xyz
x,y,z
-x,-y,-z
loop_
_atom_site_type_symbol
_atom_site_label
_atom_site_fract_x
_atom_site_fract_y
_atom_site_fract_z
Si Si1 0.015141 0.629953 0.444771
Si Si2 0.102932 0.908724 0.003646
Si Si3 0.190486 0.886943 0.605968
Si Si4 0.198000 0.281034 0.190765
Si Si5 0.898148 0.427562 0.165846
O O1 0.899460 0.754637 0.152502
O O2 0.452831 0.718414 0.643426
O O3 0.832350 0.556093 0.551653
O O4 0.000000 0.500000 0.500000
O O5 0.454209 0.013112 0.194162
O O6 0.131756 0.822816 0.997613
O O7 0.926647 0.016768 0.696786
O O8 0.237710 0.754266 0.726859
O O9 0.883607 0.802583 0.617814
O O10 0.259232 0.457289 0.027370
O O11 0.000000 0.500000 0.000000
#
# Coordination Sequence:
#
# PCOD9051969 Si02
#       5
#     2   2   2   2   2
#     4  12  26  44  79 108 145 194 254 297 360 441
#     4  12  25  46  76 108 148 192 244 301 362 437
#     4  11  27  46  74 112 150 187 241 304 374 423
#     4  11  24  47  77 106 146 198 246 294 358 449
#     4  10  25  49  71 107 148 196 240 305 366 435
#
# _framework density 27.569102000000001
#
# number of rings (size 3 to 8) (size 9 to 14) (size 15 to 20)
#    0.000    0.800    4.000    1.800    2.800    3.200 
#    0.000    5.000    0.000    0.000    0.000    0.000 
#    0.000    0.000    0.000    0.000    0.000    0.000 
#
# Total GULP energy -55903.848275 kJ/mol
# GULP energy per Si atom -5590.384828 kJ/mol
# Density = 2.750635 g / cm^3
# Si number density = 27.569102 Si / 1000 Ang^3
#
#
#
# Elastic Constant Matrix: (Units=GPa)
#
#
# Indices 1 2 3 4 5 6 
#
# 1 111.7044 37.1587 88.6071 -8.2008 -19.4065 -32.2841
# 2 37.1587 192.0799 96.7633 -17.2095 15.7332 -33.5493
# 3 88.6071 96.7633 302.4377 -38.3446 -17.6698 -3.4042
# 4 -8.2008 -17.2095 -38.3446 61.9506 -5.3760 -2.4527
# 5 -19.4065 15.7332 -17.6698 -5.3760 52.4460 -1.1225
# 6 -32.2841 -33.5493 -3.4042 -2.4527 -1.1225 33.2710
#
#
#
# Elastic Compliance Matrix: (Units=1/GPa)
#
#
# Indices 1 2 3 4 5 6 
#
# 1 0.020211 0.002647 -0.006097 0.000955 0.005197 0.021903
# 2 0.002647 0.008601 -0.003443 0.000827 -0.002443 0.010868
# 3 -0.006097 -0.003443 0.006399 0.001941 0.000949 -0.008558
# 4 0.000955 0.000827 0.001941 0.018066 0.002684 0.003382
# 5 0.005197 -0.002443 0.000949 0.002684 0.022396 0.003630
# 6 0.021903 0.010868 -0.008558 0.003382 0.003630 0.061764
#
#
# Mechanical properties :
#
#
# Convention : Reuss Voigt Hill
#
# Bulk Modulus (GPa) = 46.67272 116.80891 81.74081
# Shear Modulus (GPa) = 31.57258 55.11305 43.34282
#
# Velocity S-wave (km/s) = 3.38778 4.47597 3.96934
# Velocity P-wave (km/s) = 5.68056 8.31708 7.12189
#
# Compressibility (1/GPa) = 0.02142579
#
# Stress axis : x y z
#
# Youngs Moduli (GPa) = 49.47736 116.26684 156.26265
#
# Poissons Ratio (x) = -0.30776 0.95274
# Poissons Ratio (y) = -0.13097 0.53800
# Poissons Ratio (z) = 0.30167 0.40030
#
# Static dielectric constant tensor:
#      x y z
#    x 2.211480 0.150590 0.007320 
#    y 0.150590 2.219400 0.108060 
#    z 0.007320 0.108060 2.213300 
# 
# From -- ./inp_files/32417.got.cif
#   From: 2010.05.17/outbox.cif.g08.bks.cpg/sg2_17_cif.got.tgz:32417.got - 2010.06.03 11:33:40.
