data_PCOD9051662
_publ_section_title
;
Structure prediction by ZEFSAII (Michael W. Deem and Ramdas Pophale) SiO2 
 PCOD9051662
Probable space group: P -1
;
_chemical_formula_sum "Si O2"
_cell_formula_units_Z 16
_cell_length_a 5.358129
_cell_length_b 15.497287
_cell_length_c 9.322356
_cell_angle_alpha 109.595747
_cell_angle_beta 75.942648
_cell_angle_gamma 96.843518
_cell_volume 706.820447
_symmetry_space_group_name_H-M "P -1"
_symmetry_group_IT_number 2
_symmetry_cell_setting 'triclinic'
loop_
_space_group_symop_operation_xyz
x,y,z
-x,-y,-z
loop_
_atom_site_type_symbol
_atom_site_label
_atom_site_fract_x
_atom_site_fract_y
_atom_site_fract_z
Si Si1 0.625461 0.462552 0.602908
Si Si2 0.023539 0.360383 0.325669
Si Si3 0.652180 0.096812 0.189170
Si Si4 0.478103 0.401745 0.873167
Si Si5 0.818730 0.227134 0.723531
Si Si6 0.524329 0.884656 0.092773
Si Si7 0.884620 0.813081 0.632994
Si Si8 0.087597 0.263165 0.999803
O O1 0.500000 0.500000 0.500000
O O2 0.813916 0.546100 0.679352
O O3 0.424984 0.426282 0.728931
O O4 0.801461 0.383120 0.479120
O O5 0.187751 0.286544 0.344417
O O6 0.915937 0.311513 0.169456
O O7 0.889561 0.139837 0.272055
O O8 0.376594 0.131863 0.302279
O O9 0.640751 0.987117 0.145423
O O10 0.654306 0.116812 0.027381
O O11 0.709229 0.329978 0.789230
O O12 0.274034 0.345263 0.963258
O O13 0.500000 0.500000 0.000000
O O14 0.596375 0.151566 0.759129
O O15 0.984120 0.201515 0.548798
O O16 0.974695 0.225701 0.848137
O O17 0.743335 0.812888 0.993676
#
# Coordination Sequence:
#
# PCOD9051662 Si02
#       8
#     2   2   2   2   2   2   2   2
#     4  11  26  41  67  94 139 181 237 295 345 424
#     4  11  24  43  64 101 133 183 238 285 354 414
#     4  11  27  47  78 104 144 187 240 293 354 428
#     4  11  24  44  62 100 135 182 235 287 357 411
#     4  11  27  43  70 100 145 184 234 297 354 428
#     4  10  25  47  71 105 139 184 239 289 355 425
#     4  12  27  46  74 107 144 189 233 296 358 420
#     4  11  24  43  70  96 139 184 234 290 352 424
#
# _framework density 22.636583000000002
#
# number of rings (size 3 to 8) (size 9 to 14) (size 15 to 20)
#    0.000    1.000    3.750    0.750   10.500    2.500 
#    0.000    0.000    0.000    0.000    0.000    0.000 
#    0.000    0.000    0.000    0.000    0.000    0.000 
#
# Total GULP energy -89358.705370 kJ/mol
# GULP energy per Si atom -5584.919086 kJ/mol
# Density = 2.258506 g / cm^3
# Si number density = 22.636583 Si / 1000 Ang^3
#
#
#
# Elastic Constant Matrix: (Units=GPa)
#
#
# Indices 1 2 3 4 5 6 
#
# 1 28.8646 39.1529 14.6640 -23.1844 10.2460 31.1393
# 2 39.1529 127.1839 56.1933 16.5355 -18.9767 -29.7357
# 3 14.6640 56.1933 142.3306 -17.1092 -19.4697 10.1195
# 4 -23.1844 16.5355 -17.1092 3.0085 14.4241 37.7799
# 5 10.2460 -18.9767 -19.4697 14.4241 25.0539 -19.2105
# 6 31.1393 -29.7357 10.1195 37.7799 -19.2105 -15.7455
#
#
#
# Elastic Compliance Matrix: (Units=1/GPa)
#
#
# Indices 1 2 3 4 5 6 
#
# 1 0.018147 -0.000377 -0.003164 -0.009123 0.002484 0.009646
# 2 -0.000377 0.007241 -0.002260 0.004068 -0.001625 -0.004127
# 3 -0.003164 -0.002260 0.009272 0.001830 0.006275 0.000705
# 4 -0.009123 0.004068 0.001830 0.020647 0.008014 0.015215
# 5 0.002484 -0.001625 0.006275 0.008014 0.031974 -0.007769
# 6 0.009646 -0.004127 0.000705 0.015215 -0.007769 0.009800
#
#
# Mechanical properties :
#
#
# Convention : Reuss Voigt Hill
#
# Bulk Modulus (GPa) = 43.36541 57.59995 50.48268
# Shear Modulus (GPa) = 42.96769 15.02131 28.99450
#
# Velocity S-wave (km/s) = 4.36151 2.57881 3.58281
# Velocity P-wave (km/s) = 6.67551 5.86240 6.28213
#
# Compressibility (1/GPa) = 0.02305985
#
# Stress axis : x y z
#
# Youngs Moduli (GPa) = 55.10632 138.10957 107.84982
#
# Poissons Ratio (x) = 0.05201 0.34120
# Poissons Ratio (y) = 0.02075 0.24370
# Poissons Ratio (z) = 0.17434 0.31207
#
# Static dielectric constant tensor:
#      x y z
#    x 1.978660 0.133190 0.002000 
#    y 0.133190 2.228290 0.030960 
#    z 0.002000 0.030960 1.830840 
# 
# From -- ./inp_files/37332.got.cif
#   From: 2010.05.17/outbox.cif.g08.bks.cpg/sg2_19_cif.got.tgz:37332.got - 2010.06.03 11:33:40.
