data_PCOD9051665
_publ_section_title
;
Structure prediction by ZEFSAII (Michael W. Deem and Ramdas Pophale) SiO2 
 PCOD9051665
Probable space group: P -1
;
_chemical_formula_sum "Si O2"
_cell_formula_units_Z 14
_cell_length_a 15.182301
_cell_length_b 5.246654
_cell_length_c 24.695817
_cell_angle_alpha 73.095627
_cell_angle_beta 160.325518
_cell_angle_gamma 97.307014
_cell_volume 564.244549
_symmetry_space_group_name_H-M "P -1"
_symmetry_group_IT_number 2
_symmetry_cell_setting 'triclinic'
loop_
_space_group_symop_operation_xyz
x,y,z
-x,-y,-z
loop_
_atom_site_type_symbol
_atom_site_label
_atom_site_fract_x
_atom_site_fract_y
_atom_site_fract_z
Si Si1 0.094282 0.264045 0.206325
Si Si2 0.396585 0.904697 0.066783
Si Si3 0.282363 0.478809 0.633822
Si Si4 0.731305 0.716166 0.474074
Si Si5 0.355467 0.316658 0.456063
Si Si6 0.628685 0.376188 0.142147
Si Si7 0.757499 0.702783 0.891908
O O1 0.096053 0.351866 0.264087
O O2 0.423944 0.039336 0.392873
O O3 0.931413 0.055650 0.123551
O O4 0.944619 0.554088 0.063838
O O5 0.486780 0.831841 0.186762
O O6 0.536507 0.627922 0.121130
O O7 0.505124 0.142324 0.098330
O O8 0.202997 0.504169 0.524153
O O9 0.460165 0.667179 0.733752
O O10 0.000000 0.500000 0.500000
O O11 0.720141 0.579496 0.533314
O O12 0.013340 0.780847 0.639211
O O13 0.407225 0.972419 0.252353
O O14 0.500000 0.500000 0.500000
O O15 0.500000 0.500000 0.000000
O O16 0.000000 0.500000 0.000000
#
# Coordination Sequence:
#
# PCOD9051665 Si02
#       7
#     2   2   2   2   2   2   2
#     4  10  25  47  71 106 149 202 252 322 391 466
#     4  11  26  47  75 109 155 199 255 324 393 465
#     4  11  25  46  73 107 149 198 257 325 389 457
#     4  12  27  45  78 108 151 203 261 321 393 468
#     4  11  26  46  74 106 151 200 258 318 395 466
#     4  12  27  48  76 114 156 203 262 319 396 471
#     4  11  25  47  73 109 152 198 263 321 388 472
#
# _framework density 24.811937
#
# number of rings (size 3 to 8) (size 9 to 14) (size 15 to 20)
#    0.000    0.857    2.857    2.143   10.000    2.857 
#    0.000    0.000    0.000    0.000    0.000    0.000 
#    0.000    0.000    0.000    0.000    0.000    0.000 
#
# Total GULP energy -78104.785033 kJ/mol
# GULP energy per Si atom -5578.913217 kJ/mol
# Density = 2.475546 g / cm^3
# Si number density = 24.811937 Si / 1000 Ang^3
#
#
#
# Elastic Constant Matrix: (Units=GPa)
#
#
# Indices 1 2 3 4 5 6 
#
# 1 148.1523 18.0543 37.6235 8.3565 -42.2501 -6.0645
# 2 18.0543 88.4867 20.9489 8.9376 -14.5589 2.5658
# 3 37.6235 20.9489 148.3144 4.3220 -26.9275 -11.8087
# 4 8.3565 8.9376 4.3220 34.3417 -7.9561 2.3754
# 5 -42.2501 -14.5589 -26.9275 -7.9561 60.2556 -0.1331
# 6 -6.0645 2.5658 -11.8087 2.3754 -0.1331 32.5826
#
#
#
# Elastic Compliance Matrix: (Units=1/GPa)
#
#
# Indices 1 2 3 4 5 6 
#
# 1 0.008725 -0.000619 -0.001011 -0.000672 0.005431 0.001378
# 2 -0.000619 0.012291 -0.001324 -0.002410 0.001622 -0.001381
# 3 -0.001011 -0.001324 0.007859 -0.000014 0.002488 0.002776
# 4 -0.000672 -0.002410 -0.000014 0.030756 0.002996 -0.002170
# 5 0.005431 0.001622 0.002488 0.002996 0.022307 0.001657
# 6 0.001378 -0.001381 0.002776 -0.002170 0.001657 0.032227
#
#
# Mechanical properties :
#
#
# Convention : Reuss Voigt Hill
#
# Bulk Modulus (GPa) = 43.54064 59.80074 51.67069
# Shear Modulus (GPa) = 39.14518 45.99109 42.56814
#
# Velocity S-wave (km/s) = 3.97631 4.31000 4.14651
# Velocity P-wave (km/s) = 6.21834 6.99443 6.61777
#
# Compressibility (1/GPa) = 0.02296705
#
# Stress axis : x y z
#
# Youngs Moduli (GPa) = 114.61336 81.35754 127.24440
#
# Poissons Ratio (x) = 0.05040 0.12858
# Poissons Ratio (y) = 0.07100 0.16849
# Poissons Ratio (z) = 0.11582 0.10773
#
# Static dielectric constant tensor:
#      x y z
#    x 1.952280 -0.125370 -0.011310 
#    y -0.125370 2.133590 -0.079070 
#    z -0.011310 -0.079070 1.961570 
# 
# From -- ./inp_files/40419.got.cif
#   From: 2010.05.17/outbox.cif.g08.bks.cpg/sg2_21_cif.got.tgz:40419.got - 2010.06.03 11:33:40.
