data_PCOD9051097
_publ_section_title
;
Structure prediction by ZEFSAII (Michael W. Deem and Ramdas Pophale) SiO2 
 PCOD9051097
Probable space group: P -1
;
_chemical_formula_sum "Si O2"
_cell_formula_units_Z 16
_cell_length_a 14.351075
_cell_length_b 26.141509
_cell_length_c 17.598409
_cell_angle_alpha 158.443764
_cell_angle_beta 149.515045
_cell_angle_gamma 20.103757
_cell_volume 830.236956
_symmetry_space_group_name_H-M "P -1"
_symmetry_group_IT_number 2
_symmetry_cell_setting 'triclinic'
loop_
_space_group_symop_operation_xyz
x,y,z
-x,-y,-z
loop_
_atom_site_type_symbol
_atom_site_label
_atom_site_fract_x
_atom_site_fract_y
_atom_site_fract_z
Si Si1 0.788859 0.288667 0.506817
Si Si2 0.274166 0.032974 0.607708
Si Si3 0.951409 0.362531 0.271596
Si Si4 0.811968 0.856419 0.123242
Si Si5 0.798493 0.921557 0.800589
Si Si6 0.385259 0.651071 0.197042
Si Si7 0.213913 0.747825 0.719934
Si Si8 0.343906 0.948876 0.873782
O O1 0.496813 0.523394 0.636672
O O2 0.853329 0.267162 0.432914
O O3 0.755024 0.143736 0.296740
O O4 0.017645 0.209451 0.617472
O O5 0.531762 0.975366 0.678532
O O6 0.312677 0.844485 0.380853
O O7 0.245275 0.088628 0.752954
O O8 0.634029 0.522250 0.251828
O O9 0.000000 0.500000 0.500000
O O10 0.028116 0.250660 0.250341
O O11 0.144672 0.177036 0.087950
O O12 0.676773 0.030613 0.203852
O O13 0.127972 0.712309 0.133951
O O14 0.654363 0.803068 0.916586
O O15 0.972044 0.842131 0.736672
O O16 0.742570 0.109613 0.050525
O O17 0.500000 0.500000 0.000000
#
# Coordination Sequence:
#
# PCOD9051097 Si02
#       8
#     2   2   2   2   2   2   2   2
#     4  11  23  44  69  93 125 171 222 273 321 371
#     4  12  24  41  65  96 133 166 215 275 315 385
#     4  12  22  40  66  96 133 172 204 261 331 390
#     4  11  23  39  62  96 134 173 205 256 331 389
#     4  11  24  46  66  94 130 167 224 268 319 385
#     4  12  24  38  58  99 134 168 211 254 322 390
#     4  10  25  45  69  90 121 180 222 268 324 378
#     4  11  22  41  65  92 139 171 210 262 320 397
#
# _framework density 19.271605999999998
#
# number of rings (size 3 to 8) (size 9 to 14) (size 15 to 20)
#    0.000    0.750    6.250    0.375    1.750    4.000 
#    0.000    0.000    0.000    0.000    0.000    0.000 
#    0.000    0.000    0.000    0.000    0.000    0.000 
#
# Total GULP energy -89323.590836 kJ/mol
# GULP energy per Si atom -5582.724427 kJ/mol
# Density = 1.922774 g / cm^3
# Si number density = 19.271606 Si / 1000 Ang^3
#
#
#
# Elastic Constant Matrix: (Units=GPa)
#
#
# Indices 1 2 3 4 5 6 
#
# 1 80.6947 48.7205 22.5944 -11.7087 -0.3468 -5.8079
# 2 48.7205 160.7893 45.1203 -31.1415 3.8767 0.7483
# 3 22.5944 45.1203 60.5855 -0.2070 3.1366 0.7132
# 4 -11.7087 -31.1415 -0.2070 27.7476 3.8346 4.7190
# 5 -0.3468 3.8767 3.1366 3.8346 20.1821 -5.8134
# 6 -5.8079 0.7483 0.7132 4.7190 -5.8134 40.0037
#
#
#
# Elastic Compliance Matrix: (Units=1/GPa)
#
#
# Indices 1 2 3 4 5 6 
#
# 1 0.015973 -0.003521 -0.003450 0.002096 0.001797 0.002460
# 2 -0.003521 0.011969 -0.007291 0.012990 -0.004499 -0.002791
# 3 -0.003450 -0.007291 0.023206 -0.009460 -0.000387 0.000281
# 4 0.002096 0.012990 -0.009460 0.054732 -0.013758 -0.008226
# 5 0.001797 -0.004499 -0.000387 -0.013758 0.056032 0.010118
# 6 0.002460 -0.002791 0.000281 -0.008226 0.010118 0.027843
#
#
# Mechanical properties :
#
#
# Convention : Reuss Voigt Hill
#
# Bulk Modulus (GPa) = 44.19692 59.43778 51.81735
# Shear Modulus (GPa) = 22.14150 29.96228 26.05189
#
# Velocity S-wave (km/s) = 3.39325 3.94729 3.68071
# Velocity P-wave (km/s) = 6.19158 7.18915 6.70893
#
# Compressibility (1/GPa) = 0.02262601
#
# Stress axis : x y z
#
# Youngs Moduli (GPa) = 62.60596 83.54668 43.09162
#
# Poissons Ratio (x) = 0.29414 0.14866
# Poissons Ratio (y) = 0.22041 0.31418
# Poissons Ratio (z) = 0.21597 0.60913
#
# Static dielectric constant tensor:
#      x y z
#    x 1.667870 -0.016770 -0.008620 
#    y -0.016770 1.676270 0.000890 
#    z -0.008620 0.000890 1.679120 
# 
# From -- ./inp_files/447551.got.cif
#   From: 2010.05.17/outbox.cif.g08.bks.cpg/sg2_224_cif.got.tgz:447551.got - 2010.06.03 11:33:40.
