data_PCOD9051852
_publ_section_title
;
Structure prediction by ZEFSAII (Michael W. Deem and Ramdas Pophale) SiO2 
 PCOD9051852
Probable space group: P -1
;
_chemical_formula_sum "Si O2"
_cell_formula_units_Z 11
_cell_length_a 9.303750
_cell_length_b 9.644987
_cell_length_c 9.396029
_cell_angle_alpha 42.980966
_cell_angle_beta 107.696323
_cell_angle_gamma 80.265047
_cell_volume 436.971436
_symmetry_space_group_name_H-M "P -1"
_symmetry_group_IT_number 2
_symmetry_cell_setting 'triclinic'
loop_
_space_group_symop_operation_xyz
x,y,z
-x,-y,-z
loop_
_atom_site_type_symbol
_atom_site_label
_atom_site_fract_x
_atom_site_fract_y
_atom_site_fract_z
Si Si1 0.875187 0.607218 0.586390
Si Si2 0.880616 0.943886 0.809374
Si Si3 0.000000 0.000000 0.500000
Si Si4 0.481572 0.130837 0.544227
Si Si5 0.210577 0.527192 0.623506
Si Si6 0.588133 0.374894 0.968235
O O1 0.687543 0.821878 0.450513
O O2 0.816798 0.616277 0.399009
O O3 0.057742 0.609926 0.642811
O O4 0.951612 0.332629 0.877572
O O5 0.693522 0.975710 0.782483
O O6 0.854107 0.198542 0.659620
O O7 0.890619 0.961601 0.628093
O O8 0.194172 0.847387 0.771711
O O9 0.425083 0.409106 0.289187
O O10 0.500000 0.000000 0.500000
O O11 0.427063 0.361827 0.861294
O O12 0.500000 0.500000 0.000000
#
# Coordination Sequence:
#
# PCOD9051852 Si02
#       6
#     2   2   1   2   2   2
#     4  11  25  49  70 104 147 190 231 301 353 423
#     4  11  25  42  72 106 138 190 238 291 359 425
#     4  12  22  42  72 104 134 186 230 286 360 408
#     4  11  26  42  70 107 140 184 242 293 354 426
#     4  10  25  48  72 103 145 189 242 286 361 428
#     4  11  23  44  68 104 140 183 236 294 350 421
#
# _framework density 25.173271
#
# number of rings (size 3 to 8) (size 9 to 14) (size 15 to 20)
#    0.000    1.091    5.455    0.545    5.091    3.636 
#    3.273    1.818    0.000    0.000    0.000    0.000 
#    0.000    0.000    0.000    0.000    0.000    0.000 
#
# Total GULP energy -61314.279254 kJ/mol
# GULP energy per Si atom -5574.025387 kJ/mol
# Density = 2.511598 g / cm^3
# Si number density = 25.173271 Si / 1000 Ang^3
#
#
#
# Elastic Constant Matrix: (Units=GPa)
#
#
# Indices 1 2 3 4 5 6 
#
# 1 203.5054 49.8782 48.3484 -12.7245 41.8251 -7.8697
# 2 49.8782 43.9982 14.1647 -4.0234 24.2095 -14.9712
# 3 48.3484 14.1647 140.0324 -12.1390 30.4287 -6.9961
# 4 -12.7245 -4.0234 -12.1390 30.2764 -5.0297 6.1908
# 5 41.8251 24.2095 30.4287 -5.0297 47.4742 -7.9300
# 6 -7.8697 -14.9712 -6.9961 6.1908 -7.9300 36.5803
#
#
#
# Elastic Compliance Matrix: (Units=1/GPa)
#
#
# Indices 1 2 3 4 5 6 
#
# 1 0.007564 -0.007672 -0.001346 0.001785 -0.002123 -0.002532
# 2 -0.007672 0.043200 0.001932 -0.001886 -0.014439 0.013588
# 3 -0.001346 0.001932 0.008734 0.002211 -0.005045 0.000704
# 4 0.001785 -0.001886 0.002211 0.035740 0.000783 -0.005844
# 5 -0.002123 -0.014439 -0.005045 0.000783 0.033584 -0.000183
# 6 -0.002532 0.013588 0.000704 -0.005844 -0.000183 0.033438
#
#
# Mechanical properties :
#
#
# Convention : Reuss Voigt Hill
#
# Bulk Modulus (GPa) = 22.06273 68.03539 45.04906
# Shear Modulus (GPa) = 26.10440 41.20916 33.65678
#
# Velocity S-wave (km/s) = 3.22372 4.05040 3.66047
# Velocity P-wave (km/s) = 4.75814 6.99713 5.98330
#
# Compressibility (1/GPa) = 0.04532531
#
# Stress axis : x y z
#
# Youngs Moduli (GPa) = 132.20587 23.14840 114.49924
#
# Poissons Ratio (x) = 0.17759 0.15412
# Poissons Ratio (y) = 1.01427 -0.22122
# Poissons Ratio (z) = 0.17796 -0.04472
#
# Static dielectric constant tensor:
#      x y z
#    x 2.120580 0.076180 -0.016420 
#    y 0.076180 2.173820 -0.048030 
#    z -0.016420 -0.048030 1.976610 
# 
# From -- ./inp_files/152708.got.cif
#   From: 2010.05.17/outbox.cif.g08.bks.cpg/sg2_77_cif.got.tgz:152708.got - 2010.06.03 11:33:40.
