data_PCOD9051499
_publ_section_title
;
Structure prediction by ZEFSAII (Michael W. Deem and Ramdas Pophale) SiO2 
 PCOD9051499
Probable space group: P -1
;
_chemical_formula_sum "Si O2"
_cell_formula_units_Z 16
_cell_length_a 12.550001
_cell_length_b 9.326937
_cell_length_c 10.228244
_cell_angle_alpha 47.524925
_cell_angle_beta 133.830786
_cell_angle_gamma 128.504462
_cell_volume 609.421785
_symmetry_space_group_name_H-M "P -1"
_symmetry_group_IT_number 2
_symmetry_cell_setting 'triclinic'
loop_
_space_group_symop_operation_xyz
x,y,z
-x,-y,-z
loop_
_atom_site_type_symbol
_atom_site_label
_atom_site_fract_x
_atom_site_fract_y
_atom_site_fract_z
Si Si1 0.672851 0.981358 0.664574
Si Si2 0.785610 0.161016 0.007721
Si Si3 0.538957 0.815900 0.397916
Si Si4 0.945053 0.845442 0.431336
Si Si5 0.464733 0.277744 0.050663
Si Si6 0.353928 0.377777 0.617829
Si Si7 0.970470 0.225101 0.869162
Si Si8 0.200010 0.665673 0.786706
O O1 0.668192 0.879336 0.583637
O O2 0.653623 0.847941 0.862286
O O3 0.500000 0.000000 0.500000
O O4 0.811417 0.183746 0.677095
O O5 0.609061 0.113092 0.829180
O O6 0.910683 0.266612 0.938084
O O7 0.790465 0.271422 0.086677
O O8 0.845972 0.961427 0.194646
O O9 0.444060 0.594088 0.506743
O O10 0.635043 0.794719 0.366936
O O11 0.823045 0.639897 0.502380
O O12 0.087632 0.774555 0.552247
O O13 0.000000 0.000000 0.500000
O O14 0.633189 0.241539 0.197145
O O15 0.500000 0.500000 0.000000
O O16 0.423228 0.320685 0.842601
O O17 0.118339 0.421670 0.849607
O O18 0.000000 0.000000 0.000000
#
# Coordination Sequence:
#
# PCOD9051499 Si02
#       8
#     2   2   2   2   2   2   2   2
#     4  12  27  46  72 110 155 200 255 318 390 473
#     4  11  23  49  77 114 154 207 276 323 393 474
#     4  11  24  45  77 112 147 204 266 326 385 471
#     4  10  25  46  72 114 151 202 259 334 390 466
#     4  12  25  49  76 115 155 206 265 323 398 479
#     4  11  24  45  79 109 150 202 268 320 396 476
#     4  12  27  46  76 117 162 206 254 331 407 476
#     4  11  26  50  82 113 159 214 262 334 400 474
#
# _framework density 26.254396
#
# number of rings (size 3 to 8) (size 9 to 14) (size 15 to 20)
#    0.000    0.750    3.750    2.625    0.000    6.500 
#    0.000    1.875    0.000    0.000    0.000    0.000 
#    0.000    0.000    0.000    0.000    0.000    0.000 
#
# Total GULP energy -89209.098313 kJ/mol
# GULP energy per Si atom -5575.568645 kJ/mol
# Density = 2.619464 g / cm^3
# Si number density = 26.254396 Si / 1000 Ang^3
#
#
#
# Elastic Constant Matrix: (Units=GPa)
#
#
# Indices 1 2 3 4 5 6 
#
# 1 142.3824 37.2195 53.8698 12.3365 -5.9588 5.2408
# 2 37.2195 123.0820 42.3593 16.2334 -11.9371 10.6138
# 3 53.8698 42.3593 138.9329 7.2388 -8.2929 -10.1089
# 4 12.3365 16.2334 7.2388 34.6493 -8.6321 -1.1269
# 5 -5.9588 -11.9371 -8.2929 -8.6321 57.2074 9.6871
# 6 5.2408 10.6138 -10.1089 -1.1269 9.6871 53.5617
#
#
#
# Elastic Compliance Matrix: (Units=1/GPa)
#
#
# Indices 1 2 3 4 5 6 
#
# 1 0.008687 -0.001233 -0.002975 -0.001899 0.000138 -0.001232
# 2 -0.001233 0.010234 -0.002565 -0.003518 0.001570 -0.002749
# 3 -0.002975 -0.002565 0.009304 0.000434 0.000139 0.002539
# 4 -0.001899 -0.003518 0.000434 0.032074 0.003810 0.000951
# 5 0.000138 0.001570 0.000139 0.003810 0.019037 -0.003661
# 6 -0.001232 -0.002749 0.002539 0.000951 -0.003661 0.020497
#
#
# Mechanical properties :
#
#
# Convention : Reuss Voigt Hill
#
# Bulk Modulus (GPa) = 68.12672 74.58825 71.35749
# Shear Modulus (GPa) = 42.27584 47.14694 44.71139
#
# Velocity S-wave (km/s) = 4.01713 4.24225 4.13123
# Velocity P-wave (km/s) = 6.89358 7.24342 7.07066
#
# Compressibility (1/GPa) = 0.01467853
#
# Stress axis : x y z
#
# Youngs Moduli (GPa) = 115.11699 97.71721 107.48462
#
# Poissons Ratio (x) = 0.12048 0.31974
# Poissons Ratio (y) = 0.14193 0.27571
# Poissons Ratio (z) = 0.34244 0.25066
#
# Static dielectric constant tensor:
#      x y z
#    x 2.084500 -0.003450 0.101690 
#    y -0.003450 2.205380 -0.048990 
#    z 0.101690 -0.048990 2.121150 
# 
# From -- ./inp_files/261843.got.cif
#   From: 2010.05.17/outbox.cif.g08.bks.cpg/sg2_131_cif.got.tgz:261843.got - 2010.06.03 11:33:40.
