data_PCOD9051687
_publ_section_title
;
Structure prediction by ZEFSAII (Michael W. Deem and Ramdas Pophale) SiO2 
 PCOD9051687
Probable space group: P -1
;
_chemical_formula_sum "Si O2"
_cell_formula_units_Z 12
_cell_length_a 5.477925
_cell_length_b 12.428526
_cell_length_c 9.017363
_cell_angle_alpha 68.153712
_cell_angle_beta 85.081250
_cell_angle_gamma 60.052091
_cell_volume 489.918102
_symmetry_space_group_name_H-M "P -1"
_symmetry_group_IT_number 2
_symmetry_cell_setting 'triclinic'
loop_
_space_group_symop_operation_xyz
x,y,z
-x,-y,-z
loop_
_atom_site_type_symbol
_atom_site_label
_atom_site_fract_x
_atom_site_fract_y
_atom_site_fract_z
Si Si1 0.083439 0.084987 0.062166
Si Si2 0.533349 0.524107 0.228904
Si Si3 0.342673 0.108335 0.756016
Si Si4 0.475308 0.684292 0.883506
Si Si5 0.928284 0.384421 0.540854
Si Si6 0.293707 0.950556 0.600815
O O1 0.845307 0.215455 0.091422
O O2 0.322628 0.983146 0.212977
O O3 0.245798 0.134526 0.917624
O O4 0.000000 0.000000 0.000000
O O5 0.454953 0.440024 0.162965
O O6 0.782758 0.412553 0.374417
O O7 0.286993 0.607593 0.321403
O O8 0.614469 0.613968 0.072199
O O9 0.219438 0.247064 0.609002
O O10 0.209846 0.029898 0.720395
O O11 0.489396 0.794462 0.720994
O O12 0.000000 0.500000 0.500000
O O13 0.500000 0.000000 0.500000
O O14 0.000000 0.000000 0.500000
#
# Coordination Sequence:
#
# PCOD9051687 Si02
#       6
#     2   2   2   2   2   2
#     4  11  23  43  73 103 142 191 244 313 371 446
#     4  10  25  47  72 103 149 198 246 306 372 460
#     4  11  25  42  71 106 143 193 253 308 382 443
#     4  11  23  49  74 104 146 200 251 304 382 454
#     4  11  25  44  71 105 145 192 248 309 374 449
#     4  12  27  46  74 111 153 196 248 325 384 456
#
# _framework density 24.493888999999999
#
# number of rings (size 3 to 8) (size 9 to 14) (size 15 to 20)
#    0.000    1.000    3.333    2.000    4.667    0.000 
#    3.000    1.667    0.000    0.000    0.000    0.000 
#    0.000    0.000    0.000    0.000    0.000    0.000 
#
# Total GULP energy -66960.155332 kJ/mol
# GULP energy per Si atom -5580.012944 kJ/mol
# Density = 2.443814 g / cm^3
# Si number density = 24.493889 Si / 1000 Ang^3
#
#
#
# Elastic Constant Matrix: (Units=GPa)
#
#
# Indices 1 2 3 4 5 6 
#
# 1 69.8901 -3.1996 54.8629 6.0029 9.9787 -0.5452
# 2 -3.1996 71.3625 34.7624 -15.5523 13.2229 -3.4853
# 3 54.8629 34.7624 201.2060 -14.3314 3.2997 -7.9657
# 4 6.0029 -15.5523 -14.3314 56.1606 -7.9673 -3.5950
# 5 9.9787 13.2229 3.2997 -7.9673 53.1610 -3.3141
# 6 -0.5452 -3.4853 -7.9657 -3.5950 -3.3141 35.7270
#
#
#
# Elastic Compliance Matrix: (Units=1/GPa)
#
#
# Indices 1 2 3 4 5 6 
#
# 1 0.020732 0.004260 -0.006620 -0.003561 -0.005172 -0.001582
# 2 0.004260 0.017583 -0.003893 0.002838 -0.004457 0.000784
# 3 -0.006620 -0.003893 0.007618 0.001980 0.002136 0.001615
# 4 -0.003561 0.002838 0.001980 0.020099 0.003037 0.002968
# 5 -0.005172 -0.004457 0.002136 0.003037 0.021353 0.002249
# 6 -0.001582 0.000784 0.001615 0.002968 0.002249 0.028910
#
#
# Mechanical properties :
#
#
# Convention : Reuss Voigt Hill
#
# Bulk Modulus (GPa) = 29.91741 57.25668 43.58705
# Shear Modulus (GPa) = 35.72860 46.07860 40.90360
#
# Velocity S-wave (km/s) = 3.82340 4.34202 4.09094
# Velocity P-wave (km/s) = 5.63311 6.96880 6.33625
#
# Compressibility (1/GPa) = 0.03342535
#
# Stress axis : x y z
#
# Youngs Moduli (GPa) = 48.23427 56.87294 131.27241
#
# Poissons Ratio (x) = -0.24226 0.86908
# Poissons Ratio (y) = -0.20546 0.51104
# Poissons Ratio (z) = 0.31933 0.22140
#
# Static dielectric constant tensor:
#      x y z
#    x 2.017320 0.063540 -0.178530 
#    y 0.063540 2.226770 -0.536470 
#    z -0.178530 -0.536470 3.201110 
# 
# From -- ./inp_files/22659.got.cif
#   From: 2010.05.17/outbox.cif.g08.bks.cpg/sg2_12_cif.got.tgz:22659.got - 2010.06.03 11:33:40.
