data_PCOD9051422
_publ_section_title
;
Structure prediction by ZEFSAII (Michael W. Deem and Ramdas Pophale) SiO2 
 PCOD9051422
Probable space group: P -1
;
_chemical_formula_sum "Si O2"
_cell_formula_units_Z 14
_cell_length_a 5.375685
_cell_length_b 14.125874
_cell_length_c 14.504493
_cell_angle_alpha 143.025110
_cell_angle_beta 89.531507
_cell_angle_gamma 70.343241
_cell_volume 544.220138
_symmetry_space_group_name_H-M "P -1"
_symmetry_group_IT_number 2
_symmetry_cell_setting 'triclinic'
loop_
_space_group_symop_operation_xyz
x,y,z
-x,-y,-z
loop_
_atom_site_type_symbol
_atom_site_label
_atom_site_fract_x
_atom_site_fract_y
_atom_site_fract_z
Si Si1 0.339559 0.522461 0.918440
Si Si2 0.930692 0.109970 0.209170
Si Si3 0.333861 0.909721 0.392653
Si Si4 0.213479 0.422857 0.139501
Si Si5 0.057332 0.235534 0.135781
Si Si6 0.301655 0.387051 0.475363
Si Si7 0.150867 0.171342 0.437288
O O1 0.485593 0.300379 0.731057
O O2 0.990235 0.604196 0.956354
O O3 0.482182 0.610013 0.925956
O O4 0.500000 0.500000 0.000000
O O5 0.140300 0.134005 0.156934
O O6 0.583720 0.284933 0.326823
O O7 0.952473 0.156913 0.350086
O O8 0.979400 0.910007 0.035131
O O9 0.500000 0.000000 0.500000
O O10 0.308541 0.970950 0.334151
O O11 0.000000 0.000000 0.500000
O O12 0.259781 0.284877 0.116149
O O13 0.028196 0.643641 0.350493
O O14 0.761699 0.449630 0.324633
O O15 0.341239 0.219467 0.409260
O O16 0.000000 0.500000 0.500000
#
# Coordination Sequence:
#
# PCOD9051422 Si02
#       7
#     2   2   2   2   2   2   2
#     4  12  26  48  72 107 147 194 248 305 375 438
#     4  11  25  47  72 108 150 195 251 309 374 454
#     4  12  25  46  71 102 142 188 242 303 359 434
#     4  11  26  46  74 108 146 200 242 309 375 446
#     4  10  25  46  70 109 149 193 251 307 376 442
#     4  11  24  44  72 106 144 197 245 307 378 447
#     4  11  25  43  72 105 142 193 254 292 385 441
#
# _framework density 25.724886999999999
#
# number of rings (size 3 to 8) (size 9 to 14) (size 15 to 20)
#    0.000    0.857    4.286    0.857    8.000    2.857 
#    0.000    0.000    0.000    0.000    0.000    0.000 
#    0.000    0.000    0.000    0.000    0.000    0.000 
#
# Total GULP energy -78149.714163 kJ/mol
# GULP energy per Si atom -5582.122440 kJ/mol
# Density = 2.566634 g / cm^3
# Si number density = 25.724887 Si / 1000 Ang^3
#
#
#
# Elastic Constant Matrix: (Units=GPa)
#
#
# Indices 1 2 3 4 5 6 
#
# 1 134.1815 64.8064 51.8081 6.8621 29.8579 11.5274
# 2 64.8064 141.4032 16.2479 12.2266 1.7970 19.4825
# 3 51.8081 16.2479 132.7733 6.3607 29.9068 0.3177
# 4 6.8621 12.2266 6.3607 44.4406 -3.3979 19.8070
# 5 29.8579 1.7970 29.9068 -3.3979 28.7743 6.1810
# 6 11.5274 19.4825 0.3177 19.8070 6.1810 55.3491
#
#
#
# Elastic Compliance Matrix: (Units=1/GPa)
#
#
# Indices 1 2 3 4 5 6 
#
# 1 0.013807 -0.005994 -0.001722 -0.001781 -0.012651 0.001294
# 2 -0.005994 0.010204 -0.000413 0.000078 0.006690 -0.003116
# 3 -0.001722 -0.000413 0.010714 -0.003151 -0.010279 0.002718
# 4 -0.001781 0.000078 -0.003151 0.029066 0.010970 -0.011265
# 5 -0.012651 0.006690 -0.010279 0.010970 0.061692 -0.010476
# 6 0.001294 -0.003116 0.002718 -0.011265 -0.010476 0.024080
#
#
# Mechanical properties :
#
#
# Convention : Reuss Voigt Hill
#
# Bulk Modulus (GPa) = 54.15067 74.89810 64.52438
# Shear Modulus (GPa) = 29.07360 44.07917 36.57639
#
# Velocity S-wave (km/s) = 3.36545 4.14392 3.77481
# Velocity P-wave (km/s) = 6.01642 7.21625 6.64348
#
# Compressibility (1/GPa) = 0.01846699
#
# Stress axis : x y z
#
# Youngs Moduli (GPa) = 72.42480 98.00066 93.33643
#
# Poissons Ratio (x) = 0.58739 0.16076
# Poissons Ratio (y) = 0.43409 0.03856
# Poissons Ratio (z) = 0.12474 0.04049
#
# Static dielectric constant tensor:
#      x y z
#    x 2.146150 -0.090580 0.016000 
#    y -0.090580 2.098200 -0.092760 
#    z 0.016000 -0.092760 2.013460 
# 
# From -- ./inp_files/126170.got.cif
#   From: 2010.05.17/outbox.cif.g08.bks.cpg/sg2_64_cif.got.tgz:126170.got - 2010.06.03 11:33:40.
