data_PCOD9051774
_publ_section_title
;
Structure prediction by ZEFSAII (Michael W. Deem and Ramdas Pophale) SiO2 
 PCOD9051774
Probable space group: P -1
;
_chemical_formula_sum "Si O2"
_cell_formula_units_Z 12
_cell_length_a 7.997460
_cell_length_b 5.516643
_cell_length_c 12.254414
_cell_angle_alpha 75.070833
_cell_angle_beta 105.942964
_cell_angle_gamma 115.257006
_cell_volume 463.990987
_symmetry_space_group_name_H-M "P -1"
_symmetry_group_IT_number 2
_symmetry_cell_setting 'triclinic'
loop_
_space_group_symop_operation_xyz
x,y,z
-x,-y,-z
loop_
_atom_site_type_symbol
_atom_site_label
_atom_site_fract_x
_atom_site_fract_y
_atom_site_fract_z
Si Si1 0.268752 0.637338 0.419986
Si Si2 0.798380 0.263707 0.982538
Si Si3 0.827160 0.987344 0.220792
Si Si4 0.276844 0.074719 0.543164
Si Si5 0.494181 0.495359 0.867361
Si Si6 0.796781 0.008762 0.801229
O O1 0.211388 0.319043 0.467931
O O2 0.495927 0.776774 0.435363
O O3 0.189187 0.715514 0.286316
O O4 0.218480 0.814163 0.483926
O O5 0.743306 0.153900 0.107066
O O6 0.639475 0.346676 0.890841
O O7 0.822866 0.044632 0.931195
O O8 0.000000 0.500000 0.000000
O O9 0.791998 0.011633 0.337182
O O10 0.708881 0.678381 0.196813
O O11 0.042595 0.068740 0.215825
O O12 0.589895 0.774297 0.785303
O O13 0.500000 0.500000 0.000000
#
# Coordination Sequence:
#
# PCOD9051774 Si02
#       6
#     2   2   2   2   2   2
#     4  10  25  47  76 105 150 192 251 308 368 438
#     4  12  25  46  72 107 149 188 240 306 370 441
#     4  12  26  46  73 109 143 194 247 302 371 442
#     4  10  25  47  76 108 143 200 247 306 372 438
#     4  12  26  44  72 104 149 194 240 298 376 441
#     4  12  27  47  71 108 148 189 245 309 363 445
#
# _framework density 25.862575
#
# number of rings (size 3 to 8) (size 9 to 14) (size 15 to 20)
#    0.000    0.667    3.333    3.000   11.667    2.667 
#    0.000    0.000    0.000    0.000    0.000    0.000 
#    0.000    0.000    0.000    0.000    0.000    0.000 
#
# Total GULP energy -67271.687813 kJ/mol
# GULP energy per Si atom -5605.973984 kJ/mol
# Density = 2.580371 g / cm^3
# Si number density = 25.862575 Si / 1000 Ang^3
#
#
#
# Elastic Constant Matrix: (Units=GPa)
#
#
# Indices 1 2 3 4 5 6 
#
# 1 80.2708 36.7028 41.6994 10.2829 -26.8618 0.5807
# 2 36.7028 104.8156 48.3900 -12.2292 -16.4598 -3.5977
# 3 41.6994 48.3900 145.5915 -14.6333 -35.0807 -18.5105
# 4 10.2829 -12.2292 -14.6333 49.3103 -11.1183 8.1194
# 5 -26.8618 -16.4598 -35.0807 -11.1183 47.7722 -0.3219
# 6 0.5807 -3.5977 -18.5105 8.1194 -0.3219 50.2207
#
#
#
# Elastic Compliance Matrix: (Units=1/GPa)
#
#
# Indices 1 2 3 4 5 6 
#
# 1 0.018680 -0.004861 -0.002961 -0.004576 0.005583 -0.000880
# 2 -0.004861 0.012895 -0.002374 0.003780 0.000842 -0.000501
# 3 -0.002961 -0.002374 0.010916 0.004206 0.006534 0.003249
# 4 -0.004576 0.003780 0.004206 0.025529 0.007744 -0.002204
# 5 0.005583 0.000842 0.006534 0.007744 0.030972 0.001350
# 6 -0.000880 -0.000501 0.003249 -0.002204 0.001350 0.021449
#
#
# Mechanical properties :
#
#
# Convention : Reuss Voigt Hill
#
# Bulk Modulus (GPa) = 45.25418 64.91804 55.08611
# Shear Modulus (GPa) = 33.73839 43.05304 38.39572
#
# Velocity S-wave (km/s) = 3.61574 4.08448 3.85724
# Velocity P-wave (km/s) = 5.91332 6.88474 6.41744
#
# Compressibility (1/GPa) = 0.02209741
#
# Stress axis : x y z
#
# Youngs Moduli (GPa) = 53.53410 77.54906 91.60883
#
# Poissons Ratio (x) = 0.37699 0.27124
# Poissons Ratio (y) = 0.26025 0.21752
# Poissons Ratio (z) = 0.15851 0.18414
#
# Static dielectric constant tensor:
#      x y z
#    x 2.033830 -0.023200 0.025000 
#    y -0.023200 2.128140 -0.012190 
#    z 0.025000 -0.012190 1.979370 
# 
# From -- ./inp_files/372988.got.cif
#   From: 2010.05.17/outbox.cif.g08.bks.cpg/sg2_187_cif.got.tgz:372988.got - 2010.06.03 11:33:40.
