data_PCOD9051772
_publ_section_title
;
Structure prediction by ZEFSAII (Michael W. Deem and Ramdas Pophale) SiO2 
 PCOD9051772
Probable space group: P -1
;
_chemical_formula_sum "Si O2"
_cell_formula_units_Z 14
_cell_length_a 4.797829
_cell_length_b 22.214672
_cell_length_c 12.824075
_cell_angle_alpha 24.632718
_cell_angle_beta 107.292148
_cell_angle_gamma 108.980289
_cell_volume 538.711525
_symmetry_space_group_name_H-M "P -1"
_symmetry_group_IT_number 2
_symmetry_cell_setting 'triclinic'
loop_
_space_group_symop_operation_xyz
x,y,z
-x,-y,-z
loop_
_atom_site_type_symbol
_atom_site_label
_atom_site_fract_x
_atom_site_fract_y
_atom_site_fract_z
Si Si1 0.905529 0.217657 0.928808
Si Si2 0.783905 0.490252 0.120821
Si Si3 0.288799 0.248901 0.729068
Si Si4 0.972806 0.174469 0.606098
Si Si5 0.572382 0.342214 0.051789
Si Si6 0.635789 0.906214 0.413708
Si Si7 0.713381 0.438240 0.704829
O O1 0.636358 0.245939 0.777509
O O2 0.933239 0.354186 0.794963
O O3 0.169499 0.205036 0.900072
O O4 0.810777 0.062583 0.217023
O O5 0.864128 0.331207 0.360798
O O6 0.200628 0.413671 0.452985
O O7 0.500000 0.500000 0.000000
O O8 0.639438 0.535716 0.140545
O O9 0.144890 0.159286 0.756380
O O10 0.180932 0.161267 0.550808
O O11 0.910876 0.400507 0.030857
O O12 0.670269 0.071524 0.711037
O O13 0.444176 0.203303 0.326142
O O14 0.581893 0.322601 0.959750
O O15 0.500000 0.500000 0.500000
#
# Coordination Sequence:
#
# PCOD9051772 Si02
#       7
#     2   2   2   2   2   2   2
#     4  11  26  47  69  99 145 189 238 280 341 419
#     4  12  25  42  69 109 142 183 224 296 354 415
#     4  11  24  45  74 103 136 183 238 296 344 398
#     4  12  25  43  71 106 144 177 234 285 357 419
#     4  12  26  42  71 107 142 178 237 288 361 409
#     4  12  27  43  67 106 146 192 219 279 356 438
#     4  10  25  47  76 104 134 184 243 303 339 402
#
# _framework density 25.987932000000001
#
# number of rings (size 3 to 8) (size 9 to 14) (size 15 to 20)
#    0.000    0.571    2.857    4.286    4.000    6.286 
#    0.000    0.000    0.000    7.714    0.000    0.000 
#    0.000    0.000    0.000    0.000    0.000    0.000 
#
# Total GULP energy -78385.504726 kJ/mol
# GULP energy per Si atom -5598.964623 kJ/mol
# Density = 2.592878 g / cm^3
# Si number density = 25.987932 Si / 1000 Ang^3
#
#
#
# Elastic Constant Matrix: (Units=GPa)
#
#
# Indices 1 2 3 4 5 6 
#
# 1 139.9188 27.1642 36.4054 -10.4470 1.4722 -12.3115
# 2 27.1642 89.0626 42.0705 -5.2886 -4.5223 -15.2408
# 3 36.4054 42.0705 114.2241 -11.9871 -6.4319 -10.7694
# 4 -10.4470 -5.2886 -11.9871 42.0516 2.1179 2.5397
# 5 1.4722 -4.5223 -6.4319 2.1179 51.5693 -1.9597
# 6 -12.3115 -15.2408 -10.7694 2.5397 -1.9597 42.8066
#
#
#
# Elastic Compliance Matrix: (Units=1/GPa)
#
#
# Indices 1 2 3 4 5 6 
#
# 1 0.008105 -0.001320 -0.001876 0.001265 -0.000584 0.001287
# 2 -0.001320 0.014427 -0.004504 -0.000063 0.000883 0.003668
# 3 -0.001876 -0.004504 0.011350 0.002114 0.001011 0.000633
# 4 0.001265 -0.000063 0.002114 0.024769 -0.000819 -0.000634
# 5 -0.000584 0.000883 0.001011 -0.000819 0.019697 0.001351
# 6 0.001287 0.003668 0.000633 -0.000634 0.001351 0.025296
#
#
# Mechanical properties :
#
#
# Convention : Reuss Voigt Hill
#
# Bulk Modulus (GPa) = 54.10679 61.60953 57.85816
# Shear Modulus (GPa) = 39.93474 43.12319 41.52897
#
# Velocity S-wave (km/s) = 3.92428 4.07794 4.00185
# Velocity P-wave (km/s) = 6.43417 6.77726 6.60794
#
# Compressibility (1/GPa) = 0.01848197
#
# Stress axis : x y z
#
# Youngs Moduli (GPa) = 123.37707 69.31423 88.10601
#
# Poissons Ratio (x) = 0.09152 0.16527
# Poissons Ratio (y) = 0.16289 0.39683
# Poissons Ratio (z) = 0.23143 0.31219
#
# Static dielectric constant tensor:
#      x y z
#    x 2.016100 0.058820 -0.068110 
#    y 0.058820 2.073430 -0.010210 
#    z -0.068110 -0.010210 2.104390 
# 
# From -- ./inp_files/485757.got.cif
#   From: 2010.05.17/outbox.cif.g08.bks.cpg/sg2_243_cif.got.tgz:485757.got - 2010.06.03 11:33:40.
