data_PCOD9051690
_publ_section_title
;
Structure prediction by ZEFSAII (Michael W. Deem and Ramdas Pophale) SiO2 
 PCOD9051690
Probable space group: P -1
;
_chemical_formula_sum "Si O2"
_cell_formula_units_Z 16
_cell_length_a 24.198012
_cell_length_b 6.286686
_cell_length_c 6.880616
_cell_angle_alpha 83.005603
_cell_angle_beta 130.743281
_cell_angle_gamma 126.779625
_cell_volume 569.355888
_symmetry_space_group_name_H-M "P -1"
_symmetry_group_IT_number 2
_symmetry_cell_setting 'triclinic'
loop_
_space_group_symop_operation_xyz
x,y,z
-x,-y,-z
loop_
_atom_site_type_symbol
_atom_site_label
_atom_site_fract_x
_atom_site_fract_y
_atom_site_fract_z
Si Si1 0.402107 0.690100 0.207816
Si Si2 0.468738 0.172998 0.833827
Si Si3 0.829768 0.183485 0.233813
Si Si4 0.906064 0.615346 0.070566
Si Si5 0.973083 0.752584 0.776978
Si Si6 0.668324 0.008964 0.134433
Si Si7 0.186059 0.046111 0.415045
Si Si8 0.292168 0.563324 0.322534
O O1 0.336883 0.498359 0.267831
O O2 0.500000 0.000000 0.500000
O O3 0.446156 0.611535 0.161074
O O4 0.340501 0.755509 0.954423
O O5 0.432957 0.223838 0.940729
O O6 0.366990 0.905941 0.513876
O O7 0.500000 0.000000 0.000000
O O8 0.880942 0.326908 0.127340
O O9 0.909365 0.484135 0.512272
O O10 0.714430 0.023558 0.030240
O O11 0.829329 0.966421 0.385611
O O12 0.909124 0.641273 0.841413
O O13 0.813408 0.550135 0.964816
O O14 0.999476 0.962915 0.284695
O O15 0.078043 0.859742 0.085507
O O16 0.751915 0.051890 0.449447
O O17 0.263885 0.369162 0.466822
#
# Coordination Sequence:
#
# PCOD9051690 Si02
#       8
#     2   2   2   2   2   2   2   2
#     4   9  17  32  56  76  96 135 180 224 266 324
#     4   9  18  32  56  78  99 134 182 226 269 324
#     4  10  19  35  55  77 114 148 177 222 271 326
#     4  10  20  33  58  82 108 143 195 222 256 328
#     4  10  20  35  54  84 109 148 185 227 263 308
#     4   9  18  34  52  79 102 138 180 214 279 321
#     4   9  21  33  54  76 116 143 174 220 279 326
#     4  10  17  35  54  79 106 140 180 228 269 319
#
# _framework density 28.101931
#
# number of rings (size 3 to 8) (size 9 to 14) (size 15 to 20)
#    0.750    1.750    1.250    1.500    0.000    0.500 
#    0.000    6.250    8.250    0.000    0.000    0.000 
#    0.000    0.000    0.000    0.000    0.000    0.000 
#
# Total GULP energy -89111.392933 kJ/mol
# GULP energy per Si atom -5569.462058 kJ/mol
# Density = 2.803797 g / cm^3
# Si number density = 28.101931 Si / 1000 Ang^3
#
#
#
# Elastic Constant Matrix: (Units=GPa)
#
#
# Indices 1 2 3 4 5 6 
#
# 1 180.1779 33.2688 43.6554 -6.2153 9.4004 41.1681
# 2 33.2688 167.6167 26.1374 -27.5587 2.0721 68.5718
# 3 43.6554 26.1374 98.6583 -12.0133 19.1144 3.7843
# 4 -6.2153 -27.5587 -12.0133 23.8433 12.7654 -7.9018
# 5 9.4004 2.0721 19.1144 12.7654 46.3675 -0.6091
# 6 41.1681 68.5718 3.7843 -7.9018 -0.6091 48.8686
#
#
#
# Elastic Compliance Matrix: (Units=1/GPa)
#
#
# Indices 1 2 3 4 5 6 
#
# 1 0.008923 0.004717 -0.004325 0.001557 -0.000844 -0.013559
# 2 0.004717 0.020569 -0.003376 0.016214 -0.005342 -0.030019
# 3 -0.004325 -0.003376 0.015327 0.009782 -0.007870 0.008677
# 4 0.001557 0.016214 0.009782 0.075705 -0.026085 -0.012905
# 5 -0.000844 -0.005342 -0.007870 -0.026085 0.032468 0.005003
# 6 -0.013559 -0.030019 0.008677 -0.012905 0.005003 0.071312
#
#
# Mechanical properties :
#
#
# Convention : Reuss Voigt Hill
#
# Bulk Modulus (GPa) = 25.73887 72.50846 49.12366
# Shear Modulus (GPa) = 20.55746 46.70864 33.63305
#
# Velocity S-wave (km/s) = 2.70762 4.08133 3.46327
# Velocity P-wave (km/s) = 4.35361 6.93308 5.78885
#
# Compressibility (1/GPa) = 0.03885174
#
# Stress axis : x y z
#
# Youngs Moduli (GPa) = 112.07217 48.61734 65.24397
#
# Poissons Ratio (x) = -0.22932 0.28217
# Poissons Ratio (y) = -0.52863 0.22024
# Poissons Ratio (z) = 0.48469 0.16411
#
# Static dielectric constant tensor:
#      x y z
#    x 2.261980 -0.063520 -0.025000 
#    y -0.063520 2.359680 -0.075000 
#    z -0.025000 -0.075000 2.245540 
# 
# From -- ./inp_files/358427.got.cif
#   From: 2010.05.17/outbox.cif.g08.bks.cpg/sg2_180_cif.got.tgz:358427.got - 2010.06.03 11:33:40.
