data_PCOD9051563
_publ_section_title
;
Structure prediction by ZEFSAII (Michael W. Deem and Ramdas Pophale) SiO2 
 PCOD9051563
Probable space group: P -1
;
_chemical_formula_sum "Si O2"
_cell_formula_units_Z 12
_cell_length_a 13.773360
_cell_length_b 19.123393
_cell_length_c 8.538106
_cell_angle_alpha 44.448051
_cell_angle_beta 46.251784
_cell_angle_gamma 19.448178
_cell_volume 522.714112
_symmetry_space_group_name_H-M "P -1"
_symmetry_group_IT_number 2
_symmetry_cell_setting 'triclinic'
loop_
_space_group_symop_operation_xyz
x,y,z
-x,-y,-z
loop_
_atom_site_type_symbol
_atom_site_label
_atom_site_fract_x
_atom_site_fract_y
_atom_site_fract_z
Si Si1 0.522965 0.592386 0.242098
Si Si2 0.693800 0.392924 0.801724
Si Si3 0.907402 0.508511 0.923105
Si Si4 0.321509 0.819830 0.393061
Si Si5 0.371093 0.978489 0.627404
Si Si6 0.489622 0.114344 0.746508
O O1 0.500000 0.500000 0.500000
O O2 0.381244 0.657341 0.133393
O O3 0.842986 0.432045 0.136326
O O4 0.351465 0.783553 0.233817
O O5 0.555245 0.587717 0.576354
O O6 0.500000 0.500000 0.000000
O O7 0.043774 0.177881 0.741698
O O8 0.607067 0.748414 0.805903
O O9 0.000000 0.500000 0.000000
O O10 0.149164 0.367851 0.745967
O O11 0.356344 0.906701 0.281046
O O12 0.000000 0.000000 0.500000
O O13 0.392943 0.958413 0.445197
O O14 0.500000 0.000000 0.500000
O O15 0.500000 0.000000 0.000000
#
# Coordination Sequence:
#
# PCOD9051563 Si02
#       6
#     2   2   2   2   2   2
#     4  10  25  46  76 103 152 191 253 305 376 444
#     4  11  28  48  76 113 153 193 249 313 382 447
#     4  12  26  49  79 108 148 203 253 314 382 451
#     4  11  25  46  76 106 148 197 252 304 375 454
#     4  12  29  48  75 111 155 198 257 314 376 454
#     4  12  28  46  77 110 153 198 255 311 383 445
#
# _framework density 22.957100000000001
#
# number of rings (size 3 to 8) (size 9 to 14) (size 15 to 20)
#    0.000    0.667    1.667    3.500   18.667    0.667 
#    0.000    0.000    0.000    0.000    0.000    0.000 
#    0.000    0.000    0.000    0.000    0.000    0.000 
#
# Total GULP energy -67015.744919 kJ/mol
# GULP energy per Si atom -5584.645410 kJ/mol
# Density = 2.290485 g / cm^3
# Si number density = 22.957100 Si / 1000 Ang^3
#
#
#
# Elastic Constant Matrix: (Units=GPa)
#
#
# Indices 1 2 3 4 5 6 
#
# 1 224.3397 58.4338 73.8536 28.9177 -13.3400 4.9482
# 2 58.4338 183.2177 64.3469 29.1796 9.4616 -11.6173
# 3 73.8536 64.3469 119.5804 19.8912 -4.0078 3.9596
# 4 28.9177 29.1796 19.8912 59.5609 2.1317 -3.2596
# 5 -13.3400 9.4616 -4.0078 2.1317 51.6936 16.1847
# 6 4.9482 -11.6173 3.9596 -3.2596 16.1847 34.7939
#
#
#
# Elastic Compliance Matrix: (Units=1/GPa)
#
#
# Indices 1 2 3 4 5 6 
#
# 1 0.006013 -0.000901 -0.002800 -0.001733 0.002205 -0.002025
# 2 -0.000901 0.007733 -0.003562 -0.001802 -0.003245 0.004456
# 3 -0.002800 -0.003562 0.012394 -0.001282 0.001955 -0.003231
# 4 -0.001733 -0.001802 -0.001282 0.019136 -0.001758 0.002401
# 5 0.002205 -0.003245 0.001955 -0.001758 0.024919 -0.013376
# 6 -0.002025 0.004456 -0.003231 0.002401 -0.013376 0.037331
#
#
# Mechanical properties :
#
#
# Convention : Reuss Voigt Hill
#
# Bulk Modulus (GPa) = 86.08830 102.26736 94.17783
# Shear Modulus (GPa) = 39.70699 51.24325 45.47512
#
# Velocity S-wave (km/s) = 4.16338 4.72967 4.45553
# Velocity P-wave (km/s) = 7.79055 8.62961 8.22079
#
# Compressibility (1/GPa) = 0.01161598
#
# Stress axis : x y z
#
# Youngs Moduli (GPa) = 166.30635 129.31330 80.68494
#
# Poissons Ratio (x) = 0.11648 0.22590
# Poissons Ratio (y) = 0.14980 0.28736
# Poissons Ratio (z) = 0.46562 0.46055
#
# Static dielectric constant tensor:
#      x y z
#    x 0.828420 0.138660 1.178680 
#    y 0.138660 1.882980 -0.154750 
#    z 1.178680 -0.154750 0.719500 
# 
# From -- ./inp_files/278947.got.cif
#   From: 2010.05.17/outbox.cif.g08.bks.cpg/sg2_140_cif.got.tgz:278947.got - 2010.06.03 11:33:40.
