data_PCOD9051085
_publ_section_title
;
Structure prediction by ZEFSAII (Michael W. Deem and Ramdas Pophale) SiO2 
 PCOD9051085
Probable space group: P -1
;
_chemical_formula_sum "Si O2"
_cell_formula_units_Z 16
_cell_length_a 5.749289
_cell_length_b 22.140638
_cell_length_c 11.480692
_cell_angle_alpha 144.745864
_cell_angle_beta 76.941321
_cell_angle_gamma 80.470863
_cell_volume 643.044617
_symmetry_space_group_name_H-M "P -1"
_symmetry_group_IT_number 2
_symmetry_cell_setting 'triclinic'
loop_
_space_group_symop_operation_xyz
x,y,z
-x,-y,-z
loop_
_atom_site_type_symbol
_atom_site_label
_atom_site_fract_x
_atom_site_fract_y
_atom_site_fract_z
Si Si1 0.865111 0.894132 0.034138
Si Si2 0.743022 0.860979 0.581250
Si Si3 0.327248 0.644250 0.303276
Si Si4 0.557043 0.213732 0.332472
Si Si5 0.152064 0.613751 0.685126
Si Si6 0.206297 0.305010 0.909687
Si Si7 0.729723 0.039380 0.507744
Si Si8 0.996296 0.582739 0.414473
O O1 0.866991 0.976916 0.268196
O O2 0.503915 0.982976 0.182132
O O3 0.088322 0.875132 0.878157
O O4 0.018452 0.751227 0.849233
O O5 0.558006 0.858255 0.704954
O O6 0.790892 0.772155 0.323303
O O7 0.086028 0.773518 0.454372
O O8 0.537251 0.673105 0.383452
O O9 0.149685 0.638963 0.422310
O O10 0.500000 0.500000 0.000000
O O11 0.361808 0.299640 0.377266
O O12 0.500000 0.500000 0.500000
O O13 0.081668 0.550720 0.488960
O O14 0.011734 0.661922 0.905625
O O15 0.530776 0.197628 0.763238
O O16 0.119202 0.447756 0.119738
O O17 0.500000 0.000000 0.500000
O O18 0.000000 0.000000 0.500000
#
# Coordination Sequence:
#
# PCOD9051085 Si02
#       8
#     2   2   2   2   2   2   2   2
#     4  11  24  47  71 105 144 187 246 302 370 446
#     4  10  25  45  69 104 136 187 240 302 370 441
#     4  11  23  43  73 100 141 184 236 300 368 439
#     4  11  23  46  69 104 137 181 241 304 370 437
#     4  12  26  43  73 102 145 193 243 301 375 447
#     4  11  24  45  69 103 146 187 246 299 371 452
#     4  11  26  48  73 105 147 202 246 309 372 450
#     4  11  25  43  69 105 136 184 240 303 367 441
#
# _framework density 24.881632
#
# number of rings (size 3 to 8) (size 9 to 14) (size 15 to 20)
#    0.000    1.000    2.500    3.000    5.250    2.500 
#   13.500    0.000    0.000    0.000    0.000    0.000 
#    0.000    0.000    0.000    0.000    0.000    0.000 
#
# Total GULP energy -89319.784122 kJ/mol
# GULP energy per Si atom -5582.486508 kJ/mol
# Density = 2.482500 g / cm^3
# Si number density = 24.881632 Si / 1000 Ang^3
#
#
#
# Elastic Constant Matrix: (Units=GPa)
#
#
# Indices 1 2 3 4 5 6 
#
# 1 47.8187 38.9730 23.1312 8.4398 -6.2004 -19.2197
# 2 38.9730 127.5326 43.9908 12.5506 -10.1096 -22.7005
# 3 23.1312 43.9908 148.6395 6.4422 -3.1319 -14.5654
# 4 8.4398 12.5506 6.4422 59.6793 -2.6167 -6.2133
# 5 -6.2004 -10.1096 -3.1319 -2.6167 21.0859 6.9452
# 6 -19.2197 -22.7005 -14.5654 -6.2133 6.9452 48.9630
#
#
#
# Elastic Compliance Matrix: (Units=1/GPa)
#
#
# Indices 1 2 3 4 5 6 
#
# 1 0.031510 -0.007191 -0.001869 -0.001804 0.002726 0.007863
# 2 -0.007191 0.011243 -0.001987 -0.000887 0.002429 0.001341
# 3 -0.001869 -0.001987 0.007667 -0.000099 -0.000606 0.000699
# 4 -0.001804 -0.000887 -0.000099 0.017344 0.000876 0.000928
# 5 0.002726 0.002429 -0.000606 0.000876 0.051097 -0.005121
# 6 0.007863 0.001341 0.000699 0.000928 -0.005121 0.025184
#
#
# Mechanical properties :
#
#
# Convention : Reuss Voigt Hill
#
# Bulk Modulus (GPa) = 35.30557 59.57562 47.44059
# Shear Modulus (GPa) = 28.47713 40.47203 34.47458
#
# Velocity S-wave (km/s) = 3.38672 4.03747 3.72633
# Velocity P-wave (km/s) = 5.43262 6.76243 6.13367
#
# Compressibility (1/GPa) = 0.02832414
#
# Stress axis : x y z
#
# Youngs Moduli (GPa) = 31.73633 88.94647 130.43399
#
# Poissons Ratio (x) = 0.63963 0.24380
# Poissons Ratio (y) = 0.22822 0.25920
# Poissons Ratio (z) = 0.05932 0.17676
#
# Static dielectric constant tensor:
#      x y z
#    x 2.092060 0.038150 0.034990 
#    y 0.038150 1.985700 0.040860 
#    z 0.034990 0.040860 1.728350 
# 
# From -- ./inp_files/371062.got.cif
#   From: 2010.05.17/outbox.cif.g08.bks.cpg/sg2_186_cif.got.tgz:371062.got - 2010.06.03 11:33:40.
