data_PCOD9051252
_publ_section_title
;
Structure prediction by ZEFSAII (Michael W. Deem and Ramdas Pophale) SiO2 
 PCOD9051252
Probable space group: P -1
;
_chemical_formula_sum "Si O2"
_cell_formula_units_Z 16
_cell_length_a 11.471115
_cell_length_b 9.266603
_cell_length_c 14.135010
_cell_angle_alpha 57.026082
_cell_angle_beta 75.280892
_cell_angle_gamma 121.804000
_cell_volume 697.867655
_symmetry_space_group_name_H-M "P -1"
_symmetry_group_IT_number 2
_symmetry_cell_setting 'triclinic'
loop_
_space_group_symop_operation_xyz
x,y,z
-x,-y,-z
loop_
_atom_site_type_symbol
_atom_site_label
_atom_site_fract_x
_atom_site_fract_y
_atom_site_fract_z
Si Si1 0.780151 0.774934 0.572320
Si Si2 0.667725 0.548248 0.470145
Si Si3 0.643577 0.319083 0.893009
Si Si4 0.968694 0.485760 0.861940
Si Si5 0.689545 0.024712 0.588928
Si Si6 0.344864 0.873598 0.768526
Si Si7 0.354582 0.164031 0.136728
Si Si8 0.970591 0.688807 0.242004
O O1 0.791866 0.744948 0.469598
O O2 0.638206 0.469192 0.766933
O O3 0.694554 0.866395 0.575937
O O4 0.000000 0.000000 0.500000
O O5 0.500000 0.500000 0.500000
O O6 0.818113 0.668561 0.308834
O O7 0.530843 0.218329 0.637130
O O8 0.873890 0.513890 0.798339
O O9 0.530295 0.235719 0.042824
O O10 0.500000 0.000000 0.000000
O O11 0.204665 0.787283 0.742933
O O12 0.962013 0.288154 0.885792
O O13 0.816366 0.325644 0.040517
O O14 0.840769 0.362287 0.413216
O O15 0.457328 0.834148 0.719604
O O16 0.753389 0.019844 0.678724
O O17 0.500000 0.500000 0.000000
O O18 0.177551 0.960341 0.165503
#
# Coordination Sequence:
#
# PCOD9051252 Si02
#       8
#     2   2   2   2   2   2   2   2
#     4  12  27  44  71 109 142 187 240 292 349 417
#     4  11  28  47  69 102 147 187 236 293 351 420
#     4  12  24  42  73 100 143 183 232 292 353 416
#     4  11  23  44  73 104 132 188 237 288 349 429
#     4  11  24  45  71 102 142 183 235 289 353 427
#     4  10  25  45  73  99 143 187 236 284 361 425
#     4  12  24  42  68 106 141 178 232 295 355 414
#     4  11  26  44  73  98 141 186 236 286 359 422
#
# _framework density 22.926983
#
# number of rings (size 3 to 8) (size 9 to 14) (size 15 to 20)
#    0.000    0.750    3.750    2.625    7.000    1.000 
#    0.000    0.625    0.000    0.000    0.000    0.000 
#    0.000    0.000    0.000    0.000    0.000    0.000 
#
# Total GULP energy -89400.656261 kJ/mol
# GULP energy per Si atom -5587.541016 kJ/mol
# Density = 2.287480 g / cm^3
# Si number density = 22.926983 Si / 1000 Ang^3
#
#
#
# Elastic Constant Matrix: (Units=GPa)
#
#
# Indices 1 2 3 4 5 6 
#
# 1 130.0293 61.7103 31.2877 7.8151 -27.5336 -22.7686
# 2 61.7103 133.5276 19.0279 -3.3224 -15.2235 -21.5598
# 3 31.2877 19.0279 60.4741 -1.2712 -10.5250 -15.0314
# 4 7.8151 -3.3224 -1.2712 32.8861 -5.3003 -7.1740
# 5 -27.5336 -15.2235 -10.5250 -5.3003 41.8339 3.5893
# 6 -22.7686 -21.5598 -15.0314 -7.1740 3.5893 44.7682
#
#
#
# Elastic Compliance Matrix: (Units=1/GPa)
#
#
# Indices 1 2 3 4 5 6 
#
# 1 0.012146 -0.004223 -0.003568 -0.002151 0.005099 0.002192
# 2 -0.004223 0.010128 0.000006 0.002868 0.001004 0.003111
# 3 -0.003568 0.000006 0.020230 0.003217 0.002698 0.005280
# 4 -0.002151 0.002868 0.003217 0.033391 0.004120 0.006388
# 5 0.005099 0.001004 0.002698 0.004120 0.028625 0.002348
# 6 0.002192 0.003111 0.005280 0.006388 0.002348 0.027558
#
#
# Mechanical properties :
#
#
# Convention : Reuss Voigt Hill
#
# Bulk Modulus (GPa) = 37.12775 60.89809 49.01292
# Shear Modulus (GPa) = 31.92318 38.03130 34.97724
#
# Velocity S-wave (km/s) = 3.73552 4.07726 3.91012
# Velocity P-wave (km/s) = 5.90208 6.98461 6.46604
#
# Compressibility (1/GPa) = 0.02693403
#
# Stress axis : x y z
#
# Youngs Moduli (GPa) = 82.32957 98.73559 49.43239
#
# Poissons Ratio (x) = 0.41698 0.17639
# Poissons Ratio (y) = 0.34770 -0.00032
# Poissons Ratio (z) = 0.29377 -0.00064
#
# Static dielectric constant tensor:
#      x y z
#    x 1.891310 0.012170 0.013740 
#    y 0.012170 1.845770 0.033520 
#    z 0.013740 0.033520 1.923810 
# 
# From -- ./inp_files/515202.got.cif
#   From: 2010.05.17/outbox.cif.g08.bks.cpg/sg2_258_cif.got.tgz:515202.got - 2010.06.03 11:33:40.
