data_PCOD9051598
_publ_section_title
;
Structure prediction by ZEFSAII (Michael W. Deem and Ramdas Pophale) SiO2 
 PCOD9051598
Probable space group: P -1
;
_chemical_formula_sum "Si O2"
_cell_formula_units_Z 14
_cell_length_a 18.400467
_cell_length_b 5.097088
_cell_length_c 14.115489
_cell_angle_alpha 113.454677
_cell_angle_beta 28.641928
_cell_angle_gamma 117.642652
_cell_volume 562.015923
_symmetry_space_group_name_H-M "P -1"
_symmetry_group_IT_number 2
_symmetry_cell_setting 'triclinic'
loop_
_space_group_symop_operation_xyz
x,y,z
-x,-y,-z
loop_
_atom_site_type_symbol
_atom_site_label
_atom_site_fract_x
_atom_site_fract_y
_atom_site_fract_z
Si Si1 0.344785 0.450300 0.954950
Si Si2 0.613196 0.305652 0.378676
Si Si3 0.197098 0.592223 0.635356
Si Si4 0.789430 0.422018 0.675634
Si Si5 0.853580 0.421479 0.954661
Si Si6 0.929670 0.893294 0.434229
Si Si7 0.562859 0.064351 0.727839
O O1 0.265915 0.550707 0.151726
O O2 0.218075 0.378449 0.005238
O O3 0.433358 0.214018 0.854425
O O4 0.091699 0.821564 0.208061
O O5 0.500000 0.500000 0.500000
O O6 0.725360 0.429962 0.356780
O O7 0.727727 0.286877 0.158535
O O8 0.500000 0.000000 0.500000
O O9 0.186406 0.302695 0.540390
O O10 0.015703 0.600497 0.844071
O O11 0.301251 0.868946 0.497311
O O12 0.864628 0.734495 0.584004
O O13 0.640820 0.245603 0.757592
O O14 0.522884 0.269145 0.196396
O O15 0.912432 0.221822 0.497999
#
# Coordination Sequence:
#
# PCOD9051598 Si02
#       7
#     2   2   2   2   2   2   2
#     4  12  24  39  67  97 138 173 232 275 323 386
#     4  12  26  47  74 104 131 168 219 276 337 400
#     4   9  22  47  67  97 137 172 217 270 332 399
#     4  11  21  41  64  97 130 183 225 273 322 384
#     4  10  25  47  67 103 130 183 215 275 335 398
#     4   9  23  39  67  93 134 173 225 262 333 383
#     4  11  22  41  63  97 132 180 220 279 328 382
#
# _framework density 24.910323999999999
#
# number of rings (size 3 to 8) (size 9 to 14) (size 15 to 20)
#    0.857    0.571    0.000    5.571    0.000    5.714 
#    0.000    1.429    0.000    0.000    0.000    0.000 
#    0.000    0.000    0.000    0.000    0.000    0.000 
#
# Total GULP energy -78516.507133 kJ/mol
# GULP energy per Si atom -5608.321938 kJ/mol
# Density = 2.485363 g / cm^3
# Si number density = 24.910324 Si / 1000 Ang^3
#
#
#
# Elastic Constant Matrix: (Units=GPa)
#
#
# Indices 1 2 3 4 5 6 
#
# 1 203.2935 32.2108 66.7196 -3.7175 -17.9395 -6.3393
# 2 32.2108 82.8285 34.6736 -2.0810 -10.9236 -17.5830
# 3 66.7196 34.6736 181.4179 -1.7412 -1.4931 -7.8984
# 4 -3.7175 -2.0810 -1.7412 22.0933 -0.8346 -4.8188
# 5 -17.9395 -10.9236 -1.4931 -0.8346 57.5880 0.4160
# 6 -6.3393 -17.5830 -7.8984 -4.8188 0.4160 32.8477
#
#
#
# Elastic Compliance Matrix: (Units=1/GPa)
#
#
# Indices 1 2 3 4 5 6 
#
# 1 0.005898 -0.001246 -0.001905 0.000808 0.001562 0.000112
# 2 -0.001246 0.015535 -0.002116 0.002918 0.002489 0.007963
# 3 -0.001905 -0.002116 0.006615 -0.000008 -0.000824 0.000099
# 4 0.000808 0.002918 -0.000008 0.047621 0.001432 0.008684
# 5 0.001562 0.002489 -0.000824 0.001432 0.018313 0.001414
# 6 0.000112 0.007963 0.000099 0.008684 0.001414 0.036008
#
#
# Mechanical properties :
#
#
# Convention : Reuss Voigt Hill
#
# Bulk Modulus (GPa) = 57.09799 81.63865 69.36832
# Shear Modulus (GPa) = 34.16201 44.76820 39.46510
#
# Velocity S-wave (km/s) = 3.70726 4.24391 3.98463
# Velocity P-wave (km/s) = 6.42621 7.54046 7.00552
#
# Compressibility (1/GPa) = 0.01751375
#
# Stress axis : x y z
#
# Youngs Moduli (GPa) = 169.55199 64.36953 151.17703
#
# Poissons Ratio (x) = 0.08019 0.28806
# Poissons Ratio (y) = 0.21123 0.31987
# Poissons Ratio (z) = 0.32307 0.13620
#
# Static dielectric constant tensor:
#      x y z
#    x 1.963340 0.053870 -0.052470 
#    y 0.053870 1.983430 -0.003560 
#    z -0.052470 -0.003560 1.946690 
# 
# From -- ./inp_files/446518.got.cif
#   From: 2010.05.17/outbox.cif.g08.bks.cpg/sg2_224_cif.got.tgz:446518.got - 2010.06.03 11:33:40.
