data_PCOD9051909
_publ_section_title
;
Structure prediction by ZEFSAII (Michael W. Deem and Ramdas Pophale) SiO2 
 PCOD9051909
Probable space group: P -1
;
_chemical_formula_sum "Si O2"
_cell_formula_units_Z 16
_cell_length_a 8.648581
_cell_length_b 5.488685
_cell_length_c 15.254683
_cell_angle_alpha 92.131467
_cell_angle_beta 72.294173
_cell_angle_gamma 76.440814
_cell_volume 665.983274
_symmetry_space_group_name_H-M "P -1"
_symmetry_group_IT_number 2
_symmetry_cell_setting 'triclinic'
loop_
_space_group_symop_operation_xyz
x,y,z
-x,-y,-z
loop_
_atom_site_type_symbol
_atom_site_label
_atom_site_fract_x
_atom_site_fract_y
_atom_site_fract_z
Si Si1 0.205028 0.928655 0.961836
Si Si2 0.181663 0.465694 0.236218
Si Si3 0.161285 0.063740 0.513798
Si Si4 0.137082 0.588911 0.619990
Si Si5 0.456485 0.583965 0.609786
Si Si6 0.536068 0.098707 0.230208
Si Si7 0.837181 0.547930 0.963723
Si Si8 0.684880 0.190138 0.677472
O O1 0.295620 0.918009 0.852951
O O2 0.261032 0.653625 0.991327
O O3 0.252561 0.157277 0.007114
O O4 0.000000 0.000000 0.000000
O O5 0.373447 0.299260 0.216291
O O6 0.127078 0.499078 0.145545
O O7 0.175783 0.736080 0.285823
O O8 0.046993 0.344610 0.306346
O O9 0.142270 0.346323 0.554165
O O10 0.196465 0.833985 0.575936
O O11 0.272310 0.027915 0.406137
O O12 0.000000 0.000000 0.500000
O O13 0.291399 0.486266 0.658073
O O14 0.500000 0.500000 0.500000
O O15 0.429145 0.838850 0.674143
O O16 0.621335 0.424339 0.627813
O O17 0.466921 0.850657 0.238990
O O18 0.000000 0.500000 0.000000
#
# Coordination Sequence:
#
# PCOD9051909 Si02
#       8
#     2   2   2   2   2   2   2   2
#     4  10  25  48  76 106 142 185 241 306 375 436
#     4  11  27  46  72 108 146 190 251 299 373 443
#     4  12  24  44  69 103 152 192 247 294 360 424
#     4  12  27  42  74 106 143 200 248 302 357 430
#     4  11  25  45  69 108 149 195 249 300 360 428
#     4  11  27  46  75 105 152 194 245 305 370 442
#     4  10  25  48  75 105 143 180 242 306 372 436
#     4  11  25  45  70 103 153 196 243 304 364 441
#
# _framework density 24.024623999999999
#
# number of rings (size 3 to 8) (size 9 to 14) (size 15 to 20)
#    0.000    1.000    2.500    1.875   12.250    3.000 
#    0.000    0.000    0.000    0.000    0.000    0.000 
#    0.000    0.000    0.000    0.000    0.000    0.000 
#
# Total GULP energy -89077.157978 kJ/mol
# GULP energy per Si atom -5567.322374 kJ/mol
# Density = 2.396994 g / cm^3
# Si number density = 24.024624 Si / 1000 Ang^3
#
#
#
# Elastic Constant Matrix: (Units=GPa)
#
#
# Indices 1 2 3 4 5 6 
#
# 1 104.1977 14.7477 61.0370 2.8587 -4.6368 18.0071
# 2 14.7477 112.0322 47.2021 -8.2978 7.7403 32.7938
# 3 61.0370 47.2021 148.6582 -6.2970 2.0662 18.5982
# 4 2.8587 -8.2978 -6.2970 24.9054 5.7561 -2.7995
# 5 -4.6368 7.7403 2.0662 5.7561 50.9851 -2.9701
# 6 18.0071 32.7938 18.5982 -2.7995 -2.9701 26.0944
#
#
#
# Elastic Compliance Matrix: (Units=1/GPa)
#
#
# Indices 1 2 3 4 5 6 
#
# 1 0.014440 0.003203 -0.005839 -0.003400 0.000859 -0.010096
# 2 0.003203 0.016532 -0.003854 0.002699 -0.003553 -0.020354
# 3 -0.005839 -0.003854 0.010231 0.002291 -0.000516 0.001768
# 4 -0.003400 0.002699 0.002291 0.043475 -0.005642 0.001344
# 5 0.000859 -0.003553 -0.000516 -0.005642 0.021241 0.006052
# 6 -0.010096 -0.020354 0.001768 0.001344 0.006052 0.070442
#
#
# Mechanical properties :
#
#
# Convention : Reuss Voigt Hill
#
# Bulk Modulus (GPa) = 35.43188 67.87353 51.65271
# Shear Modulus (GPa) = 25.15728 36.52373 30.84051
#
# Velocity S-wave (km/s) = 3.23947 3.90328 3.58677
# Velocity P-wave (km/s) = 5.36399 6.97332 6.22092
#
# Compressibility (1/GPa) = 0.02822317
#
# Stress axis : x y z
#
# Youngs Moduli (GPa) = 69.25002 60.49029 97.74152
#
# Poissons Ratio (x) = -0.19377 0.57072
# Poissons Ratio (y) = -0.22183 0.37672
# Poissons Ratio (z) = 0.40435 0.23314
#
# Static dielectric constant tensor:
#      x y z
#    x 2.267870 -0.327830 0.129230 
#    y -0.327830 2.341430 -0.121770 
#    z 0.129230 -0.121770 2.160640 
# 
# From -- ./inp_files/488512.got.cif
#   From: 2010.05.17/outbox.cif.g08.bks.cpg/sg2_245_cif.got.tgz:488512.got - 2010.06.03 11:33:40.
