data_PCOD9051225
_publ_section_title
;
Structure prediction by ZEFSAII (Michael W. Deem and Ramdas Pophale) SiO2 
 PCOD9051225
Probable space group: P -1
;
_chemical_formula_sum "Si O2"
_cell_formula_units_Z 16
_cell_length_a 9.288639
_cell_length_b 12.275563
_cell_length_c 15.419914
_cell_angle_alpha 53.874694
_cell_angle_beta 113.742394
_cell_angle_gamma 67.295915
_cell_volume 699.126217
_symmetry_space_group_name_H-M "P -1"
_symmetry_group_IT_number 2
_symmetry_cell_setting 'triclinic'
loop_
_space_group_symop_operation_xyz
x,y,z
-x,-y,-z
loop_
_atom_site_type_symbol
_atom_site_label
_atom_site_fract_x
_atom_site_fract_y
_atom_site_fract_z
Si Si1 0.652540 0.760658 0.607955
Si Si2 0.757122 0.554644 0.034442
Si Si3 0.682797 0.508797 0.848553
Si Si4 0.818344 0.303601 0.627147
Si Si5 0.852199 0.253834 0.329912
Si Si6 0.286060 0.341454 0.529195
Si Si7 0.097622 0.005066 0.107287
Si Si8 0.135444 0.154196 0.610233
O O1 0.521694 0.728125 0.642469
O O2 0.617517 0.766909 0.494216
O O3 0.992787 0.530296 0.825504
O O4 0.500000 0.000000 0.500000
O O5 0.815574 0.365295 0.180721
O O6 0.783376 0.515168 0.955956
O O7 0.437318 0.851218 0.835709
O O8 0.473194 0.542000 0.813387
O O9 0.932776 0.260448 0.969473
O O10 0.500000 0.500000 0.500000
O O11 0.913588 0.379200 0.655523
O O12 0.884493 0.276767 0.554603
O O13 0.976732 0.051886 0.810615
O O14 0.029643 0.217924 0.456110
O O15 0.000000 0.000000 0.500000
O O16 0.176537 0.284016 0.573519
O O17 0.563638 0.197939 0.716173
O O18 0.000000 0.000000 0.000000
#
# Coordination Sequence:
#
# PCOD9051225 Si02
#       8
#     2   2   2   2   2   2   2   2
#     4  12  24  44  72 107 144 190 238 292 362 424
#     4  12  25  47  69 109 145 188 242 293 362 429
#     4  12  25  41  72 101 147 189 240 299 351 426
#     4  10  25  45  72  98 137 183 240 294 357 431
#     4  12  26  43  70 103 149 187 239 292 364 426
#     4  11  24  47  70 103 144 187 239 295 357 430
#     4  11  25  45  69 104 140 186 245 298 358 424
#     4  12  25  47  72 106 144 190 236 300 362 431
#
# _framework density 22.885708999999999
#
# number of rings (size 3 to 8) (size 9 to 14) (size 15 to 20)
#    0.000    0.500    2.500    5.625    8.750    0.000 
#    0.000    1.250    0.000    0.000    0.000    0.000 
#    0.000    0.000    0.000    0.000    0.000    0.000 
#
# Total GULP energy -89358.872872 kJ/mol
# GULP energy per Si atom -5584.929555 kJ/mol
# Density = 2.283362 g / cm^3
# Si number density = 22.885709 Si / 1000 Ang^3
#
#
#
# Elastic Constant Matrix: (Units=GPa)
#
#
# Indices 1 2 3 4 5 6 
#
# 1 109.0242 14.8023 23.9854 7.7173 -24.1389 10.3768
# 2 14.8023 92.9089 30.5016 -5.8140 -4.1667 4.0626
# 3 23.9854 30.5016 68.7397 -0.4895 -5.8131 2.1717
# 4 7.7173 -5.8140 -0.4895 45.6709 11.2569 -7.4721
# 5 -24.1389 -4.1667 -5.8131 11.2569 53.3633 1.6854
# 6 10.3768 4.0626 2.1717 -7.4721 1.6854 43.0029
#
#
#
# Elastic Compliance Matrix: (Units=1/GPa)
#
#
# Indices 1 2 3 4 5 6 
#
# 1 0.011957 -0.000662 -0.003286 -0.004212 0.006002 -0.003624
# 2 -0.000662 0.012764 -0.005425 0.001657 -0.000228 -0.000475
# 3 -0.003286 -0.005425 0.018091 0.000121 0.000022 0.000412
# 4 -0.004212 0.001657 0.000121 0.025538 -0.007326 0.005578
# 5 0.006002 -0.000228 0.000022 -0.007326 0.023099 -0.003606
# 6 -0.003624 -0.000475 0.000412 0.005578 -0.003606 0.025263
#
#
# Mechanical properties :
#
#
# Convention : Reuss Voigt Hill
#
# Bulk Modulus (GPa) = 41.55363 45.47237 43.51300
# Shear Modulus (GPa) = 34.84758 41.83299 38.34029
#
# Velocity S-wave (km/s) = 3.90639 4.28004 4.09748
# Velocity P-wave (km/s) = 6.20829 6.65864 6.43741
#
# Compressibility (1/GPa) = 0.02406528
#
# Stress axis : x y z
#
# Youngs Moduli (GPa) = 83.63165 78.34515 55.27493
#
# Poissons Ratio (x) = 0.05187 0.18165
# Poissons Ratio (y) = 0.05537 0.29988
# Poissons Ratio (z) = 0.27484 0.42504
#
# Static dielectric constant tensor:
#      x y z
#    x 1.856110 0.122690 -0.050560 
#    y 0.122690 1.195200 0.278880 
#    z -0.050560 0.278880 1.777650 
# 
# From -- ./inp_files/500062.got.cif
#   From: 2010.05.17/outbox.cif.g08.bks.cpg/sg2_251_cif.got.tgz:500062.got - 2010.06.03 11:33:40.
