data_PCOD9051877
_publ_section_title
;
Structure prediction by ZEFSAII (Michael W. Deem and Ramdas Pophale) SiO2 
 PCOD9051877
Probable space group: P -1
;
_chemical_formula_sum "Si O2"
_cell_formula_units_Z 14
_cell_length_a 5.268686
_cell_length_b 9.621163
_cell_length_c 12.683382
_cell_angle_alpha 105.984428
_cell_angle_beta 111.896210
_cell_angle_gamma 74.040796
_cell_volume 562.691180
_symmetry_space_group_name_H-M "P -1"
_symmetry_group_IT_number 2
_symmetry_cell_setting 'triclinic'
loop_
_space_group_symop_operation_xyz
x,y,z
-x,-y,-z
loop_
_atom_site_type_symbol
_atom_site_label
_atom_site_fract_x
_atom_site_fract_y
_atom_site_fract_z
Si Si1 0.667170 0.525150 0.930057
Si Si2 0.078450 0.719703 0.210482
Si Si3 0.894645 0.641584 0.370457
Si Si4 0.561196 0.072227 0.632015
Si Si5 0.696653 0.840777 0.978226
Si Si6 0.265957 0.647618 0.628147
Si Si7 0.790218 0.801116 0.748794
O O1 0.662252 0.386917 0.826197
O O2 0.560757 0.693876 0.915568
O O3 0.500000 0.500000 0.000000
O O4 0.000000 0.500000 0.000000
O O5 0.176273 0.848400 0.316599
O O6 0.978697 0.609729 0.255376
O O7 0.880943 0.799207 0.103442
O O8 0.696752 0.798314 0.363712
O O9 0.750023 0.517637 0.374185
O O10 0.144164 0.659370 0.492758
O O11 0.500000 0.000000 0.500000
O O12 0.619636 0.954594 0.709298
O O13 0.857070 0.831852 0.888228
O O14 0.500000 0.000000 0.000000
O O15 0.569277 0.690699 0.685418
O O16 0.046104 0.746788 0.696305
#
# Coordination Sequence:
#
# PCOD9051877 Si02
#       7
#     2   2   2   2   2   2   2
#     4  10  25  48  73 106 149 201 252 301 370 452
#     4  11  27  48  78 111 153 207 257 313 381 468
#     4  11  26  47  80 109 150 199 262 315 389 451
#     4  12  27  47  77 110 154 204 254 318 385 455
#     4  11  27  47  75 113 153 201 251 318 383 452
#     4  11  28  50  78 113 150 199 259 323 377 455
#     4  12  28  49  74 111 156 199 252 318 385 450
#
# _framework density 24.88043
#
# number of rings (size 3 to 8) (size 9 to 14) (size 15 to 20)
#    0.000    0.857    1.429    2.571   14.000    5.143 
#    0.000    0.000    0.000    0.000    0.000    0.000 
#    0.000    0.000    0.000    0.000    0.000    0.000 
#
# Total GULP energy -78331.289374 kJ/mol
# GULP energy per Si atom -5595.092098 kJ/mol
# Density = 2.482380 g / cm^3
# Si number density = 24.880430 Si / 1000 Ang^3
#
#
#
# Elastic Constant Matrix: (Units=GPa)
#
#
# Indices 1 2 3 4 5 6 
#
# 1 86.2451 31.9688 42.1254 -10.5572 -4.7580 -5.9687
# 2 31.9688 149.0211 45.7118 -0.1207 -7.6953 -12.3284
# 3 42.1254 45.7118 155.6725 -30.5460 2.3749 -6.3222
# 4 -10.5572 -0.1207 -30.5460 48.0410 3.1389 -3.6373
# 5 -4.7580 -7.6953 2.3749 3.1389 53.8007 4.9967
# 6 -5.9687 -12.3284 -6.3222 -3.6373 4.9967 41.5582
#
#
#
# Elastic Compliance Matrix: (Units=1/GPa)
#
#
# Indices 1 2 3 4 5 6 
#
# 1 0.014038 -0.001975 -0.002955 0.001214 0.000928 0.000975
# 2 -0.001975 0.007948 -0.002087 -0.001695 0.001015 0.001486
# 3 -0.002955 -0.002087 0.008908 0.005167 -0.001340 0.000925
# 4 0.001214 -0.001695 0.005167 0.024716 -0.002072 0.002870
# 5 0.000928 0.001015 -0.001340 -0.002072 0.019204 -0.002260
# 6 0.000975 0.001486 0.000925 0.002870 -0.002260 0.025307
#
#
# Mechanical properties :
#
#
# Convention : Reuss Voigt Hill
#
# Bulk Modulus (GPa) = 59.31419 70.06122 64.68771
# Shear Modulus (GPa) = 41.74433 46.75549 44.24991
#
# Velocity S-wave (km/s) = 4.10054 4.33969 4.22180
# Velocity P-wave (km/s) = 6.80519 7.30279 7.05838
#
# Compressibility (1/GPa) = 0.01685937
#
# Stress axis : x y z
#
# Youngs Moduli (GPa) = 71.23672 125.81013 112.25741
#
# Poissons Ratio (x) = 0.24853 0.33170
# Poissons Ratio (y) = 0.14073 0.23430
# Poissons Ratio (z) = 0.21049 0.26258
#
# Static dielectric constant tensor:
#      x y z
#    x 1.978620 -0.007320 0.011840 
#    y -0.007320 1.888850 0.000290 
#    z 0.011840 0.000290 2.077130 
# 
# From -- ./inp_files/94745.got.cif
#   From: 2010.05.17/outbox.cif.g08.bks.cpg/sg2_48_cif.got.tgz:94745.got - 2010.06.03 11:33:40.
