data_PCOD9051069
_publ_section_title
;
Structure prediction by ZEFSAII (Michael W. Deem and Ramdas Pophale) SiO2 
 PCOD9051069
Probable space group: P -1
;
_chemical_formula_sum "Si O2"
_cell_formula_units_Z 14
_cell_length_a 8.899052
_cell_length_b 9.275783
_cell_length_c 16.565352
_cell_angle_alpha 58.690919
_cell_angle_beta 120.716512
_cell_angle_gamma 149.557029
_cell_volume 585.683415
_symmetry_space_group_name_H-M "P -1"
_symmetry_group_IT_number 2
_symmetry_cell_setting 'triclinic'
loop_
_space_group_symop_operation_xyz
x,y,z
-x,-y,-z
loop_
_atom_site_type_symbol
_atom_site_label
_atom_site_fract_x
_atom_site_fract_y
_atom_site_fract_z
Si Si1 0.728227 0.090341 0.475256
Si Si2 0.529082 0.698942 0.899774
Si Si3 0.778745 0.223505 0.267359
Si Si4 0.582343 0.354629 0.737311
Si Si5 0.612601 0.497678 0.450643
Si Si6 0.852612 0.718599 0.868527
Si Si7 0.556821 0.864169 0.017433
O O1 0.663113 0.095332 0.363539
O O2 0.086844 0.378705 0.500879
O O3 0.500000 0.000000 0.500000
O O4 0.658485 0.839624 0.543445
O O5 0.271980 0.623167 0.819075
O O6 0.692677 0.759428 0.846940
O O7 0.500000 0.500000 0.000000
O O8 0.688010 0.940491 0.941446
O O9 0.127438 0.448975 0.296528
O O10 0.603698 0.964310 0.231432
O O11 0.365029 0.332709 0.655072
O O12 0.741894 0.554763 0.802309
O O13 0.500000 0.500000 0.500000
O O14 0.754291 0.482750 0.967290
O O15 0.201212 0.026315 0.887334
O O16 0.500000 0.000000 0.000000
#
# Coordination Sequence:
#
# PCOD9051069 Si02
#       7
#     2   2   2   2   2   2   2
#     4  12  26  45  72 108 144 187 229 294 352 419
#     4  10  25  45  68  99 138 181 228 292 351 406
#     4  12  25  46  68 102 140 183 237 285 347 420
#     4  12  25  43  72 102 137 185 234 285 342 422
#     4  12  23  47  72 102 145 184 236 283 353 421
#     4  11  24  41  63  98 128 171 224 279 344 402
#     4  11  22  42  67  91 128 172 224 279 341 407
#
# _framework density 23.903697000000001
#
# number of rings (size 3 to 8) (size 9 to 14) (size 15 to 20)
#    0.000    0.571    2.857    5.143    2.000    5.714 
#    0.000    0.000    0.000    0.000    0.000    0.000 
#    0.000    0.000    0.000    0.000    0.000    0.000 
#
# Total GULP energy -78079.085848 kJ/mol
# GULP energy per Si atom -5577.077561 kJ/mol
# Density = 2.384929 g / cm^3
# Si number density = 23.903697 Si / 1000 Ang^3
#
#
#
# Elastic Constant Matrix: (Units=GPa)
#
#
# Indices 1 2 3 4 5 6 
#
# 1 149.5158 28.1410 47.2668 8.9647 -9.9768 -6.9422
# 2 28.1410 88.7435 3.2179 4.1261 -0.4349 6.0062
# 3 47.2668 3.2179 94.4586 9.2096 18.3081 2.8777
# 4 8.9647 4.1261 9.2096 31.4550 -4.9328 7.2563
# 5 -9.9768 -0.4349 18.3081 -4.9328 36.4798 -4.7266
# 6 -6.9422 6.0062 2.8777 7.2563 -4.7266 33.4339
#
#
#
# Elastic Compliance Matrix: (Units=1/GPa)
#
#
# Indices 1 2 3 4 5 6 
#
# 1 0.009834 -0.003119 -0.006074 -0.000602 0.006154 0.004126
# 2 -0.003119 0.012437 0.001721 -0.000849 -0.002090 -0.003141
# 3 -0.006074 0.001721 0.016163 -0.004086 -0.010771 -0.003598
# 4 -0.000602 -0.000849 -0.004086 0.035698 0.005856 -0.006540
# 5 0.006154 -0.002090 -0.010771 0.005856 0.036099 0.006413
# 6 0.004126 -0.003141 -0.003598 -0.006540 0.006413 0.033967
#
#
# Mechanical properties :
#
#
# Convention : Reuss Voigt Hill
#
# Bulk Modulus (GPa) = 42.57376 54.44104 48.50740
# Shear Modulus (GPa) = 29.94497 37.21321 33.57909
#
# Velocity S-wave (km/s) = 3.54324 3.94991 3.75209
# Velocity P-wave (km/s) = 5.88121 6.60507 6.25362
#
# Compressibility (1/GPa) = 0.02348865
#
# Stress axis : x y z
#
# Youngs Moduli (GPa) = 101.68857 80.40518 61.86832
#
# Poissons Ratio (x) = 0.25080 0.37581
# Poissons Ratio (y) = 0.31719 -0.10646
# Poissons Ratio (z) = 0.61770 -0.13836
#
# Static dielectric constant tensor:
#      x y z
#    x 1.911750 0.024160 -0.091050 
#    y 0.024160 1.864380 -0.021000 
#    z -0.091050 -0.021000 1.982760 
# 
# From -- ./inp_files/218439.got.cif
#   From: 2010.05.17/outbox.cif.g08.bks.cpg/sg2_110_cif.got.tgz:218439.got - 2010.06.03 11:33:40.
