data_PCOD9051058
_publ_section_title
;
Structure prediction by ZEFSAII (Michael W. Deem and Ramdas Pophale) SiO2 
 PCOD9051058
Probable space group: P -1
;
_chemical_formula_sum "Si O2"
_cell_formula_units_Z 16
_cell_length_a 11.996440
_cell_length_b 10.977562
_cell_length_c 9.576778
_cell_angle_alpha 127.365150
_cell_angle_beta 50.255118
_cell_angle_gamma 141.052665
_cell_volume 593.682379
_symmetry_space_group_name_H-M "P -1"
_symmetry_group_IT_number 2
_symmetry_cell_setting 'triclinic'
loop_
_space_group_symop_operation_xyz
x,y,z
-x,-y,-z
loop_
_atom_site_type_symbol
_atom_site_label
_atom_site_fract_x
_atom_site_fract_y
_atom_site_fract_z
Si Si1 0.494961 0.358503 0.195979
Si Si2 0.778479 0.927268 0.022131
Si Si3 0.589246 0.862174 0.613783
Si Si4 0.922156 0.848921 0.268890
Si Si5 0.150462 0.299959 0.493498
Si Si6 0.549937 0.232724 0.636591
Si Si7 0.218936 0.404430 0.098607
Si Si8 0.156567 0.702656 0.360973
O O1 0.382401 0.189555 0.049529
O O2 0.508648 0.261757 0.253393
O O3 0.370431 0.419660 0.384771
O O4 0.678418 0.542417 0.097420
O O5 0.839965 0.797096 0.928703
O O6 0.663754 0.919516 0.237893
O O7 0.963916 0.127216 0.943988
O O8 0.739624 0.835857 0.420827
O O9 0.451511 0.788448 0.542168
O O10 0.712983 0.100737 0.705829
O O11 0.899814 0.707932 0.309928
O O12 0.074017 0.079073 0.362748
O O13 0.040509 0.341768 0.511000
O O14 0.624044 0.437052 0.798197
O O15 0.701248 0.216513 0.567099
O O16 0.111588 0.493808 0.227370
#
# Coordination Sequence:
#
# PCOD9051058 Si02
#       8
#     2   2   2   2   2   2   2   2
#     4   9  17  31  54  72  95 134 164 215 235 287
#     4  10  17  35  50  71 102 131 179 198 231 300
#     4  10  18  33  49  79 104 122 166 203 265 297
#     4   8  16  28  52  71  99 131 158 213 242 290
#     4   8  14  30  48  75 100 119 170 207 251 283
#     4   9  19  30  50  73 104 133 156 210 248 297
#     4   9  20  33  51  74 102 133 170 201 241 294
#     4   9  18  30  50  75 105 129 156 209 255 294
#
# _framework density 26.950438999999999
#
# number of rings (size 3 to 8) (size 9 to 14) (size 15 to 20)
#    0.750    2.250    0.000    4.125    0.000    1.000 
#    2.250    8.125    0.000    0.000    0.000    3.500 
#    0.000    1.000    0.000    0.000    0.000    0.000 
#
# Total GULP energy -89330.124130 kJ/mol
# GULP energy per Si atom -5583.132758 kJ/mol
# Density = 2.688910 g / cm^3
# Si number density = 26.950439 Si / 1000 Ang^3
#
#
#
# Elastic Constant Matrix: (Units=GPa)
#
#
# Indices 1 2 3 4 5 6 
#
# 1 130.1634 30.0577 42.9461 -24.9063 1.4947 -28.5473
# 2 30.0577 135.2937 48.0591 -20.6861 -12.6865 -12.4575
# 3 42.9461 48.0591 115.7485 -28.7920 12.5192 -29.7043
# 4 -24.9063 -20.6861 -28.7920 59.4517 -4.2433 -3.8749
# 5 1.4947 -12.6865 12.5192 -4.2433 43.1720 -12.6976
# 6 -28.5473 -12.4575 -29.7043 -3.8749 -12.6976 31.7599
#
#
#
# Elastic Compliance Matrix: (Units=1/GPa)
#
#
# Indices 1 2 3 4 5 6 
#
# 1 0.011559 -0.000169 0.000091 0.005926 0.003831 0.012663
# 2 -0.000169 0.009610 -0.003140 0.002284 0.004813 0.002884
# 3 0.000091 -0.003140 0.015316 0.007221 -0.000593 0.013819
# 4 0.005926 0.002284 0.007221 0.025258 0.006321 0.018586
# 5 0.003831 0.004813 -0.000593 0.006321 0.030450 0.017722
# 6 0.012663 0.002884 0.013819 0.018586 0.017722 0.066277
#
#
# Mechanical properties :
#
#
# Convention : Reuss Voigt Hill
#
# Bulk Modulus (GPa) = 33.27814 69.25905 51.26859
# Shear Modulus (GPa) = 28.58405 44.21956 36.40181
#
# Velocity S-wave (km/s) = 3.26024 4.05504 3.67917
# Velocity P-wave (km/s) = 5.15237 6.90499 6.09204
#
# Compressibility (1/GPa) = 0.03004975
#
# Stress axis : x y z
#
# Youngs Moduli (GPa) = 86.51315 104.05488 65.29058
#
# Poissons Ratio (x) = 0.01759 -0.00595
# Poissons Ratio (y) = 0.01462 0.20500
# Poissons Ratio (z) = -0.00788 0.32672
#
# Static dielectric constant tensor:
#      x y z
#    x 2.175960 0.123070 0.092710 
#    y 0.123070 2.300790 0.018380 
#    z 0.092710 0.018380 2.184390 
# 
# From -- ./inp_files/258899.got.cif
#   From: 2010.05.17/outbox.cif.g08.bks.cpg/sg2_130_cif.got.tgz:258899.got - 2010.06.03 11:33:40.
