data_PCOD9051781
_publ_section_title
;
Structure prediction by ZEFSAII (Michael W. Deem and Ramdas Pophale) SiO2 
 PCOD9051781
Probable space group: P -1
;
_chemical_formula_sum "Si O2"
_cell_formula_units_Z 14
_cell_length_a 6.931889
_cell_length_b 10.153603
_cell_length_c 13.860224
_cell_angle_alpha 42.907446
_cell_angle_beta 57.186512
_cell_angle_gamma 66.304809
_cell_volume 558.163971
_symmetry_space_group_name_H-M "P -1"
_symmetry_group_IT_number 2
_symmetry_cell_setting 'triclinic'
loop_
_space_group_symop_operation_xyz
x,y,z
-x,-y,-z
loop_
_atom_site_type_symbol
_atom_site_label
_atom_site_fract_x
_atom_site_fract_y
_atom_site_fract_z
Si Si1 0.242611 0.033417 0.131056
Si Si2 0.564829 0.602344 0.205904
Si Si3 0.417697 0.376456 0.182337
Si Si4 0.457961 0.746702 0.354902
Si Si5 0.780308 0.069896 0.326779
Si Si6 0.097257 0.292794 0.618867
Si Si7 0.112501 0.712380 0.641434
O O1 0.024771 0.140185 0.181205
O O2 0.117914 0.845269 0.220317
O O3 0.407564 0.957835 0.211496
O O4 0.365666 0.179209 0.950318
O O5 0.431633 0.515347 0.198402
O O6 0.452874 0.602599 0.341997
O O7 0.791788 0.472871 0.226960
O O8 0.585899 0.194885 0.259144
O O9 0.158305 0.305087 0.280623
O O10 0.500000 0.500000 0.000000
O O11 0.710415 0.721657 0.343345
O O12 0.247705 0.717133 0.501100
O O13 0.795234 0.111124 0.413657
O O14 0.783259 0.840556 0.426018
O O15 0.000000 0.500000 0.500000
#
# Coordination Sequence:
#
# PCOD9051781 Si02
#       7
#     2   2   2   2   2   2   2
#     4  10  25  47  76 111 159 198 270 327 387 471
#     4  11  26  46  75 121 156 207 267 322 393 480
#     4  11  24  47  84 111 161 211 260 322 402 469
#     4  12  28  48  75 111 164 211 265 325 395 465
#     4   9  24  47  71 117 153 196 273 321 386 477
#     4  10  27  49  79 109 155 205 265 331 397 466
#     4  11  26  45  77 115 160 213 256 328 395 466
#
# _framework density 25.082236000000002
#
# number of rings (size 3 to 8) (size 9 to 14) (size 15 to 20)
#    0.857    0.571    0.000    2.571    8.000    8.000 
#    0.000    0.000    0.000    0.000    0.000    0.000 
#    0.000    0.000    0.000    0.000    0.000    0.000 
#
# Total GULP energy -78355.876745 kJ/mol
# GULP energy per Si atom -5596.848339 kJ/mol
# Density = 2.502515 g / cm^3
# Si number density = 25.082236 Si / 1000 Ang^3
#
#
#
# Elastic Constant Matrix: (Units=GPa)
#
#
# Indices 1 2 3 4 5 6 
#
# 1 195.8910 72.4934 90.8190 -7.9990 35.2953 -15.3015
# 2 72.4934 164.5350 60.7033 -2.4201 21.4892 11.8058
# 3 90.8190 60.7033 160.8072 -6.4536 -3.1330 2.5789
# 4 -7.9990 -2.4201 -6.4536 46.8080 -0.0072 5.0670
# 5 35.2953 21.4892 -3.1330 -0.0072 31.6561 3.3330
# 6 -15.3015 11.8058 2.5789 5.0670 3.3330 38.5023
#
#
#
# Elastic Compliance Matrix: (Units=1/GPa)
#
#
# Indices 1 2 3 4 5 6 
#
# 1 0.011404 -0.001492 -0.006223 0.000309 -0.013002 0.006491
# 2 -0.001492 0.008294 -0.002316 0.000142 -0.003916 -0.002661
# 3 -0.006223 -0.002316 0.010884 0.000692 0.009950 -0.003444
# 4 0.000309 0.000142 0.000692 0.021826 -0.000069 -0.002833
# 5 -0.013002 -0.003916 0.009950 -0.000069 0.050678 -0.009011
# 6 0.006491 -0.002661 -0.003444 -0.002833 -0.009011 0.030752
#
#
# Mechanical properties :
#
#
# Convention : Reuss Voigt Hill
#
# Bulk Modulus (GPa) = 95.04921 107.69608 101.37265
# Shear Modulus (GPa) = 31.76491 43.20778 37.48634
#
# Velocity S-wave (km/s) = 3.56255 4.15498 3.87012
# Velocity P-wave (km/s) = 7.40943 8.12705 7.77652
#
# Compressibility (1/GPa) = 0.01052087
#
# Stress axis : x y z
#
# Youngs Moduli (GPa) = 87.68671 120.56786 91.87690
#
# Poissons Ratio (x) = 0.17989 0.57171
# Poissons Ratio (y) = 0.13083 0.21281
# Poissons Ratio (z) = 0.54563 0.27926
#
# Static dielectric constant tensor:
#      x y z
#    x 1.985940 0.015110 0.002100 
#    y 0.015110 2.104550 -0.014640 
#    z 0.002100 -0.014640 1.962140 
# 
# From -- ./inp_files/482540.got.cif
#   From: 2010.05.17/outbox.cif.g08.bks.cpg/sg2_242_cif.got.tgz:482540.got - 2010.06.03 11:33:40.
