data_PCOD9051205
_publ_section_title
;
Structure prediction by ZEFSAII (Michael W. Deem and Ramdas Pophale) SiO2 
 PCOD9051205
Probable space group: P -1
;
_chemical_formula_sum "Si O2"
_cell_formula_units_Z 14
_cell_length_a 9.669700
_cell_length_b 10.359751
_cell_length_c 9.304444
_cell_angle_alpha 125.732094
_cell_angle_beta 61.132484
_cell_angle_gamma 82.484784
_cell_volume 539.487474
_symmetry_space_group_name_H-M "P -1"
_symmetry_group_IT_number 2
_symmetry_cell_setting 'triclinic'
loop_
_space_group_symop_operation_xyz
x,y,z
-x,-y,-z
loop_
_atom_site_type_symbol
_atom_site_label
_atom_site_fract_x
_atom_site_fract_y
_atom_site_fract_z
Si Si1 0.399221 0.962037 0.899698
Si Si2 0.942882 0.047229 0.891949
Si Si3 0.555810 0.740280 0.392061
Si Si4 0.809635 0.602773 0.763872
Si Si5 0.194149 0.131301 0.683381
Si Si6 0.941675 0.228318 0.614482
Si Si7 0.439264 0.604931 0.942220
O O1 0.532896 0.818226 0.614709
O O2 0.607370 0.632418 0.835860
O O3 0.277059 0.882222 0.962465
O O4 0.255297 0.177079 0.039758
O O5 0.785629 0.230752 0.797191
O O6 0.010414 0.181960 0.899984
O O7 0.000000 0.000000 0.000000
O O8 0.742307 0.725703 0.233615
O O9 0.556210 0.551861 0.263174
O O10 0.374912 0.915960 0.504113
O O11 0.000000 0.500000 0.500000
O O12 0.500000 0.000000 0.000000
O O13 0.135102 0.133333 0.549792
O O14 0.876240 0.445186 0.752972
O O15 0.045641 0.867731 0.608386
O O16 0.500000 0.500000 0.000000
#
# Coordination Sequence:
#
# PCOD9051205 Si02
#       7
#     2   2   2   2   2   2   2
#     4  12  28  48  77 108 152 200 252 306 383 456
#     4  12  25  45  75 113 151 197 250 313 371 445
#     4  11  26  48  73 113 147 197 252 312 371 451
#     4  11  25  47  73 108 150 193 240 314 375 437
#     4  11  25  44  78 108 148 193 259 302 371 450
#     4  11  25  47  74 110 149 199 250 305 383 443
#     4  10  25  45  72 103 153 190 243 308 374 437
#
# _framework density 25.950557
#
# number of rings (size 3 to 8) (size 9 to 14) (size 15 to 20)
#    0.000    0.857    2.857    3.000   12.000    0.571 
#    0.000    2.143    0.000    0.000    0.000    0.000 
#    0.000    0.000    0.000    0.000    0.000    0.000 
#
# Total GULP energy -78322.830662 kJ/mol
# GULP energy per Si atom -5594.487904 kJ/mol
# Density = 2.589149 g / cm^3
# Si number density = 25.950557 Si / 1000 Ang^3
#
#
#
# Elastic Constant Matrix: (Units=GPa)
#
#
# Indices 1 2 3 4 5 6 
#
# 1 193.7563 61.1052 64.2802 -28.2966 -14.6477 5.8829
# 2 61.1052 111.3770 34.5515 -20.8161 -0.7929 22.1737
# 3 64.2802 34.5515 100.3506 -33.2649 16.6124 9.4370
# 4 -28.2966 -20.8161 -33.2649 44.2353 6.7593 -5.9813
# 5 -14.6477 -0.7929 16.6124 6.7593 56.6511 -11.3548
# 6 5.8829 22.1737 9.4370 -5.9813 -11.3548 72.4591
#
#
#
# Elastic Compliance Matrix: (Units=1/GPa)
#
#
# Indices 1 2 3 4 5 6 
#
# 1 0.007992 -0.003221 -0.004963 -0.000515 0.003848 0.001544
# 2 -0.003221 0.012140 -0.000541 0.003024 -0.001542 -0.003375
# 3 -0.004963 -0.000541 0.018897 0.011801 -0.008698 -0.002281
# 4 -0.000515 0.003024 0.011801 0.033641 -0.007737 -0.000856
# 5 0.003848 -0.001542 -0.008698 -0.007737 0.022951 0.004250
# 6 0.001544 -0.003375 -0.002281 -0.000856 0.004250 0.015601
#
#
# Mechanical properties :
#
#
# Convention : Reuss Voigt Hill
#
# Bulk Modulus (GPa) = 46.34449 80.59529 63.46989
# Shear Modulus (GPa) = 36.80072 51.03891 43.91982
#
# Velocity S-wave (km/s) = 3.76986 4.43965 4.11839
# Velocity P-wave (km/s) = 6.07015 7.57663 6.86484
#
# Compressibility (1/GPa) = 0.02157754
#
# Stress axis : x y z
#
# Youngs Moduli (GPa) = 125.11733 82.37250 52.91814
#
# Poissons Ratio (x) = 0.26536 0.26265
# Poissons Ratio (y) = 0.40306 0.02865
# Poissons Ratio (z) = 0.62099 0.04459
#
# Static dielectric constant tensor:
#      x y z
#    x 2.060250 -0.044680 -0.069570 
#    y -0.044680 2.239770 0.018180 
#    z -0.069570 0.018180 2.074850 
# 
# From -- ./inp_files/424026.got.cif
#   From: 2010.05.17/outbox.cif.g08.bks.cpg/sg2_213_cif.got.tgz:424026.got - 2010.06.03 11:33:40.
