data_PCOD9051830
_publ_section_title
;
Structure prediction by ZEFSAII (Michael W. Deem and Ramdas Pophale) SiO2 
 PCOD9051830
Probable space group: P -1
;
_chemical_formula_sum "Si O2"
_cell_formula_units_Z 14
_cell_length_a 11.890001
_cell_length_b 5.305217
_cell_length_c 20.742197
_cell_angle_alpha 113.063753
_cell_angle_beta 151.385570
_cell_angle_gamma 61.495294
_cell_volume 549.499631
_symmetry_space_group_name_H-M "P -1"
_symmetry_group_IT_number 2
_symmetry_cell_setting 'triclinic'
loop_
_space_group_symop_operation_xyz
x,y,z
-x,-y,-z
loop_
_atom_site_type_symbol
_atom_site_label
_atom_site_fract_x
_atom_site_fract_y
_atom_site_fract_z
Si Si1 0.740927 0.261519 0.511675
Si Si2 0.771579 0.409735 0.403429
Si Si3 0.341723 0.393007 0.110607
Si Si4 0.355335 0.984876 0.302922
Si Si5 0.146353 0.143168 0.347816
Si Si6 0.684588 0.036085 0.043069
Si Si7 0.180383 0.935662 0.015416
O O1 0.830231 0.212531 0.477384
O O2 0.458001 0.253312 0.366428
O O3 0.810087 0.546902 0.594076
O O4 0.836457 0.025025 0.592611
O O5 0.630475 0.298871 0.263893
O O6 0.000000 0.500000 0.500000
O O7 0.557857 0.697328 0.350199
O O8 0.251045 0.726549 0.088886
O O9 0.225071 0.233519 0.088131
O O10 0.237444 0.281054 0.982301
O O11 0.325282 0.969939 0.363675
O O12 0.082217 0.033189 0.144051
O O13 0.878532 0.162307 0.187205
O O14 0.500000 0.000000 0.000000
O O15 0.621881 0.190210 0.956720
#
# Coordination Sequence:
#
# PCOD9051830 Si02
#       7
#     2   2   2   2   2   2   2
#     4  12  27  46  76 106 151 194 238 313 362 447
#     4  12  31  51  73 109 154 207 250 293 378 454
#     4  10  25  48  70 104 147 188 248 300 360 445
#     4  11  26  47  78 113 151 191 249 314 375 441
#     4  11  26  45  76 114 145 188 253 305 379 426
#     4   9  23  42  73 106 142 192 244 306 368 431
#     4   9  24  44  74 105 141 185 244 309 364 422
#
# _framework density 25.477722
#
# number of rings (size 3 to 8) (size 9 to 14) (size 15 to 20)
#    0.857    0.571    1.429    0.857   12.000    3.429 
#    0.000    0.000    0.000    0.000    0.000    0.000 
#    0.000    0.000    0.000    0.000    0.000    0.000 
#
# Total GULP energy -78103.249415 kJ/mol
# GULP energy per Si atom -5578.803530 kJ/mol
# Density = 2.541973 g / cm^3
# Si number density = 25.477722 Si / 1000 Ang^3
#
#
#
# Elastic Constant Matrix: (Units=GPa)
#
#
# Indices 1 2 3 4 5 6 
#
# 1 163.2370 42.1556 49.3372 4.5905 11.2519 31.1961
# 2 42.1556 120.9284 34.8038 21.7730 -0.8277 40.5002
# 3 49.3372 34.8038 138.9561 30.7955 1.5678 26.1546
# 4 4.5905 21.7730 30.7955 33.1389 13.4261 4.7626
# 5 11.2519 -0.8277 1.5678 13.4261 45.9149 6.2618
# 6 31.1961 40.5002 26.1546 4.7626 6.2618 50.2470
#
#
#
# Elastic Compliance Matrix: (Units=1/GPa)
#
#
# Indices 1 2 3 4 5 6 
#
# 1 0.007986 -0.002199 -0.002928 0.004515 -0.002983 -0.001717
# 2 -0.002199 0.014134 0.001637 -0.011200 0.005444 -0.010496
# 3 -0.002928 0.001637 0.011464 -0.012520 0.004680 -0.004865
# 4 0.004515 -0.011200 -0.012520 0.054486 -0.018155 0.009839
# 5 -0.002983 0.005444 0.004680 -0.018155 0.028688 -0.006827
# 6 -0.001717 -0.010496 -0.004865 0.009839 -0.006827 0.031878
#
#
# Mechanical properties :
#
#
# Convention : Reuss Voigt Hill
#
# Bulk Modulus (GPa) = 37.59036 75.07940 56.33488
# Shear Modulus (GPa) = 30.39797 45.64850 38.02323
#
# Velocity S-wave (km/s) = 3.45790 4.23744 3.86736
# Velocity P-wave (km/s) = 5.54338 7.31258 6.48856
#
# Compressibility (1/GPa) = 0.02660257
#
# Stress axis : x y z
#
# Youngs Moduli (GPa) = 125.21981 70.75201 87.23068
#
# Poissons Ratio (x) = 0.15561 0.25545
# Poissons Ratio (y) = 0.27540 -0.14281
# Poissons Ratio (z) = 0.36669 -0.11583
#
# Static dielectric constant tensor:
#      x y z
#    x 2.062040 0.006880 0.018820 
#    y 0.006880 2.189660 -0.010680 
#    z 0.018820 -0.010680 2.071170 
# 
# From -- ./inp_files/592593.got.cif
#   From: 2010.05.17/outbox.cif.g08.bks.cpg/sg2_297_cif.got.tgz:592593.got - 2010.06.03 11:33:40.
