data_PCOD9051370
_publ_section_title
;
Structure prediction by ZEFSAII (Michael W. Deem and Ramdas Pophale) SiO2 
 PCOD9051370
Probable space group: P -1
;
_chemical_formula_sum "Si O2"
_cell_formula_units_Z 12
_cell_length_a 6.283365
_cell_length_b 8.453874
_cell_length_c 11.115293
_cell_angle_alpha 101.958536
_cell_angle_beta 78.795536
_cell_angle_gamma 62.772402
_cell_volume 484.418786
_symmetry_space_group_name_H-M "P -1"
_symmetry_group_IT_number 2
_symmetry_cell_setting 'triclinic'
loop_
_space_group_symop_operation_xyz
x,y,z
-x,-y,-z
loop_
_atom_site_type_symbol
_atom_site_label
_atom_site_fract_x
_atom_site_fract_y
_atom_site_fract_z
Si Si1 0.034719 0.616241 0.227093
Si Si2 0.914334 0.087105 0.890177
Si Si3 0.746072 0.371418 0.538578
Si Si4 0.514500 0.152716 0.601539
Si Si5 0.798482 0.848932 0.705829
Si Si6 0.584583 0.781178 0.928231
O O1 0.993572 0.792164 0.175823
O O2 0.214031 0.591586 0.319511
O O3 0.155244 0.417967 0.111068
O O4 0.763345 0.669156 0.319072
O O5 0.958082 0.901341 0.785825
O O6 0.620525 0.237592 0.977307
O O7 0.000000 0.000000 0.000000
O O8 0.500000 0.500000 0.500000
O O9 0.717142 0.190595 0.526061
O O10 0.007519 0.308465 0.431234
O O11 0.500000 0.000000 0.500000
O O12 0.621836 0.051121 0.698637
O O13 0.614378 0.793770 0.782869
O O14 0.500000 0.000000 0.000000
#
# Coordination Sequence:
#
# PCOD9051370 Si02
#       6
#     2   2   2   2   2   2
#     4  12  25  47  75 108 148 194 246 306 372 439
#     4  11  24  46  72 103 145 198 246 303 363 438
#     4  12  27  43  71 113 148 188 243 303 374 450
#     4  12  24  43  73 107 150 190 233 304 375 441
#     4  11  23  47  69 107 149 186 249 301 370 446
#     4  10  25  46  69 100 142 196 247 297 358 436
#
# _framework density 24.771954000000001
#
# number of rings (size 3 to 8) (size 9 to 14) (size 15 to 20)
#    0.000    0.667    3.333    4.000    4.667    1.333 
#    0.000    6.667    0.000    0.000    0.000    0.000 
#    0.000    0.000    0.000    0.000    0.000    0.000 
#
# Total GULP energy -66851.317969 kJ/mol
# GULP energy per Si atom -5570.943164 kJ/mol
# Density = 2.471557 g / cm^3
# Si number density = 24.771954 Si / 1000 Ang^3
#
#
#
# Elastic Constant Matrix: (Units=GPa)
#
#
# Indices 1 2 3 4 5 6 
#
# 1 37.6443 8.0350 30.3733 2.0963 -0.2176 -6.1708
# 2 8.0350 101.7104 37.8060 1.9718 18.0409 -0.7805
# 3 30.3733 37.8060 103.1418 -0.3876 -13.8379 2.5686
# 4 2.0963 1.9718 -0.3876 57.9336 -9.0205 -6.2556
# 5 -0.2176 18.0409 -13.8379 -9.0205 54.0355 -1.4752
# 6 -6.1708 -0.7805 2.5686 -6.2556 -1.4752 41.6693
#
#
#
# Elastic Compliance Matrix: (Units=1/GPa)
#
#
# Indices 1 2 3 4 5 6 
#
# 1 0.037207 0.002516 -0.012569 -0.001494 -0.003996 0.005966
# 2 0.002516 0.013167 -0.006428 -0.001496 -0.006266 0.000569
# 3 -0.012569 -0.006428 0.016702 0.001531 0.006559 -0.002549
# 4 -0.001494 -0.001496 0.001531 0.018275 0.004006 0.002542
# 5 -0.003996 -0.006266 0.006559 0.004006 0.022939 0.000300
# 6 0.005966 0.000569 -0.002549 0.002542 0.000300 0.025442
#
#
# Mechanical properties :
#
#
# Convention : Reuss Voigt Hill
#
# Bulk Modulus (GPa) = 29.31309 43.88055 36.59682
# Shear Modulus (GPa) = 28.07958 41.81318 34.94638
#
# Velocity S-wave (km/s) = 3.37044 4.11289 3.76003
# Velocity P-wave (km/s) = 5.19666 6.34876 5.80138
#
# Compressibility (1/GPa) = 0.03411445
#
# Stress axis : x y z
#
# Youngs Moduli (GPa) = 26.87657 75.94640 59.87264
#
# Poissons Ratio (x) = -0.19110 0.75256
# Poissons Ratio (y) = -0.06763 0.38485
# Poissons Ratio (z) = 0.33782 0.48817
#
# Static dielectric constant tensor:
#      x y z
#    x 1.618650 -0.198020 -0.532850 
#    y -0.198020 1.843050 -0.462840 
#    z -0.532850 -0.462840 0.771960 
# 
# From -- ./inp_files/228846.got.cif
#   From: 2010.05.17/outbox.cif.g08.bks.cpg/sg2_115_cif.got.tgz:228846.got - 2010.06.03 11:33:40.
