data_PCOD9051020
_publ_section_title
;
Structure prediction by ZEFSAII (Michael W. Deem and Ramdas Pophale) SiO2 
 PCOD9051020
Probable space group: P -1
;
_chemical_formula_sum "Si O2"
_cell_formula_units_Z 15
_cell_length_a 27.507876
_cell_length_b 22.083660
_cell_length_c 17.139969
_cell_angle_alpha 162.467853
_cell_angle_beta 18.358974
_cell_angle_gamma 167.734538
_cell_volume 641.466511
_symmetry_space_group_name_H-M "P -1"
_symmetry_group_IT_number 2
_symmetry_cell_setting 'triclinic'
loop_
_space_group_symop_operation_xyz
x,y,z
-x,-y,-z
loop_
_atom_site_type_symbol
_atom_site_label
_atom_site_fract_x
_atom_site_fract_y
_atom_site_fract_z
Si Si1 0.508514 0.161805 0.838560
Si Si2 0.848834 0.254169 0.254645
Si Si3 0.000000 0.500000 0.500000
Si Si4 0.156951 0.163675 0.886512
Si Si5 0.694392 0.126250 0.749475
Si Si6 0.059338 0.749064 0.322367
Si Si7 0.748927 0.770791 0.906481
Si Si8 0.260979 0.917027 0.071891
O O1 0.728281 0.243241 0.631527
O O2 0.342724 0.875202 0.678628
O O3 0.382048 0.118218 0.056283
O O4 0.624111 0.471424 0.003077
O O5 0.888645 0.408672 0.465500
O O6 0.098524 0.512484 0.146686
O O7 0.752586 0.943933 0.048301
O O8 0.242478 0.025134 0.570641
O O9 0.963816 0.060094 0.991367
O O10 0.000000 0.000000 0.000000
O O11 0.731986 0.104227 0.755661
O O12 0.451438 0.969967 0.893825
O O13 0.861349 0.682749 0.588478
O O14 0.938600 0.425506 0.080361
O O15 0.152584 0.944964 0.341054
O O16 0.500000 0.500000 0.000000
#
# Coordination Sequence:
#
# PCOD9051020 Si02
#       8
#     2   2   1   2   2   2   2   2
#     4  12  25  43  68 101 138 182 232 285 345 408
#     4  12  25  43  69 101 136 183 230 279 349 416
#     4  12  24  42  66  98 138 180 226 274 344 406
#     4  11  24  42  63 107 138 176 228 283 346 413
#     4  11  23  44  71  98 136 181 230 283 345 407
#     4  10  25  45  67 106 134 181 238 279 346 409
#     4  11  25  43  68 101 142 178 226 289 346 407
#     4  11  23  45  73  95 140 184 229 290 339 410
#
# _framework density 23.383918000000001
#
# number of rings (size 3 to 8) (size 9 to 14) (size 15 to 20)
#    0.000    0.800    4.000    2.400    5.600    1.067 
#    0.000    8.000    0.000    0.000    0.000    0.000 
#    0.000    0.000    0.000    0.000    0.000    0.000 
#
# Total GULP energy -83526.858997 kJ/mol
# GULP energy per Si atom -5568.457266 kJ/mol
# Density = 2.333070 g / cm^3
# Si number density = 23.383918 Si / 1000 Ang^3
#
#
#
# Elastic Constant Matrix: (Units=GPa)
#
#
# Indices 1 2 3 4 5 6 
#
# 1 127.2024 43.7789 44.0217 2.5520 31.0957 2.0450
# 2 43.7789 87.8197 25.4887 -7.2331 10.0196 12.5827
# 3 44.0217 25.4887 50.8959 -15.4424 10.5363 -4.9863
# 4 2.5520 -7.2331 -15.4424 25.3416 -5.1163 1.5408
# 5 31.0957 10.0196 10.5363 -5.1163 42.9410 -3.5977
# 6 2.0450 12.5827 -4.9863 1.5408 -3.5977 56.9229
#
#
#
# Elastic Compliance Matrix: (Units=1/GPa)
#
#
# Indices 1 2 3 4 5 6 
#
# 1 0.017130 -0.004008 -0.015207 -0.013978 -0.009511 -0.001284
# 2 -0.004008 0.015168 -0.003708 0.002752 0.000300 -0.003589
# 3 -0.015207 -0.003708 0.042235 0.026960 0.005117 0.004659
# 4 -0.013978 0.002752 0.026960 0.060049 0.010126 0.001270
# 5 -0.009511 0.000300 0.005117 0.010126 0.030254 0.002362
# 6 -0.001284 -0.003589 0.004659 0.001270 0.002362 0.018930
#
#
# Mechanical properties :
#
#
# Convention : Reuss Voigt Hill
#
# Bulk Modulus (GPa) = 34.85952 54.72185 44.79069
# Shear Modulus (GPa) = 20.90522 35.21635 28.06078
#
# Velocity S-wave (km/s) = 2.99323 3.88494 3.46786
# Velocity P-wave (km/s) = 5.18514 6.60121 5.93556
#
# Compressibility (1/GPa) = 0.02868657
#
# Stress axis : x y z
#
# Youngs Moduli (GPa) = 58.37811 65.92885 23.67694
#
# Poissons Ratio (x) = 0.26423 0.36005
# Poissons Ratio (y) = 0.23396 0.08781
# Poissons Ratio (z) = 0.88775 0.24449
#
# Static dielectric constant tensor:
#      x y z
#    x 1.977620 -0.022490 0.065280 
#    y -0.022490 1.884800 -0.101410 
#    z 0.065280 -0.101410 1.754210 
# 
# From -- ./inp_files/447821.got.cif
#   From: 2010.05.17/outbox.cif.g08.bks.cpg/sg2_224_cif.got.tgz:447821.got - 2010.06.03 11:33:40.
