data_PCOD9051019
_publ_section_title
;
Structure prediction by ZEFSAII (Michael W. Deem and Ramdas Pophale) SiO2 
 PCOD9051019
Probable space group: P -1
;
_chemical_formula_sum "Si O2"
_cell_formula_units_Z 16
_cell_length_a 11.867725
_cell_length_b 17.136405
_cell_length_c 8.449142
_cell_angle_alpha 76.130867
_cell_angle_beta 49.826059
_cell_angle_gamma 37.322487
_cell_volume 642.744233
_symmetry_space_group_name_H-M "P -1"
_symmetry_group_IT_number 2
_symmetry_cell_setting 'triclinic'
loop_
_space_group_symop_operation_xyz
x,y,z
-x,-y,-z
loop_
_atom_site_type_symbol
_atom_site_label
_atom_site_fract_x
_atom_site_fract_y
_atom_site_fract_z
Si Si1 0.923869 0.702687 0.363613
Si Si2 0.791719 0.342690 0.405087
Si Si3 0.862364 0.910998 0.253161
Si Si4 0.581477 0.755458 0.425063
Si Si5 0.588243 0.350950 0.894034
Si Si6 0.663533 0.841362 0.882600
Si Si7 0.610744 0.184679 0.740619
Si Si8 0.913874 0.120296 0.228206
O O1 0.816711 0.675674 0.374419
O O2 0.768903 0.784037 0.634004
O O3 0.840156 0.825822 0.290263
O O4 0.272072 0.529967 0.147329
O O5 0.500000 0.500000 0.500000
O O6 0.893041 0.215688 0.283579
O O7 0.039885 0.293498 0.215390
O O8 0.715751 0.352198 0.647333
O O9 0.172993 0.772002 0.126490
O O10 0.855388 0.969863 0.073819
O O11 0.616517 0.069842 0.503608
O O12 0.649749 0.694311 0.215783
O O13 0.371138 0.780531 0.655850
O O14 0.561316 0.280365 0.857701
O O15 0.438258 0.876184 0.101340
O O16 0.500000 0.000000 0.000000
O O17 0.887967 0.071143 0.425309
#
# Coordination Sequence:
#
# PCOD9051019 Si02
#       8
#     2   2   2   2   2   2   2   2
#     4  12  27  44  71 103 142 179 229 287 349 402
#     4  11  25  45  72 101 138 187 228 282 342 412
#     4  12  23  44  73 101 139 178 240 285 334 408
#     4  10  25  45  67 105 135 188 226 279 350 405
#     4  11  26  47  69 106 136 184 233 286 339 406
#     4  12  28  47  71 105 140 180 229 288 347 407
#     4   9  25  46  68 100 142 183 227 282 344 416
#     4   9  24  41  71 100 135 182 231 280 340 403
#
# _framework density 24.893263000000001
#
# number of rings (size 3 to 8) (size 9 to 14) (size 15 to 20)
#    0.750    0.500    1.250    2.625    8.750    3.500 
#    0.000    0.000    0.000    0.000    0.000    0.000 
#    0.000    0.000    0.000    0.000    0.000    0.000 
#
# Total GULP energy -89361.638734 kJ/mol
# GULP energy per Si atom -5585.102421 kJ/mol
# Density = 2.483660 g / cm^3
# Si number density = 24.893263 Si / 1000 Ang^3
#
#
#
# Elastic Constant Matrix: (Units=GPa)
#
#
# Indices 1 2 3 4 5 6 
#
# 1 177.0140 17.4798 47.1792 -3.5805 -18.0791 9.8451
# 2 17.4798 67.6247 35.9656 -3.7119 -5.6946 -8.9207
# 3 47.1792 35.9656 96.8795 -8.5110 -5.0110 5.7920
# 4 -3.5805 -3.7119 -8.5110 46.7674 -0.4052 -13.3219
# 5 -18.0791 -5.6946 -5.0110 -0.4052 49.8034 1.3641
# 6 9.8451 -8.9207 5.7920 -13.3219 1.3641 36.4065
#
#
#
# Elastic Compliance Matrix: (Units=1/GPa)
#
#
# Indices 1 2 3 4 5 6 
#
# 1 0.006790 -0.000186 -0.003071 -0.000508 0.002176 -0.001661
# 2 -0.000186 0.019941 -0.007465 0.002179 0.001291 0.006873
# 3 -0.003071 -0.007465 0.014836 0.001023 -0.000386 -0.002970
# 4 -0.000508 0.002179 0.001023 0.024389 0.000108 0.009429
# 5 0.002176 0.001291 -0.000386 0.000108 0.021005 -0.000958
# 6 -0.001661 0.006873 -0.002970 0.009429 -0.000958 0.033559
#
#
# Mechanical properties :
#
#
# Convention : Reuss Voigt Hill
#
# Bulk Modulus (GPa) = 49.69084 60.30749 54.99917
# Shear Modulus (GPa) = 33.63108 42.65505 38.14306
#
# Velocity S-wave (km/s) = 3.67960 4.14396 3.91866
# Velocity P-wave (km/s) = 6.16907 6.86844 6.52813
#
# Compressibility (1/GPa) = 0.02012443
#
# Stress axis : x y z
#
# Youngs Moduli (GPa) = 147.26740 50.14879 67.40242
#
# Poissons Ratio (x) = 0.00932 0.20697
# Poissons Ratio (y) = 0.02736 0.50316
# Poissons Ratio (z) = 0.45220 0.37436
#
# Static dielectric constant tensor:
#      x y z
#    x 1.970330 -0.088430 -0.017960 
#    y -0.088430 2.029590 -0.010100 
#    z -0.017960 -0.010100 1.977940 
# 
# From -- ./inp_files/279367.got.cif
#   From: 2010.05.17/outbox.cif.g08.bks.cpg/sg2_140_cif.got.tgz:279367.got - 2010.06.03 11:33:40.
