data_PCOD9051246
_publ_section_title
;
Structure prediction by ZEFSAII (Michael W. Deem and Ramdas Pophale) SiO2 
 PCOD9051246
Probable space group: P -1
;
_chemical_formula_sum "Si O2"
_cell_formula_units_Z 16
_cell_length_a 18.370320
_cell_length_b 5.127971
_cell_length_c 9.355683
_cell_angle_alpha 96.025334
_cell_angle_beta 54.419445
_cell_angle_gamma 100.601420
_cell_volume 704.545595
_symmetry_space_group_name_H-M "P -1"
_symmetry_group_IT_number 2
_symmetry_cell_setting 'triclinic'
loop_
_space_group_symop_operation_xyz
x,y,z
-x,-y,-z
loop_
_atom_site_type_symbol
_atom_site_label
_atom_site_fract_x
_atom_site_fract_y
_atom_site_fract_z
Si Si1 0.407333 0.916924 0.689054
Si Si2 0.839101 0.561285 0.334983
Si Si3 0.404138 0.794192 0.000713
Si Si4 0.247281 0.448467 0.271574
Si Si5 0.328038 0.339909 0.642426
Si Si6 0.043554 0.888710 0.807491
Si Si7 0.050355 0.257275 0.377444
Si Si8 0.592576 0.768384 0.763522
O O1 0.378896 0.605111 0.672786
O O2 0.500000 0.000000 0.500000
O O3 0.334354 0.089639 0.721033
O O4 0.417816 0.962081 0.848896
O O5 0.787579 0.447976 0.532232
O O6 0.769364 0.597728 0.291465
O O7 0.904785 0.350327 0.217705
O O8 0.890705 0.859013 0.320936
O O9 0.300934 0.652303 0.111102
O O10 0.413339 0.937346 0.153320
O O11 0.488399 0.630126 0.884951
O O12 0.156396 0.300087 0.296205
O O13 0.329688 0.305205 0.225049
O O14 0.374614 0.270017 0.435964
O O15 0.969313 0.779983 0.769256
O O16 0.000000 0.000000 0.000000
O O17 0.000000 0.500000 0.500000
O O18 0.000000 0.000000 0.500000
#
# Coordination Sequence:
#
# PCOD9051246 Si02
#       8
#     2   2   2   2   2   2   2   2
#     4  12  26  47  70 105 152 197 243 302 374 430
#     4  11  25  46  77 106 143 190 248 297 369 441
#     4  11  26  44  73 110 149 194 254 309 360 433
#     4  11  25  42  77 104 150 190 258 299 369 430
#     4  11  26  46  77 101 147 202 241 296 369 445
#     4  12  25  48  76 109 145 186 236 308 374 441
#     4  12  25  47  75 106 144 194 241 301 368 442
#     4  10  25  45  73 107 148 196 251 302 360 433
#
# _framework density 22.709672000000001
#
# number of rings (size 3 to 8) (size 9 to 14) (size 15 to 20)
#    0.000    0.750    3.750    1.875   10.500    1.000 
#    2.250    0.000    0.000    0.000    0.000    0.000 
#    0.000    0.000    0.000    0.000    0.000    0.000 
#
# Total GULP energy -89404.314147 kJ/mol
# GULP energy per Si atom -5587.769634 kJ/mol
# Density = 2.265798 g / cm^3
# Si number density = 22.709672 Si / 1000 Ang^3
#
#
#
# Elastic Constant Matrix: (Units=GPa)
#
#
# Indices 1 2 3 4 5 6 
#
# 1 159.0624 40.4828 67.6164 9.5531 -2.6844 -1.4966
# 2 40.4828 92.2349 28.7452 7.6493 -0.4764 -6.6314
# 3 67.6164 28.7452 71.4976 -2.9812 11.6562 0.0122
# 4 9.5531 7.6493 -2.9812 35.7164 6.6580 -5.1288
# 5 -2.6844 -0.4764 11.6562 6.6580 42.3378 -4.6321
# 6 -1.4966 -6.6314 0.0122 -5.1288 -4.6321 43.9143
#
#
#
# Elastic Compliance Matrix: (Units=1/GPa)
#
#
# Indices 1 2 3 4 5 6 
#
# 1 0.011992 -0.001126 -0.011872 -0.004825 0.004795 0.000184
# 2 -0.001126 0.013194 -0.004701 -0.003038 0.002048 0.001817
# 3 -0.011872 -0.004701 0.029127 0.008352 -0.010273 -0.001231
# 4 -0.004825 -0.003038 0.008352 0.032369 -0.007471 0.002367
# 5 0.004795 0.002048 -0.010273 -0.007471 0.028232 0.002581
# 6 0.000184 0.001817 -0.001231 0.002367 0.002581 0.023601
#
#
# Mechanical properties :
#
#
# Convention : Reuss Voigt Hill
#
# Bulk Modulus (GPa) = 52.86308 66.27598 59.56953
# Shear Modulus (GPa) = 27.74413 36.79037 32.26725
#
# Velocity S-wave (km/s) = 3.49906 4.02933 3.77352
# Velocity P-wave (km/s) = 6.29705 7.13405 6.72858
#
# Compressibility (1/GPa) = 0.01891680
#
# Stress axis : x y z
#
# Youngs Moduli (GPa) = 83.38638 75.79141 34.33237
#
# Poissons Ratio (x) = 0.08531 0.40759
# Poissons Ratio (y) = 0.09385 0.16140
# Poissons Ratio (z) = 0.98995 0.35630
#
# Static dielectric constant tensor:
#      x y z
#    x 1.856460 0.003270 -0.009440 
#    y 0.003270 1.925920 -0.028040 
#    z -0.009440 -0.028040 1.826910 
# 
# From -- ./inp_files/323835.got.cif
#   From: 2010.05.17/outbox.cif.g08.bks.cpg/sg2_162_cif.got.tgz:323835.got - 2010.06.03 11:33:40.
