data_PCOD9051402
_publ_section_title
;
Structure prediction by ZEFSAII (Michael W. Deem and Ramdas Pophale) SiO2 
 PCOD9051402
Probable space group: P -1
;
_chemical_formula_sum "Si O2"
_cell_formula_units_Z 14
_cell_length_a 8.539736
_cell_length_b 9.772533
_cell_length_c 18.966693
_cell_angle_alpha 51.154696
_cell_angle_beta 46.195465
_cell_angle_gamma 31.842589
_cell_volume 599.493320
_symmetry_space_group_name_H-M "P -1"
_symmetry_group_IT_number 2
_symmetry_cell_setting 'triclinic'
loop_
_space_group_symop_operation_xyz
x,y,z
-x,-y,-z
loop_
_atom_site_type_symbol
_atom_site_label
_atom_site_fract_x
_atom_site_fract_y
_atom_site_fract_z
Si Si1 0.026226 0.364738 0.606471
Si Si2 0.475586 0.048747 0.826454
Si Si3 0.106788 0.860882 0.366520
Si Si4 0.065497 0.025396 0.890897
Si Si5 0.527096 0.339273 0.482354
Si Si6 0.500842 0.462123 0.187685
Si Si7 0.036976 0.538054 0.896965
O O1 0.309673 0.299042 0.579041
O O2 0.000000 0.500000 0.500000
O O3 0.087974 0.126404 0.638467
O O4 0.721131 0.535705 0.697901
O O5 0.703908 0.075457 0.728794
O O6 0.318838 0.034435 0.816811
O O7 0.182409 0.298842 0.881786
O O8 0.698986 0.794423 0.887182
O O9 0.371223 0.553920 0.400619
O O10 0.863390 0.059289 0.440888
O O11 0.746314 0.278140 0.867688
O O12 0.244598 0.777159 0.866877
O O13 0.000000 0.000000 0.000000
O O14 0.500000 0.500000 0.500000
O O15 0.702932 0.460769 0.179430
O O16 0.000000 0.500000 0.000000
#
# Coordination Sequence:
#
# PCOD9051402 Si02
#       7
#     2   2   2   2   2   2   2
#     4  10  25  46  70 101 142 185 235 289 347 418
#     4  12  25  43  72  98 143 178 231 290 356 412
#     4  11  24  44  66  97 135 180 227 287 348 404
#     4  12  27  47  70 105 146 185 231 296 363 422
#     4  11  25  42  69  97 135 176 231 285 345 411
#     4  12  26  45  75 104 141 187 239 285 359 422
#     4  12  24  45  72 103 135 182 239 292 346 424
#
# _framework density 23.353054
#
# number of rings (size 3 to 8) (size 9 to 14) (size 15 to 20)
#    0.000    0.571    1.429    6.000    6.000    2.286 
#    0.000    0.000    0.000    0.000    0.000    0.000 
#    0.000    0.000    0.000    0.000    0.000    0.000 
#
# Total GULP energy -78302.888238 kJ/mol
# GULP energy per Si atom -5593.063446 kJ/mol
# Density = 2.329990 g / cm^3
# Si number density = 23.353054 Si / 1000 Ang^3
#
#
#
# Elastic Constant Matrix: (Units=GPa)
#
#
# Indices 1 2 3 4 5 6 
#
# 1 109.9478 38.8307 -4.4924 -1.7618 -13.0666 13.7854
# 2 38.8307 143.7295 11.1748 -5.7677 17.4145 -20.7782
# 3 -4.4924 11.1748 95.7161 14.1455 -11.9573 1.2453
# 4 -1.7618 -5.7677 14.1455 26.9896 1.4690 1.0332
# 5 -13.0666 17.4145 -11.9573 1.4690 40.9526 -9.3057
# 6 13.7854 -20.7782 1.2453 1.0332 -9.3057 50.8561
#
#
#
# Elastic Compliance Matrix: (Units=1/GPa)
#
#
# Indices 1 2 3 4 5 6 
#
# 1 0.012023 -0.004751 0.002085 -0.001465 0.005562 -0.004203
# 2 -0.004751 0.009881 -0.002626 0.003320 -0.005628 0.004292
# 3 0.002085 -0.002626 0.012638 -0.007322 0.005557 -0.000782
# 4 -0.001465 0.003320 -0.007322 0.041799 -0.005499 0.000077
# 5 0.005562 -0.005628 0.005557 -0.005499 0.030817 0.001807
# 6 -0.004203 0.004292 -0.000782 0.000077 0.001807 0.022904
#
#
# Mechanical properties :
#
#
# Convention : Reuss Voigt Hill
#
# Bulk Modulus (GPa) = 41.73885 48.93550 45.33718
# Shear Modulus (GPa) = 33.64022 44.01837 38.82929
#
# Velocity S-wave (km/s) = 3.79952 4.34626 4.08205
# Velocity P-wave (km/s) = 6.09592 6.79609 6.45550
#
# Compressibility (1/GPa) = 0.02395849
#
# Stress axis : x y z
#
# Youngs Moduli (GPa) = 83.17514 101.20756 79.12386
#
# Poissons Ratio (x) = 0.48080 -0.16497
# Poissons Ratio (y) = 0.39514 0.20778
# Poissons Ratio (z) = -0.17342 0.26578
#
# Static dielectric constant tensor:
#      x y z
#    x 2.132050 -0.008430 0.039310 
#    y -0.008430 1.832090 -0.030350 
#    z 0.039310 -0.030350 1.937230 
# 
# From -- ./inp_files/322756.got.cif
#   From: 2010.05.17/outbox.cif.g08.bks.cpg/sg2_162_cif.got.tgz:322756.got - 2010.06.03 11:33:40.
