data_PCOD9051082
_publ_section_title
;
Structure prediction by ZEFSAII (Michael W. Deem and Ramdas Pophale) SiO2 
 PCOD9051082
Probable space group: P -1
;
_chemical_formula_sum "Si O2"
_cell_formula_units_Z 12
_cell_length_a 14.002824
_cell_length_b 28.247497
_cell_length_c 22.138256
_cell_angle_alpha 169.708389
_cell_angle_beta 19.615012
_cell_angle_gamma 160.410038
_cell_volume 507.802721
_symmetry_space_group_name_H-M "P -1"
_symmetry_group_IT_number 2
_symmetry_cell_setting 'triclinic'
loop_
_space_group_symop_operation_xyz
x,y,z
-x,-y,-z
loop_
_atom_site_type_symbol
_atom_site_label
_atom_site_fract_x
_atom_site_fract_y
_atom_site_fract_z
Si Si1 0.958354 0.414260 0.078076
Si Si2 0.482091 0.394271 0.493883
Si Si3 0.122346 0.745363 0.585771
Si Si4 0.610324 0.439120 0.685002
Si Si5 0.602894 0.942913 0.770235
Si Si6 0.739364 0.051640 0.367776
O O1 0.006734 0.693558 0.438893
O O2 0.684493 0.401904 0.181703
O O3 0.264670 0.432241 0.885850
O O4 0.880356 0.147225 0.830712
O O5 0.328158 0.276004 0.499476
O O6 0.825048 0.520391 0.461684
O O7 0.458353 0.139844 0.143550
O O8 0.283594 0.638159 0.410198
O O9 0.323145 0.840595 0.526063
O O10 0.000000 0.000000 0.000000
O O11 0.611165 0.220026 0.357691
O O12 0.777855 0.747220 0.953476
O O13 0.500000 0.000000 0.500000
#
# Coordination Sequence:
#
# PCOD9051082 Si02
#       6
#     2   2   2   2   2   2
#     4  11  24  45  71  99 140 187 228 287 346 420
#     4  11  26  42  72 101 139 183 237 281 350 413
#     4  12  26  45  73 109 139 183 236 295 346 414
#     4  11  27  44  73 102 143 180 234 288 351 410
#     4  11  24  44  69 103 138 185 231 287 345 415
#     4  10  25  45  69 103 144 184 229 287 351 415
#
# _framework density 23.631224
#
# number of rings (size 3 to 8) (size 9 to 14) (size 15 to 20)
#    0.000    1.000    1.667    3.000    7.000    7.333 
#    0.000    0.000    0.000    0.000    0.000    0.000 
#    0.000    0.000    0.000    0.000    0.000    0.000 
#
# Total GULP energy -67104.075913 kJ/mol
# GULP energy per Si atom -5592.006326 kJ/mol
# Density = 2.357744 g / cm^3
# Si number density = 23.631224 Si / 1000 Ang^3
#
#
#
# Elastic Constant Matrix: (Units=GPa)
#
#
# Indices 1 2 3 4 5 6 
#
# 1 148.0480 30.6209 48.9896 12.5532 16.3346 -3.8561
# 2 30.6209 69.4905 30.1893 19.8508 20.5652 -8.9530
# 3 48.9896 30.1893 72.0655 31.8166 14.8800 9.7295
# 4 12.5532 19.8508 31.8166 43.7139 7.0222 -7.2857
# 5 16.3346 20.5652 14.8800 7.0222 27.2074 9.9862
# 6 -3.8561 -8.9530 9.7295 -7.2857 9.9862 38.1566
#
#
#
# Elastic Compliance Matrix: (Units=1/GPa)
#
#
# Indices 1 2 3 4 5 6 
#
# 1 0.009856 0.000004 -0.008806 0.005186 -0.004421 0.005390
# 2 0.000004 0.025572 -0.008393 -0.000158 -0.019555 0.013229
# 3 -0.008806 -0.008393 0.034666 -0.022545 0.004828 -0.017267
# 4 0.005186 -0.000158 -0.022545 0.041738 -0.007357 0.016130
# 5 -0.004421 -0.019555 0.004828 -0.007357 0.062243 -0.023961
# 6 0.005390 0.013229 -0.017267 0.016130 -0.023961 0.043610
#
#
# Mechanical properties :
#
#
# Convention : Reuss Voigt Hill
#
# Bulk Modulus (GPa) = 28.00858 56.57818 42.29338
# Shear Modulus (GPa) = 18.94097 33.80254 26.37176
#
# Velocity S-wave (km/s) = 2.83419 3.78619 3.34424
# Velocity P-wave (km/s) = 4.75271 6.56565 5.73132
#
# Compressibility (1/GPa) = 0.03570335
#
# Stress axis : x y z
#
# Youngs Moduli (GPa) = 101.45927 39.10525 28.84634
#
# Poissons Ratio (x) = -0.00015 0.25402
# Poissons Ratio (y) = -0.00040 0.24212
# Poissons Ratio (z) = 0.89346 0.32823
#
# Static dielectric constant tensor:
#      x y z
#    x 1.898410 -0.018720 0.039090 
#    y -0.018720 1.928600 -0.027410 
#    z 0.039090 -0.027410 1.957890 
# 
# From -- ./inp_files/612473.got.cif
#   From: 2010.05.17/outbox.cif.g08.bks.cpg/sg2_307_cif.got.tgz:612473.got - 2010.06.03 11:33:40.
