data_PCOD9051904
_publ_section_title
;
Structure prediction by ZEFSAII (Michael W. Deem and Ramdas Pophale) SiO2 
 PCOD9051904
Probable space group: P -1
;
_chemical_formula_sum "Si O2"
_cell_formula_units_Z 13
_cell_length_a 13.604232
_cell_length_b 9.265372
_cell_length_c 9.268564
_cell_angle_alpha 148.217705
_cell_angle_beta 46.969383
_cell_angle_gamma 126.889910
_cell_volume 449.178261
_symmetry_space_group_name_H-M "P -1"
_symmetry_group_IT_number 2
_symmetry_cell_setting 'triclinic'
loop_
_space_group_symop_operation_xyz
x,y,z
-x,-y,-z
loop_
_atom_site_type_symbol
_atom_site_label
_atom_site_fract_x
_atom_site_fract_y
_atom_site_fract_z
Si Si1 0.422367 0.227800 0.684387
Si Si2 0.178257 0.868397 0.696627
Si Si3 0.135484 0.703925 0.273487
Si Si4 0.881994 0.997970 0.840491
Si Si5 0.000000 0.500000 0.000000
Si Si6 0.649475 0.578253 0.686790
Si Si7 0.621801 0.866324 0.683043
O O1 0.502813 0.525203 0.862833
O O2 0.426729 0.191197 0.478008
O O3 0.500000 0.000000 0.500000
O O4 0.269007 0.147310 0.810203
O O5 0.148644 0.715741 0.444089
O O6 0.264209 0.653183 0.521476
O O7 0.074558 0.949635 0.994055
O O8 0.980978 0.802400 0.487411
O O9 0.250346 0.917653 0.280672
O O10 0.115031 0.437130 0.967232
O O11 0.733505 0.859247 0.876313
O O12 0.896034 0.276859 0.980280
O O13 0.646155 0.606375 0.540863
O O14 0.500000 0.000000 0.000000
#
# Coordination Sequence:
#
# PCOD9051904 Si02
#       7
#     2   2   2   2   1   2   2
#     4   9  22  46  71 105 148 183 243 302 360 438
#     4  10  25  48  74 109 153 189 240 309 366 444
#     4  11  26  50  72 113 144 196 249 299 373 436
#     4  12  26  44  77 106 150 196 241 306 364 441
#     4  12  26  46  76 102 156 188 248 308 352 438
#     4  11  24  45  76 106 145 190 250 295 369 431
#     4  11  25  46  74 105 145 194 249 302 365 437
#
# _framework density 28.941738000000001
#
# number of rings (size 3 to 8) (size 9 to 14) (size 15 to 20)
#    0.000    1.231    1.538    2.308    6.462    5.538 
#   11.077    0.000    0.000    0.000    0.000    0.000 
#    0.000    0.000    0.000    0.000    0.000    0.000 
#
# Total GULP energy -72543.939283 kJ/mol
# GULP energy per Si atom -5580.303022 kJ/mol
# Density = 2.887587 g / cm^3
# Si number density = 28.941738 Si / 1000 Ang^3
#
#
#
# Elastic Constant Matrix: (Units=GPa)
#
#
# Indices 1 2 3 4 5 6 
#
# 1 130.5906 75.3358 19.0822 4.6100 24.4248 -17.9584
# 2 75.3358 218.9652 50.2415 -1.6469 34.0820 -6.4016
# 3 19.0822 50.2415 60.3302 -8.0398 -1.3060 3.6549
# 4 4.6100 -1.6469 -8.0398 42.8726 -12.9744 19.3009
# 5 24.4248 34.0820 -1.3060 -12.9744 28.2233 1.4313
# 6 -17.9584 -6.4016 3.6549 19.3009 1.4313 55.9950
#
#
#
# Elastic Compliance Matrix: (Units=1/GPa)
#
#
# Indices 1 2 3 4 5 6 
#
# 1 0.014153 -0.000051 -0.007209 -0.013165 -0.019081 0.010030
# 2 -0.000051 0.009292 -0.009485 -0.008415 -0.015736 0.004968
# 3 -0.007209 -0.009485 0.031049 0.021272 0.029594 -0.013512
# 4 -0.013165 -0.008415 0.021272 0.055504 0.049422 -0.026968
# 5 -0.019081 -0.015736 0.029594 0.049422 0.096525 -0.029353
# 6 0.010030 0.004968 -0.013512 -0.026968 -0.029353 0.032571
#
#
# Mechanical properties :
#
#
# Convention : Reuss Voigt Hill
#
# Bulk Modulus (GPa) = 47.61173 77.68944 62.65059
# Shear Modulus (GPa) = 17.88365 43.09995 30.49180
#
# Velocity S-wave (km/s) = 2.48849 3.86320 3.24938
# Velocity P-wave (km/s) = 4.97427 6.84111 5.98098
#
# Compressibility (1/GPa) = 0.02100323
#
# Stress axis : x y z
#
# Youngs Moduli (GPa) = 70.65520 107.61801 32.20766
#
# Poissons Ratio (x) = 0.00551 0.23219
# Poissons Ratio (y) = 0.00362 0.30549
# Poissons Ratio (z) = 0.50936 1.02076
#
# Static dielectric constant tensor:
#      x y z
#    x 2.896150 0.276230 1.371290 
#    y 0.276230 2.368970 1.144580 
#    z 1.371290 1.144580 7.333510 
# 
# From -- ./inp_files/297080.got.cif
#   From: 2010.05.17/outbox.cif.g08.bks.cpg/sg2_149_cif.got.tgz:297080.got - 2010.06.03 11:33:40.
