data_PCOD9051950
_publ_section_title
;
Structure prediction by ZEFSAII (Michael W. Deem and Ramdas Pophale) SiO2 
 PCOD9051950
Probable space group: P -1
;
_chemical_formula_sum "Si O2"
_cell_formula_units_Z 16
_cell_length_a 10.538675
_cell_length_b 9.096504
_cell_length_c 15.872882
_cell_angle_alpha 56.090245
_cell_angle_beta 118.263786
_cell_angle_gamma 73.164398
_cell_volume 725.977506
_symmetry_space_group_name_H-M "P -1"
_symmetry_group_IT_number 2
_symmetry_cell_setting 'triclinic'
loop_
_space_group_symop_operation_xyz
x,y,z
-x,-y,-z
loop_
_atom_site_type_symbol
_atom_site_label
_atom_site_fract_x
_atom_site_fract_y
_atom_site_fract_z
Si Si1 0.022110 0.684874 0.645177
Si Si2 0.286052 0.294133 0.302467
Si Si3 0.015168 0.977611 0.114824
Si Si4 0.231509 0.317544 0.973677
Si Si5 0.731218 0.271000 0.396628
Si Si6 0.549168 0.250057 0.711780
Si Si7 0.808530 0.510592 0.616305
Si Si8 0.620667 0.580071 0.866950
O O1 0.876549 0.651269 0.585743
O O2 0.219994 0.409817 0.847323
O O3 0.111134 0.716039 0.585866
O O4 0.877765 0.962054 0.565205
O O5 0.264682 0.455092 0.320259
O O6 0.365015 0.275934 0.242135
O O7 0.034509 0.455513 0.162939
O O8 0.500000 0.000000 0.500000
O O9 0.253225 0.843459 0.247913
O O10 0.994072 0.814201 0.212706
O O11 0.000000 0.000000 0.000000
O O12 0.828826 0.271836 0.002464
O O13 0.347546 0.357296 0.054431
O O14 0.347431 0.019703 0.122173
O O15 0.561177 0.508847 0.334601
O O16 0.595696 0.330040 0.252970
O O17 0.364142 0.368771 0.548524
#
# Coordination Sequence:
#
# PCOD9051950 Si02
#       8
#     2   2   2   2   2   2   2   2
#     4  10  25  49  66  92 127 170 224 268 318 389
#     4  11  21  37  63  92 130 173 209 253 319 388
#     4  12  22  40  62 100 138 165 212 265 321 390
#     4  11  24  41  66  97 132 169 218 263 321 388
#     4  11  25  45  70  92 127 171 217 274 325 372
#     4  12  24  42  67 101 131 169 213 269 324 386
#     4  11  24  41  64  93 134 171 212 264 320 384
#     4  12  23  39  65  96 135 173 208 265 324 382
#
# _framework density 22.039252000000001
#
# number of rings (size 3 to 8) (size 9 to 14) (size 15 to 20)
#    0.000    0.750    3.750    4.500    3.500    1.500 
#    0.000    0.000    0.000    0.000    0.000    0.000 
#    0.000    0.000    0.000    0.000    0.000    0.000 
#
# Total GULP energy -89226.745272 kJ/mol
# GULP energy per Si atom -5576.671579 kJ/mol
# Density = 2.198909 g / cm^3
# Si number density = 22.039252 Si / 1000 Ang^3
#
#
#
# Elastic Constant Matrix: (Units=GPa)
#
#
# Indices 1 2 3 4 5 6 
#
# 1 65.5284 9.5696 18.6421 -5.1680 -5.5822 24.3673
# 2 9.5696 62.8265 33.6783 6.1618 3.1205 21.7094
# 3 18.6421 33.6783 109.5129 2.4023 -12.3029 16.1418
# 4 -5.1680 6.1618 2.4023 41.5488 7.0450 4.9107
# 5 -5.5822 3.1205 -12.3029 7.0450 24.9978 -8.8121
# 6 24.3673 21.7094 16.1418 4.9107 -8.8121 26.2142
#
#
#
# Elastic Compliance Matrix: (Units=1/GPa)
#
#
# Indices 1 2 3 4 5 6 
#
# 1 0.029661 0.011896 -0.004436 0.009476 -0.014260 -0.041260
# 2 0.011896 0.034137 -0.008924 0.005794 -0.022620 -0.042523
# 3 -0.004436 -0.008924 0.012678 -0.002480 0.009679 0.007425
# 4 0.009476 0.005794 -0.002480 0.030079 -0.016506 -0.023263
# 5 -0.014260 -0.022620 0.009679 -0.016506 0.067298 0.051743
# 6 -0.041260 -0.042523 0.007425 -0.023263 0.051743 0.128896
#
#
# Mechanical properties :
#
#
# Convention : Reuss Voigt Hill
#
# Bulk Modulus (GPa) = 13.59626 40.18307 26.88967
# Shear Modulus (GPa) = 15.14266 30.28402 22.71334
#
# Velocity S-wave (km/s) = 2.62406 3.71090 3.21376
# Velocity P-wave (km/s) = 3.91962 6.05253 5.09885
#
# Compressibility (1/GPa) = 0.07354962
#
# Stress axis : x y z
#
# Youngs Moduli (GPa) = 33.71459 29.29337 78.87622
#
# Poissons Ratio (x) = -0.34848 0.34987
# Poissons Ratio (y) = -0.40107 0.70387
# Poissons Ratio (z) = 0.14955 0.26141
#
# Static dielectric constant tensor:
#      x y z
#    x 1.866320 -0.096620 0.064640 
#    y -0.096620 3.544130 -1.052860 
#    z 0.064640 -1.052860 2.486620 
# 
# From -- ./inp_files/282738.got.cif
#   From: 2010.05.17/outbox.cif.g08.bks.cpg/sg2_142_cif.got.tgz:282738.got - 2010.06.03 11:33:40.
