data_PCOD9051983
_publ_section_title
;
Structure prediction by ZEFSAII (Michael W. Deem and Ramdas Pophale) SiO2 
 PCOD9051983
Probable space group: P -1
;
_chemical_formula_sum "Si O2"
_cell_formula_units_Z 13
_cell_length_a 7.442915
_cell_length_b 7.134762
_cell_length_c 11.142421
_cell_angle_alpha 98.026927
_cell_angle_beta 76.750260
_cell_angle_gamma 124.764706
_cell_volume 473.113517
_symmetry_space_group_name_H-M "P -1"
_symmetry_group_IT_number 2
_symmetry_cell_setting 'triclinic'
loop_
_space_group_symop_operation_xyz
x,y,z
-x,-y,-z
loop_
_atom_site_type_symbol
_atom_site_label
_atom_site_fract_x
_atom_site_fract_y
_atom_site_fract_z
Si Si1 0.058245 0.809051 0.848187
Si Si2 0.743909 0.963650 0.585363
Si Si3 0.816560 0.314841 0.422059
Si Si4 0.500000 0.500000 0.500000
Si Si5 0.325578 0.509237 0.942837
Si Si6 0.475005 0.999190 0.153795
Si Si7 0.003519 0.823897 0.211789
O O1 0.087289 0.675010 0.724258
O O2 0.306680 0.004625 0.874526
O O3 0.955805 0.945611 0.829470
O O4 0.903151 0.637125 0.959869
O O5 0.246792 0.924466 0.532047
O O6 0.695668 0.714112 0.569740
O O7 0.566608 0.968825 0.698711
O O8 0.967412 0.131389 0.646431
O O9 0.626939 0.365978 0.464202
O O10 0.000000 0.500000 0.500000
O O11 0.439046 0.772090 0.914461
O O12 0.237032 0.378832 0.815698
O O13 0.500000 0.500000 0.000000
O O14 0.782879 0.182676 0.856739
#
# Coordination Sequence:
#
# PCOD9051983 Si02
#       7
#     2   2   2   1   2   2   2
#     4  12  25  47  76 114 156 208 268 326 401 476
#     4  10  25  52  76 120 160 212 265 332 404 476
#     4  12  28  48  79 118 159 211 267 327 403 484
#     4  12  24  50  80 110 164 212 264 330 398 472
#     4  12  25  50  80 110 157 213 264 333 406 477
#     4  10  25  49  72 113 154 201 264 325 405 469
#     4  10  25  50  74 115 158 205 265 337 401 475
#
# _framework density 27.477549
#
# number of rings (size 3 to 8) (size 9 to 14) (size 15 to 20)
#    0.923    0.000    3.077    2.308    2.154    4.308 
#    5.538    0.000    0.000    0.000    0.000    0.000 
#    0.000    0.000    0.000    0.000    0.000    0.000 
#
# Total GULP energy -72490.102789 kJ/mol
# GULP energy per Si atom -5576.161753 kJ/mol
# Density = 2.741501 g / cm^3
# Si number density = 27.477549 Si / 1000 Ang^3
#
#
#
# Elastic Constant Matrix: (Units=GPa)
#
#
# Indices 1 2 3 4 5 6 
#
# 1 159.3354 18.1533 31.3156 0.3875 11.2316 11.9494
# 2 18.1533 82.6722 23.5470 5.8576 6.9803 0.8614
# 3 31.3156 23.5470 93.3682 6.2399 19.4682 3.9638
# 4 0.3875 5.8576 6.2399 65.9782 10.3170 9.5985
# 5 11.2316 6.9803 19.4682 10.3170 46.0741 -1.0073
# 6 11.9494 0.8614 3.9638 9.5985 -1.0073 46.0145
#
#
#
# Elastic Compliance Matrix: (Units=1/GPa)
#
#
# Indices 1 2 3 4 5 6 
#
# 1 0.006948 -0.000941 -0.001863 0.000625 -0.000943 -0.001777
# 2 -0.000941 0.013218 -0.002906 -0.000903 -0.000334 0.000428
# 3 -0.001863 -0.002906 0.013067 -0.000151 -0.004607 -0.000657
# 4 0.000625 -0.000903 -0.000151 0.016352 -0.003693 -0.003624
# 5 -0.000943 -0.000334 -0.004607 -0.003693 0.024801 0.001961
# 6 -0.001777 0.000428 -0.000657 -0.003624 0.001961 0.023041
#
#
# Mechanical properties :
#
#
# Convention : Reuss Voigt Hill
#
# Bulk Modulus (GPa) = 45.84553 53.48974 49.66763
# Shear Modulus (GPa) = 43.05999 49.10403 46.08201
#
# Velocity S-wave (km/s) = 3.96295 4.23195 4.09966
# Velocity P-wave (km/s) = 6.13685 6.58697 6.36589
#
# Compressibility (1/GPa) = 0.02181238
#
# Stress axis : x y z
#
# Youngs Moduli (GPa) = 143.93489 75.65407 76.53125
#
# Poissons Ratio (x) = 0.07121 0.14255
# Poissons Ratio (y) = 0.13547 0.22241
# Poissons Ratio (z) = 0.26809 0.21986
#
# Static dielectric constant tensor:
#      x y z
#    x 2.208830 0.111930 -0.019290 
#    y 0.111930 2.853330 0.280220 
#    z -0.019290 0.280220 2.301700 
# 
# From -- ./inp_files/374769.got.cif
#   From: 2010.05.17/outbox.cif.g08.bks.cpg/sg2_188_cif.got.tgz:374769.got - 2010.06.03 11:33:40.
