data_PCOD9051658
_publ_section_title
;
Structure prediction by ZEFSAII (Michael W. Deem and Ramdas Pophale) SiO2 
 PCOD9051658
Probable space group: P -1
;
_chemical_formula_sum "Si O2"
_cell_formula_units_Z 16
_cell_length_a 10.920953
_cell_length_b 19.944442
_cell_length_c 5.573837
_cell_angle_alpha 92.602668
_cell_angle_beta 88.185637
_cell_angle_gamma 151.428062
_cell_volume 579.949118
_symmetry_space_group_name_H-M "P -1"
_symmetry_group_IT_number 2
_symmetry_cell_setting 'triclinic'
loop_
_space_group_symop_operation_xyz
x,y,z
-x,-y,-z
loop_
_atom_site_type_symbol
_atom_site_label
_atom_site_fract_x
_atom_site_fract_y
_atom_site_fract_z
Si Si1 0.398638 0.564842 0.468841
Si Si2 0.259259 0.083926 0.546438
Si Si3 0.662090 0.771236 0.107095
Si Si4 0.754779 0.167618 0.561559
Si Si5 0.289815 0.634926 0.748794
Si Si6 0.139887 0.932251 0.892657
Si Si7 0.204698 0.339037 0.307187
Si Si8 0.301226 0.780838 0.923409
O O1 0.623819 0.711221 0.338915
O O2 0.209094 0.536341 0.551091
O O3 0.292570 0.457185 0.277750
O O4 0.550563 0.591237 0.656062
O O5 0.353303 0.159122 0.805905
O O6 0.479260 0.212804 0.374614
O O7 0.205755 0.983256 0.619415
O O8 0.000000 0.000000 0.500000
O O9 0.422915 0.649553 0.931500
O O10 0.924575 0.880176 0.984773
O O11 0.767208 0.219633 0.329144
O O12 0.026144 0.259455 0.542380
O O13 0.500000 0.000000 0.500000
O O14 0.762112 0.213397 0.816231
O O15 0.177954 0.645693 0.897928
O O16 0.991142 0.790365 0.883559
O O17 0.389532 0.057208 0.056837
#
# Coordination Sequence:
#
# PCOD9051658 Si02
#       8
#     2   2   2   2   2   2   2   2
#     4  10  25  47  71 103 138 194 243 310 365 425
#     4  11  19  33  56  98 146 178 222 290 376 437
#     4  11  21  35  64 102 140 178 232 297 372 425
#     4  12  28  50  73 110 148 200 242 295 365 444
#     4  11  22  42  67 102 144 181 241 302 363 436
#     4  12  21  37  67 108 140 187 232 301 373 436
#     4  11  25  48  71 100 146 190 252 297 365 440
#     4  12  27  45  74 109 149 192 244 297 368 437
#
# _framework density 27.588623999999999
#
# number of rings (size 3 to 8) (size 9 to 14) (size 15 to 20)
#    0.000    0.750    5.000    3.000    3.500    0.500 
#    2.250    1.250    0.000    0.000    0.000    0.000 
#    0.000    0.000    0.000    0.000    0.000    0.000 
#
# Total GULP energy -89266.750621 kJ/mol
# GULP energy per Si atom -5579.171914 kJ/mol
# Density = 2.752583 g / cm^3
# Si number density = 27.588624 Si / 1000 Ang^3
#
#
#
# Elastic Constant Matrix: (Units=GPa)
#
#
# Indices 1 2 3 4 5 6 
#
# 1 120.0341 33.6589 41.3585 12.7572 -24.3026 -34.7982
# 2 33.6589 102.0065 13.7566 22.3656 -4.8463 -25.5109
# 3 41.3585 13.7566 110.8773 15.5679 -13.7632 -16.4839
# 4 12.7572 22.3656 15.5679 34.9404 -2.5621 -11.3709
# 5 -24.3026 -4.8463 -13.7632 -2.5621 48.8159 9.4905
# 6 -34.7982 -25.5109 -16.4839 -11.3709 9.4905 51.1443
#
#
#
# Elastic Compliance Matrix: (Units=1/GPa)
#
#
# Indices 1 2 3 4 5 6 
#
# 1 0.012425 -0.002141 -0.003069 0.000361 0.004012 0.005732
# 2 -0.002141 0.012763 0.000600 -0.006472 -0.000707 0.003796
# 3 -0.003069 0.000600 0.010877 -0.003810 0.001275 0.000633
# 4 0.000361 -0.006472 -0.003810 0.035524 -0.000404 0.003762
# 5 0.004012 -0.000707 0.001275 -0.000404 0.023058 -0.001580
# 6 0.005732 0.003796 0.000633 0.003762 -0.001580 0.026680
#
#
# Mechanical properties :
#
#
# Convention : Reuss Voigt Hill
#
# Bulk Modulus (GPa) = 37.25085 56.71844 46.98464
# Shear Modulus (GPa) = 35.84379 43.25638 39.55008
#
# Velocity S-wave (km/s) = 3.60838 3.96398 3.79035
# Velocity P-wave (km/s) = 5.55807 6.44624 6.01856
#
# Compressibility (1/GPa) = 0.02684503
#
# Stress axis : x y z
#
# Youngs Moduli (GPa) = 80.48584 78.34846 91.93895
#
# Poissons Ratio (x) = 0.16773 0.28220
# Poissons Ratio (y) = 0.17230 -0.05519
# Poissons Ratio (z) = 0.24704 -0.04703
#
# Static dielectric constant tensor:
#      x y z
#    x 2.298310 -0.006550 -0.060550 
#    y -0.006550 2.276060 0.108060 
#    z -0.060550 0.108060 2.179360 
# 
# From -- ./inp_files/83249.got.cif
#   From: 2010.05.17/outbox.cif.g08.bks.cpg/sg2_42_cif.got.tgz:83249.got - 2010.06.03 11:33:40.
