data_PCOD9051612
_publ_section_title
;
Structure prediction by ZEFSAII (Michael W. Deem and Ramdas Pophale) SiO2 
 PCOD9051612
Probable space group: P -1
;
_chemical_formula_sum "Si O2"
_cell_formula_units_Z 14
_cell_length_a 8.754837
_cell_length_b 11.258699
_cell_length_c 14.475294
_cell_angle_alpha 119.666353
_cell_angle_beta 38.178809
_cell_angle_gamma 135.050571
_cell_volume 616.881859
_symmetry_space_group_name_H-M "P -1"
_symmetry_group_IT_number 2
_symmetry_cell_setting 'triclinic'
loop_
_space_group_symop_operation_xyz
x,y,z
-x,-y,-z
loop_
_atom_site_type_symbol
_atom_site_label
_atom_site_fract_x
_atom_site_fract_y
_atom_site_fract_z
Si Si1 0.263714 0.304229 0.420855
Si Si2 0.189361 0.987991 0.822662
Si Si3 0.877193 0.056456 0.862689
Si Si4 0.194089 0.274780 0.242655
Si Si5 0.414501 0.875465 0.809917
Si Si6 0.915632 0.666787 0.283073
Si Si7 0.147756 0.491981 0.023646
O O1 0.095432 0.283933 0.396303
O O2 0.348658 0.170867 0.329907
O O3 0.589252 0.493031 0.341103
O O4 0.108306 0.293784 0.585859
O O5 0.034525 0.813258 0.768542
O O6 0.453197 0.997256 0.756367
O O7 0.180065 0.104936 0.795804
O O8 0.000000 0.000000 0.000000
O O9 0.996020 0.183015 0.769960
O O10 0.727201 0.861274 0.835949
O O11 0.646369 0.061010 0.042029
O O12 0.513196 0.450934 0.134065
O O13 0.082139 0.691368 0.893395
O O14 0.157880 0.624898 0.137432
O O15 0.000000 0.500000 0.000000
#
# Coordination Sequence:
#
# PCOD9051612 Si02
#       7
#     2   2   2   2   2   2   2
#     4  10  20  32  55  79  99 144 171 212 258 307
#     4   8  19  34  51  77 106 137 167 217 257 302
#     4   9  18  32  53  73 107 133 169 214 254 301
#     4  10  19  33  54  82 100 137 176 206 267 298
#     4  10  17  35  54  75 108 132 173 214 260 299
#     4  10  19  34  50  78 112 130 171 216 263 297
#     4  11  18  32  55  83  99 131 172 222 254 299
#
# _framework density 22.694783000000001
#
# number of rings (size 3 to 8) (size 9 to 14) (size 15 to 20)
#    0.857    1.429    4.286    0.000    0.000    3.429 
#    0.000    0.714    0.000    9.429    0.000    0.000 
#    0.000    0.000    0.000    0.000    0.000    0.000 
#
# Total GULP energy -77968.960437 kJ/mol
# GULP energy per Si atom -5569.211460 kJ/mol
# Density = 2.264313 g / cm^3
# Si number density = 22.694783 Si / 1000 Ang^3
#
#
#
# Elastic Constant Matrix: (Units=GPa)
#
#
# Indices 1 2 3 4 5 6 
#
# 1 52.2953 13.2438 42.6940 -11.1023 28.6239 3.1905
# 2 13.2438 66.1321 13.1597 -1.8928 3.6617 -1.5339
# 3 42.6940 13.1597 114.1718 15.5871 44.5366 5.0843
# 4 -11.1023 -1.8928 15.5871 26.8334 4.0301 8.9443
# 5 28.6239 3.6617 44.5366 4.0301 33.4371 6.3070
# 6 3.1905 -1.5339 5.0843 8.9443 6.3070 22.2766
#
#
#
# Elastic Compliance Matrix: (Units=1/GPa)
#
#
# Indices 1 2 3 4 5 6 
#
# 1 0.061764 -0.006812 -0.012789 0.042423 -0.037806 -0.012725
# 2 -0.006812 0.016411 -0.001380 -0.002299 0.005830 0.001693
# 3 -0.012789 -0.001380 0.023715 -0.019422 -0.019992 0.009782
# 4 0.042423 -0.002299 -0.019422 0.077729 -0.014089 -0.029021
# 5 -0.037806 0.005830 -0.019992 -0.014089 0.091839 -0.009966
# 6 -0.012725 0.001693 0.009782 -0.029021 -0.009966 0.059070
#
#
# Mechanical properties :
#
#
# Convention : Reuss Voigt Hill
#
# Bulk Modulus (GPa) = 16.68652 41.19934 28.94293
# Shear Modulus (GPa) = 12.73999 27.40953 20.07476
#
# Velocity S-wave (km/s) = 2.37188 3.47903 2.97737
# Velocity P-wave (km/s) = 3.85611 5.85929 4.95989
#
# Compressibility (1/GPa) = 0.05992860
#
# Stress axis : x y z
#
# Youngs Moduli (GPa) = 16.19064 60.93594 42.16808
#
# Poissons Ratio (x) = 0.41509 0.53927
# Poissons Ratio (y) = 0.11029 0.05819
# Poissons Ratio (z) = 0.20706 0.08409
#
# Static dielectric constant tensor:
#      x y z
#    x 1.966710 0.063890 0.033430 
#    y 0.063890 1.891500 0.013140 
#    z 0.033430 0.013140 1.830670 
# 
# From -- ./inp_files/164894.got.cif
#   From: 2010.05.17/outbox.cif.g08.bks.cpg/sg2_83_cif.got.tgz:164894.got - 2010.06.03 11:33:40.
