data_PCOD9051133
_publ_section_title
;
Structure prediction by ZEFSAII (Michael W. Deem and Ramdas Pophale) SiO2 
 PCOD9051133
Probable space group: P -1
;
_chemical_formula_sum "Si O2"
_cell_formula_units_Z 12
_cell_length_a 13.830104
_cell_length_b 7.951600
_cell_length_c 13.583307
_cell_angle_alpha 102.509502
_cell_angle_beta 159.177420
_cell_angle_gamma 87.328654
_cell_volume 463.180988
_symmetry_space_group_name_H-M "P -1"
_symmetry_group_IT_number 2
_symmetry_cell_setting 'triclinic'
loop_
_space_group_symop_operation_xyz
x,y,z
-x,-y,-z
loop_
_atom_site_type_symbol
_atom_site_label
_atom_site_fract_x
_atom_site_fract_y
_atom_site_fract_z
Si Si1 0.989115 0.784573 0.803703
Si Si2 0.667085 0.404575 0.778073
Si Si3 0.156726 0.394842 0.694742
Si Si4 0.123661 0.952867 0.750947
Si Si5 0.373927 0.223018 0.268684
Si Si6 0.765989 0.195560 0.459901
O O1 0.092371 0.658615 0.956117
O O2 0.123373 0.000896 0.003433
O O3 0.120647 0.818628 0.822760
O O4 0.626696 0.680082 0.441596
O O5 0.538064 0.295628 0.537998
O O6 0.754218 0.627556 0.868363
O O7 0.000000 0.500000 0.500000
O O8 0.012890 0.176391 0.490239
O O9 0.049172 0.375097 0.702677
O O10 0.500000 0.500000 0.000000
O O11 0.901298 0.043794 0.583800
O O12 0.472871 0.113457 0.096779
O O13 0.618542 0.231932 0.421360
#
# Coordination Sequence:
#
# PCOD9051133 Si02
#       6
#     2   2   2   2   2   2
#     4  11  24  44  70 102 145 189 239 287 358 419
#     4  11  25  43  72 103 147 189 237 300 341 426
#     4  12  26  45  71 107 139 176 233 297 360 425
#     4  11  24  46  71 102 138 189 235 284 362 427
#     4  10  25  45  70 107 142 191 243 285 363 409
#     4  11  24  46  72  98 141 188 235 292 350 435
#
# _framework density 25.907796999999999
#
# number of rings (size 3 to 8) (size 9 to 14) (size 15 to 20)
#    0.000    1.000    0.000    6.000    2.333    9.333 
#    0.000    0.000    0.000    0.000    0.000    0.000 
#    0.000    0.000    0.000    0.000    0.000    0.000 
#
# Total GULP energy -67333.387282 kJ/mol
# GULP energy per Si atom -5611.115607 kJ/mol
# Density = 2.584883 g / cm^3
# Si number density = 25.907797 Si / 1000 Ang^3
#
#
#
# Elastic Constant Matrix: (Units=GPa)
#
#
# Indices 1 2 3 4 5 6 
#
# 1 53.6076 -0.7960 5.4567 10.6107 9.1575 9.3418
# 2 -0.7960 149.9905 27.7338 -4.2518 -6.6676 -10.9301
# 3 5.4567 27.7338 145.3139 2.2413 21.6369 -12.6781
# 4 10.6107 -4.2518 2.2413 39.8730 -1.3457 -1.5045
# 5 9.1575 -6.6676 21.6369 -1.3457 41.1498 12.4321
# 6 9.3418 -10.9301 -12.6781 -1.5045 12.4321 39.6802
#
#
#
# Elastic Compliance Matrix: (Units=1/GPa)
#
#
# Indices 1 2 3 4 5 6 
#
# 1 0.021229 -0.000437 -0.000507 -0.005949 -0.003380 -0.004447
# 2 -0.000437 0.007135 -0.001533 0.001063 0.001773 0.001063
# 3 -0.000507 -0.001533 0.008442 -0.000542 -0.005865 0.004211
# 4 -0.005949 0.001063 -0.000542 0.026948 0.002093 0.001886
# 5 -0.003380 0.001773 -0.005865 0.002093 0.031642 -0.010424
# 6 -0.004447 0.001063 0.004211 0.001886 -0.010424 0.031224
#
#
# Mechanical properties :
#
#
# Convention : Reuss Voigt Hill
#
# Bulk Modulus (GPa) = 31.39390 45.96678 38.68034
# Shear Modulus (GPa) = 35.16392 45.24176 40.20284
#
# Velocity S-wave (km/s) = 3.68811 4.18336 3.94352
# Velocity P-wave (km/s) = 5.50274 6.41210 5.97474
#
# Compressibility (1/GPa) = 0.03185332
#
# Stress axis : x y z
#
# Youngs Moduli (GPa) = 47.10542 140.16162 118.45159
#
# Poissons Ratio (x) = 0.06119 0.06004
# Poissons Ratio (y) = 0.02056 0.18157
# Poissons Ratio (z) = 0.02387 0.21485
#
# Static dielectric constant tensor:
#      x y z
#    x 2.050370 -0.015200 -0.052660 
#    y -0.015200 2.023730 0.036770 
#    z -0.052660 0.036770 2.000540 
# 
# From -- ./inp_files/526594.got.cif
#   From: 2010.05.17/outbox.cif.g08.bks.cpg/sg2_264_cif.got.tgz:526594.got - 2010.06.03 11:33:40.
