data_PCOD9051369
_publ_section_title
;
Structure prediction by ZEFSAII (Michael W. Deem and Ramdas Pophale) SiO2 
 PCOD9051369
Probable space group: P -1
;
_chemical_formula_sum "Si O2"
_cell_formula_units_Z 16
_cell_length_a 8.812550
_cell_length_b 11.368410
_cell_length_c 26.389560
_cell_angle_alpha 145.927299
_cell_angle_beta 31.376947
_cell_angle_gamma 139.291647
_cell_volume 759.399419
_symmetry_space_group_name_H-M "P -1"
_symmetry_group_IT_number 2
_symmetry_cell_setting 'triclinic'
loop_
_space_group_symop_operation_xyz
x,y,z
-x,-y,-z
loop_
_atom_site_type_symbol
_atom_site_label
_atom_site_fract_x
_atom_site_fract_y
_atom_site_fract_z
Si Si1 0.450594 0.351816 0.267790
Si Si2 0.117670 0.861648 0.873386
Si Si3 0.167326 0.894507 0.662954
Si Si4 0.841810 0.827639 0.443664
Si Si5 0.389493 0.757245 0.927292
Si Si6 0.263472 0.153663 0.630633
Si Si7 0.243328 0.519257 0.210974
Si Si8 0.196033 0.136398 0.846784
O O1 0.579864 0.219532 0.227470
O O2 0.583462 0.267074 0.148757
O O3 0.577404 0.601243 0.325812
O O4 0.097918 0.296972 0.342900
O O5 0.873231 0.649498 0.859353
O O6 0.157092 0.990514 0.855716
O O7 0.000000 0.000000 0.000000
O O8 0.489976 0.825823 0.545193
O O9 0.137582 0.075561 0.693643
O O10 0.135913 0.992806 0.762323
O O11 0.927421 0.874762 0.376710
O O12 0.958603 0.609571 0.344956
O O13 0.000000 0.000000 0.500000
O O14 0.591679 0.604194 0.839423
O O15 0.049616 0.712211 0.024954
O O16 0.500000 0.000000 0.000000
O O17 0.500000 0.000000 0.500000
O O18 0.483449 0.719720 0.197088
#
# Coordination Sequence:
#
# PCOD9051369 Si02
#       8
#     2   2   2   2   2   2   2   2
#     4  12  24  44  73 103 145 187 228 290 365 403
#     4  12  26  47  68 107 149 179 234 300 338 426
#     4  11  25  45  76 102 142 188 233 288 352 420
#     4  11  24  47  71 105 141 181 238 293 345 418
#     4  12  23  46  71 105 148 181 233 292 347 427
#     4  10  25  46  69 100 140 181 239 288 341 415
#     4  12  25  46  74 101 144 188 233 288 358 409
#     4  12  25  46  73 107 139 191 236 281 359 421
#
# _framework density 21.069281
#
# number of rings (size 3 to 8) (size 9 to 14) (size 15 to 20)
#    0.000    0.500    6.250    1.125    3.500    2.500 
#    0.000    2.500    0.000    0.000    0.000    0.000 
#    0.000    0.000    0.000    0.000    0.000    0.000 
#
# Total GULP energy -89415.299219 kJ/mol
# GULP energy per Si atom -5588.456201 kJ/mol
# Density = 2.102133 g / cm^3
# Si number density = 21.069281 Si / 1000 Ang^3
#
#
#
# Elastic Constant Matrix: (Units=GPa)
#
#
# Indices 1 2 3 4 5 6 
#
# 1 152.0865 52.9898 66.7822 5.7514 3.2499 -2.6428
# 2 52.9898 95.5194 33.7991 11.1637 9.8820 9.1296
# 3 66.7822 33.7991 86.0370 12.2664 -10.4724 -14.4306
# 4 5.7514 11.1637 12.2664 37.4291 7.4249 -0.2974
# 5 3.2499 9.8820 -10.4724 7.4249 52.0084 2.0701
# 6 -2.6428 9.1296 -14.4306 -0.2974 2.0701 39.3097
#
#
#
# Elastic Compliance Matrix: (Units=1/GPa)
#
#
# Indices 1 2 3 4 5 6 
#
# 1 0.011283 -0.003252 -0.008299 0.002349 -0.002038 -0.001408
# 2 -0.003252 0.014785 -0.004212 -0.001981 -0.002970 -0.005057
# 3 -0.008299 -0.004212 0.022791 -0.006151 0.006452 0.008400
# 4 0.002349 -0.001981 -0.006151 0.029994 -0.005246 -0.001137
# 5 -0.002038 -0.002970 0.006452 -0.005246 0.021899 0.001728
# 6 -0.001408 -0.005057 0.008400 -0.001137 0.001728 0.029503
#
#
# Mechanical properties :
#
#
# Convention : Reuss Voigt Hill
#
# Bulk Modulus (GPa) = 57.69257 71.19834 64.44545
# Shear Modulus (GPa) = 29.84044 37.75421 33.79733
#
# Velocity S-wave (km/s) = 3.76746 4.23769 4.00947
# Velocity P-wave (km/s) = 6.80931 7.60328 7.21722
#
# Compressibility (1/GPa) = 0.01733325
#
# Stress axis : x y z
#
# Youngs Moduli (GPa) = 88.63154 67.63431 43.87773
#
# Poissons Ratio (x) = 0.21992 0.36416
# Poissons Ratio (y) = 0.28819 0.18480
# Poissons Ratio (z) = 0.73558 0.28486
#
# Static dielectric constant tensor:
#      x y z
#    x 1.786730 -0.000050 -0.024720 
#    y -0.000050 1.755390 -0.015850 
#    z -0.024720 -0.015850 1.744930 
# 
# From -- ./inp_files/407326.got.cif
#   From: 2010.05.17/outbox.cif.g08.bks.cpg/sg2_204_cif.got.tgz:407326.got - 2010.06.03 11:33:40.
