data_PCOD9051343
_publ_section_title
;
Structure prediction by ZEFSAII (Michael W. Deem and Ramdas Pophale) SiO2 
 PCOD9051343
Probable space group: P -1
;
_chemical_formula_sum "Si O2"
_cell_formula_units_Z 14
_cell_length_a 18.600674
_cell_length_b 8.828885
_cell_length_c 9.037396
_cell_angle_alpha 126.739916
_cell_angle_beta 58.531145
_cell_angle_gamma 150.176896
_cell_volume 591.468207
_symmetry_space_group_name_H-M "P -1"
_symmetry_group_IT_number 2
_symmetry_cell_setting 'triclinic'
loop_
_space_group_symop_operation_xyz
x,y,z
-x,-y,-z
loop_
_atom_site_type_symbol
_atom_site_label
_atom_site_fract_x
_atom_site_fract_y
_atom_site_fract_z
Si Si1 0.690516 0.052141 0.522015
Si Si2 0.902836 0.202132 0.540412
Si Si3 0.656440 0.681282 0.947402
Si Si4 0.655981 0.326104 0.949601
Si Si5 0.413481 0.663603 0.461323
Si Si6 0.114399 0.598897 0.776562
Si Si7 0.166492 0.336052 0.754184
O O1 0.745883 0.981312 0.523454
O O2 0.685361 0.225579 0.733018
O O3 0.791416 0.273640 0.399340
O O4 0.531669 0.736591 0.442621
O O5 0.000000 0.500000 0.500000
O O6 0.924126 0.019452 0.381090
O O7 0.957822 0.358933 0.735154
O O8 0.652994 0.525926 0.994465
O O9 0.672567 0.594261 0.727489
O O10 0.500000 0.500000 0.000000
O O11 0.788625 0.063639 0.055822
O O12 0.782155 0.544480 0.063779
O O13 0.500000 0.000000 0.000000
O O14 0.311432 0.557396 0.634839
O O15 0.500000 0.000000 0.500000
O O16 0.100001 0.397898 0.785253
#
# Coordination Sequence:
#
# PCOD9051343 Si02
#       7
#     2   2   2   2   2   2   2
#     4  11  22  44  66  95 140 171 218 269 335 396
#     4  10  25  46  67  94 133 183 225 273 328 397
#     4  12  23  39  69  97 135 177 218 278 336 396
#     4  12  23  38  63 104 137 169 219 278 338 394
#     4  12  21  42  68 103 135 173 216 275 344 396
#     4  11  23  47  67  95 134 179 228 267 330 403
#     4  12  24  42  69  99 135 174 224 282 332 394
#
# _framework density 23.669912
#
# number of rings (size 3 to 8) (size 9 to 14) (size 15 to 20)
#    0.000    0.571    5.714    3.000    0.000    2.857 
#    0.000   10.714    0.000    0.000    0.000    0.000 
#    0.000    0.000    0.000    0.000    0.000    0.000 
#
# Total GULP energy -78403.767300 kJ/mol
# GULP energy per Si atom -5600.269093 kJ/mol
# Density = 2.361604 g / cm^3
# Si number density = 23.669912 Si / 1000 Ang^3
#
#
#
# Elastic Constant Matrix: (Units=GPa)
#
#
# Indices 1 2 3 4 5 6 
#
# 1 177.0616 40.5870 27.1434 21.2870 43.9972 -31.1973
# 2 40.5870 118.3661 36.6535 32.2081 13.7398 -22.5028
# 3 27.1434 36.6535 135.2498 17.2242 26.2203 -5.7742
# 4 21.2870 32.2081 17.2242 48.3064 9.8433 -6.1841
# 5 43.9972 13.7398 26.2203 9.8433 37.7805 8.6273
# 6 -31.1973 -22.5028 -5.7742 -6.1841 8.6273 36.4736
#
#
#
# Elastic Compliance Matrix: (Units=1/GPa)
#
#
# Indices 1 2 3 4 5 6 
#
# 1 0.013579 0.000615 0.002035 -0.000586 -0.021233 0.017239
# 2 0.000615 0.012377 -0.001513 -0.006072 -0.004397 0.007933
# 3 0.002035 -0.001513 0.009462 -0.000842 -0.009156 0.004328
# 4 -0.000586 -0.006072 -0.000842 0.026143 -0.003539 0.000889
# 5 -0.021233 -0.004397 -0.009156 -0.003539 0.069035 -0.039253
# 6 0.017239 0.007933 0.004328 0.000889 -0.039253 0.057178
#
#
# Mechanical properties :
#
#
# Convention : Reuss Voigt Hill
#
# Bulk Modulus (GPa) = 26.53042 71.04948 48.78995
# Shear Modulus (GPa) = 25.24433 46.26500 35.75467
#
# Velocity S-wave (km/s) = 3.26930 4.42587 3.89080
# Velocity P-wave (km/s) = 5.04816 7.49665 6.39076
#
# Compressibility (1/GPa) = 0.03769259
#
# Stress axis : x y z
#
# Youngs Moduli (GPa) = 73.64380 80.79573 105.68172
#
# Poissons Ratio (x) = -0.04972 -0.21508
# Poissons Ratio (y) = -0.04531 0.15992
# Poissons Ratio (z) = -0.14988 0.12227
#
# Static dielectric constant tensor:
#      x y z
#    x 1.960880 0.058570 -0.012490 
#    y 0.058570 1.909670 0.004340 
#    z -0.012490 0.004340 1.911230 
# 
# From -- ./inp_files/352409.got.cif
#   From: 2010.05.17/outbox.cif.g08.bks.cpg/sg2_177_cif.got.tgz:352409.got - 2010.06.03 11:33:40.
