data_PCOD9051965
_publ_section_title
;
Structure prediction by ZEFSAII (Michael W. Deem and Ramdas Pophale) SiO2 
 PCOD9051965
Probable space group: P -1
;
_chemical_formula_sum "Si O2"
_cell_formula_units_Z 16
_cell_length_a 9.174993
_cell_length_b 9.529061
_cell_length_c 18.893551
_cell_angle_alpha 57.946846
_cell_angle_beta 37.781132
_cell_angle_gamma 45.804624
_cell_volume 724.796939
_symmetry_space_group_name_H-M "P -1"
_symmetry_group_IT_number 2
_symmetry_cell_setting 'triclinic'
loop_
_space_group_symop_operation_xyz
x,y,z
-x,-y,-z
loop_
_atom_site_type_symbol
_atom_site_label
_atom_site_fract_x
_atom_site_fract_y
_atom_site_fract_z
Si Si1 0.128586 0.666349 0.869096
Si Si2 0.828298 0.545424 0.357378
Si Si3 0.740980 0.352114 0.781273
Si Si4 0.282353 0.728678 0.030259
Si Si5 0.807118 0.172871 0.473142
Si Si6 0.021911 0.048963 0.264951
Si Si7 0.869064 0.622338 0.163106
Si Si8 0.601405 0.952249 0.095706
O O1 0.422744 0.513469 0.836760
O O2 0.043639 0.537003 0.889178
O O3 0.179358 0.797006 0.758916
O O4 0.875876 0.810675 0.980313
O O5 0.811001 0.366096 0.440425
O O6 0.524940 0.748159 0.423418
O O7 0.886347 0.522056 0.257017
O O8 0.075623 0.554310 0.297545
O O9 0.749682 0.245795 0.880078
O O10 0.904168 0.170689 0.714372
O O11 0.024959 0.739797 0.085951
O O12 0.500000 0.500000 0.000000
O O13 0.376110 0.871723 0.929171
O O14 0.000000 0.000000 0.500000
O O15 0.916802 0.118828 0.365422
O O16 0.312366 0.041156 0.141111
O O17 0.576497 0.810157 0.199548
#
# Coordination Sequence:
#
# PCOD9051965 Si02
#       8
#     2   2   2   2   2   2   2   2
#     4  12  24  43  67  98 144 187 225 276 341 409
#     4  10  25  49  71 101 139 170 233 294 343 406
#     4  11  26  44  66 102 142 183 227 281 342 408
#     4  11  24  40  60  99 146 183 235 280 326 402
#     4  11  25  48  79 102 128 178 229 290 358 410
#     4  12  25  43  69 102 140 179 234 284 341 412
#     4  11  22  41  68  97 136 184 229 280 335 405
#     4  12  24  40  68 103 143 191 232 273 340 410
#
# _framework density 22.075150000000001
#
# number of rings (size 3 to 8) (size 9 to 14) (size 15 to 20)
#    0.000    0.750    3.750    3.375    3.500    1.500 
#    0.000    1.250    0.000    0.000    0.000    0.000 
#    0.000    0.000    0.000    0.000    0.000    0.000 
#
# Total GULP energy -89352.203952 kJ/mol
# GULP energy per Si atom -5584.512747 kJ/mol
# Density = 2.202491 g / cm^3
# Si number density = 22.075150 Si / 1000 Ang^3
#
#
#
# Elastic Constant Matrix: (Units=GPa)
#
#
# Indices 1 2 3 4 5 6 
#
# 1 121.2811 45.8231 40.5029 8.2551 -4.2803 -10.0428
# 2 45.8231 120.5536 21.7553 -1.7402 -0.3303 -6.3469
# 3 40.5029 21.7553 53.7602 8.0925 0.1976 -1.6554
# 4 8.2551 -1.7402 8.0925 35.9318 1.8576 5.8499
# 5 -4.2803 -0.3303 0.1976 1.8576 29.8802 -1.4856
# 6 -10.0428 -6.3469 -1.6554 5.8499 -1.4856 34.9762
#
#
#
# Elastic Compliance Matrix: (Units=1/GPa)
#
#
# Indices 1 2 3 4 5 6 
#
# 1 0.012501 -0.003215 -0.007747 -0.001886 0.002075 0.003043
# 2 -0.003215 0.009890 -0.001798 0.001561 -0.000411 0.000508
# 3 -0.007747 -0.001798 0.025739 -0.003930 -0.001091 -0.000721
# 4 -0.001886 0.001561 -0.003930 0.030261 -0.002387 -0.005607
# 5 0.002075 -0.000411 -0.001091 -0.002387 0.034030 0.002314
# 6 0.003043 0.000508 -0.000721 -0.005607 0.002314 0.030559
#
#
# Mechanical properties :
#
#
# Convention : Reuss Voigt Hill
#
# Bulk Modulus (GPa) = 44.22935 56.86193 50.54564
# Shear Modulus (GPa) = 28.40346 32.65855 30.53100
#
# Velocity S-wave (km/s) = 3.59091 3.85050 3.72297
# Velocity P-wave (km/s) = 6.10509 6.75150 6.43642
#
# Compressibility (1/GPa) = 0.02260942
#
# Stress axis : x y z
#
# Youngs Moduli (GPa) = 79.99538 101.11594 38.85188
#
# Poissons Ratio (x) = 0.32507 0.30099
# Poissons Ratio (y) = 0.25717 0.06985
# Poissons Ratio (z) = 0.61974 0.18179
#
# Static dielectric constant tensor:
#      x y z
#    x 0.580650 0.141020 -0.045930 
#    y 0.141020 1.811910 0.019120 
#    z -0.045930 0.019120 1.852090 
# 
# From -- ./inp_files/557004.got.cif
#   From: 2010.05.17/outbox.cif.g08.bks.cpg/sg2_279_cif.got.tgz:557004.got - 2010.06.03 11:33:40.
