data_PCOD9051482
_publ_section_title
;
Structure prediction by ZEFSAII (Michael W. Deem and Ramdas Pophale) SiO2 
 PCOD9051482
Probable space group: P -1
;
_chemical_formula_sum "Si O2"
_cell_formula_units_Z 14
_cell_length_a 8.639580
_cell_length_b 9.252409
_cell_length_c 9.043665
_cell_angle_alpha 55.045506
_cell_angle_beta 98.569865
_cell_angle_gamma 96.583851
_cell_volume 585.514807
_symmetry_space_group_name_H-M "P -1"
_symmetry_group_IT_number 2
_symmetry_cell_setting 'triclinic'
loop_
_space_group_symop_operation_xyz
x,y,z
-x,-y,-z
loop_
_atom_site_type_symbol
_atom_site_label
_atom_site_fract_x
_atom_site_fract_y
_atom_site_fract_z
Si Si1 0.874964 0.473704 0.799724
Si Si2 0.065342 0.828699 0.528490
Si Si3 0.677797 0.825989 0.050582
Si Si4 0.635829 0.212084 0.799468
Si Si5 0.432604 0.816063 0.536226
Si Si6 0.645275 0.607125 0.889736
Si Si7 0.953429 0.685042 0.310196
O O1 0.733177 0.394957 0.722866
O O2 0.792123 0.490765 0.935569
O O3 0.958776 0.662920 0.670797
O O4 0.995965 0.330580 0.845296
O O5 0.252342 0.794821 0.584356
O O6 0.029729 0.828978 0.346609
O O7 0.000000 0.000000 0.500000
O O8 0.498522 0.798791 0.090320
O O9 0.772088 0.715756 0.248188
O O10 0.692536 0.756600 0.927001
O O11 0.727117 0.032000 0.947068
O O12 0.574549 0.192118 0.636375
O O13 0.563635 0.685511 0.687897
O O14 0.500000 0.000000 0.500000
O O15 0.500000 0.500000 0.000000
O O16 0.000000 0.500000 0.500000
#
# Coordination Sequence:
#
# PCOD9051482 Si02
#       7
#     2   2   2   2   2   2   2
#     4  11  25  46  72 107 146 197 246 304 378 431
#     4  11  26  46  73 110 146 193 248 308 373 444
#     4  11  26  48  74 110 153 193 252 311 370 446
#     4  11  25  47  78 110 145 201 251 309 371 443
#     4  12  26  48  78 108 146 195 256 301 377 449
#     4  12  27  45  73 112 149 196 249 314 368 442
#     4  10  25  46  72 106 148 193 245 301 374 442
#
# _framework density 23.910582000000002
#
# number of rings (size 3 to 8) (size 9 to 14) (size 15 to 20)
#    0.000    0.857    4.286    0.857   10.000    1.714 
#    0.000    0.000    0.000    0.000    0.000    0.000 
#    0.000    0.000    0.000    0.000    0.000    0.000 
#
# Total GULP energy -78126.330696 kJ/mol
# GULP energy per Si atom -5580.452193 kJ/mol
# Density = 2.385616 g / cm^3
# Si number density = 23.910582 Si / 1000 Ang^3
#
#
#
# Elastic Constant Matrix: (Units=GPa)
#
#
# Indices 1 2 3 4 5 6 
#
# 1 92.7554 53.4319 8.0735 6.4274 -16.0645 0.3693
# 2 53.4319 175.4350 22.7151 17.9993 -5.5944 -2.5981
# 3 8.0735 22.7151 67.5609 4.6129 7.8868 0.1817
# 4 6.4274 17.9993 4.6129 27.6117 -1.8940 -10.0162
# 5 -16.0645 -5.5944 7.8868 -1.8940 43.1777 0.4095
# 6 0.3693 -2.5981 0.1817 -10.0162 0.4095 46.4280
#
#
#
# Elastic Compliance Matrix: (Units=1/GPa)
#
#
# Indices 1 2 3 4 5 6 
#
# 1 0.014010 -0.003968 -0.000880 -0.000358 0.004848 -0.000450
# 2 -0.003968 0.007512 -0.001748 -0.003838 -0.000349 -0.000366
# 3 -0.000880 -0.001748 0.016031 -0.001760 -0.003555 -0.000502
# 4 -0.000358 -0.003838 -0.001760 0.042439 0.001468 0.008938
# 5 0.004848 -0.000349 -0.003555 0.001468 0.025632 0.000046
# 6 -0.000450 -0.000366 -0.000502 0.008938 0.000046 0.023452
#
#
# Mechanical properties :
#
#
# Convention : Reuss Voigt Hill
#
# Bulk Modulus (GPa) = 41.05057 56.02136 48.53596
# Shear Modulus (GPa) = 33.24751 40.21221 36.72986
#
# Velocity S-wave (km/s) = 3.73298 4.10539 3.92361
# Velocity P-wave (km/s) = 5.98212 6.77884 6.39291
#
# Compressibility (1/GPa) = 0.02436020
#
# Stress axis : x y z
#
# Youngs Moduli (GPa) = 71.37868 133.11542 62.38017
#
# Poissons Ratio (x) = 0.52824 0.05491
# Poissons Ratio (y) = 0.28325 0.10903
# Poissons Ratio (z) = 0.06283 0.23266
#
# Static dielectric constant tensor:
#      x y z
#    x 1.960980 -0.037930 -0.010310 
#    y -0.037930 1.909920 0.019550 
#    z -0.010310 0.019550 1.812560 
# 
# From -- ./inp_files/156926.got.cif
#   From: 2010.05.17/outbox.cif.g08.bks.cpg/sg2_79_cif.got.tgz:156926.got - 2010.06.03 11:33:40.
