data_PCOD9051015
_publ_section_title
;
Structure prediction by ZEFSAII (Michael W. Deem and Ramdas Pophale) SiO2 
 PCOD9051015
Probable space group: P -1
;
_chemical_formula_sum "Si O2"
_cell_formula_units_Z 15
_cell_length_a 15.903678
_cell_length_b 8.059898
_cell_length_c 19.330142
_cell_angle_alpha 61.465444
_cell_angle_beta 21.018611
_cell_angle_gamma 52.023229
_cell_volume 658.273719
_symmetry_space_group_name_H-M "P -1"
_symmetry_group_IT_number 2
_symmetry_cell_setting 'triclinic'
loop_
_space_group_symop_operation_xyz
x,y,z
-x,-y,-z
loop_
_atom_site_type_symbol
_atom_site_label
_atom_site_fract_x
_atom_site_fract_y
_atom_site_fract_z
Si Si1 0.569758 0.165811 0.876268
Si Si2 0.000000 0.000000 0.500000
Si Si3 0.671146 0.665945 0.713879
Si Si4 0.497329 0.461850 0.625338
Si Si5 0.875859 0.164663 0.271245
Si Si6 0.798038 0.357971 0.872696
Si Si7 0.410858 0.164580 0.848161
Si Si8 0.185552 0.505666 0.498930
O O1 0.604648 0.141496 0.769059
O O2 0.330827 0.417937 0.025504
O O3 0.883384 0.099102 0.655567
O O4 0.500000 0.000000 0.000000
O O5 0.016376 0.764446 0.557134
O O6 0.592206 0.616342 0.709012
O O7 0.000000 0.500000 0.500000
O O8 0.566743 0.924423 0.741513
O O9 0.489956 0.636707 0.918251
O O10 0.675872 0.269030 0.469995
O O11 0.283621 0.681247 0.702851
O O12 0.360167 0.364549 0.799504
O O13 0.680199 0.512469 0.525954
O O14 0.000006 0.904975 0.210978
O O15 0.130440 0.196248 0.086260
O O16 0.996476 0.401112 0.665023
#
# Coordination Sequence:
#
# PCOD9051015 Si02
#       8
#     2   1   2   2   2   2   2   2
#     4  12  24  41  67  99 133 181 222 270 329 412
#     4  12  22  40  64  96 136 172 224 262 334 396
#     4  11  25  43  63  97 140 174 219 275 333 401
#     4  11  23  45  74  94 134 177 231 276 346 399
#     4  10  25  45  67 103 131 175 224 296 334 391
#     4  11  24  43  65  99 137 170 229 275 336 394
#     4  11  23  44  68  98 135 179 225 276 341 403
#     4  12  24  42  68  99 132 184 223 277 331 411
#
# _framework density 22.786874999999998
#
# number of rings (size 3 to 8) (size 9 to 14) (size 15 to 20)
#    0.000    0.800    4.000    2.800    0.000    1.067 
#    2.400    7.333    0.000    0.000    0.000    0.000 
#    0.000    0.000    0.000    0.000    0.000    0.000 
#
# Total GULP energy -83553.615398 kJ/mol
# GULP energy per Si atom -5570.241027 kJ/mol
# Density = 2.273501 g / cm^3
# Si number density = 22.786875 Si / 1000 Ang^3
#
#
#
# Elastic Constant Matrix: (Units=GPa)
#
#
# Indices 1 2 3 4 5 6 
#
# 1 60.4212 41.0541 -11.8562 0.1560 -2.4676 0.7675
# 2 41.0541 186.2010 64.0868 -9.5450 0.8128 0.1314
# 3 -11.8562 64.0868 95.4896 -19.7640 6.7231 -5.3645
# 4 0.1560 -9.5450 -19.7640 52.4435 4.3628 13.2468
# 5 -2.4676 0.8128 6.7231 4.3628 32.9080 4.4509
# 6 0.7675 0.1314 -5.3645 13.2468 4.4509 22.3838
#
#
#
# Elastic Compliance Matrix: (Units=1/GPa)
#
#
# Indices 1 2 3 4 5 6 
#
# 1 0.023864 -0.008224 0.008858 0.001684 -0.000091 0.000375
# 2 -0.008224 0.009886 -0.008003 -0.000941 0.001082 -0.001353
# 3 0.008858 -0.008003 0.018417 0.005331 -0.003846 0.001767
# 4 0.001684 -0.000941 0.005331 0.024306 -0.002448 -0.012672
# 5 -0.000091 0.001082 -0.003846 -0.002448 0.032261 -0.005891
# 6 0.000375 -0.001353 0.001767 -0.012672 -0.005891 0.053764
#
#
# Mechanical properties :
#
#
# Convention : Reuss Voigt Hill
#
# Bulk Modulus (GPa) = 26.71679 58.74238 42.72958
# Shear Modulus (GPa) = 26.35569 38.13551 32.24560
#
# Velocity S-wave (km/s) = 3.40460 4.09537 3.76586
# Velocity P-wave (km/s) = 5.21585 6.94246 6.14015
#
# Compressibility (1/GPa) = 0.03742965
#
# Stress axis : x y z
#
# Youngs Moduli (GPa) = 41.90449 101.15021 54.29794
#
# Poissons Ratio (x) = 0.83186 -0.48099
# Poissons Ratio (y) = 0.34462 0.43455
# Poissons Ratio (z) = -0.37120 0.80951
#
# Static dielectric constant tensor:
#      x y z
#    x 1.984380 0.018020 -0.010970 
#    y 0.018020 1.834220 0.006770 
#    z -0.010970 0.006770 1.980990 
# 
# From -- ./inp_files/599426.got.cif
#   From: 2010.05.17/outbox.cif.g08.bks.cpg/sg2_300_cif.got.tgz:599426.got - 2010.06.03 11:33:40.
