data_PCOD9051031
_publ_section_title
;
Structure prediction by ZEFSAII (Michael W. Deem and Ramdas Pophale) SiO2 
 PCOD9051031
Probable space group: P -1
;
_chemical_formula_sum "Si O2"
_cell_formula_units_Z 14
_cell_length_a 9.562898
_cell_length_b 25.791032
_cell_length_c 10.094993
_cell_angle_alpha 146.153806
_cell_angle_beta 138.705986
_cell_angle_gamma 23.626928
_cell_volume 555.261577
_symmetry_space_group_name_H-M "P -1"
_symmetry_group_IT_number 2
_symmetry_cell_setting 'triclinic'
loop_
_space_group_symop_operation_xyz
x,y,z
-x,-y,-z
loop_
_atom_site_type_symbol
_atom_site_label
_atom_site_fract_x
_atom_site_fract_y
_atom_site_fract_z
Si Si1 0.765547 0.952825 0.695511
Si Si2 0.455170 0.288981 0.840327
Si Si3 0.571799 0.619722 0.522219
Si Si4 0.293502 0.278176 0.974919
Si Si5 0.220304 0.040376 0.971125
Si Si6 0.542646 0.544736 0.957182
Si Si7 0.526971 0.250019 0.520945
O O1 0.151676 0.788722 0.575821
O O2 0.500000 0.000000 0.500000
O O3 0.609596 0.112178 0.914100
O O4 0.758652 0.933524 0.806299
O O5 0.350906 0.256940 0.814653
O O6 0.395520 0.262718 0.598977
O O7 0.850104 0.178142 0.927559
O O8 0.313247 0.442847 0.036786
O O9 0.635814 0.487726 0.279117
O O10 0.701382 0.635491 0.522136
O O11 0.680942 0.625342 0.750837
O O12 0.893740 0.391743 0.960776
O O13 0.275548 0.909047 0.727915
O O14 0.500000 0.000000 0.000000
O O15 0.333217 0.696713 0.214056
#
# Coordination Sequence:
#
# PCOD9051031 Si02
#       7
#     2   2   2   2   2   2   2
#     4  12  26  43  72 100 129 183 236 289 342 393
#     4  10  25  45  67  99 142 180 226 283 351 401
#     4  12  23  46  71  99 144 180 239 284 340 414
#     4  12  23  46  71  99 144 180 239 284 340 414
#     4  12  26  46  72 104 133 182 237 290 348 412
#     4  10  26  42  72 104 140 192 220 282 354 414
#     4  10  25  45  67  99 142 180 226 283 351 401
#
# _framework density 25.213342999999998
#
# number of rings (size 3 to 8) (size 9 to 14) (size 15 to 20)
#    0.857    0.000    4.286    2.571    4.000    2.286 
#    0.000    0.000    0.000    0.000    0.000    0.000 
#    0.000    0.000    0.000    0.000    0.000    0.000 
#
# Total GULP energy -78021.069109 kJ/mol
# GULP energy per Si atom -5572.933508 kJ/mol
# Density = 2.515596 g / cm^3
# Si number density = 25.213343 Si / 1000 Ang^3
#
#
#
# Elastic Constant Matrix: (Units=GPa)
#
#
# Indices 1 2 3 4 5 6 
#
# 1 68.2527 5.3007 20.0283 -1.0377 -18.1887 24.7446
# 2 5.3007 95.7190 10.2070 -5.0316 -8.1837 15.6341
# 3 20.0283 10.2070 145.6727 -2.9170 8.7384 5.3743
# 4 -1.0377 -5.0316 -2.9170 34.0331 14.3211 -1.4921
# 5 -18.1887 -8.1837 8.7384 14.3211 49.8240 -11.4905
# 6 24.7446 15.6341 5.3743 -1.4921 -11.4905 42.3902
#
#
#
# Elastic Compliance Matrix: (Units=1/GPa)
#
#
# Indices 1 2 3 4 5 6 
#
# 1 0.021078 0.001337 -0.003060 -0.002742 0.006779 -0.010668
# 2 0.001337 0.011352 -0.000866 0.000945 0.001195 -0.004500
# 3 -0.003060 -0.000866 0.007544 0.001696 -0.002977 0.000402
# 4 -0.002742 0.000945 0.001696 0.034250 -0.011169 -0.000785
# 5 0.006779 0.001195 -0.002977 -0.011169 0.027154 0.002947
# 6 -0.010668 -0.004500 0.000402 -0.000785 0.002947 0.032198
#
#
# Mechanical properties :
#
#
# Convention : Reuss Voigt Hill
#
# Bulk Modulus (GPa) = 28.73842 42.30182 35.52012
# Shear Modulus (GPa) = 33.25538 43.52336 38.38937
#
# Velocity S-wave (km/s) = 3.63569 4.15927 3.90626
# Velocity P-wave (km/s) = 5.38954 6.31506 5.87057
#
# Compressibility (1/GPa) = 0.03479662
#
# Stress axis : x y z
#
# Youngs Moduli (GPa) = 47.44319 88.08668 132.56007
#
# Poissons Ratio (x) = -0.11776 0.40558
# Poissons Ratio (y) = -0.06343 0.11480
# Poissons Ratio (z) = 0.14516 0.07628
#
# Static dielectric constant tensor:
#      x y z
#    x 2.074620 -0.057660 -0.022330 
#    y -0.057660 2.059560 0.050170 
#    z -0.022330 0.050170 1.998960 
# 
# From -- ./inp_files/226701.got.cif
#   From: 2010.05.17/outbox.cif.g08.bks.cpg/sg2_114_cif.got.tgz:226701.got - 2010.06.03 11:33:40.
