data_PCOD9051865
_publ_section_title
;
Structure prediction by ZEFSAII (Michael W. Deem and Ramdas Pophale) SiO2 
 PCOD9051865
Probable space group: P -1
;
_chemical_formula_sum "Si O2"
_cell_formula_units_Z 16
_cell_length_a 8.794160
_cell_length_b 15.298081
_cell_length_c 13.801529
_cell_angle_alpha 146.218541
_cell_angle_beta 41.613147
_cell_angle_gamma 118.207695
_cell_volume 627.534633
_symmetry_space_group_name_H-M "P -1"
_symmetry_group_IT_number 2
_symmetry_cell_setting 'triclinic'
loop_
_space_group_symop_operation_xyz
x,y,z
-x,-y,-z
loop_
_atom_site_type_symbol
_atom_site_label
_atom_site_fract_x
_atom_site_fract_y
_atom_site_fract_z
Si Si1 0.881085 0.219236 0.956315
Si Si2 0.299157 0.978007 0.671004
Si Si3 0.258598 0.610064 0.529353
Si Si4 0.495277 0.795292 0.737584
Si Si5 0.973175 0.513596 0.293619
Si Si6 0.643668 0.282150 0.942395
Si Si7 0.486380 0.732321 0.207234
Si Si8 0.252979 0.115912 0.026603
O O1 0.612186 0.242394 0.145737
O O2 0.927407 0.384160 0.119637
O O3 0.881943 0.202395 0.825686
O O4 0.066554 0.063385 0.787992
O O5 0.422571 0.782485 0.395645
O O6 0.444765 0.103275 0.700323
O O7 0.232317 0.007570 0.842296
O O8 0.390431 0.701828 0.620785
O O9 0.121277 0.530625 0.599153
O O10 0.476589 0.473118 0.236078
O O11 0.023543 0.736767 0.695210
O O12 0.793109 0.703225 0.521249
O O13 0.370118 0.991666 0.946305
O O14 0.271279 0.443320 0.086965
O O15 0.700939 0.267244 0.787660
O O16 0.453885 0.191305 0.970296
#
# Coordination Sequence:
#
# PCOD9051865 Si02
#       8
#     2   2   2   2   2   2   2   2
#     4  10  18  32  55  79 113 138 176 221 268 320
#     4   9  18  36  53  76 106 147 185 218 252 322
#     4  11  18  34  56  80 110 139 178 218 266 324
#     4  11  20  33  55  86 109 143 174 216 276 325
#     4  10  17  35  55  78 105 148 180 213 257 333
#     4  11  20  33  54  86 109 137 175 232 266 312
#     4   9  19  33  56  77 103 145 190 216 257 310
#     4  11  22  33  55  84 112 138 179 220 273 315
#
# _framework density 25.496600999999998
#
# number of rings (size 3 to 8) (size 9 to 14) (size 15 to 20)
#    0.000    1.750    7.500    1.500    0.000    1.000 
#    0.000    0.625    0.000    0.750    0.000    0.000 
#    0.000    0.000    0.000    0.000    0.000    0.000 
#
# Total GULP energy -89461.950952 kJ/mol
# GULP energy per Si atom -5591.371935 kJ/mol
# Density = 2.543857 g / cm^3
# Si number density = 25.496601 Si / 1000 Ang^3
#
#
#
# Elastic Constant Matrix: (Units=GPa)
#
#
# Indices 1 2 3 4 5 6 
#
# 1 100.5913 15.1944 26.1818 4.0692 7.3706 -28.0702
# 2 15.1944 55.3173 6.2790 10.8848 0.6797 -7.6720
# 3 26.1818 6.2790 74.1108 4.2920 -6.3047 -19.6665
# 4 4.0692 10.8848 4.2920 27.9630 -11.3263 -6.7837
# 5 7.3706 0.6797 -6.3047 -11.3263 50.1923 3.9362
# 6 -28.0702 -7.6720 -19.6665 -6.7837 3.9362 30.4336
#
#
#
# Elastic Compliance Matrix: (Units=1/GPa)
#
#
# Indices 1 2 3 4 5 6 
#
# 1 0.014315 -0.002150 -0.002018 0.000696 -0.003104 0.011914
# 2 -0.002150 0.020512 -0.000290 -0.008056 -0.001931 0.001455
# 3 -0.002018 -0.000290 0.016672 0.000731 0.001872 0.008760
# 4 0.000696 -0.008056 0.000731 0.044419 0.009514 0.007755
# 5 -0.003104 -0.001931 0.001872 0.009514 0.023022 -0.002996
# 6 0.011914 0.001455 0.008760 0.007755 -0.002996 0.051991
#
#
# Mechanical properties :
#
#
# Convention : Reuss Voigt Hill
#
# Bulk Modulus (GPa) = 23.48295 36.14775 29.81535
# Shear Modulus (GPa) = 25.76780 33.87539 29.82160
#
# Velocity S-wave (km/s) = 3.18250 3.64898 3.42370
# Velocity P-wave (km/s) = 4.76808 5.65347 5.22955
#
# Compressibility (1/GPa) = 0.04258409
#
# Stress axis : x y z
#
# Youngs Moduli (GPa) = 69.85671 48.75307 59.97934
#
# Poissons Ratio (x) = 0.10479 0.12103
# Poissons Ratio (y) = 0.15016 0.01740
# Poissons Ratio (z) = 0.14096 0.01414
#
# Static dielectric constant tensor:
#      x y z
#    x 2.015490 0.001350 0.003700 
#    y 0.001350 2.067660 -0.018840 
#    z 0.003700 -0.018840 2.079870 
# 
# From -- ./inp_files/187437.got.cif
#   From: 2010.05.17/outbox.cif.g08.bks.cpg/sg2_94_cif.got.tgz:187437.got - 2010.06.03 11:33:40.
