data_PCOD9051043
_publ_section_title
;
Structure prediction by ZEFSAII (Michael W. Deem and Ramdas Pophale) SiO2 
 PCOD9051043
Probable space group: P -1
;
_chemical_formula_sum "Si O2"
_cell_formula_units_Z 16
_cell_length_a 11.992156
_cell_length_b 11.618906
_cell_length_c 11.618059
_cell_angle_alpha 31.238970
_cell_angle_beta 124.264313
_cell_angle_gamma 114.023181
_cell_volume 683.330539
_symmetry_space_group_name_H-M "P -1"
_symmetry_group_IT_number 2
_symmetry_cell_setting 'triclinic'
loop_
_space_group_symop_operation_xyz
x,y,z
-x,-y,-z
loop_
_atom_site_type_symbol
_atom_site_label
_atom_site_fract_x
_atom_site_fract_y
_atom_site_fract_z
Si Si1 0.236604 0.912448 0.561641
Si Si2 0.795441 0.875999 0.888635
Si Si3 0.833840 0.921526 0.125773
Si Si4 0.592804 0.640772 0.278465
Si Si5 0.690866 0.326338 0.819860
Si Si6 0.134021 0.362392 0.254332
Si Si7 0.967591 0.398676 0.348868
Si Si8 0.530380 0.664153 0.976326
O O1 0.227639 0.984457 0.360995
O O2 0.168496 0.122014 0.420008
O O3 0.153985 0.705631 0.692590
O O4 0.391141 0.842386 0.754127
O O5 0.656251 0.780371 0.912998
O O6 0.826933 0.990849 0.928631
O O7 0.913425 0.658071 0.122547
O O8 0.703049 0.800812 0.180293
O O9 0.971860 0.746645 0.381599
O O10 0.814450 0.129984 0.024098
O O11 0.645439 0.459001 0.561794
O O12 0.442631 0.757943 0.135361
O O13 0.568432 0.539815 0.225603
O O14 0.742073 0.497177 0.793222
O O15 0.092592 0.354457 0.370095
O O16 0.000000 0.500000 0.000000
O O17 0.500000 0.500000 0.000000
#
# Coordination Sequence:
#
# PCOD9051043 Si02
#       8
#     2   2   2   2   2   2   2   2
#     4  12  27  45  74 102 139 188 231 285 354 410
#     4  11  26  47  69 103 140 183 232 286 349 418
#     4  11  25  44  72 102 138 182 235 282 348 417
#     4  10  25  45  68 102 140 180 234 285 346 405
#     4  11  25  45  73 100 142 185 230 291 340 409
#     4  12  26  46  72 106 144 181 235 286 346 418
#     4  12  25  47  69 103 143 181 231 289 350 410
#     4  11  25  45  73 100 140 181 232 291 344 410
#
# _framework density 23.414731
#
# number of rings (size 3 to 8) (size 9 to 14) (size 15 to 20)
#    0.000    0.750    3.750    2.250    7.000    4.500 
#    0.000    0.000    0.000    0.000    0.000    0.000 
#    0.000    0.000    0.000    0.000    0.000    0.000 
#
# Total GULP energy -89576.569591 kJ/mol
# GULP energy per Si atom -5598.535599 kJ/mol
# Density = 2.336144 g / cm^3
# Si number density = 23.414731 Si / 1000 Ang^3
#
#
#
# Elastic Constant Matrix: (Units=GPa)
#
#
# Indices 1 2 3 4 5 6 
#
# 1 94.0144 12.2066 2.9654 4.6497 -1.6006 6.1921
# 2 12.2066 84.1284 0.2658 11.2403 -6.4262 -7.1196
# 3 2.9654 0.2658 52.9278 19.6210 7.8899 -8.4318
# 4 4.6497 11.2403 19.6210 39.7499 -6.3722 5.0063
# 5 -1.6006 -6.4262 7.8899 -6.3722 33.2023 -1.4863
# 6 6.1921 -7.1196 -8.4318 5.0063 -1.4863 28.2649
#
#
#
# Elastic Compliance Matrix: (Units=1/GPa)
#
#
# Indices 1 2 3 4 5 6 
#
# 1 0.011139 -0.001921 -0.001366 0.000407 0.000417 -0.003382
# 2 -0.001921 0.013457 0.002847 -0.005539 0.001027 0.005695
# 3 -0.001366 0.002847 0.028986 -0.018002 -0.009304 0.012363
# 4 0.000407 -0.005539 -0.018002 0.038842 0.010089 -0.013204
# 5 0.000417 0.001027 -0.009304 0.010089 0.034369 -0.002588
# 6 -0.003382 0.005695 0.012363 -0.013204 -0.002588 0.043445
#
#
# Mechanical properties :
#
#
# Convention : Reuss Voigt Hill
#
# Bulk Modulus (GPa) = 18.97462 29.10513 24.03988
# Shear Modulus (GPa) = 26.49939 34.61895 30.55917
#
# Velocity S-wave (km/s) = 3.36778 3.84931 3.61657
# Velocity P-wave (km/s) = 4.82120 5.67570 5.26581
#
# Compressibility (1/GPa) = 0.05270197
#
# Stress axis : x y z
#
# Youngs Moduli (GPa) = 89.77601 74.31255 34.49976
#
# Poissons Ratio (x) = 0.14273 0.04714
# Poissons Ratio (y) = 0.17243 -0.09823
# Poissons Ratio (z) = 0.12266 -0.21159
#
# Static dielectric constant tensor:
#      x y z
#    x 1.922150 -0.001170 -0.018180 
#    y -0.001170 1.852610 0.003800 
#    z -0.018180 0.003800 1.898310 
# 
# From -- ./inp_files/76998.got.cif
#   From: 2010.05.17/outbox.cif.g08.bks.cpg/sg2_39_cif.got.tgz:76998.got - 2010.06.03 11:33:40.
