data_PCOD9051657
_publ_section_title
;
Structure prediction by ZEFSAII (Michael W. Deem and Ramdas Pophale) SiO2 
 PCOD9051657
Probable space group: P -1
;
_chemical_formula_sum "Si O2"
_cell_formula_units_Z 12
_cell_length_a 8.764725
_cell_length_b 6.737964
_cell_length_c 14.202998
_cell_angle_alpha 90.281318
_cell_angle_beta 141.447977
_cell_angle_gamma 76.173969
_cell_volume 484.107567
_symmetry_space_group_name_H-M "P -1"
_symmetry_group_IT_number 2
_symmetry_cell_setting 'triclinic'
loop_
_space_group_symop_operation_xyz
x,y,z
-x,-y,-z
loop_
_atom_site_type_symbol
_atom_site_label
_atom_site_fract_x
_atom_site_fract_y
_atom_site_fract_z
Si Si1 0.938955 0.148546 0.561270
Si Si2 0.751003 0.838491 0.567372
Si Si3 0.010611 0.228469 0.986451
Si Si4 0.776846 0.578654 0.206141
Si Si5 0.476222 0.563913 0.377331
Si Si6 0.363702 0.401356 0.068052
O O1 0.655778 0.342412 0.415467
O O2 0.136096 0.258944 0.691132
O O3 0.913234 0.986104 0.625837
O O4 0.000000 0.000000 0.500000
O O5 0.611531 0.736918 0.423018
O O6 0.963607 0.616914 0.706419
O O7 0.500000 0.000000 0.500000
O O8 0.816480 0.335306 0.804506
O O9 0.876225 0.383999 0.009644
O O10 0.298379 0.227286 0.098707
O O11 0.000000 0.000000 0.000000
O O12 0.613439 0.473210 0.190406
O O13 0.631313 0.670122 0.038636
O O14 0.500000 0.500000 0.500000
#
# Coordination Sequence:
#
# PCOD9051657 Si02
#       6
#     2   2   2   2   2   2
#     4  11  26  43  73 108 141 189 247 322 368 431
#     4  11  24  40  75 105 137 191 241 308 371 438
#     4  11  26  44  76 109 147 194 251 305 376 440
#     4  10  25  48  70 106 148 196 252 298 381 449
#     4  11  24  46  74 109 146 189 251 308 372 451
#     4  10  25  47  71 102 152 197 241 308 360 465
#
# _framework density 24.787879
#
# number of rings (size 3 to 8) (size 9 to 14) (size 15 to 20)
#    0.000    1.333    1.667    2.000    7.000    4.000 
#    0.000    3.333    0.000    0.000    0.000    0.000 
#    0.000    0.000    0.000    0.000    0.000    0.000 
#
# Total GULP energy -67008.720139 kJ/mol
# GULP energy per Si atom -5584.060012 kJ/mol
# Density = 2.473146 g / cm^3
# Si number density = 24.787879 Si / 1000 Ang^3
#
#
#
# Elastic Constant Matrix: (Units=GPa)
#
#
# Indices 1 2 3 4 5 6 
#
# 1 130.4525 67.8975 44.4437 16.2647 1.3127 13.0427
# 2 67.8975 202.9089 53.0776 24.4017 5.8593 17.3453
# 3 44.4437 53.0776 102.4477 35.2730 -0.6421 13.8881
# 4 16.2647 24.4017 35.2730 33.6684 1.6814 18.0867
# 5 1.3127 5.8593 -0.6421 1.6814 33.1965 15.5468
# 6 13.0427 17.3453 13.8881 18.0867 15.5468 53.4888
#
#
#
# Elastic Compliance Matrix: (Units=1/GPa)
#
#
# Indices 1 2 3 4 5 6 
#
# 1 0.010095 -0.002562 -0.003228 0.001034 0.000548 -0.001301
# 2 -0.002562 0.006455 -0.001693 -0.001474 -0.000865 -0.000279
# 3 -0.003228 -0.001693 0.017530 -0.016858 0.000527 0.002332
# 4 0.001034 -0.001474 -0.016858 0.056118 0.004378 -0.015645
# 5 0.000548 -0.000865 0.000527 0.004378 0.035574 -0.011810
# 6 -0.001301 -0.000279 0.002332 -0.015645 -0.011810 0.027221
#
#
# Mechanical properties :
#
#
# Convention : Reuss Voigt Hill
#
# Bulk Modulus (GPa) = 52.31952 85.18296 68.75124
# Shear Modulus (GPa) = 28.68149 42.09676 35.38913
#
# Velocity S-wave (km/s) = 3.40527 4.12549 3.78256
# Velocity P-wave (km/s) = 6.05094 7.55859 6.84639
#
# Compressibility (1/GPa) = 0.01911333
#
# Stress axis : x y z
#
# Youngs Moduli (GPa) = 99.06203 154.92806 57.04569
#
# Poissons Ratio (x) = 0.39700 0.18413
# Poissons Ratio (y) = 0.25384 0.09656
# Poissons Ratio (z) = 0.31975 0.26223
#
# Static dielectric constant tensor:
#      x y z
#    x 1.964350 0.019870 0.005910 
#    y 0.019870 1.978970 -0.013960 
#    z 0.005910 -0.013960 2.103680 
# 
# From -- ./inp_files/135962.got.cif
#   From: 2010.05.17/outbox.cif.g08.bks.cpg/sg2_68_cif.got.tgz:135962.got - 2010.06.03 11:33:40.
