data_PCOD9051136
_publ_section_title
;
Structure prediction by ZEFSAII (Michael W. Deem and Ramdas Pophale) SiO2 
 PCOD9051136
Probable space group: P -1
;
_chemical_formula_sum "Si O2"
_cell_formula_units_Z 16
_cell_length_a 16.482945
_cell_length_b 11.611986
_cell_length_c 8.683660
_cell_angle_alpha 48.125468
_cell_angle_beta 49.362408
_cell_angle_gamma 32.018485
_cell_volume 640.650154
_symmetry_space_group_name_H-M "P -1"
_symmetry_group_IT_number 2
_symmetry_cell_setting 'triclinic'
loop_
_space_group_symop_operation_xyz
x,y,z
-x,-y,-z
loop_
_atom_site_type_symbol
_atom_site_label
_atom_site_fract_x
_atom_site_fract_y
_atom_site_fract_z
Si Si1 0.729044 0.002770 0.358620
Si Si2 0.402998 0.003447 0.995882
Si Si3 0.673895 0.691667 0.729316
Si Si4 0.956152 0.189415 0.775614
Si Si5 0.557572 0.503393 0.589225
Si Si6 0.801334 0.087428 0.871532
Si Si7 0.728879 0.594614 0.411251
Si Si8 0.062345 0.279721 0.203169
O O1 0.694543 0.856418 0.553240
O O2 0.880988 0.892214 0.367641
O O3 0.589437 0.259465 0.360227
O O4 0.763735 0.015983 0.126566
O O5 0.543735 0.772262 0.936889
O O6 0.328323 0.188366 0.790254
O O7 0.500000 0.000000 0.000000
O O8 0.245431 0.103990 0.180514
O O9 0.836065 0.432370 0.791657
O O10 0.637816 0.679672 0.609127
O O11 0.867420 0.181479 0.762582
O O12 0.000000 0.000000 0.000000
O O13 0.500000 0.500000 0.500000
O O14 0.648491 0.287312 0.779503
O O15 0.683739 0.510104 0.420793
O O16 0.925256 0.870735 0.802212
O O17 0.914703 0.407502 0.383220
O O18 0.000000 0.500000 0.000000
#
# Coordination Sequence:
#
# PCOD9051136 Si02
#       8
#     2   2   2   2   2   2   2   2
#     4  11  25  47  80 112 148 201 263 313 381 461
#     4  11  26  45  74 114 148 192 256 322 373 446
#     4  12  24  48  82 109 152 198 263 309 379 462
#     4  10  25  45  70 113 151 193 245 315 384 453
#     4  12  28  46  72 111 156 199 258 322 387 451
#     4  11  25  48  75 107 154 205 250 318 387 463
#     4  11  25  48  73 109 150 201 253 308 383 456
#     4  10  25  45  73 104 148 198 250 305 386 447
#
# _framework density 24.974630999999999
#
# number of rings (size 3 to 8) (size 9 to 14) (size 15 to 20)
#    0.000    1.000    2.500    2.625    5.250    9.500 
#    0.000    0.000    0.000    0.000    0.000    0.000 
#    0.000    0.000    0.000    0.000    0.000    0.000 
#
# Total GULP energy -89448.282012 kJ/mol
# GULP energy per Si atom -5590.517626 kJ/mol
# Density = 2.491779 g / cm^3
# Si number density = 24.974631 Si / 1000 Ang^3
#
#
#
# Elastic Constant Matrix: (Units=GPa)
#
#
# Indices 1 2 3 4 5 6 
#
# 1 166.6799 46.6783 21.6981 16.5588 -1.1987 -17.0849
# 2 46.6783 187.1853 23.1163 12.7099 -0.9955 -15.5474
# 3 21.6981 23.1163 57.0543 5.5768 -1.8424 -5.5927
# 4 16.5588 12.7099 5.5768 49.3227 -2.1989 -5.6085
# 5 -1.1987 -0.9955 -1.8424 -2.1989 45.2312 -2.7605
# 6 -17.0849 -15.5474 -5.5927 -5.6085 -2.7605 50.5548
#
#
#
# Elastic Compliance Matrix: (Units=1/GPa)
#
#
# Indices 1 2 3 4 5 6 
#
# 1 0.006909 -0.001260 -0.001802 -0.001607 0.000100 0.001575
# 2 -0.001260 0.006025 -0.001770 -0.000797 0.000058 0.001146
# 3 -0.001802 -0.001770 0.019135 -0.000969 0.000700 0.000894
# 4 -0.001607 -0.000797 -0.000969 0.021349 0.001032 0.001529
# 5 0.000100 0.000058 0.000700 0.001032 0.022280 0.001460
# 6 0.001575 0.001146 0.000894 0.001529 0.001460 0.021014
#
#
# Mechanical properties :
#
#
# Convention : Reuss Voigt Hill
#
# Bulk Modulus (GPa) = 44.63410 65.98942 55.31176
# Shear Modulus (GPa) = 43.92018 50.31685 47.11852
#
# Velocity S-wave (km/s) = 4.19811 4.49343 4.34828
# Velocity P-wave (km/s) = 6.43501 7.30761 6.88515
#
# Compressibility (1/GPa) = 0.02240439
#
# Stress axis : x y z
#
# Youngs Moduli (GPa) = 144.74282 165.98643 52.26120
#
# Poissons Ratio (x) = 0.20910 0.09419
# Poissons Ratio (y) = 0.18234 0.09249
# Poissons Ratio (z) = 0.26087 0.29376
#
# Static dielectric constant tensor:
#      x y z
#    x 2.094590 -0.036910 -0.049040 
#    y -0.036910 1.949470 -0.033740 
#    z -0.049040 -0.033740 2.160900 
# 
# From -- ./inp_files/332835.got.cif
#   From: 2010.05.17/outbox.cif.g08.bks.cpg/sg2_167_cif.got.tgz:332835.got - 2010.06.03 11:33:40.
