data_PCOD9051275
_publ_section_title
;
Structure prediction by ZEFSAII (Michael W. Deem and Ramdas Pophale) SiO2 
 PCOD9051275
Probable space group: P -1
;
_chemical_formula_sum "Si O2"
_cell_formula_units_Z 14
_cell_length_a 14.615086
_cell_length_b 11.938886
_cell_length_c 8.744502
_cell_angle_alpha 68.009072
_cell_angle_beta 31.518846
_cell_angle_gamma 56.497044
_cell_volume 648.776737
_symmetry_space_group_name_H-M "P -1"
_symmetry_group_IT_number 2
_symmetry_cell_setting 'triclinic'
loop_
_space_group_symop_operation_xyz
x,y,z
-x,-y,-z
loop_
_atom_site_type_symbol
_atom_site_label
_atom_site_fract_x
_atom_site_fract_y
_atom_site_fract_z
Si Si1 0.727329 0.987511 0.883133
Si Si2 0.137312 0.314293 0.184786
Si Si3 0.693754 0.776288 0.675869
Si Si4 0.691137 0.499904 0.302723
Si Si5 0.073393 0.942571 0.175987
Si Si6 0.321094 0.478177 0.332159
Si Si7 0.028525 0.806995 0.028296
O O1 0.755948 0.838250 0.962258
O O2 0.902375 0.952530 0.528720
O O3 0.759070 0.060239 0.949786
O O4 0.519941 0.095398 0.050307
O O5 0.182508 0.289879 0.312958
O O6 0.899832 0.394564 0.452545
O O7 0.235805 0.403577 0.934975
O O8 0.671905 0.656393 0.683344
O O9 0.812230 0.833634 0.375998
O O10 0.500000 0.500000 0.500000
O O11 0.656651 0.537478 0.509826
O O12 0.863247 0.343346 0.119254
O O13 0.132020 0.823469 0.027534
O O14 0.985190 0.081719 0.130889
O O15 0.500000 0.500000 0.000000
#
# Coordination Sequence:
#
# PCOD9051275 Si02
#       7
#     2   2   2   2   2   2   2
#     4  11  26  45  74 108 143 194 244 296 364 424
#     4  12  26  50  74 108 154 188 242 303 360 435
#     4  12  27  44  73 109 150 191 243 294 369 431
#     4  12  29  47  76 106 146 192 245 303 367 430
#     4  10  25  45  74  99 148 189 245 298 355 432
#     4  12  29  48  76 107 146 195 246 299 369 434
#     4  11  25  47  69 106 147 190 244 299 360 427
#
# _framework density 21.579072
#
# number of rings (size 3 to 8) (size 9 to 14) (size 15 to 20)
#    0.000    0.571    2.857    3.000   14.000    1.714 
#    0.000    0.000    0.000    0.000    0.000    0.000 
#    0.000    0.000    0.000    0.000    0.000    0.000 
#
# Total GULP energy -78386.166829 kJ/mol
# GULP energy per Si atom -5599.011916 kJ/mol
# Density = 2.152996 g / cm^3
# Si number density = 21.579072 Si / 1000 Ang^3
#
#
#
# Elastic Constant Matrix: (Units=GPa)
#
#
# Indices 1 2 3 4 5 6 
#
# 1 127.5762 28.1106 30.8597 -3.8627 -7.6997 8.6465
# 2 28.1106 100.1384 29.0490 -15.5451 -7.4641 4.6694
# 3 30.8597 29.0490 61.1914 -16.1128 -12.4603 -3.2079
# 4 -3.8627 -15.5451 -16.1128 34.5343 -1.4150 -8.4455
# 5 -7.6997 -7.4641 -12.4603 -1.4150 29.9801 5.3709
# 6 8.6465 4.6694 -3.2079 -8.4455 5.3709 36.3254
#
#
#
# Elastic Compliance Matrix: (Units=1/GPa)
#
#
# Indices 1 2 3 4 5 6 
#
# 1 0.009504 -0.001484 -0.004843 -0.002622 0.000505 -0.003183
# 2 -0.001484 0.012209 -0.003958 0.003294 0.001348 -0.000999
# 3 -0.004843 -0.003958 0.025515 0.011215 0.007947 0.005347
# 4 -0.002622 0.003294 0.011215 0.037845 0.004935 0.009260
# 5 0.000505 0.001348 0.007947 0.004935 0.038087 -0.004076
# 6 -0.003183 -0.000999 0.005347 0.009260 -0.004076 0.031643
#
#
# Mechanical properties :
#
#
# Convention : Reuss Voigt Hill
#
# Bulk Modulus (GPa) = 37.51235 51.66049 44.58642
# Shear Modulus (GPa) = 27.13560 33.56040 30.34800
#
# Velocity S-wave (km/s) = 3.54997 3.94792 3.75422
# Velocity P-wave (km/s) = 5.85016 6.69130 6.28482
#
# Compressibility (1/GPa) = 0.02665788
#
# Stress axis : x y z
#
# Youngs Moduli (GPa) = 105.22147 81.90405 39.19249
#
# Poissons Ratio (x) = 0.12154 0.18981
# Poissons Ratio (y) = 0.15615 0.15513
# Poissons Ratio (z) = 0.50959 0.32419
#
# Static dielectric constant tensor:
#      x y z
#    x 1.803800 -0.000340 -0.082890 
#    y -0.000340 1.797970 0.119810 
#    z -0.082890 0.119810 2.052540 
# 
# From -- ./inp_files/156604.got.cif
#   From: 2010.05.17/outbox.cif.g08.bks.cpg/sg2_79_cif.got.tgz:156604.got - 2010.06.03 11:33:40.
