data_PCOD9051368
_publ_section_title
;
Structure prediction by ZEFSAII (Michael W. Deem and Ramdas Pophale) SiO2 
 PCOD9051368
Probable space group: P -1
;
_chemical_formula_sum "Si O2"
_cell_formula_units_Z 14
_cell_length_a 8.137877
_cell_length_b 15.267867
_cell_length_c 9.621100
_cell_angle_alpha 35.058427
_cell_angle_beta 121.939277
_cell_angle_gamma 108.560276
_cell_volume 566.328190
_symmetry_space_group_name_H-M "P -1"
_symmetry_group_IT_number 2
_symmetry_cell_setting 'triclinic'
loop_
_space_group_symop_operation_xyz
x,y,z
-x,-y,-z
loop_
_atom_site_type_symbol
_atom_site_label
_atom_site_fract_x
_atom_site_fract_y
_atom_site_fract_z
Si Si1 0.365950 0.124514 0.439973
Si Si2 0.871141 0.470588 0.845269
Si Si3 0.631933 0.355101 0.333184
Si Si4 0.671830 0.480147 0.485381
Si Si5 0.339274 0.168843 0.050239
Si Si6 0.074144 0.221725 0.620319
Si Si7 0.012477 0.845166 0.618456
O O1 0.543112 0.209599 0.436883
O O2 0.311604 0.127114 0.250831
O O3 0.175280 0.212312 0.326002
O O4 0.449876 0.943410 0.754307
O O5 0.872479 0.420166 0.745180
O O6 0.794466 0.658606 0.531063
O O7 0.000000 0.500000 0.000000
O O8 0.811259 0.312379 0.084251
O O9 0.626884 0.380224 0.464540
O O10 0.860851 0.330467 0.424104
O O11 0.500000 0.500000 0.000000
O O12 0.500000 0.500000 0.500000
O O13 0.673174 0.647755 0.202609
O O14 0.177460 0.136037 0.912729
O O15 0.034505 0.116679 0.612162
O O16 0.000000 0.000000 0.500000
#
# Coordination Sequence:
#
# PCOD9051368 Si02
#       7
#     2   2   2   2   2   2   2
#     4  11  26  45  72  99 145 184 227 294 347 419
#     4   9  22  42  68  96 134 177 226 283 336 401
#     4  12  26  44  72 104 142 182 233 287 355 411
#     4  11  26  42  73 102 136 182 237 287 339 419
#     4  10  25  47  68 101 142 182 234 286 354 409
#     4  10  25  46  69 100 140 181 233 288 343 421
#     4  11  26  42  72 100 139 184 233 282 348 412
#
# _framework density 24.720649999999999
#
# number of rings (size 3 to 8) (size 9 to 14) (size 15 to 20)
#    0.000    1.429    1.429    0.857   18.000    3.429 
#    0.000    0.000    0.000    0.000    0.000    0.000 
#    0.000    0.000    0.000    0.000    0.000    0.000 
#
# Total GULP energy -77990.520012 kJ/mol
# GULP energy per Si atom -5570.751429 kJ/mol
# Density = 2.466438 g / cm^3
# Si number density = 24.720650 Si / 1000 Ang^3
#
#
#
# Elastic Constant Matrix: (Units=GPa)
#
#
# Indices 1 2 3 4 5 6 
#
# 1 76.5645 21.3579 16.7050 12.2766 13.8798 -9.3311
# 2 21.3579 209.3875 65.9476 40.0527 -10.1813 -11.0384
# 3 16.7050 65.9476 128.6731 38.4758 7.9367 0.2805
# 4 12.2766 40.0527 38.4758 56.4734 2.3707 -14.4914
# 5 13.8798 -10.1813 7.9367 2.3707 22.7430 -4.6096
# 6 -9.3311 -11.0384 0.2805 -14.4914 -4.6096 39.6069
#
#
#
# Elastic Compliance Matrix: (Units=1/GPa)
#
#
# Indices 1 2 3 4 5 6 
#
# 1 0.015764 -0.001699 -0.000197 -0.001255 -0.009850 0.001636
# 2 -0.001699 0.006610 -0.002818 -0.002307 0.005474 0.001255
# 3 -0.000197 -0.002818 0.011557 -0.006625 -0.005285 -0.003953
# 4 -0.001255 -0.002307 -0.006625 0.026363 0.001097 0.008882
# 5 -0.009850 0.005474 -0.005285 0.001097 0.055396 0.006091
# 6 0.001636 0.001255 -0.003953 0.008882 0.006091 0.029970
#
#
# Mechanical properties :
#
#
# Convention : Reuss Voigt Hill
#
# Bulk Modulus (GPa) = 40.80919 69.18290 54.99604
# Shear Modulus (GPa) = 30.62699 44.47232 37.54965
#
# Velocity S-wave (km/s) = 3.52365 4.24606 3.90161
# Velocity P-wave (km/s) = 5.75316 7.21701 6.52626
#
# Compressibility (1/GPa) = 0.02450429
#
# Stress axis : x y z
#
# Youngs Moduli (GPa) = 63.43620 151.28108 86.52731
#
# Poissons Ratio (x) = 0.25697 0.01703
# Poissons Ratio (y) = 0.10775 0.24383
# Poissons Ratio (z) = 0.01249 0.42631
#
# Static dielectric constant tensor:
#      x y z
#    x 2.161390 0.074070 0.167370 
#    y 0.074070 2.004450 0.009930 
#    z 0.167370 0.009930 2.090450 
# 
# From -- ./inp_files/178290.got.cif
#   From: 2010.05.17/outbox.cif.g08.bks.cpg/sg2_90_cif.got.tgz:178290.got - 2010.06.03 11:33:40.
