data_PCOD9051742
_publ_section_title
;
Structure prediction by ZEFSAII (Michael W. Deem and Ramdas Pophale) SiO2 
 PCOD9051742
Probable space group: P -1
;
_chemical_formula_sum "Si O2"
_cell_formula_units_Z 13
_cell_length_a 8.190980
_cell_length_b 11.928959
_cell_length_c 19.073374
_cell_angle_alpha 145.688037
_cell_angle_beta 34.223017
_cell_angle_gamma 144.763829
_cell_volume 535.630002
_symmetry_space_group_name_H-M "P -1"
_symmetry_group_IT_number 2
_symmetry_cell_setting 'triclinic'
loop_
_space_group_symop_operation_xyz
x,y,z
-x,-y,-z
loop_
_atom_site_type_symbol
_atom_site_label
_atom_site_fract_x
_atom_site_fract_y
_atom_site_fract_z
Si Si1 0.887357 0.049835 0.991004
Si Si2 0.314769 0.408463 0.444297
Si Si3 0.000000 0.500000 0.500000
Si Si4 0.865172 0.258238 0.888128
Si Si5 0.999007 0.548318 0.212535
Si Si6 0.150439 0.893018 0.447194
Si Si7 0.138386 0.959717 0.710605
O O1 0.501344 0.908527 0.048878
O O2 0.047598 0.987127 0.836067
O O3 0.002136 0.312208 0.082426
O O4 0.000000 0.000000 0.000000
O O5 0.500000 0.500000 0.500000
O O6 0.106474 0.542759 0.566134
O O7 0.627226 0.489702 0.325796
O O8 0.075643 0.173711 0.439836
O O9 0.922111 0.715870 0.632813
O O10 0.880388 0.306490 0.824795
O O11 0.087031 0.145174 0.780421
O O12 0.000000 0.500000 0.000000
O O13 0.171317 0.688945 0.292393
O O14 0.509398 0.033528 0.417554
O O15 0.000000 0.000000 0.500000
#
# Coordination Sequence:
#
# PCOD9051742 Si02
#       7
#     2   2   1   2   2   2   2
#     4  12  29  49  82 114 156 214 263 330 399 475
#     4  10  25  47  74 106 156 201 256 328 386 474
#     4  12  28  46  76 108 162 202 266 318 406 470
#     4  12  28  49  78 116 161 201 263 327 401 475
#     4  11  26  50  77 108 159 202 265 330 395 470
#     4  11  27  48  79 114 153 208 269 324 397 484
#     4  12  28  49  79 117 158 208 265 329 407 472
#
# _framework density 24.270484
#
# number of rings (size 3 to 8) (size 9 to 14) (size 15 to 20)
#    0.000    0.615    1.538    4.154   17.231    1.846 
#    0.000    0.000    0.000    0.000    0.000    0.000 
#    0.000    0.000    0.000    0.000    0.000    0.000 
#
# Total GULP energy -72464.333675 kJ/mol
# GULP energy per Si atom -5574.179513 kJ/mol
# Density = 2.421524 g / cm^3
# Si number density = 24.270484 Si / 1000 Ang^3
#
#
#
# Elastic Constant Matrix: (Units=GPa)
#
#
# Indices 1 2 3 4 5 6 
#
# 1 99.9917 5.5449 -2.3901 1.8053 -16.5089 -39.7214
# 2 5.5449 61.9446 27.1973 3.1422 -5.5112 -22.1209
# 3 -2.3901 27.1973 72.8992 29.6297 9.6375 -22.3184
# 4 1.8053 3.1422 29.6297 59.5688 2.7804 -5.8010
# 5 -16.5089 -5.5112 9.6375 2.7804 49.1061 2.5507
# 6 -39.7214 -22.1209 -22.3184 -5.8010 2.5507 64.1451
#
#
#
# Elastic Compliance Matrix: (Units=1/GPa)
#
#
# Indices 1 2 3 4 5 6 
#
# 1 0.014874 0.001483 0.003129 -0.001250 0.004076 0.010536
# 2 0.001483 0.021863 -0.008217 0.003256 0.004083 0.005731
# 3 0.003129 -0.008217 0.023802 -0.010659 -0.004280 0.006592
# 4 -0.001250 0.003256 -0.010659 0.021775 0.000878 -0.001425
# 5 0.004076 0.004083 -0.004280 0.000878 0.022899 0.001612
# 6 0.010536 0.005731 0.006592 -0.001425 0.001612 0.026191
#
#
# Mechanical properties :
#
#
# Convention : Reuss Voigt Hill
#
# Bulk Modulus (GPa) = 18.75108 32.83773 25.79441
# Shear Modulus (GPa) = 31.97122 48.19623 40.08372
#
# Velocity S-wave (km/s) = 3.63338 4.46106 4.06833
# Velocity P-wave (km/s) = 5.03434 6.33199 5.72008
#
# Compressibility (1/GPa) = 0.05333026
#
# Stress axis : x y z
#
# Youngs Moduli (GPa) = 67.23008 45.73919 42.01353
#
# Poissons Ratio (x) = -0.06784 -0.13145
# Poissons Ratio (y) = -0.09972 0.34521
# Poissons Ratio (z) = -0.21035 0.37582
#
# Static dielectric constant tensor:
#      x y z
#    x -16.900900 1.765730 -9.157870 
#    y 1.765730 1.923080 0.889870 
#    z -9.157870 0.889870 -2.481110 
# 
# From -- ./inp_files/487859.got.cif
#   From: 2010.05.17/outbox.cif.g08.bks.cpg/sg2_244_cif.got.tgz:487859.got - 2010.06.03 11:33:40.
