data_PCOD9051796
_publ_section_title
;
Structure prediction by ZEFSAII (Michael W. Deem and Ramdas Pophale) SiO2 
 PCOD9051796
Probable space group: P -1
;
_chemical_formula_sum "Si O2"
_cell_formula_units_Z 14
_cell_length_a 21.064078
_cell_length_b 5.598621
_cell_length_c 8.714013
_cell_angle_alpha 63.079050
_cell_angle_beta 140.610165
_cell_angle_gamma 122.401759
_cell_volume 549.171909
_symmetry_space_group_name_H-M "P -1"
_symmetry_group_IT_number 2
_symmetry_cell_setting 'triclinic'
loop_
_space_group_symop_operation_xyz
x,y,z
-x,-y,-z
loop_
_atom_site_type_symbol
_atom_site_label
_atom_site_fract_x
_atom_site_fract_y
_atom_site_fract_z
Si Si1 0.789177 0.948953 0.565216
Si Si2 0.983719 0.063791 0.701275
Si Si3 0.517805 0.903971 0.390254
Si Si4 0.094807 0.703366 0.817049
Si Si5 0.387236 0.536694 0.772015
Si Si6 0.265460 0.114037 0.172917
Si Si7 0.296689 0.613253 0.894131
O O1 0.689229 0.675468 0.425150
O O2 0.785493 0.982452 0.729563
O O3 0.894115 0.914291 0.701228
O O4 0.767874 0.201505 0.355547
O O5 0.928548 0.162517 0.424068
O O6 0.052622 0.364937 0.819154
O O7 0.034795 0.837574 0.792753
O O8 0.606125 0.748784 0.620296
O O9 0.500000 0.000000 0.500000
O O10 0.588389 0.150163 0.337288
O O11 0.404472 0.796013 0.127039
O O12 0.218674 0.841538 0.054225
O O13 0.334919 0.479790 0.856791
O O14 0.500000 0.500000 0.000000
O O15 0.231447 0.362206 0.956243
#
# Coordination Sequence:
#
# PCOD9051796 Si02
#       7
#     2   2   2   2   2   2   2
#     4  12  27  46  75 108 145 197 246 305 379 446
#     4  10  25  47  79 108 149 199 249 312 387 448
#     4  12  25  44  71 108 151 193 246 307 369 449
#     4  10  25  48  78 111 148 196 254 313 379 453
#     4  12  23  44  72 100 146 198 243 298 369 444
#     4  12  27  46  73 110 146 194 250 311 372 446
#     4  12  26  47  70 103 152 193 243 302 372 451
#
# _framework density 25.492927000000002
#
# number of rings (size 3 to 8) (size 9 to 14) (size 15 to 20)
#    0.000    0.571    2.857    4.286   10.000    2.286 
#    0.000    0.000    0.000    0.000    0.000    0.000 
#    0.000    0.000    0.000    0.000    0.000    0.000 
#
# Total GULP energy -78427.826822 kJ/mol
# GULP energy per Si atom -5601.987630 kJ/mol
# Density = 2.543490 g / cm^3
# Si number density = 25.492927 Si / 1000 Ang^3
#
#
#
# Elastic Constant Matrix: (Units=GPa)
#
#
# Indices 1 2 3 4 5 6 
#
# 1 143.2492 33.7161 48.6535 -8.2117 4.4517 -4.4945
# 2 33.7161 79.2186 29.9409 2.7537 -14.5053 2.2694
# 3 48.6535 29.9409 120.4573 12.3498 -27.7423 -0.5000
# 4 -8.2117 2.7537 12.3498 57.3931 -2.3722 -6.5250
# 5 4.4517 -14.5053 -27.7423 -2.3722 41.2028 -0.0728
# 6 -4.4945 2.2694 -0.5000 -6.5250 -0.0728 32.8608
#
#
#
# Elastic Compliance Matrix: (Units=1/GPa)
#
#
# Indices 1 2 3 4 5 6 
#
# 1 0.009701 -0.003524 -0.004481 0.002535 -0.005157 0.001994
# 2 -0.003524 0.015578 -0.001205 -0.000986 0.004994 -0.001761
# 3 -0.004481 -0.001205 0.012657 -0.003065 0.008404 -0.000927
# 4 0.002535 -0.000986 -0.003065 0.018896 -0.001590 0.004117
# 5 -0.005157 0.004994 0.008404 -0.001590 0.032150 -0.001167
# 6 0.001994 -0.001761 -0.000927 0.004117 -0.001167 0.031626
#
#
# Mechanical properties :
#
#
# Convention : Reuss Voigt Hill
#
# Bulk Modulus (GPa) = 51.24300 63.06068 57.15184
# Shear Modulus (GPa) = 34.35647 41.66566 38.01106
#
# Velocity S-wave (km/s) = 3.67507 4.04716 3.86559
# Velocity P-wave (km/s) = 6.17678 6.82858 6.51085
#
# Compressibility (1/GPa) = 0.01951486
#
# Stress axis : x y z
#
# Youngs Moduli (GPa) = 103.08723 64.19441 79.00727
#
# Poissons Ratio (x) = 0.22624 0.35406
# Poissons Ratio (y) = 0.36331 0.09517
# Poissons Ratio (z) = 0.46197 0.07732
#
# Static dielectric constant tensor:
#      x y z
#    x 2.065470 -0.205990 0.108330 
#    y -0.205990 2.242410 -0.174580 
#    z 0.108330 -0.174580 2.086120 
# 
# From -- ./inp_files/135179.got.cif
#   From: 2010.05.17/outbox.cif.g08.bks.cpg/sg2_68_cif.got.tgz:135179.got - 2010.06.03 11:33:40.
