data_PCOD9051554
_publ_section_title
;
Structure prediction by ZEFSAII (Michael W. Deem and Ramdas Pophale) SiO2 
 PCOD9051554
Probable space group: P -1
;
_chemical_formula_sum "Si O2"
_cell_formula_units_Z 15
_cell_length_a 8.474329
_cell_length_b 11.985731
_cell_length_c 12.138477
_cell_angle_alpha 35.367585
_cell_angle_beta 90.811440
_cell_angle_gamma 110.370838
_cell_volume 580.521816
_symmetry_space_group_name_H-M "P -1"
_symmetry_group_IT_number 2
_symmetry_cell_setting 'triclinic'
loop_
_space_group_symop_operation_xyz
x,y,z
-x,-y,-z
loop_
_atom_site_type_symbol
_atom_site_label
_atom_site_fract_x
_atom_site_fract_y
_atom_site_fract_z
Si Si1 0.695886 0.126828 0.966916
Si Si2 0.000000 0.500000 0.000000
Si Si3 0.849024 0.668285 0.528017
Si Si4 0.702065 0.877174 0.528966
Si Si5 0.930655 0.647711 0.317740
Si Si6 0.261511 0.092592 0.243876
Si Si7 0.744785 0.502561 0.195142
Si Si8 0.678538 0.204175 0.134539
O O1 0.760593 0.395826 0.767455
O O2 0.862604 0.129107 0.904238
O O3 0.673186 0.057628 0.149249
O O4 0.500000 0.000000 0.000000
O O5 0.097506 0.477268 0.900037
O O6 0.175002 0.519170 0.064283
O O7 0.761159 0.764525 0.529873
O O8 0.824205 0.687583 0.381087
O O9 0.079476 0.836564 0.413212
O O10 0.762700 0.874350 0.654854
O O11 0.469039 0.736340 0.635208
O O12 0.786154 0.148889 0.276232
O O13 0.000000 0.500000 0.500000
O O14 0.804779 0.528737 0.302768
O O15 0.463708 0.125127 0.210939
O O16 0.269087 0.283778 0.012488
#
# Coordination Sequence:
#
# PCOD9051554 Si02
#       8
#     2   1   2   2   2   2   2   2
#     4  11  25  47  76 107 147 199 253 308 378 449
#     4  12  26  46  78 108 150 196 250 310 386 432
#     4  11  27  48  77 106 155 198 248 318 375 442
#     4  12  28  46  74 116 152 197 254 309 378 454
#     4  10  25  46  75 106 146 197 252 309 371 447
#     4  12  27  49  74 114 154 198 252 312 381 453
#     4  12  27  48  78 111 153 196 254 311 381 451
#     4  12  27  45  77 110 150 201 253 310 381 448
#
# _framework density 25.838823000000001
#
# number of rings (size 3 to 8) (size 9 to 14) (size 15 to 20)
#    0.000    0.533    2.667    3.600   11.200    1.067 
#    2.400    0.000    0.000    0.000    0.000    0.000 
#    0.000    0.000    0.000    0.000    0.000    0.000 
#
# Total GULP energy -83863.024268 kJ/mol
# GULP energy per Si atom -5590.868285 kJ/mol
# Density = 2.578001 g / cm^3
# Si number density = 25.838823 Si / 1000 Ang^3
#
#
#
# Elastic Constant Matrix: (Units=GPa)
#
#
# Indices 1 2 3 4 5 6 
#
# 1 63.3101 30.3339 40.5414 -1.1926 -10.3265 2.0798
# 2 30.3339 178.8122 38.0808 38.0469 -0.3753 26.5356
# 3 40.5414 38.0808 80.4917 6.2249 20.3109 5.8967
# 4 -1.1926 38.0469 6.2249 50.1812 5.2975 -13.4978
# 5 -10.3265 -0.3753 20.3109 5.2975 51.6291 -0.3740
# 6 2.0798 26.5356 5.8967 -13.4978 -0.3740 61.3550
#
#
#
# Elastic Compliance Matrix: (Units=1/GPa)
#
#
# Indices 1 2 3 4 5 6 
#
# 1 0.030634 -0.002746 -0.017898 0.004477 0.012710 0.002932
# 2 -0.002746 0.009095 -0.002179 -0.008280 0.001184 -0.005445
# 3 -0.017898 -0.002179 0.026107 -0.000890 -0.013784 -0.001240
# 4 0.004477 -0.008280 -0.000890 0.029282 -0.001747 0.009946
# 5 0.012710 0.001184 -0.013784 -0.001747 0.027523 0.000165
# 6 0.002932 -0.005445 -0.001240 0.009946 0.000165 0.020863
#
#
# Mechanical properties :
#
#
# Convention : Reuss Voigt Hill
#
# Bulk Modulus (GPa) = 49.53316 60.05846 54.79581
# Shear Modulus (GPa) = 25.52581 46.87693 36.20137
#
# Velocity S-wave (km/s) = 3.14648 4.26397 3.74712
# Velocity P-wave (km/s) = 5.69316 6.89463 6.32250
#
# Compressibility (1/GPa) = 0.02018850
#
# Stress axis : x y z
#
# Youngs Moduli (GPa) = 32.64395 109.95290 38.30335
#
# Poissons Ratio (x) = 0.30193 0.68557
# Poissons Ratio (y) = 0.08964 0.08347
# Poissons Ratio (z) = 0.58427 0.23962
#
# Static dielectric constant tensor:
#      x y z
#    x 2.048280 0.170660 -0.203160 
#    y 0.170660 2.490710 -0.330640 
#    z -0.203160 -0.330640 2.901490 
# 
# From -- ./inp_files/388842.got.cif
#   From: 2010.05.17/outbox.cif.g08.bks.cpg/sg2_195_cif.got.tgz:388842.got - 2010.06.03 11:33:40.
