data_PCOD9051798
_publ_section_title
;
Structure prediction by ZEFSAII (Michael W. Deem and Ramdas Pophale) SiO2 
 PCOD9051798
Probable space group: P -1
;
_chemical_formula_sum "Si O2"
_cell_formula_units_Z 16
_cell_length_a 21.728735
_cell_length_b 5.584774
_cell_length_c 8.799156
_cell_angle_alpha 116.623127
_cell_angle_beta 49.115754
_cell_angle_gamma 130.164726
_cell_volume 616.292135
_symmetry_space_group_name_H-M "P -1"
_symmetry_group_IT_number 2
_symmetry_cell_setting 'triclinic'
loop_
_space_group_symop_operation_xyz
x,y,z
-x,-y,-z
loop_
_atom_site_type_symbol
_atom_site_label
_atom_site_fract_x
_atom_site_fract_y
_atom_site_fract_z
Si Si1 0.210981 0.664693 0.125443
Si Si2 0.360750 0.232129 0.891579
Si Si3 0.402515 0.773253 0.176683
Si Si4 0.444115 0.661678 0.414757
Si Si5 0.216442 0.709186 0.480597
Si Si6 0.061664 0.194598 0.737932
Si Si7 0.961260 0.511722 0.828689
Si Si8 0.254704 0.205910 0.769736
O O1 0.190419 0.660020 0.333666
O O2 0.137147 0.714299 0.163168
O O3 0.200540 0.349946 0.983879
O O4 0.319334 0.939478 0.989639
O O5 0.473393 0.420437 0.730212
O O6 0.302779 0.108015 0.794807
O O7 0.343006 0.479027 0.076906
O O8 0.425253 0.674906 0.271597
O O9 0.331192 0.894496 0.356770
O O10 0.500000 0.000000 0.000000
O O11 0.344160 0.469076 0.605734
O O12 0.500000 0.000000 0.500000
O O13 0.169484 0.382871 0.554039
O O14 0.188959 0.925335 0.682836
O O15 0.008757 0.310896 0.740855
O O16 0.058478 0.348629 0.946902
O O17 0.018648 0.825448 0.721017
#
# Coordination Sequence:
#
# PCOD9051798 Si02
#       8
#     2   2   2   2   2   2   2   2
#     4  12  27  47  73 110 146 193 247 313 377 450
#     4  12  24  46  71  99 150 196 246 313 376 445
#     4  12  25  45  71 108 151 192 251 309 371 448
#     4  12  23  41  68 101 143 195 248 304 372 447
#     4  12  27  47  75 110 145 199 250 305 378 461
#     4  10  25  48  79 114 149 203 251 313 389 461
#     4  10  25  47  80 110 157 194 251 323 386 451
#     4  12  26  46  71 104 146 194 251 308 375 448
#
# _framework density 25.961713
#
# number of rings (size 3 to 8) (size 9 to 14) (size 15 to 20)
#    0.000    0.500    2.500    5.250    8.750    2.000 
#    0.000    0.000    0.000    0.000    0.000    0.000 
#    0.000    0.000    0.000    0.000    0.000    0.000 
#
# Total GULP energy -89708.716133 kJ/mol
# GULP energy per Si atom -5606.794758 kJ/mol
# Density = 2.590262 g / cm^3
# Si number density = 25.961713 Si / 1000 Ang^3
#
#
#
# Elastic Constant Matrix: (Units=GPa)
#
#
# Indices 1 2 3 4 5 6 
#
# 1 118.0728 13.1619 33.9033 -2.6239 10.1869 2.9349
# 2 13.1619 106.9549 51.7912 -15.9889 12.8156 -0.2260
# 3 33.9033 51.7912 126.6610 -7.2888 23.7675 -1.6383
# 4 -2.6239 -15.9889 -7.2888 63.3552 -2.9459 -1.2208
# 5 10.1869 12.8156 23.7675 -2.9459 36.7216 -4.6009
# 6 2.9349 -0.2260 -1.6383 -1.2208 -4.6009 29.4762
#
#
#
# Elastic Compliance Matrix: (Units=1/GPa)
#
#
# Indices 1 2 3 4 5 6 
#
# 1 0.009259 0.000139 -0.002308 0.000070 -0.001273 -0.001245
# 2 0.000139 0.012073 -0.004631 0.002465 -0.001088 -0.000246
# 3 -0.002308 -0.004631 0.011354 -0.000195 -0.005105 0.000020
# 4 0.000070 0.002465 -0.000195 0.016432 0.000663 0.000785
# 5 -0.001273 -0.001088 -0.005105 0.000663 0.031929 0.004846
# 6 -0.001245 -0.000246 0.000020 0.000785 0.004846 0.034838
#
#
# Mechanical properties :
#
#
# Convention : Reuss Voigt Hill
#
# Bulk Modulus (GPa) = 52.39812 61.04460 56.72136
# Shear Modulus (GPa) = 36.80569 42.76610 39.78589
#
# Velocity S-wave (km/s) = 3.76931 4.06307 3.91894
# Velocity P-wave (km/s) = 6.25861 6.75098 6.50945
#
# Compressibility (1/GPa) = 0.01908465
#
# Stress axis : x y z
#
# Youngs Moduli (GPa) = 108.00267 82.82609 88.07819
#
# Poissons Ratio (x) = -0.01149 0.20330
# Poissons Ratio (y) = -0.01498 0.40790
# Poissons Ratio (z) = 0.24929 0.38358
#
# Static dielectric constant tensor:
#      x y z
#    x 2.044150 -0.072190 -0.072430 
#    y -0.072190 2.076410 0.035940 
#    z -0.072430 0.035940 2.041500 
# 
# From -- ./inp_files/340549.got.cif
#   From: 2010.05.17/outbox.cif.g08.bks.cpg/sg2_171_cif.got.tgz:340549.got - 2010.06.03 11:33:40.
