data_PCOD9051685
_publ_section_title
;
Structure prediction by ZEFSAII (Michael W. Deem and Ramdas Pophale) SiO2 
 PCOD9051685
Probable space group: P -1
;
_chemical_formula_sum "Si O2"
_cell_formula_units_Z 16
_cell_length_a 6.058452
_cell_length_b 14.090227
_cell_length_c 11.178103
_cell_angle_alpha 107.899029
_cell_angle_beta 50.952571
_cell_angle_gamma 92.625688
_cell_volume 690.954496
_symmetry_space_group_name_H-M "P -1"
_symmetry_group_IT_number 2
_symmetry_cell_setting 'triclinic'
loop_
_space_group_symop_operation_xyz
x,y,z
-x,-y,-z
loop_
_atom_site_type_symbol
_atom_site_label
_atom_site_fract_x
_atom_site_fract_y
_atom_site_fract_z
Si Si1 0.295900 0.430237 0.911790
Si Si2 0.345724 0.410089 0.170016
Si Si3 0.814300 0.030927 0.882208
Si Si4 0.900403 0.861858 0.624874
Si Si5 0.289840 0.609770 0.600141
Si Si6 0.357891 0.767635 0.844687
Si Si7 0.488319 0.257735 0.622736
Si Si8 0.772993 0.922556 0.437369
O O1 0.537508 0.488385 0.798266
O O2 0.309482 0.320043 0.811901
O O3 0.323706 0.418410 0.038483
O O4 0.000000 0.500000 0.000000
O O5 0.558147 0.306610 0.099014
O O6 0.029135 0.408319 0.327236
O O7 0.937233 0.078866 0.740674
O O8 0.973937 0.914677 0.745938
O O9 0.828886 0.119151 0.010881
O O10 0.500000 0.000000 0.000000
O O11 0.659419 0.796094 0.707098
O O12 0.785922 0.936535 0.581457
O O13 0.208115 0.802051 0.452666
O O14 0.500000 0.500000 0.500000
O O15 0.256901 0.691614 0.753562
O O16 0.427156 0.665955 0.472080
O O17 0.306966 0.186196 0.593692
O O18 0.500000 0.000000 0.500000
#
# Coordination Sequence:
#
# PCOD9051685 Si02
#       8
#     2   2   2   2   2   2   2   2
#     4  11  27  46  67 104 144 188 246 302 365 438
#     4  11  25  44  71  99 141 189 239 297 375 422
#     4  10  25  47  72 102 145 185 235 296 363 430
#     4  11  24  48  70 105 145 187 245 295 364 440
#     4  12  26  46  72 106 143 189 245 301 358 440
#     4  11  24  45  70 104 146 187 237 301 362 436
#     4  12  26  44  73 104 143 189 241 298 365 431
#     4  12  26  45  76 108 143 190 240 300 367 434
#
# _framework density 23.156372000000001
#
# number of rings (size 3 to 8) (size 9 to 14) (size 15 to 20)
#    0.000    0.750    3.750    2.625    7.000    2.000 
#    0.000    1.875    0.000    0.000    0.000    0.000 
#    0.000    0.000    0.000    0.000    0.000    0.000 
#
# Total GULP energy -89177.287003 kJ/mol
# GULP energy per Si atom -5573.580438 kJ/mol
# Density = 2.310367 g / cm^3
# Si number density = 23.156372 Si / 1000 Ang^3
#
#
#
# Elastic Constant Matrix: (Units=GPa)
#
#
# Indices 1 2 3 4 5 6 
#
# 1 66.4217 28.5974 26.6657 7.1070 18.5210 7.8744
# 2 28.5974 97.6682 16.7184 -16.5250 5.4465 15.4142
# 3 26.6657 16.7184 86.3870 13.2296 11.3470 10.2497
# 4 7.1070 -16.5250 13.2296 58.5703 11.0859 -2.4731
# 5 18.5210 5.4465 11.3470 11.0859 32.1199 -1.3122
# 6 7.8744 15.4142 10.2497 -2.4731 -1.3122 50.7669
#
#
#
# Elastic Compliance Matrix: (Units=1/GPa)
#
#
# Indices 1 2 3 4 5 6 
#
# 1 0.022032 -0.005218 -0.004115 -0.001391 -0.009940 -0.001327
# 2 -0.005218 0.013227 -0.001268 0.004630 -0.000496 -0.002738
# 3 -0.004115 -0.001268 0.013946 -0.002818 -0.001447 -0.001967
# 4 -0.001391 0.004630 -0.002818 0.020329 -0.005995 0.000214
# 5 -0.009940 -0.000496 -0.001447 -0.005995 0.039640 0.002717
# 6 -0.001327 -0.002738 -0.001967 0.000214 0.002717 0.021213
#
#
# Mechanical properties :
#
#
# Convention : Reuss Voigt Hill
#
# Bulk Modulus (GPa) = 35.71099 43.82669 39.76884
# Shear Modulus (GPa) = 31.07086 40.19111 35.63099
#
# Velocity S-wave (km/s) = 3.66701 4.17062 3.92690
# Velocity P-wave (km/s) = 5.77793 6.49304 6.14589
#
# Compressibility (1/GPa) = 0.02800259
#
# Stress axis : x y z
#
# Youngs Moduli (GPa) = 45.38943 75.60438 71.70334
#
# Poissons Ratio (x) = 0.39452 0.29504
# Poissons Ratio (y) = 0.23685 0.09093
# Poissons Ratio (z) = 0.18677 0.09587
#
# Static dielectric constant tensor:
#      x y z
#    x 1.802750 0.025620 -0.060800 
#    y 0.025620 1.894160 0.009860 
#    z -0.060800 0.009860 1.733790 
# 
# From -- ./inp_files/367839.got.cif
#   From: 2010.05.17/outbox.cif.g08.bks.cpg/sg2_184_cif.got.tgz:367839.got - 2010.06.03 11:33:40.
