data_PCOD9051747
_publ_section_title
;
Structure prediction by ZEFSAII (Michael W. Deem and Ramdas Pophale) SiO2 
 PCOD9051747
Probable space group: P -1
;
_chemical_formula_sum "Si O2"
_cell_formula_units_Z 14
_cell_length_a 8.982925
_cell_length_b 9.240339
_cell_length_c 11.982336
_cell_angle_alpha 73.438817
_cell_angle_beta 49.562348
_cell_angle_gamma 50.240487
_cell_volume 567.433014
_symmetry_space_group_name_H-M "P -1"
_symmetry_group_IT_number 2
_symmetry_cell_setting 'triclinic'
loop_
_space_group_symop_operation_xyz
x,y,z
-x,-y,-z
loop_
_atom_site_type_symbol
_atom_site_label
_atom_site_fract_x
_atom_site_fract_y
_atom_site_fract_z
Si Si1 0.888512 0.525606 0.168790
Si Si2 0.201781 0.613974 0.255130
Si Si3 0.341011 0.217218 0.574416
Si Si4 0.061043 0.795295 0.516022
Si Si5 0.291713 0.698353 0.662356
Si Si6 0.138830 0.936541 0.066930
Si Si7 0.669859 0.754576 0.805941
O O1 0.724268 0.726928 0.274279
O O2 0.717032 0.462041 0.246907
O O3 0.130990 0.373600 0.163251
O O4 0.000000 0.500000 0.000000
O O5 0.204032 0.688715 0.357078
O O6 0.210758 0.736630 0.126873
O O7 0.372664 0.385518 0.205919
O O8 0.928407 0.671053 0.371558
O O9 0.477218 0.300906 0.447379
O O10 0.500000 0.000000 0.500000
O O11 0.228097 0.694810 0.565738
O O12 0.811559 0.812718 0.651184
O O13 0.000000 0.000000 0.500000
O O14 0.060780 0.899829 0.785274
O O15 0.387775 0.920942 0.946329
O O16 0.000000 0.000000 0.000000
#
# Coordination Sequence:
#
# PCOD9051747 Si02
#       7
#     2   2   2   2   2   2   2
#     4  10  25  47  74 109 150 191 243 309 378 433
#     4  11  24  48  74 104 139 195 247 297 372 439
#     4  11  22  44  71 104 143 189 242 295 356 444
#     4  11  22  45  70 104 140 182 243 303 362 430
#     4  11  25  45  70 108 144 189 247 300 372 432
#     4  12  27  45  72 108 150 193 246 302 370 442
#     4  10  26  47  72 105 148 192 244 300 369 442
#
# _framework density 24.672516999999999
#
# number of rings (size 3 to 8) (size 9 to 14) (size 15 to 20)
#    0.000    1.143    2.857    1.286    6.000    4.571 
#    5.143    0.000    0.000    0.000    0.000    0.000 
#    0.000    0.000    0.000    0.000    0.000    0.000 
#
# Total GULP energy -78361.474684 kJ/mol
# GULP energy per Si atom -5597.248192 kJ/mol
# Density = 2.461636 g / cm^3
# Si number density = 24.672517 Si / 1000 Ang^3
#
#
#
# Elastic Constant Matrix: (Units=GPa)
#
#
# Indices 1 2 3 4 5 6 
#
# 1 100.1603 33.7132 68.4101 -18.3797 -12.2692 10.0900
# 2 33.7132 105.5232 66.3699 -3.0843 9.5685 30.3328
# 3 68.4101 66.3699 181.2663 -17.5720 0.7581 6.2333
# 4 -18.3797 -3.0843 -17.5720 42.5721 0.8100 -2.8816
# 5 -12.2692 9.5685 0.7581 0.8100 49.2392 8.4195
# 6 10.0900 30.3328 6.2333 -2.8816 8.4195 38.5914
#
#
#
# Elastic Compliance Matrix: (Units=1/GPa)
#
#
# Indices 1 2 3 4 5 6 
#
# 1 0.015354 -0.001351 -0.004807 0.004266 0.004581 -0.002857
# 2 -0.001351 0.016810 -0.005464 -0.002394 -0.001456 -0.011838
# 3 -0.004807 -0.005464 0.009350 0.001706 -0.001060 0.004400
# 4 0.004266 -0.002394 0.001706 0.026004 0.000684 0.002284
# 5 0.004581 -0.001456 -0.001060 0.000684 0.022551 -0.004751
# 6 -0.002857 -0.011838 0.004400 0.002284 -0.004751 0.036460
#
#
# Mechanical properties :
#
#
# Convention : Reuss Voigt Hill
#
# Bulk Modulus (GPa) = 54.73758 80.43737 67.58748
# Shear Modulus (GPa) = 32.07964 40.64432 36.36198
#
# Velocity S-wave (km/s) = 3.60976 4.06316 3.84316
# Velocity P-wave (km/s) = 6.29346 7.39494 6.86633
#
# Compressibility (1/GPa) = 0.01826898
#
# Stress axis : x y z
#
# Youngs Moduli (GPa) = 65.13000 59.49005 106.95203
#
# Poissons Ratio (x) = 0.08040 0.51413
# Poissons Ratio (y) = 0.08802 0.58435
# Poissons Ratio (z) = 0.31309 0.32503
#
# Static dielectric constant tensor:
#      x y z
#    x 1.954130 -0.007380 0.049980 
#    y -0.007380 2.119080 0.078750 
#    z 0.049980 0.078750 1.897320 
# 
# From -- ./inp_files/205358.got.cif
#   From: 2010.05.17/outbox.cif.g08.bks.cpg/sg2_103_cif.got.tgz:205358.got - 2010.06.03 11:33:40.
