data_PCOD9051704
_publ_section_title
;
Structure prediction by ZEFSAII (Michael W. Deem and Ramdas Pophale) SiO2 
 PCOD9051704
Probable space group: P -1
;
_chemical_formula_sum "Si O2"
_cell_formula_units_Z 15
_cell_length_a 7.913355
_cell_length_b 5.238465
_cell_length_c 20.641158
_cell_angle_alpha 63.800476
_cell_angle_beta 44.225927
_cell_angle_gamma 65.127083
_cell_volume 528.016166
_symmetry_space_group_name_H-M "P -1"
_symmetry_group_IT_number 2
_symmetry_cell_setting 'triclinic'
loop_
_space_group_symop_operation_xyz
x,y,z
-x,-y,-z
loop_
_atom_site_type_symbol
_atom_site_label
_atom_site_fract_x
_atom_site_fract_y
_atom_site_fract_z
Si Si1 0.777111 0.961104 0.951457
Si Si2 0.618530 0.087733 0.114265
Si Si3 0.668871 0.234050 0.519272
Si Si4 0.022618 0.602739 0.336138
Si Si5 0.868331 0.549745 0.807536
Si Si6 0.660639 0.159473 0.339276
Si Si7 0.601692 0.284866 0.686245
Si Si8 0.000000 0.500000 0.000000
O O1 0.869959 0.257303 0.879068
O O2 0.776991 0.882297 0.038855
O O3 0.500000 0.000000 0.000000
O O4 0.969616 0.682560 0.913337
O O5 0.358043 0.206913 0.137361
O O6 0.761026 0.343665 0.062529
O O7 0.563458 0.914563 0.211243
O O8 0.500000 0.500000 0.500000
O O9 0.626991 0.247887 0.606442
O O10 0.930171 0.320316 0.421154
O O11 0.584686 0.941061 0.549850
O O12 0.212257 0.513590 0.236685
O O13 0.137230 0.757269 0.345507
O O14 0.824178 0.843277 0.326928
O O15 0.127346 0.661328 0.715870
O O16 0.520762 0.385214 0.302008
#
# Coordination Sequence:
#
# PCOD9051704 Si02
#       8
#     2   2   2   2   2   2   2   1
#     4  12  27  49  75 107 145 189 239 296 358 426
#     4  12  28  49  73 110 143 189 245 290 363 428
#     4  10  25  47  72 110 142 189 245 289 363 426
#     4  11  26  47  72 108 144 188 243 293 357 428
#     4  12  26  48  75 103 149 192 238 295 360 423
#     4  11  25  45  76  99 151 184 239 296 358 414
#     4  12  26  46  74 107 144 189 243 297 356 426
#     4  12  28  46  78 102 148 182 246 294 358 422
#
# _framework density 28.408225000000002
#
# number of rings (size 3 to 8) (size 9 to 14) (size 15 to 20)
#    0.000    0.533    2.667    4.400    1.867    7.467 
#    0.000    0.000    0.000    0.000    0.000    0.000 
#    0.000    0.000    0.000    0.000    0.000    0.000 
#
# Total GULP energy -83746.203185 kJ/mol
# GULP energy per Si atom -5583.080212 kJ/mol
# Density = 2.834357 g / cm^3
# Si number density = 28.408225 Si / 1000 Ang^3
#
#
#
# Elastic Constant Matrix: (Units=GPa)
#
#
# Indices 1 2 3 4 5 6 
#
# 1 99.8853 39.4208 31.0813 1.0124 -6.0038 -2.3947
# 2 39.4208 109.8242 84.3931 -39.9975 2.4351 -3.3931
# 3 31.0813 84.3931 172.2391 -37.9316 6.0918 22.9916
# 4 1.0124 -39.9975 -37.9316 65.8266 9.7747 -5.4678
# 5 -6.0038 2.4351 6.0918 9.7747 61.0395 -5.3808
# 6 -2.3947 -3.3931 22.9916 -5.4678 -5.3808 57.0326
#
#
#
# Elastic Compliance Matrix: (Units=1/GPa)
#
#
# Indices 1 2 3 4 5 6 
#
# 1 0.012619 -0.005742 -0.000514 -0.004294 0.002226 0.000194
# 2 -0.005742 0.020353 -0.007591 0.008710 -0.001598 0.004714
# 3 -0.000514 -0.007591 0.010593 0.001318 -0.001435 -0.004753
# 4 -0.004294 0.008710 0.001318 0.022074 -0.004303 0.001517
# 5 0.002226 -0.001598 -0.001435 -0.004303 0.017659 0.001830
# 6 0.000194 0.004714 -0.004753 0.001517 0.001830 0.020057
#
#
# Mechanical properties :
#
#
# Convention : Reuss Voigt Hill
#
# Bulk Modulus (GPa) = 63.00286 76.85991 69.93139
# Shear Modulus (GPa) = 36.67314 51.91662 44.29488
#
# Velocity S-wave (km/s) = 3.59685 4.27959 3.95299
# Velocity P-wave (km/s) = 6.28296 7.17872 6.74573
#
# Compressibility (1/GPa) = 0.01587230
#
# Stress axis : x y z
#
# Youngs Moduli (GPa) = 79.24259 49.13370 94.39769
#
# Poissons Ratio (x) = 0.28211 0.04853
# Poissons Ratio (y) = 0.45499 0.71656
# Poissons Ratio (z) = 0.04074 0.37296
#
# Static dielectric constant tensor:
#      x y z
#    x 2.294500 -0.140350 -0.005520 
#    y -0.140350 5.379160 0.397460 
#    z -0.005520 0.397460 2.212440 
# 
# From -- ./inp_files/605787.got.cif
#   From: 2010.05.17/outbox.cif.g08.bks.cpg/sg2_303_cif.got.tgz:605787.got - 2010.06.03 11:33:40.
