data_PCOD9051622
_publ_section_title
;
Structure prediction by ZEFSAII (Michael W. Deem and Ramdas Pophale) SiO2 
 PCOD9051622
Probable space group: P -1
;
_chemical_formula_sum "Si O2"
_cell_formula_units_Z 14
_cell_length_a 10.378828
_cell_length_b 7.569935
_cell_length_c 9.095067
_cell_angle_alpha 103.687473
_cell_angle_beta 82.455388
_cell_angle_gamma 128.892741
_cell_volume 540.232457
_symmetry_space_group_name_H-M "P -1"
_symmetry_group_IT_number 2
_symmetry_cell_setting 'triclinic'
loop_
_space_group_symop_operation_xyz
x,y,z
-x,-y,-z
loop_
_atom_site_type_symbol
_atom_site_label
_atom_site_fract_x
_atom_site_fract_y
_atom_site_fract_z
Si Si1 0.104725 0.476014 0.096546
Si Si2 0.829536 0.897288 0.426188
Si Si3 0.323700 0.901358 0.676200
Si Si4 0.679702 0.562511 0.133763
Si Si5 0.206960 0.988207 0.965439
Si Si6 0.669857 0.750977 0.722579
Si Si7 0.698182 0.349006 0.635854
O O1 0.161394 0.609455 0.268766
O O2 0.268871 0.550482 0.005340
O O3 0.986362 0.197171 0.081692
O O4 0.000000 0.500000 0.000000
O O5 0.805012 0.715587 0.276831
O O6 0.692263 0.800996 0.556373
O O7 0.799108 0.054391 0.369199
O O8 0.000000 0.000000 0.500000
O O9 0.287137 0.692290 0.544857
O O10 0.285372 0.881236 0.850101
O O11 0.514837 0.123583 0.665974
O O12 0.691202 0.755555 0.070589
O O13 0.511654 0.384864 0.210416
O O14 0.222907 0.026506 0.144634
O O15 0.713606 0.577151 0.699737
#
# Coordination Sequence:
#
# PCOD9051622 Si02
#       7
#     2   2   2   2   2   2   2
#     4  12  28  44  68 108 143 182 233 300 355 403
#     4  11  25  41  70 106 141 176 233 295 341 409
#     4  10  25  47  69 102 140 188 230 284 354 420
#     4  11  23  45  69 101 136 184 238 282 347 424
#     4  11  23  45  71 101 133 185 238 283 350 413
#     4  12  23  44  77 102 135 188 239 282 344 421
#     4  11  24  45  72  95 146 180 237 280 354 419
#
# _framework density 25.914767000000001
#
# number of rings (size 3 to 8) (size 9 to 14) (size 15 to 20)
#    0.000    0.857    4.286    3.000    8.000    1.714 
#    2.571    1.429    0.000    0.000    0.000    0.000 
#    0.000    0.000    0.000    0.000    0.000    0.000 
#
# Total GULP energy -78365.188538 kJ/mol
# GULP energy per Si atom -5597.513467 kJ/mol
# Density = 2.585578 g / cm^3
# Si number density = 25.914767 Si / 1000 Ang^3
#
#
#
# Elastic Constant Matrix: (Units=GPa)
#
#
# Indices 1 2 3 4 5 6 
#
# 1 49.0275 12.4408 2.3506 4.3766 1.8760 4.0587
# 2 12.4408 63.0688 25.2434 1.3425 6.3942 5.0117
# 3 2.3506 25.2434 148.9577 20.7046 -13.6091 -19.6047
# 4 4.3766 1.3425 20.7046 62.4745 9.8891 3.1529
# 5 1.8760 6.3942 -13.6091 9.8891 41.6723 4.7718
# 6 4.0587 5.0117 -19.6047 3.1529 4.7718 19.8927
#
#
#
# Elastic Compliance Matrix: (Units=1/GPa)
#
#
# Indices 1 2 3 4 5 6 
#
# 1 0.021805 -0.004138 0.000181 -0.001406 0.000401 -0.003101
# 2 -0.004138 0.019807 -0.005190 0.002686 -0.004191 -0.008681
# 3 0.000181 -0.005190 0.009979 -0.004364 0.003837 0.010876
# 4 -0.001406 0.002686 -0.004364 0.018681 -0.005482 -0.006337
# 5 0.000401 -0.004191 0.003837 -0.005482 0.027281 -0.000920
# 6 -0.003101 -0.008681 0.010876 -0.006337 -0.000920 0.065033
#
#
# Mechanical properties :
#
#
# Convention : Reuss Voigt Hill
#
# Bulk Modulus (GPa) = 30.03329 37.90264 33.96796
# Shear Modulus (GPa) = 26.04453 39.54249 32.79351
#
# Velocity S-wave (km/s) = 3.17362 3.91047 3.56116
# Velocity P-wave (km/s) = 5.00436 5.92003 5.48135
#
# Compressibility (1/GPa) = 0.03329638
#
# Stress axis : x y z
#
# Youngs Moduli (GPa) = 45.86122 50.48758 100.21375
#
# Poissons Ratio (x) = 0.20891 -0.01814
# Poissons Ratio (y) = 0.18977 0.52012
# Poissons Ratio (z) = -0.00830 0.26203
#
# Static dielectric constant tensor:
#      x y z
#    x 2.073630 -0.031380 0.024830 
#    y -0.031380 2.087740 -0.020610 
#    z 0.024830 -0.020610 2.054770 
# 
# From -- ./inp_files/183728.got.cif
#   From: 2010.05.17/outbox.cif.g08.bks.cpg/sg2_92_cif.got.tgz:183728.got - 2010.06.03 11:33:40.
