data_PCOD9051151
_publ_section_title
;
Structure prediction by ZEFSAII (Michael W. Deem and Ramdas Pophale) SiO2 
 PCOD9051151
Probable space group: P -1
;
_chemical_formula_sum "Si O2"
_cell_formula_units_Z 14
_cell_length_a 4.978866
_cell_length_b 14.215680
_cell_length_c 12.033206
_cell_angle_alpha 44.019438
_cell_angle_beta 108.416260
_cell_angle_gamma 109.594717
_cell_volume 553.917058
_symmetry_space_group_name_H-M "P -1"
_symmetry_group_IT_number 2
_symmetry_cell_setting 'triclinic'
loop_
_space_group_symop_operation_xyz
x,y,z
-x,-y,-z
loop_
_atom_site_type_symbol
_atom_site_label
_atom_site_fract_x
_atom_site_fract_y
_atom_site_fract_z
Si Si1 0.239268 0.544962 0.090487
Si Si2 0.089383 0.967703 0.191105
Si Si3 0.943837 0.768651 0.144516
Si Si4 0.136103 0.800999 0.756384
Si Si5 0.326566 0.088410 0.629100
Si Si6 0.503216 0.299046 0.293895
Si Si7 0.607173 0.417575 0.687538
O O1 0.489999 0.460036 0.161523
O O2 0.192719 0.511747 0.244239
O O3 0.277139 0.709013 0.941587
O O4 0.000000 0.500000 0.000000
O O5 0.419635 0.955842 0.227587
O O6 0.925446 0.871325 0.157609
O O7 0.955065 0.908084 0.339316
O O8 0.050623 0.126002 0.045932
O O9 0.673786 0.650805 0.223835
O O10 0.222536 0.696882 0.241960
O O11 0.234827 0.744380 0.700587
O O12 0.793030 0.768393 0.749524
O O13 0.250319 0.961457 0.642709
O O14 0.457649 0.228583 0.467550
O O15 0.500000 0.500000 0.500000
#
# Coordination Sequence:
#
# PCOD9051151 Si02
#       7
#     2   2   2   2   2   2   2
#     4  10  25  45  71 102 140 188 237 287 353 431
#     4  11  24  41  71  99 137 187 233 293 355 427
#     4  11  25  47  68 103 143 184 241 289 358 428
#     4  11  22  42  64  95 137 185 233 283 351 427
#     4  12  23  40  68 101 137 183 235 299 357 413
#     4  11  24  40  63  99 138 180 231 296 352 415
#     4  12  27  47  74 106 145 188 237 297 354 420
#
# _framework density 25.274543000000001
#
# number of rings (size 3 to 8) (size 9 to 14) (size 15 to 20)
#    0.000    0.857    0.000    6.857    4.000    8.000 
#    0.000    0.000    0.000    0.000    0.000    0.000 
#    0.000    0.000    0.000    0.000    0.000    0.000 
#
# Total GULP energy -78293.804537 kJ/mol
# GULP energy per Si atom -5592.414610 kJ/mol
# Density = 2.521702 g / cm^3
# Si number density = 25.274543 Si / 1000 Ang^3
#
#
#
# Elastic Constant Matrix: (Units=GPa)
#
#
# Indices 1 2 3 4 5 6 
#
# 1 87.5750 17.2064 22.7986 0.9049 -0.8562 -3.9684
# 2 17.2064 82.6300 23.3110 9.1903 0.5111 -7.2692
# 3 22.7986 23.3110 148.3490 17.0979 7.5684 -3.3826
# 4 0.9049 9.1903 17.0979 28.3968 -2.1633 0.8023
# 5 -0.8562 0.5111 7.5684 -2.1633 34.9590 4.1000
# 6 -3.9684 -7.2692 -3.3826 0.8023 4.1000 38.3576
#
#
#
# Elastic Compliance Matrix: (Units=1/GPa)
#
#
# Indices 1 2 3 4 5 6 
#
# 1 0.012319 -0.002183 -0.001734 0.001396 0.000725 0.000601
# 2 -0.002183 0.013536 -0.001295 -0.003634 -0.000472 0.002352
# 3 -0.001734 -0.001295 0.007839 -0.004419 -0.002062 0.000579
# 4 0.001396 -0.003634 -0.004419 0.039353 0.003732 -0.002156
# 5 0.000725 -0.000472 -0.002062 0.003732 0.029712 -0.003450
# 6 0.000601 0.002352 0.000579 -0.002156 -0.003450 0.027043
#
#
# Mechanical properties :
#
#
# Convention : Reuss Voigt Hill
#
# Bulk Modulus (GPa) = 42.97561 49.46509 46.22035
# Shear Modulus (GPa) = 33.78787 37.35854 35.57321
#
# Velocity S-wave (km/s) = 3.66024 3.84879 3.75570
# Velocity P-wave (km/s) = 5.90793 6.27411 6.09377
#
# Compressibility (1/GPa) = 0.02326901
#
# Stress axis : x y z
#
# Youngs Moduli (GPa) = 81.17472 73.87714 127.57391
#
# Poissons Ratio (x) = 0.16126 0.22127
# Poissons Ratio (y) = 0.17719 0.16521
# Poissons Ratio (z) = 0.14079 0.09567
#
# Static dielectric constant tensor:
#      x y z
#    x 1.939310 0.055420 -0.013780 
#    y 0.055420 2.047050 0.044140 
#    z -0.013780 0.044140 2.071680 
# 
# From -- ./inp_files/77285.got.cif
#   From: 2010.05.17/outbox.cif.g08.bks.cpg/sg2_39_cif.got.tgz:77285.got - 2010.06.03 11:33:40.
