data_PCOD9051493
_publ_section_title
;
Structure prediction by ZEFSAII (Michael W. Deem and Ramdas Pophale) SiO2 
 PCOD9051493
Probable space group: P -1
;
_chemical_formula_sum "Si O2"
_cell_formula_units_Z 14
_cell_length_a 11.649147
_cell_length_b 12.151081
_cell_length_c 5.178743
_cell_angle_alpha 74.695803
_cell_angle_beta 122.885362
_cell_angle_gamma 118.609423
_cell_volume 540.416700
_symmetry_space_group_name_H-M "P -1"
_symmetry_group_IT_number 2
_symmetry_cell_setting 'triclinic'
loop_
_space_group_symop_operation_xyz
x,y,z
-x,-y,-z
loop_
_atom_site_type_symbol
_atom_site_label
_atom_site_fract_x
_atom_site_fract_y
_atom_site_fract_z
Si Si1 0.641658 0.738594 0.252879
Si Si2 0.609818 0.488154 0.420539
Si Si3 0.936414 0.802340 0.923463
Si Si4 0.394204 0.958087 0.646228
Si Si5 0.095315 0.462626 0.934148
Si Si6 0.187857 0.041141 0.037062
Si Si7 0.331608 0.680675 0.797760
O O1 0.633609 0.608521 0.191562
O O2 0.777969 0.766463 0.603141
O O3 0.689052 0.860641 0.058228
O O4 0.471469 0.711369 0.151522
O O5 0.500000 0.500000 0.500000
O O6 0.761710 0.523153 0.734907
O O7 0.599410 0.367656 0.324632
O O8 0.965686 0.683476 0.121471
O O9 0.915954 0.884658 0.079752
O O10 0.080128 0.903562 0.884781
O O11 0.315171 0.807634 0.650537
O O12 0.500000 0.000000 0.500000
O O13 0.272603 0.014864 0.403612
O O14 0.500000 0.000000 0.000000
O O15 0.172603 0.567608 0.744534
O O16 0.000000 0.500000 0.000000
#
# Coordination Sequence:
#
# PCOD9051493 Si02
#       7
#     2   2   2   2   2   2   2
#     4  11  22  42  75 109 146 192 267 327 398 466
#     4  11  25  43  78 114 153 204 271 337 406 486
#     4  10  25  46  72 108 151 205 263 325 403 482
#     4  12  29  49  79 119 162 211 268 337 413 493
#     4  11  27  48  74 110 160 210 267 336 415 488
#     4  11  24  46  74 106 156 204 261 331 400 485
#     4  12  26  45  79 113 160 208 273 341 408 483
#
# _framework density 25.905933999999998
#
# number of rings (size 3 to 8) (size 9 to 14) (size 15 to 20)
#    0.000    0.857    2.857    2.571    8.000    0.571 
#   10.286    0.000    0.000    0.000    0.000    0.000 
#    0.000    0.000    0.000    0.000    0.000    0.000 
#
# Total GULP energy -78195.337122 kJ/mol
# GULP energy per Si atom -5585.381223 kJ/mol
# Density = 2.584697 g / cm^3
# Si number density = 25.905934 Si / 1000 Ang^3
#
#
#
# Elastic Constant Matrix: (Units=GPa)
#
#
# Indices 1 2 3 4 5 6 
#
# 1 151.9752 73.4659 33.6607 -14.6571 7.4763 -2.2888
# 2 73.4659 228.1292 40.7730 -38.6248 -2.2477 -1.1886
# 3 33.6607 40.7730 91.2500 -12.2670 1.5343 -6.3500
# 4 -14.6571 -38.6248 -12.2670 47.7457 2.2235 11.8642
# 5 7.4763 -2.2477 1.5343 2.2235 39.4638 -1.4308
# 6 -2.2888 -1.1886 -6.3500 11.8642 -1.4308 46.0935
#
#
#
# Elastic Compliance Matrix: (Units=1/GPa)
#
#
# Indices 1 2 3 4 5 6 
#
# 1 0.008214 -0.002266 -0.001957 0.000272 -0.001626 -0.000041
# 2 -0.002266 0.006062 -0.001412 0.004116 0.000554 -0.001193
# 3 -0.001957 -0.001412 0.012563 0.001175 -0.000218 0.001288
# 4 0.000272 0.004116 0.001175 0.026362 -0.001586 -0.006553
# 5 -0.001626 0.000554 -0.000218 -0.001586 0.025817 0.001113
# 6 -0.000041 -0.001193 0.001288 -0.006553 0.001113 0.023561
#
#
# Mechanical properties :
#
#
# Convention : Reuss Voigt Hill
#
# Bulk Modulus (GPa) = 64.22470 85.23930 74.73200
# Shear Modulus (GPa) = 42.00381 48.22426 45.11404
#
# Velocity S-wave (km/s) = 4.03103 4.31921 4.17760
# Velocity P-wave (km/s) = 6.81989 7.60585 7.22356
#
# Compressibility (1/GPa) = 0.01557033
#
# Stress axis : x y z
#
# Youngs Moduli (GPa) = 121.73911 164.97334 79.60062
#
# Poissons Ratio (x) = 0.37380 0.15575
# Poissons Ratio (y) = 0.27584 0.11237
# Poissons Ratio (z) = 0.23820 0.23289
#
# Static dielectric constant tensor:
#      x y z
#    x 2.080050 0.099760 -0.008120 
#    y 0.099760 2.135450 0.040830 
#    z -0.008120 0.040830 2.014270 
# 
# From -- ./inp_files/69461.got.cif
#   From: 2010.05.17/outbox.cif.g08.bks.cpg/sg2_35_cif.got.tgz:69461.got - 2010.06.03 11:33:40.
