data_PCOD9051425
_publ_section_title
;
Structure prediction by ZEFSAII (Michael W. Deem and Ramdas Pophale) SiO2 
 PCOD9051425
Probable space group: P -1
;
_chemical_formula_sum "Si O2"
_cell_formula_units_Z 11
_cell_length_a 14.348228
_cell_length_b 5.679264
_cell_length_c 5.960669
_cell_angle_alpha 85.313099
_cell_angle_beta 61.987211
_cell_angle_gamma 74.711046
_cell_volume 413.130683
_symmetry_space_group_name_H-M "P -1"
_symmetry_group_IT_number 2
_symmetry_cell_setting 'triclinic'
loop_
_space_group_symop_operation_xyz
x,y,z
-x,-y,-z
loop_
_atom_site_type_symbol
_atom_site_label
_atom_site_fract_x
_atom_site_fract_y
_atom_site_fract_z
Si Si1 0.682728 0.036294 0.810912
Si Si2 0.766138 0.719540 0.359019
Si Si3 0.909619 0.359925 0.559176
Si Si4 0.564018 0.765566 0.296309
Si Si5 0.104680 0.039915 0.128740
Si Si6 0.500000 0.500000 0.000000
O O1 0.801530 0.947461 0.796218
O O2 0.700562 0.964827 0.539912
O O3 0.620295 0.311285 0.910566
O O4 0.604496 0.882091 0.017026
O O5 0.812415 0.519459 0.510980
O O6 0.676839 0.648802 0.307837
O O7 0.863060 0.806337 0.120025
O O8 0.881838 0.250336 0.835752
O O9 0.000000 0.500000 0.500000
O O10 0.979036 0.150720 0.330175
O O11 0.501243 0.587834 0.261328
O O12 0.500000 0.000000 0.500000
#
# Coordination Sequence:
#
# PCOD9051425 Si02
#       6
#     2   2   2   2   2   1
#     4  11  25  47  70 112 156 195 267 318 372 479
#     4  11  24  49  76 108 159 204 251 324 389 454
#     4  11  23  46  76 107 156 200 259 325 375 471
#     4  11  26  49  73 112 156 202 263 320 385 459
#     4  10  25  46  70 114 149 203 261 311 394 459
#     4  12  26  46  78 106 154 204 258 324 378 458
#
# _framework density 26.625958000000001
#
# number of rings (size 3 to 8) (size 9 to 14) (size 15 to 20)
#    0.000    1.091    3.636    1.091    2.545    1.455 
#    9.818    0.000    0.000    0.000    0.000    0.000 
#    0.000    0.000    0.000    0.000    0.000    0.000 
#
# Total GULP energy -61238.805506 kJ/mol
# GULP energy per Si atom -5567.164137 kJ/mol
# Density = 2.656536 g / cm^3
# Si number density = 26.625958 Si / 1000 Ang^3
#
#
#
# Elastic Constant Matrix: (Units=GPa)
#
#
# Indices 1 2 3 4 5 6 
#
# 1 15.4872 9.8380 -36.5242 -9.5538 48.9524 -69.1925
# 2 9.8380 92.7737 24.7883 8.5850 7.6970 -46.0041
# 3 -36.5242 24.7883 60.8164 4.9626 -6.7234 -8.8712
# 4 -9.5538 8.5850 4.9626 52.4168 10.7426 -21.4239
# 5 48.9524 7.6970 -6.7234 10.7426 24.6253 24.6353
# 6 -69.1925 -46.0041 -8.8712 -21.4239 24.6353 14.8106
#
#
#
# Elastic Compliance Matrix: (Units=1/GPa)
#
#
# Indices 1 2 3 4 5 6 
#
# 1 0.006068 -0.008640 0.006478 -0.004521 0.006736 -0.012352
# 2 -0.008640 0.018470 -0.011453 -0.000640 0.001010 0.007541
# 3 0.006478 -0.011453 0.024964 -0.003949 0.007060 -0.007816
# 4 -0.004521 -0.000640 -0.003949 0.018191 0.000999 -0.000824
# 5 0.006736 0.001010 0.007060 0.000999 0.017923 0.010467
# 6 -0.012352 0.007541 -0.007816 -0.000824 0.010467 0.009952
#
#
# Mechanical properties :
#
#
# Convention : Reuss Voigt Hill
#
# Bulk Modulus (GPa) = 44.90019 18.36461 31.63240
# Shear Modulus (GPa) = 38.39556 29.76889 34.08222
#
# Velocity S-wave (km/s) = 3.80153 3.34734 3.58164
# Velocity P-wave (km/s) = 6.01405 4.67459 5.38612
#
# Compressibility (1/GPa) = 0.02227162
#
# Stress axis : x y z
#
# Youngs Moduli (GPa) = 164.79656 54.14144 40.05761
#
# Poissons Ratio (x) = 0.46777 -0.25948
# Poissons Ratio (y) = 1.42381 0.45879
# Poissons Ratio (z) = -1.06749 0.62009
#
# Static dielectric constant tensor:
#      x y z
#    x 2.146280 0.249510 0.003490 
#    y 0.249510 2.613110 -0.052780 
#    z 0.003490 -0.052780 2.144060 
# 
# From -- ./inp_files/85782.got.cif
#   From: 2010.05.17/outbox.cif.g08.bks.cpg/sg2_43_cif.got.tgz:85782.got - 2010.06.03 11:33:40.
