data_PCOD9051180
_publ_section_title
;
Structure prediction by ZEFSAII (Michael W. Deem and Ramdas Pophale) SiO2 
 PCOD9051180
Probable space group: P -1
;
_chemical_formula_sum "Si O2"
_cell_formula_units_Z 15
_cell_length_a 11.138996
_cell_length_b 8.836771
_cell_length_c 11.512654
_cell_angle_alpha 78.759508
_cell_angle_beta 42.184103
_cell_angle_gamma 103.166339
_cell_volume 615.759979
_symmetry_space_group_name_H-M "P -1"
_symmetry_group_IT_number 2
_symmetry_cell_setting 'triclinic'
loop_
_space_group_symop_operation_xyz
x,y,z
-x,-y,-z
loop_
_atom_site_type_symbol
_atom_site_label
_atom_site_fract_x
_atom_site_fract_y
_atom_site_fract_z
Si Si1 0.273023 0.626193 0.946715
Si Si2 0.478307 0.162909 0.035820
Si Si3 0.164543 0.854853 0.835932
Si Si4 0.715376 0.782677 0.223498
Si Si5 0.000000 0.000000 0.500000
Si Si6 0.212858 0.564340 0.409435
Si Si7 0.885757 0.224687 0.369011
Si Si8 0.361588 0.374074 0.450845
O O1 0.366815 0.747169 0.977091
O O2 0.157369 0.691523 0.934879
O O3 0.477978 0.658510 0.726386
O O4 0.107799 0.413206 0.136485
O O5 0.237214 0.093065 0.252700
O O6 0.579261 0.320045 0.839449
O O7 0.500000 0.000000 0.000000
O O8 0.240973 0.871764 0.646011
O O9 0.296896 0.039849 0.792821
O O10 0.927441 0.818561 0.005051
O O11 0.509045 0.588953 0.356682
O O12 0.741093 0.753762 0.345450
O O13 0.927696 0.096064 0.436770
O O14 0.218438 0.692833 0.488543
O O15 0.189580 0.374476 0.492845
O O16 0.000000 0.500000 0.500000
#
# Coordination Sequence:
#
# PCOD9051180 Si02
#       8
#     2   2   2   2   1   2   2   2
#     4  12  27  48  80 111 155 203 263 322 392 474
#     4  12  29  50  77 116 155 207 260 325 390 466
#     4  11  26  47  76 113 151 201 259 326 396 457
#     4  10  25  45  71 110 155 200 249 323 394 475
#     4  12  30  50  78 114 162 200 268 322 396 462
#     4  12  27  48  78 110 156 207 264 321 391 469
#     4  12  26  48  77 115 152 205 257 331 386 474
#     4  11  26  45  73 112 152 204 259 314 399 473
#
# _framework density 24.360143000000001
#
# number of rings (size 3 to 8) (size 9 to 14) (size 15 to 20)
#    0.000    0.533    4.000    2.000    9.333    2.667 
#    0.000    0.000    0.000    0.000    0.000    0.000 
#    0.000    0.000    0.000    0.000    0.000    0.000 
#
# Total GULP energy -83824.694816 kJ/mol
# GULP energy per Si atom -5588.312988 kJ/mol
# Density = 2.430470 g / cm^3
# Si number density = 24.360143 Si / 1000 Ang^3
#
#
#
# Elastic Constant Matrix: (Units=GPa)
#
#
# Indices 1 2 3 4 5 6 
#
# 1 55.4562 29.0580 30.5635 13.4158 14.8564 -6.6140
# 2 29.0580 86.9788 33.1712 10.1521 12.4100 7.9580
# 3 30.5635 33.1712 145.1895 16.1299 14.4589 -6.5933
# 4 13.4158 10.1521 16.1299 36.7409 -4.1654 8.4390
# 5 14.8564 12.4100 14.4589 -4.1654 46.6092 -4.7222
# 6 -6.6140 7.9580 -6.5933 8.4390 -4.7222 42.6466
#
#
#
# Elastic Compliance Matrix: (Units=1/GPa)
#
#
# Indices 1 2 3 4 5 6 
#
# 1 0.027689 -0.006952 -0.002263 -0.009396 -0.006465 0.006385
# 2 -0.006952 0.015239 -0.002063 0.000066 -0.001645 -0.004436
# 3 -0.002263 -0.002063 0.008369 -0.002835 -0.001403 0.001734
# 4 -0.009396 0.000066 -0.002835 0.034415 0.006118 -0.008040
# 5 -0.006465 -0.001645 -0.001403 0.006118 0.025001 0.000645
# 6 0.006385 -0.004436 0.001734 -0.008040 0.000645 0.027197
#
#
# Mechanical properties :
#
#
# Convention : Reuss Voigt Hill
#
# Bulk Modulus (GPa) = 34.79428 52.57886 43.68657
# Shear Modulus (GPa) = 29.40366 38.18814 33.79590
#
# Velocity S-wave (km/s) = 3.47802 3.96365 3.72875
# Velocity P-wave (km/s) = 5.51753 6.52520 6.04240
#
# Compressibility (1/GPa) = 0.02874036
#
# Stress axis : x y z
#
# Youngs Moduli (GPa) = 36.11577 65.61914 119.49378
#
# Poissons Ratio (x) = 0.45621 0.27037
# Poissons Ratio (y) = 0.25109 0.24653
# Poissons Ratio (z) = 0.08172 0.13538
#
# Static dielectric constant tensor:
#      x y z
#    x 1.965430 0.063690 -0.002460 
#    y 0.063690 1.981990 -0.036280 
#    z -0.002460 -0.036280 1.901450 
# 
# From -- ./inp_files/416780.got.cif
#   From: 2010.05.17/outbox.cif.g08.bks.cpg/sg2_209_cif.got.tgz:416780.got - 2010.06.03 11:33:40.
