data_PCOD9051403
_publ_section_title
;
Structure prediction by ZEFSAII (Michael W. Deem and Ramdas Pophale) SiO2 
 PCOD9051403
Probable space group: P -1
;
_chemical_formula_sum "Si O2"
_cell_formula_units_Z 14
_cell_length_a 14.113344
_cell_length_b 15.349198
_cell_length_c 8.725388
_cell_angle_alpha 44.767177
_cell_angle_beta 122.874104
_cell_angle_gamma 153.169711
_cell_volume 575.787989
_symmetry_space_group_name_H-M "P -1"
_symmetry_group_IT_number 2
_symmetry_cell_setting 'triclinic'
loop_
_space_group_symop_operation_xyz
x,y,z
-x,-y,-z
loop_
_atom_site_type_symbol
_atom_site_label
_atom_site_fract_x
_atom_site_fract_y
_atom_site_fract_z
Si Si1 0.574351 0.212798 0.813737
Si Si2 0.988357 0.549913 0.595408
Si Si3 0.158140 0.010176 0.692822
Si Si4 0.445940 0.355216 0.273697
Si Si5 0.209892 0.173298 0.861863
Si Si6 0.181900 0.522156 0.981083
Si Si7 0.393267 0.114541 0.277750
O O1 0.363244 0.104320 0.763152
O O2 0.758783 0.401828 0.608079
O O3 0.705833 0.358159 0.905888
O O4 0.500000 0.000000 0.000000
O O5 0.011982 0.467979 0.849878
O O6 0.000000 0.500000 0.500000
O O7 0.192434 0.832672 0.444461
O O8 0.222762 0.155865 0.422796
O O9 0.158600 0.089445 0.748960
O O10 0.942736 0.724917 0.837530
O O11 0.632683 0.562216 0.302831
O O12 0.422944 0.203258 0.358361
O O13 0.500000 0.500000 0.000000
O O14 0.334130 0.170614 0.041099
O O15 0.000000 0.000000 0.000000
O O16 0.377538 0.722518 0.780610
#
# Coordination Sequence:
#
# PCOD9051403 Si02
#       7
#     2   2   2   2   2   2   2
#     4  12  26  45  71 110 153 189 253 294 373 461
#     4  12  26  43  72 109 151 201 241 303 372 449
#     4  12  25  47  78 106 148 199 240 316 380 434
#     4  10  25  46  70 102 140 187 251 308 372 434
#     4  11  24  48  71 105 145 190 254 311 366 439
#     4  12  25  47  73 107 154 190 246 303 373 457
#     4  11  24  45  70 107 145 193 247 305 374 438
#
# _framework density 24.314505
#
# number of rings (size 3 to 8) (size 9 to 14) (size 15 to 20)
#    0.000    0.571    2.857    4.714    6.000    0.000 
#    0.000    5.714    0.000    0.000    0.000    0.000 
#    0.000    0.000    0.000    0.000    0.000    0.000 
#
# Total GULP energy -78419.591461 kJ/mol
# GULP energy per Si atom -5601.399390 kJ/mol
# Density = 2.425916 g / cm^3
# Si number density = 24.314505 Si / 1000 Ang^3
#
#
#
# Elastic Constant Matrix: (Units=GPa)
#
#
# Indices 1 2 3 4 5 6 
#
# 1 134.9267 78.6392 38.1914 -7.7098 -17.7904 -24.4697
# 2 78.6392 192.1654 64.9688 -22.8448 -0.0216 -43.0781
# 3 38.1914 64.9688 109.2959 -31.9865 -9.5348 -25.2310
# 4 -7.7098 -22.8448 -31.9865 69.1215 0.5816 8.0595
# 5 -17.7904 -0.0216 -9.5348 0.5816 52.0209 7.5080
# 6 -24.4697 -43.0781 -25.2310 8.0595 7.5080 65.5285
#
#
#
# Elastic Compliance Matrix: (Units=1/GPa)
#
#
# Indices 1 2 3 4 5 6 
#
# 1 0.010488 -0.003839 -0.001160 -0.000741 0.003286 0.000660
# 2 -0.003839 0.008607 -0.003040 0.000651 -0.002342 0.003242
# 3 -0.001160 -0.003040 0.013364 0.004811 0.001720 0.001925
# 4 -0.000741 0.000651 0.004811 0.016836 0.000458 -0.000119
# 5 0.003286 -0.002342 0.001720 0.000458 0.020960 -0.002108
# 6 0.000660 0.003242 0.001925 -0.000119 -0.002108 0.018636
#
#
# Mechanical properties :
#
#
# Convention : Reuss Voigt Hill
#
# Bulk Modulus (GPa) = 61.04834 88.88743 74.96788
# Shear Modulus (GPa) = 45.27711 54.30675 49.79193
#
# Velocity S-wave (km/s) = 4.31994 4.73113 4.53020
# Velocity P-wave (km/s) = 7.07423 8.15362 7.63303
#
# Compressibility (1/GPa) = 0.01638046
#
# Stress axis : x y z
#
# Youngs Moduli (GPa) = 95.34483 116.18885 74.82518
#
# Poissons Ratio (x) = 0.44610 0.08682
# Poissons Ratio (y) = 0.36607 0.22745
# Poissons Ratio (z) = 0.11063 0.35318
#
# Static dielectric constant tensor:
#      x y z
#    x 2.171150 0.191100 0.002870 
#    y 0.191100 2.027400 0.026510 
#    z 0.002870 0.026510 1.996790 
# 
# From -- ./inp_files/314713.got.cif
#   From: 2010.05.17/outbox.cif.g08.bks.cpg/sg2_158_cif.got.tgz:314713.got - 2010.06.03 11:33:40.
