data_PCOD9051413
_publ_section_title
;
Structure prediction by ZEFSAII (Michael W. Deem and Ramdas Pophale) SiO2 
 PCOD9051413
Probable space group: P -1
;
_chemical_formula_sum "Si O2"
_cell_formula_units_Z 14
_cell_length_a 7.302190
_cell_length_b 8.244456
_cell_length_c 20.988656
_cell_angle_alpha 140.324222
_cell_angle_beta 125.414781
_cell_angle_gamma 52.474883
_cell_volume 624.325063
_symmetry_space_group_name_H-M "P -1"
_symmetry_group_IT_number 2
_symmetry_cell_setting 'triclinic'
loop_
_space_group_symop_operation_xyz
x,y,z
-x,-y,-z
loop_
_atom_site_type_symbol
_atom_site_label
_atom_site_fract_x
_atom_site_fract_y
_atom_site_fract_z
Si Si1 0.883081 0.409934 0.011203
Si Si2 0.497471 0.159293 0.364054
Si Si3 0.732469 0.089984 0.067319
Si Si4 0.101220 0.747218 0.584919
Si Si5 0.294977 0.096102 0.539919
Si Si6 0.602790 0.657692 0.143462
Si Si7 0.936721 0.276817 0.290532
O O1 0.763837 0.636018 0.107040
O O2 0.668412 0.300646 0.916561
O O3 0.000000 0.500000 0.000000
O O4 0.084315 0.161810 0.006118
O O5 0.602240 0.076332 0.429797
O O6 0.599780 0.889872 0.261232
O O7 0.632185 0.346811 0.415314
O O8 0.213485 0.255699 0.331966
O O9 0.683730 0.366351 0.104093
O O10 0.842224 0.139437 0.172182
O O11 0.500000 0.000000 0.000000
O O12 0.080977 0.859061 0.686007
O O13 0.000000 0.500000 0.500000
O O14 0.936389 0.926640 0.551072
O O15 0.221839 0.410209 0.640641
O O16 0.500000 0.000000 0.500000
#
# Coordination Sequence:
#
# PCOD9051413 Si02
#       7
#     2   2   2   2   2   2   2
#     4  11  24  44  71  98 144 186 237 292 353 408
#     4  12  24  45  75  98 147 187 239 294 357 424
#     4  12  24  45  72 104 148 188 234 295 350 422
#     4  10  25  46  70 105 139 182 235 295 362 419
#     4  11  23  47  73 104 141 184 237 296 357 430
#     4  11  25  43  68 104 136 191 239 288 350 425
#     4  11  25  46  70 105 146 185 241 293 354 423
#
# _framework density 22.424216000000001
#
# number of rings (size 3 to 8) (size 9 to 14) (size 15 to 20)
#    0.000    0.857    5.714    0.857    2.000    2.286 
#   10.286    0.000    0.000    0.000    0.000    0.000 
#    0.000    0.000    0.000    0.000    0.000    0.000 
#
# Total GULP energy -78254.323063 kJ/mol
# GULP energy per Si atom -5589.594505 kJ/mol
# Density = 2.237318 g / cm^3
# Si number density = 22.424216 Si / 1000 Ang^3
#
#
#
# Elastic Constant Matrix: (Units=GPa)
#
#
# Indices 1 2 3 4 5 6 
#
# 1 197.6264 56.6602 73.1679 -5.4472 -8.8575 -15.5652
# 2 56.6602 81.1082 29.0611 7.4735 12.6270 -18.7520
# 3 73.1679 29.0611 94.1332 -12.2672 6.2770 -1.5324
# 4 -5.4472 7.4735 -12.2672 43.6394 -4.8286 0.0059
# 5 -8.8575 12.6270 6.2770 -4.8286 30.3146 -0.7491
# 6 -15.5652 -18.7520 -1.5324 0.0059 -0.7491 39.2198
#
#
#
# Elastic Compliance Matrix: (Units=1/GPa)
#
#
# Indices 1 2 3 4 5 6 
#
# 1 0.009001 -0.005058 -0.005686 0.001067 0.006110 0.001048
# 2 -0.005058 0.020637 -0.002407 -0.005987 -0.010342 0.007569
# 3 -0.005686 -0.002407 0.016489 0.003949 -0.003514 -0.002831
# 4 0.001067 -0.005987 0.003949 0.025854 0.006052 -0.002173
# 5 0.006110 -0.010342 -0.003514 0.006052 0.040726 -0.001880
# 6 0.001048 0.007569 -0.002831 -0.002173 -0.001880 0.029386
#
#
# Mechanical properties :
#
#
# Convention : Reuss Voigt Hill
#
# Bulk Modulus (GPa) = 50.44270 76.73847 63.59058
# Shear Modulus (GPa) = 28.57092 36.89999 32.73545
#
# Velocity S-wave (km/s) = 3.57334 4.06093 3.82491
# Velocity P-wave (km/s) = 6.29036 7.50225 6.92287
#
# Compressibility (1/GPa) = 0.01982447
#
# Stress axis : x y z
#
# Youngs Moduli (GPa) = 111.09561 48.45772 60.64602
#
# Poissons Ratio (x) = 0.24509 0.34485
# Poissons Ratio (y) = 0.56190 0.14598
# Poissons Ratio (z) = 0.63173 0.11664
#
# Static dielectric constant tensor:
#      x y z
#    x 1.867820 -0.006490 -0.031700 
#    y -0.006490 1.883490 0.029360 
#    z -0.031700 0.029360 1.897150 
# 
# From -- ./inp_files/582081.got.cif
#   From: 2010.05.17/outbox.cif.g08.bks.cpg/sg2_292_cif.got.tgz:582081.got - 2010.06.03 11:33:40.
