data_PCOD9051790
_publ_section_title
;
Structure prediction by ZEFSAII (Michael W. Deem and Ramdas Pophale) SiO2 
 PCOD9051790
Probable space group: P -1
;
_chemical_formula_sum "Si O2"
_cell_formula_units_Z 15
_cell_length_a 27.208447
_cell_length_b 9.392211
_cell_length_c 5.102185
_cell_angle_alpha 109.820143
_cell_angle_beta 69.558370
_cell_angle_gamma 152.600661
_cell_volume 560.961855
_symmetry_space_group_name_H-M "P -1"
_symmetry_group_IT_number 2
_symmetry_cell_setting 'triclinic'
loop_
_space_group_symop_operation_xyz
x,y,z
-x,-y,-z
loop_
_atom_site_type_symbol
_atom_site_label
_atom_site_fract_x
_atom_site_fract_y
_atom_site_fract_z
Si Si1 0.231402 0.281294 0.838846
Si Si2 0.092237 0.514127 0.789415
Si Si3 0.588553 0.400743 0.612880
Si Si4 0.604264 0.979328 0.585905
Si Si5 0.290419 0.005499 0.329756
Si Si6 0.500000 0.000000 0.000000
Si Si7 0.802349 0.481591 0.183010
Si Si8 0.882820 0.127006 0.706891
O O1 0.356820 0.551784 0.711004
O O2 0.197049 0.365922 0.893731
O O3 0.159112 0.008420 0.590192
O O4 0.200871 0.151428 0.101279
O O5 0.094129 0.346570 0.789344
O O6 0.990353 0.302573 0.674044
O O7 0.197798 0.798260 0.588984
O O8 0.096093 0.647254 0.100879
O O9 0.481297 0.212811 0.603352
O O10 0.669445 0.742098 0.728603
O O11 0.570396 0.228159 0.750603
O O12 0.614610 0.837416 0.590813
O O13 0.722438 0.315536 0.467982
O O14 0.561167 0.986772 0.883968
O O15 0.251442 0.785480 0.056082
#
# Coordination Sequence:
#
# PCOD9051790 Si02
#       8
#     2   2   2   2   2   1   2   2
#     4  12  28  46  78 110 155 197 256 305 388 445
#     4  10  25  47  78 105 154 188 256 308 383 443
#     4  12  26  45  73 106 146 201 250 312 371 458
#     4  11  26  43  70 104 145 198 247 317 372 448
#     4  11  25  48  72 108 149 198 250 314 381 454
#     4  12  26  42  72 100 146 190 252 308 374 444
#     4  11  26  46  71 109 150 198 242 320 374 455
#     4  11  27  49  77 115 144 207 251 317 371 457
#
# _framework density 26.739788999999998
#
# number of rings (size 3 to 8) (size 9 to 14) (size 15 to 20)
#    0.000    0.800    2.667    2.400    9.333    6.400 
#    0.000    0.000    0.000    0.000    0.000    0.000 
#    0.000    0.000    0.000    0.000    0.000    0.000 
#
# Total GULP energy -83978.750871 kJ/mol
# GULP energy per Si atom -5598.583391 kJ/mol
# Density = 2.667893 g / cm^3
# Si number density = 26.739789 Si / 1000 Ang^3
#
#
#
# Elastic Constant Matrix: (Units=GPa)
#
#
# Indices 1 2 3 4 5 6 
#
# 1 214.1420 46.2834 18.3098 -18.9842 -23.8612 -3.1881
# 2 46.2834 54.2324 22.4803 -9.3599 2.1005 -4.7964
# 3 18.3098 22.4803 95.9705 -6.7232 -5.0727 -2.0924
# 4 -18.9842 -9.3599 -6.7232 40.5986 2.6618 2.5267
# 5 -23.8612 2.1005 -5.0727 2.6618 49.3049 -8.4525
# 6 -3.1881 -4.7964 -2.0924 2.5267 -8.4525 58.1833
#
#
#
# Elastic Compliance Matrix: (Units=1/GPa)
#
#
# Indices 1 2 3 4 5 6 
#
# 1 0.006306 -0.005356 0.000340 0.001534 0.003288 0.000327
# 2 -0.005356 0.025830 -0.005032 0.002836 -0.004205 0.000921
# 3 0.000340 -0.005032 0.011679 0.000816 0.001574 0.000217
# 4 0.001534 0.002836 0.000816 0.026252 -0.000869 -0.000919
# 5 0.003288 -0.004205 0.001574 -0.000869 0.022817 0.003243
# 6 0.000327 0.000921 0.000217 -0.000919 0.003243 0.017800
#
#
# Mechanical properties :
#
#
# Convention : Reuss Voigt Hill
#
# Bulk Modulus (GPa) = 42.16219 59.83241 50.99730
# Shear Modulus (GPa) = 36.05300 48.10211 42.07756
#
# Velocity S-wave (km/s) = 3.67589 4.24594 3.97116
# Velocity P-wave (km/s) = 5.81533 6.81628 6.33560
#
# Compressibility (1/GPa) = 0.02371793
#
# Stress axis : x y z
#
# Youngs Moduli (GPa) = 158.58981 38.71521 85.62502
#
# Poissons Ratio (x) = 0.20736 -0.02911
# Poissons Ratio (y) = 0.84939 0.43088
# Poissons Ratio (z) = -0.05392 0.19482
#
# Static dielectric constant tensor:
#      x y z
#    x 2.062430 0.042100 -0.008090 
#    y 0.042100 2.079460 -0.026550 
#    z -0.008090 -0.026550 1.998530 
# 
# From -- ./inp_files/126487.got.cif
#   From: 2010.05.17/outbox.cif.g08.bks.cpg/sg2_64_cif.got.tgz:126487.got - 2010.06.03 11:33:40.
