data_PCOD9051051
_publ_section_title
;
Structure prediction by ZEFSAII (Michael W. Deem and Ramdas Pophale) SiO2 
 PCOD9051051
Probable space group: P -1
;
_chemical_formula_sum "Si O2"
_cell_formula_units_Z 16
_cell_length_a 11.752983
_cell_length_b 11.544054
_cell_length_c 17.037403
_cell_angle_alpha 147.072939
_cell_angle_beta 147.549287
_cell_angle_gamma 44.832534
_cell_volume 674.207689
_symmetry_space_group_name_H-M "P -1"
_symmetry_group_IT_number 2
_symmetry_cell_setting 'triclinic'
loop_
_space_group_symop_operation_xyz
x,y,z
-x,-y,-z
loop_
_atom_site_type_symbol
_atom_site_label
_atom_site_fract_x
_atom_site_fract_y
_atom_site_fract_z
Si Si1 0.409300 0.934218 0.307631
Si Si2 0.764745 0.762254 0.013584
Si Si3 0.703174 0.357447 0.060997
Si Si4 0.355457 0.704921 0.553609
Si Si5 0.773620 0.757179 0.512638
Si Si6 0.562006 0.090997 0.964030
Si Si7 0.908843 0.409551 0.519205
Si Si8 0.768215 0.290021 0.682365
O O1 0.300052 0.831858 0.111216
O O2 0.550878 0.761427 0.338678
O O3 0.236845 0.030170 0.320688
O O4 0.576706 0.124235 0.493237
O O5 0.623072 0.805146 0.032563
O O6 0.714607 0.529401 0.815787
O O7 0.701810 0.945785 0.020065
O O8 0.011696 0.767230 0.181125
O O9 0.682533 0.270927 0.088343
O O10 0.500000 0.500000 0.000000
O O11 0.922740 0.481609 0.262033
O O12 0.500000 0.500000 0.500000
O O13 0.259365 0.688130 0.575191
O O14 0.195927 0.714211 0.393051
O O15 0.476552 0.928049 0.755828
O O16 0.804029 0.571929 0.488830
O O17 0.952370 0.742103 0.541911
#
# Coordination Sequence:
#
# PCOD9051051 Si02
#       8
#     2   2   2   2   2   2   2   2
#     4  11  24  47  73 102 149 195 234 293 366 427
#     4  10  26  43  70 112 139 190 241 302 353 430
#     4  12  27  47  70 110 148 188 240 301 358 425
#     4  12  25  49  76 106 146 189 240 302 361 426
#     4  10  25  45  68 106 139 193 233 293 354 434
#     4  11  26  46  75 102 147 189 239 297 362 427
#     4  11  27  46  76 104 144 192 243 294 359 426
#     4  11  24  45  74 105 147 184 247 294 361 424
#
# _framework density 23.731560000000002
#
# number of rings (size 3 to 8) (size 9 to 14) (size 15 to 20)
#    0.000    1.000    3.750    0.750    7.000    3.000 
#    4.500    0.000    0.000    0.000    0.000    0.000 
#    0.000    0.000    0.000    0.000    0.000    0.000 
#
# Total GULP energy -89628.026359 kJ/mol
# GULP energy per Si atom -5601.751647 kJ/mol
# Density = 2.367755 g / cm^3
# Si number density = 23.731560 Si / 1000 Ang^3
#
#
#
# Elastic Constant Matrix: (Units=GPa)
#
#
# Indices 1 2 3 4 5 6 
#
# 1 144.9270 36.6219 21.7218 -7.7592 -18.4704 -5.9705
# 2 36.6219 79.1917 13.1492 -6.4015 2.1357 -3.5788
# 3 21.7218 13.1492 101.2330 -6.1580 -19.4329 -0.6200
# 4 -7.7592 -6.4015 -6.1580 24.2321 3.0196 -3.1737
# 5 -18.4704 2.1357 -19.4329 3.0196 39.9593 0.3203
# 6 -5.9705 -3.5788 -0.6200 -3.1737 0.3203 39.0506
#
#
#
# Elastic Compliance Matrix: (Units=1/GPa)
#
#
# Indices 1 2 3 4 5 6 
#
# 1 0.008535 -0.003815 -0.000526 0.001252 0.003790 0.001018
# 2 -0.003815 0.015044 -0.001642 0.002919 -0.003595 0.001036
# 3 -0.000526 -0.001642 0.011305 0.001625 0.005220 0.000038
# 4 0.001252 0.002919 0.001625 0.043647 -0.002117 0.004049
# 5 0.003790 -0.003595 0.005220 -0.002117 0.029669 -0.000082
# 6 0.001018 0.001036 0.000038 0.004049 -0.000082 0.026189
#
#
# Mechanical properties :
#
#
# Convention : Reuss Voigt Hill
#
# Bulk Modulus (GPa) = 43.63004 52.03749 47.83377
# Shear Modulus (GPa) = 32.46912 37.57233 35.02072
#
# Velocity S-wave (km/s) = 3.70291 3.98329 3.84565
# Velocity P-wave (km/s) = 6.05861 6.56739 6.31812
#
# Compressibility (1/GPa) = 0.02291999
#
# Stress axis : x y z
#
# Youngs Moduli (GPa) = 117.16743 66.47194 88.45392
#
# Poissons Ratio (x) = 0.25356 0.04651
# Poissons Ratio (y) = 0.44694 0.14521
# Poissons Ratio (z) = 0.06161 0.10912
#
# Static dielectric constant tensor:
#      x y z
#    x 1.919090 0.063630 -0.004170 
#    y 0.063630 1.997340 0.023660 
#    z -0.004170 0.023660 1.891380 
# 
# From -- ./inp_files/613149.got.cif
#   From: 2010.05.17/outbox.cif.g08.bks.cpg/sg2_307_cif.got.tgz:613149.got - 2010.06.03 11:33:40.
