data_PCOD9051888
_publ_section_title
;
Structure prediction by ZEFSAII (Michael W. Deem and Ramdas Pophale) SiO2 
 PCOD9051888
Probable space group: P -1
;
_chemical_formula_sum "Si O2"
_cell_formula_units_Z 10
_cell_length_a 8.842485
_cell_length_b 9.829280
_cell_length_c 15.134607
_cell_angle_alpha 40.475182
_cell_angle_beta 41.372743
_cell_angle_gamma 73.385655
_cell_volume 421.962558
_symmetry_space_group_name_H-M "P -1"
_symmetry_group_IT_number 2
_symmetry_cell_setting 'triclinic'
loop_
_space_group_symop_operation_xyz
x,y,z
-x,-y,-z
loop_
_atom_site_type_symbol
_atom_site_label
_atom_site_fract_x
_atom_site_fract_y
_atom_site_fract_z
Si Si1 0.684460 0.989083 0.498575
Si Si2 0.676465 0.234115 0.732655
Si Si3 0.733698 0.699397 0.222628
Si Si4 0.054431 0.221579 0.438203
Si Si5 0.167586 0.583351 0.056549
O O1 0.752055 0.781263 0.569538
O O2 0.500000 0.000000 0.500000
O O3 0.462689 0.864132 0.743561
O O4 0.013047 0.302841 0.206019
O O5 0.457058 0.288162 0.771514
O O6 0.000000 0.500000 0.500000
O O7 0.767962 0.151672 0.647304
O O8 0.500000 0.000000 0.000000
O O9 0.500000 0.500000 0.500000
O O10 0.901383 0.592774 0.170219
O O11 0.000000 0.000000 0.000000
O O12 0.212943 0.501555 0.172728
O O13 0.000000 0.000000 0.500000
#
# Coordination Sequence:
#
# PCOD9051888 Si02
#       5
#     2   2   2   2   2
#     4  11  25  42  69 103 138 183 236 303 358 417
#     4  12  29  47  74 111 150 187 239 312 369 416
#     4  12  25  46  75 101 143 193 246 290 358 443
#     4  10  25  48  74 101 144 194 244 286 360 442
#     4  11  24  44  70  98 138 187 244 289 352 434
#
# _framework density 23.698785000000001
#
# number of rings (size 3 to 8) (size 9 to 14) (size 15 to 20)
#    0.000    0.800    2.000    3.600    8.400    3.200 
#    0.000    0.000    0.000    0.000    0.000    0.000 
#    0.000    0.000    0.000    0.000    0.000    0.000 
#
# Total GULP energy -55910.640081 kJ/mol
# GULP energy per Si atom -5591.064008 kJ/mol
# Density = 2.364485 g / cm^3
# Si number density = 23.698785 Si / 1000 Ang^3
#
#
#
# Elastic Constant Matrix: (Units=GPa)
#
#
# Indices 1 2 3 4 5 6 
#
# 1 198.5082 29.5353 43.8753 -21.3157 19.5979 -40.3049
# 2 29.5353 91.5501 25.3549 11.0025 5.5932 -19.1643
# 3 43.8753 25.3549 154.4478 -2.1127 11.9276 11.2562
# 4 -21.3157 11.0025 -2.1127 32.2192 2.8516 -7.8325
# 5 19.5979 5.5932 11.9276 2.8516 51.2456 -2.6538
# 6 -40.3049 -19.1643 11.2562 -7.8325 -2.6538 52.1728
#
#
#
# Elastic Compliance Matrix: (Units=1/GPa)
#
#
# Indices 1 2 3 4 5 6 
#
# 1 0.008410 -0.001236 -0.002436 0.007906 -0.002559 0.007625
# 2 -0.001236 0.013241 -0.002152 -0.004583 -0.000026 0.003684
# 3 -0.002436 -0.002152 0.007903 -0.001411 -0.000834 -0.004631
# 4 0.007906 -0.004583 -0.001411 0.040672 -0.003908 0.010636
# 5 -0.002559 -0.000026 -0.000834 -0.003908 0.020838 -0.001333
# 6 0.007625 0.003684 -0.004631 0.010636 -0.001333 0.028939
#
#
# Mechanical properties :
#
#
# Convention : Reuss Voigt Hill
#
# Bulk Modulus (GPa) = 55.84787 71.33747 63.59267
# Shear Modulus (GPa) = 36.33221 50.17687 43.25454
#
# Velocity S-wave (km/s) = 3.91971 4.60638 4.27685
# Velocity P-wave (km/s) = 6.64096 7.64583 7.16104
#
# Compressibility (1/GPa) = 0.01790579
#
# Stress axis : x y z
#
# Youngs Moduli (GPa) = 118.90971 75.52204 126.54041
#
# Poissons Ratio (x) = 0.09335 0.30825
# Poissons Ratio (y) = 0.14698 0.27228
# Poissons Ratio (z) = 0.28967 0.16251
#
# Static dielectric constant tensor:
#      x y z
#    x 1.958080 0.023320 -0.016650 
#    y 0.023320 2.024670 -0.074730 
#    z -0.016650 -0.074730 1.861160 
# 
# From -- ./inp_files/16108.got.cif
#   From: 2010.05.17/outbox.cif.g08.bks.cpg/sg2_9_cif.got.tgz:16108.got - 2010.06.03 11:33:40.
