data_PCOD9051164
_publ_section_title
;
Structure prediction by ZEFSAII (Michael W. Deem and Ramdas Pophale) SiO2 
 PCOD9051164
Probable space group: P -1
;
_chemical_formula_sum "Si O2"
_cell_formula_units_Z 12
_cell_length_a 16.954223
_cell_length_b 5.232721
_cell_length_c 9.168449
_cell_angle_alpha 95.592184
_cell_angle_beta 143.271795
_cell_angle_gamma 82.077800
_cell_volume 481.667322
_symmetry_space_group_name_H-M "P -1"
_symmetry_group_IT_number 2
_symmetry_cell_setting 'triclinic'
loop_
_space_group_symop_operation_xyz
x,y,z
-x,-y,-z
loop_
_atom_site_type_symbol
_atom_site_label
_atom_site_fract_x
_atom_site_fract_y
_atom_site_fract_z
Si Si1 0.885894 0.738174 0.327411
Si Si2 0.408817 0.762435 0.352572
Si Si3 0.604676 0.170504 0.236367
Si Si4 0.635935 0.463208 0.012677
Si Si5 0.175789 0.823877 0.240610
Si Si6 0.012201 0.895453 0.254141
O O1 0.745088 0.652835 0.153820
O O2 0.896911 0.790888 0.173717
O O3 0.000000 0.500000 0.500000
O O4 0.915961 0.959167 0.501253
O O5 0.500000 0.500000 0.500000
O O6 0.288629 0.738077 0.285097
O O7 0.500000 0.000000 0.500000
O O8 0.352120 0.752868 0.104861
O O9 0.658873 0.332484 0.195057
O O10 0.723285 0.022296 0.497869
O O11 0.509554 0.381463 0.196869
O O12 0.500000 0.000000 0.000000
O O13 0.101365 0.705542 0.263957
O O14 0.058444 0.912309 0.959278
#
# Coordination Sequence:
#
# PCOD9051164 Si02
#       6
#     2   2   2   2   2   2
#     4  11  23  46  71 103 142 192 249 301 379 446
#     4  12  27  48  74 112 152 198 249 315 382 451
#     4  11  23  44  69 102 143 189 245 311 374 442
#     4  11  25  42  71 103 139 197 246 306 374 453
#     4  11  23  46  70 104 147 193 250 308 374 445
#     4  10  25  45  71 105 145 197 242 314 370 450
#
# _framework density 24.913460000000001
#
# number of rings (size 3 to 8) (size 9 to 14) (size 15 to 20)
#    0.000    1.000    1.667    4.000    2.333    4.000 
#    3.000    5.000    0.000    0.000    0.000    0.000 
#    0.000    0.000    0.000    0.000    0.000    0.000 
#
# Total GULP energy -66853.988464 kJ/mol
# GULP energy per Si atom -5571.165705 kJ/mol
# Density = 2.485676 g / cm^3
# Si number density = 24.913460 Si / 1000 Ang^3
#
#
#
# Elastic Constant Matrix: (Units=GPa)
#
#
# Indices 1 2 3 4 5 6 
#
# 1 271.2388 33.3897 26.6965 6.7760 -7.8571 8.5109
# 2 33.3897 54.3233 -5.5271 8.5796 -0.0273 10.1898
# 3 26.6965 -5.5271 87.6685 14.1822 -22.8351 14.2976
# 4 6.7760 8.5796 14.1822 23.3190 1.0454 6.9156
# 5 -7.8571 -0.0273 -22.8351 1.0454 36.1122 2.4148
# 6 8.5109 10.1898 14.2976 6.9156 2.4148 34.0377
#
#
#
# Elastic Compliance Matrix: (Units=1/GPa)
#
#
# Indices 1 2 3 4 5 6 
#
# 1 0.004179 -0.002946 -0.001714 0.000801 -0.000228 0.000411
# 2 -0.002946 0.023752 0.006213 -0.009677 0.004074 -0.007307
# 3 -0.001714 0.006213 0.018624 -0.011345 0.012260 -0.007819
# 4 0.000801 -0.009677 -0.011345 0.054374 -0.008381 -0.002990
# 5 -0.000228 0.004074 0.012260 -0.008381 0.036120 -0.007172
# 6 0.000411 -0.007307 -0.007819 -0.002990 -0.007172 0.035865
#
#
# Mechanical properties :
#
#
# Convention : Reuss Voigt Hill
#
# Bulk Modulus (GPa) = 20.13663 58.03878 39.08770
# Shear Modulus (GPa) = 26.82950 42.60519 34.71734
#
# Velocity S-wave (km/s) = 3.28519 4.13986 3.73703
# Velocity P-wave (km/s) = 4.74237 6.79691 5.86038
#
# Compressibility (1/GPa) = 0.04966074
#
# Stress axis : x y z
#
# Youngs Moduli (GPa) = 239.30791 42.10089 53.69370
#
# Poissons Ratio (x) = 0.12405 0.09203
# Poissons Ratio (y) = 0.70510 -0.33361
# Poissons Ratio (z) = 0.41017 -0.26158
#
# Static dielectric constant tensor:
#      x y z
#    x 2.065660 -0.019200 0.041150 
#    y -0.019200 2.063130 0.001170 
#    z 0.041150 0.001170 2.019000 
# 
# From -- ./inp_files/22657.got.cif
#   From: 2010.05.17/outbox.cif.g08.bks.cpg/sg2_12_cif.got.tgz:22657.got - 2010.06.03 11:33:40.
