data_PCOD9051046
_publ_section_title
;
Structure prediction by ZEFSAII (Michael W. Deem and Ramdas Pophale) SiO2 
 PCOD9051046
Probable space group: P -1
;
_chemical_formula_sum "Si O2"
_cell_formula_units_Z 14
_cell_length_a 9.901580
_cell_length_b 15.678731
_cell_length_c 15.230307
_cell_angle_alpha 29.183893
_cell_angle_beta 67.993375
_cell_angle_gamma 46.157504
_cell_volume 628.995766
_symmetry_space_group_name_H-M "P -1"
_symmetry_group_IT_number 2
_symmetry_cell_setting 'triclinic'
loop_
_space_group_symop_operation_xyz
x,y,z
-x,-y,-z
loop_
_atom_site_type_symbol
_atom_site_label
_atom_site_fract_x
_atom_site_fract_y
_atom_site_fract_z
Si Si1 0.497933 0.337638 0.082997
Si Si2 0.572166 0.528215 0.218825
Si Si3 0.038389 0.260568 0.425146
Si Si4 0.704786 0.903708 0.979694
Si Si5 0.747979 0.772849 0.761989
Si Si6 0.903849 0.898056 0.096102
Si Si7 0.435786 0.264806 0.540928
O O1 0.337319 0.330350 0.162483
O O2 0.500000 0.500000 0.000000
O O3 0.392413 0.488514 0.878321
O O4 0.781345 0.997512 0.315456
O O5 0.813446 0.354186 0.368750
O O6 0.503040 0.397508 0.376873
O O7 0.344218 0.876413 0.988516
O O8 0.920824 0.557063 0.216930
O O9 0.198166 0.144565 0.403048
O O10 0.814865 0.951238 0.970297
O O11 0.500000 0.000000 0.000000
O O12 0.577349 0.087868 0.755613
O O13 0.541090 0.039339 0.641108
O O14 0.000000 0.500000 0.000000
O O15 0.139419 0.545859 0.372380
O O16 0.000000 0.000000 0.000000
#
# Coordination Sequence:
#
# PCOD9051046 Si02
#       7
#     2   2   2   2   2   2   2
#     4  12  28  45  73 108 142 187 238 290 354 426
#     4  11  25  46  70 110 141 187 232 299 355 410
#     4  12  26  46  76 104 146 183 239 295 348 427
#     4  12  25  44  72 106 135 190 238 281 358 418
#     4  12  24  48  72 103 146 183 235 290 356 413
#     4  10  25  45  68 104 143 180 234 286 352 413
#     4  11  26  46  75 100 148 188 233 296 351 421
#
# _framework density 22.2577
#
# number of rings (size 3 to 8) (size 9 to 14) (size 15 to 20)
#    0.000    0.571    4.286    2.143    4.000    8.571 
#    0.000    0.000    0.000    0.000    0.000    0.000 
#    0.000    0.000    0.000    0.000    0.000    0.000 
#
# Total GULP energy -78385.514236 kJ/mol
# GULP energy per Si atom -5598.965303 kJ/mol
# Density = 2.220704 g / cm^3
# Si number density = 22.257700 Si / 1000 Ang^3
#
#
#
# Elastic Constant Matrix: (Units=GPa)
#
#
# Indices 1 2 3 4 5 6 
#
# 1 123.8476 10.4970 10.6982 -11.7436 7.3295 -0.7459
# 2 10.4970 54.4005 6.3813 -12.6993 -8.9778 7.2151
# 3 10.6982 6.3813 79.8034 -17.0975 4.0340 -2.4839
# 4 -11.7436 -12.6993 -17.0975 33.3283 -1.7325 -0.7971
# 5 7.3295 -8.9778 4.0340 -1.7325 28.7289 -1.3806
# 6 -0.7459 7.2151 -2.4839 -0.7971 -1.3806 35.9163
#
#
#
# Elastic Compliance Matrix: (Units=1/GPa)
#
#
# Indices 1 2 3 4 5 6 
#
# 1 0.008593 -0.001586 -0.000442 0.002078 -0.002481 0.000417
# 2 -0.001586 0.022449 -0.000364 0.008114 0.007764 -0.004089
# 3 -0.000442 -0.000364 0.014220 0.006949 -0.001524 0.001143
# 4 0.002078 0.008114 0.006949 0.037561 0.003288 -0.000146
# 5 -0.002481 0.007764 -0.001524 0.003288 0.038271 -0.000172
# 6 0.000417 -0.004089 0.001143 -0.000146 -0.000172 0.028742
#
#
# Mechanical properties :
#
#
# Convention : Reuss Voigt Hill
#
# Bulk Modulus (GPa) = 24.70359 34.80050 29.75204
# Shear Modulus (GPa) = 29.74205 34.95972 32.35088
#
# Velocity S-wave (km/s) = 3.65945 3.96748 3.81658
# Velocity P-wave (km/s) = 5.38316 6.05451 5.72868
#
# Compressibility (1/GPa) = 0.04047995
#
# Stress axis : x y z
#
# Youngs Moduli (GPa) = 116.36866 44.54611 70.32117
#
# Poissons Ratio (x) = 0.07065 0.03105
# Poissons Ratio (y) = 0.18456 0.02558
# Poissons Ratio (z) = 0.05139 0.01620
#
# Static dielectric constant tensor:
#      x y z
#    x 1.802250 -0.011510 -0.007660 
#    y -0.011510 1.829460 -0.024990 
#    z -0.007660 -0.024990 1.818420 
# 
# From -- ./inp_files/504936.got.cif
#   From: 2010.05.17/outbox.cif.g08.bks.cpg/sg2_253_cif.got.tgz:504936.got - 2010.06.03 11:33:40.
