data_PCOD9051106
_publ_section_title
;
Structure prediction by ZEFSAII (Michael W. Deem and Ramdas Pophale) SiO2 
 PCOD9051106
Probable space group: P -1
;
_chemical_formula_sum "Si O2"
_cell_formula_units_Z 16
_cell_length_a 23.723344
_cell_length_b 6.689069
_cell_length_c 21.165637
_cell_angle_alpha 132.526574
_cell_angle_beta 19.833412
_cell_angle_gamma 122.529044
_cell_volume 772.469278
_symmetry_space_group_name_H-M "P -1"
_symmetry_group_IT_number 2
_symmetry_cell_setting 'triclinic'
loop_
_space_group_symop_operation_xyz
x,y,z
-x,-y,-z
loop_
_atom_site_type_symbol
_atom_site_label
_atom_site_fract_x
_atom_site_fract_y
_atom_site_fract_z
Si Si1 0.819375 0.784916 0.107195
Si Si2 0.230097 0.319326 0.382057
Si Si3 0.568778 0.380601 0.971811
Si Si4 0.187359 0.816163 0.020714
Si Si5 0.899580 0.578270 0.689858
Si Si6 0.437050 0.574240 0.511008
Si Si7 0.939155 0.170476 0.240778
Si Si8 0.202047 0.269643 0.734529
O O1 0.873281 0.449267 0.954790
O O2 0.762317 0.773575 0.237587
O O3 0.650413 0.074847 0.325359
O O4 0.980799 0.854882 0.919674
O O5 0.148473 0.503387 0.570334
O O6 0.057767 0.395827 0.533551
O O7 0.322508 0.971709 0.220328
O O8 0.385507 0.425642 0.214111
O O9 0.716501 0.510717 0.867811
O O10 0.500000 0.500000 0.000000
O O11 0.398606 0.617271 0.746849
O O12 0.150859 0.080130 0.164566
O O13 0.092640 0.973571 0.087883
O O14 0.000000 0.500000 0.500000
O O15 0.500000 0.500000 0.500000
O O16 0.293432 0.426453 0.626242
O O17 0.789749 0.032817 0.367227
O O18 0.000000 0.500000 0.000000
#
# Coordination Sequence:
#
# PCOD9051106 Si02
#       8
#     2   2   2   2   2   2   2   2
#     4  12  22  40  68  88 133 175 216 263 333 382
#     4  10  25  45  70 100 136 176 223 278 338 403
#     4  11  23  47  71  99 136 172 221 281 342 400
#     4  11  25  43  65  96 131 172 221 268 329 396
#     4  11  24  46  72 101 135 178 223 280 341 401
#     4  12  23  42  60  92 133 170 218 271 317 390
#     4  11  24  42  65  96 128 173 218 267 325 396
#     4  12  23  41  62  91 131 169 216 265 323 384
#
# _framework density 20.712795
#
# number of rings (size 3 to 8) (size 9 to 14) (size 15 to 20)
#    0.000    0.750    6.250    1.125    3.500    0.000 
#    2.250    0.000    0.000    0.000    0.000    0.000 
#    0.000    0.000    0.000    0.000    0.000    0.000 
#
# Total GULP energy -89112.168454 kJ/mol
# GULP energy per Si atom -5569.510528 kJ/mol
# Density = 2.066565 g / cm^3
# Si number density = 20.712795 Si / 1000 Ang^3
#
#
#
# Elastic Constant Matrix: (Units=GPa)
#
#
# Indices 1 2 3 4 5 6 
#
# 1 72.8218 28.2727 26.2979 14.6755 4.5965 6.4774
# 2 28.2727 105.7574 23.6461 8.0624 -6.6803 7.8784
# 3 26.2979 23.6461 80.9761 10.2706 -4.6267 -0.9621
# 4 14.6755 8.0624 10.2706 48.9196 4.7964 -4.1891
# 5 4.5965 -6.6803 -4.6267 4.7964 32.7182 3.3119
# 6 6.4774 7.8784 -0.9621 -4.1891 3.3119 34.7602
#
#
#
# Elastic Compliance Matrix: (Units=1/GPa)
#
#
# Indices 1 2 3 4 5 6 
#
# 1 0.017926 -0.003467 -0.004533 -0.003802 -0.003021 -0.002850
# 2 -0.003467 0.011232 -0.001904 -0.000893 0.002878 -0.002334
# 3 -0.004533 -0.001904 0.014728 -0.001548 0.002430 0.001266
# 4 -0.003802 -0.000893 -0.001548 0.022746 -0.003602 0.003953
# 5 -0.003021 0.002878 0.002430 -0.003602 0.032810 -0.003582
# 6 -0.002850 -0.002334 0.001266 0.003953 -0.003582 0.030681
#
#
# Mechanical properties :
#
#
# Convention : Reuss Voigt Hill
#
# Bulk Modulus (GPa) = 41.53387 46.22096 43.87742
# Shear Modulus (GPa) = 31.65391 35.36883 33.51137
#
# Velocity S-wave (km/s) = 3.91350 4.13678 4.02668
# Velocity P-wave (km/s) = 6.36525 6.72167 6.54589
#
# Compressibility (1/GPa) = 0.02407673
#
# Stress axis : x y z
#
# Youngs Moduli (GPa) = 55.78514 89.03117 67.89906
#
# Poissons Ratio (x) = 0.30870 0.30781
# Poissons Ratio (y) = 0.19342 0.12927
# Poissons Ratio (z) = 0.25290 0.16950
#
# Static dielectric constant tensor:
#      x y z
#    x 1.792330 0.090720 -0.073790 
#    y 0.090720 2.041520 -0.149100 
#    z -0.073790 -0.149100 1.812950 
# 
# From -- ./inp_files/49034.got.cif
#   From: 2010.05.17/outbox.cif.g08.bks.cpg/sg2_25_cif.got.tgz:49034.got - 2010.06.03 11:33:40.
