data_PCOD9051455
_publ_section_title
;
Structure prediction by ZEFSAII (Michael W. Deem and Ramdas Pophale) SiO2 
 PCOD9051455
Probable space group: P -1
;
_chemical_formula_sum "Si O2"
_cell_formula_units_Z 14
_cell_length_a 21.649430
_cell_length_b 5.239400
_cell_length_c 4.872607
_cell_angle_alpha 89.541519
_cell_angle_beta 79.790953
_cell_angle_gamma 106.317864
_cell_volume 521.059471
_symmetry_space_group_name_H-M "P -1"
_symmetry_group_IT_number 2
_symmetry_cell_setting 'triclinic'
loop_
_space_group_symop_operation_xyz
x,y,z
-x,-y,-z
loop_
_atom_site_type_symbol
_atom_site_label
_atom_site_fract_x
_atom_site_fract_y
_atom_site_fract_z
Si Si1 0.294244 0.888719 0.292498
Si Si2 0.693431 0.591088 0.050375
Si Si3 0.926561 0.321009 0.125116
Si Si4 0.072630 0.994599 0.372056
Si Si5 0.825319 0.510272 0.847478
Si Si6 0.494614 0.295423 0.254728
Si Si7 0.387287 0.828524 0.592186
O O1 0.317856 0.899560 0.588257
O O2 0.218209 0.741317 0.291286
O O3 0.325853 0.677211 0.120931
O O4 0.314862 0.166489 0.119101
O O5 0.647062 0.493268 0.348829
O O6 0.770435 0.628041 0.033509
O O7 0.918978 0.247591 0.449328
O O8 0.922165 0.056661 0.953413
O O9 0.871247 0.430833 0.034430
O O10 0.000000 0.500000 0.000000
O O11 0.128965 0.263024 0.381794
O O12 0.000000 0.000000 0.500000
O O13 0.500000 0.500000 0.500000
O O14 0.553709 0.160268 0.239600
O O15 0.430177 0.046154 0.341505
O O16 0.500000 0.500000 0.000000
#
# Coordination Sequence:
#
# PCOD9051455 Si02
#       7
#     2   2   2   2   2   2   2
#     4  10  25  46  71 108 150 199 257 314 384 451
#     4  10  25  46  71 108 150 199 257 314 384 451
#     4  12  26  46  73 106 149 196 254 318 394 465
#     4  12  26  46  73 106 149 196 254 318 394 465
#     4  10  26  44  74 105 150 194 264 314 394 455
#     4  11  28  47  78 116 159 200 261 313 384 456
#     4  11  26  44  80 106 160 202 258 314 386 452
#
# _framework density 26.868334000000001
#
# number of rings (size 3 to 8) (size 9 to 14) (size 15 to 20)
#    0.857    0.286    1.429    2.571    8.000    5.714 
#    0.000    0.000    0.000    0.000    0.000    0.000 
#    0.000    0.000    0.000    0.000    0.000    0.000 
#
# Total GULP energy -78139.098834 kJ/mol
# GULP energy per Si atom -5581.364202 kJ/mol
# Density = 2.680718 g / cm^3
# Si number density = 26.868334 Si / 1000 Ang^3
#
#
#
# Elastic Constant Matrix: (Units=GPa)
#
#
# Indices 1 2 3 4 5 6 
#
# 1 191.4667 24.8926 57.9788 -38.6869 11.2494 17.3340
# 2 24.8926 130.4176 58.4783 -34.4312 1.9183 13.5125
# 3 57.9788 58.4783 150.0377 -42.8266 13.8078 15.3275
# 4 -38.6869 -34.4312 -42.8266 74.4102 0.1837 -8.7514
# 5 11.2494 1.9183 13.8078 0.1837 52.8664 -15.6463
# 6 17.3340 13.5125 15.3275 -8.7514 -15.6463 37.0770
#
#
#
# Elastic Compliance Matrix: (Units=1/GPa)
#
#
# Indices 1 2 3 4 5 6 
#
# 1 0.006464 0.000381 -0.001533 0.002337 -0.001807 -0.002738
# 2 0.000381 0.009882 -0.002961 0.002831 -0.000268 -0.002000
# 3 -0.001533 -0.002961 0.009886 0.003201 -0.002987 -0.002796
# 4 0.002337 0.002831 0.003201 0.017827 -0.001455 0.000146
# 5 -0.001807 -0.000268 -0.002987 -0.001455 0.023583 0.011786
# 6 -0.002738 -0.002000 -0.002796 0.000146 0.011786 0.035144
#
#
# Mechanical properties :
#
#
# Convention : Reuss Voigt Hill
#
# Bulk Modulus (GPa) = 55.54387 83.84683 69.69535
# Shear Modulus (GPa) = 42.72998 54.90888 48.81943
#
# Velocity S-wave (km/s) = 3.99224 4.52555 4.26724
# Velocity P-wave (km/s) = 6.47828 7.65388 7.09049
#
# Compressibility (1/GPa) = 0.01800379
#
# Stress axis : x y z
#
# Youngs Moduli (GPa) = 154.70677 101.19900 101.15485
#
# Poissons Ratio (x) = -0.03855 0.15509
# Poissons Ratio (y) = -0.05894 0.29957
# Poissons Ratio (z) = 0.23720 0.29970
#
# Static dielectric constant tensor:
#      x y z
#    x 2.123510 -0.030530 -0.018740 
#    y -0.030530 2.294590 0.278150 
#    z -0.018740 0.278150 2.441750 
# 
# From -- ./inp_files/10426.got.cif
#   From: 2010.05.17/outbox.cif.g08.bks.cpg/sg2_6_cif.got.tgz:10426.got - 2010.06.03 11:33:40.
