data_PCOD9051548
_publ_section_title
;
Structure prediction by ZEFSAII (Michael W. Deem and Ramdas Pophale) SiO2 
 PCOD9051548
Probable space group: P -1
;
_chemical_formula_sum "Si O2"
_cell_formula_units_Z 16
_cell_length_a 10.081152
_cell_length_b 14.780792
_cell_length_c 8.546531
_cell_angle_alpha 94.236769
_cell_angle_beta 43.109462
_cell_angle_gamma 68.305403
_cell_volume 679.917156
_symmetry_space_group_name_H-M "P -1"
_symmetry_group_IT_number 2
_symmetry_cell_setting 'triclinic'
loop_
_space_group_symop_operation_xyz
x,y,z
-x,-y,-z
loop_
_atom_site_type_symbol
_atom_site_label
_atom_site_fract_x
_atom_site_fract_y
_atom_site_fract_z
Si Si1 0.997097 0.306899 0.138682
Si Si2 0.119327 0.833698 0.558976
Si Si3 0.098521 0.925573 0.066459
Si Si4 0.673104 0.646342 0.967238
Si Si5 0.094407 0.553136 0.037321
Si Si6 0.283378 0.120549 0.633824
Si Si7 0.639601 0.712849 0.687927
Si Si8 0.296452 0.122127 0.266722
O O1 0.093278 0.359742 0.174355
O O2 0.826715 0.393789 0.152561
O O3 0.232954 0.211577 0.815455
O O4 0.920442 0.236387 0.286597
O O5 0.406590 0.762896 0.266563
O O6 0.970797 0.838908 0.537714
O O7 0.986544 0.968367 0.730677
O O8 0.950033 0.875627 0.188587
O O9 0.376474 0.808525 0.844446
O O10 0.000000 0.000000 0.000000
O O11 0.658766 0.627867 0.790865
O O12 0.702881 0.545500 0.032289
O O13 0.863731 0.645708 0.362339
O O14 0.000000 0.500000 0.000000
O O15 0.355590 0.118476 0.395549
O O16 0.500000 0.000000 0.500000
O O17 0.677077 0.782322 0.794134
O O18 0.500000 0.000000 0.000000
#
# Coordination Sequence:
#
# PCOD9051548 Si02
#       8
#     2   2   2   2   2   2   2   2
#     4  11  23  44  69 101 140 185 227 294 348 406
#     4  12  25  44  69 107 143 185 230 284 356 425
#     4  12  26  39  67 108 141 178 232 280 347 435
#     4  11  26  46  74 101 140 185 241 291 348 416
#     4  10  25  46  75 101 132 188 243 297 347 400
#     4  12  24  39  65  98 143 188 227 283 350 417
#     4  12  24  46  73 100 145 188 229 289 357 415
#     4  12  24  42  66 101 143 185 226 281 355 427
#
# _framework density 23.532278000000002
#
# number of rings (size 3 to 8) (size 9 to 14) (size 15 to 20)
#    0.000    0.500    5.000    3.375    5.250    1.500 
#    0.000    1.875    0.000    0.000    0.000    0.000 
#    0.000    0.000    0.000    0.000    0.000    0.000 
#
# Total GULP energy -89166.633621 kJ/mol
# GULP energy per Si atom -5572.914601 kJ/mol
# Density = 2.347872 g / cm^3
# Si number density = 23.532278 Si / 1000 Ang^3
#
#
#
# Elastic Constant Matrix: (Units=GPa)
#
#
# Indices 1 2 3 4 5 6 
#
# 1 92.7608 27.2497 30.4377 -3.4306 -7.1153 -19.5042
# 2 27.2497 62.4175 8.3267 -0.6155 13.7984 -27.7469
# 3 30.4377 8.3267 85.0147 7.7473 7.1738 -8.2632
# 4 -3.4306 -0.6155 7.7473 40.5355 -5.0345 8.1160
# 5 -7.1153 13.7984 7.1738 -5.0345 37.1610 -4.6452
# 6 -19.5042 -27.7469 -8.2632 8.1160 -4.6452 47.2507
#
#
#
# Elastic Compliance Matrix: (Units=1/GPa)
#
#
# Indices 1 2 3 4 5 6 
#
# 1 0.015681 -0.006948 -0.005651 0.002879 0.007266 0.001624
# 2 -0.006948 0.026875 0.002455 -0.004605 -0.010773 0.013075
# 3 -0.005651 0.002455 0.014548 -0.004235 -0.005141 0.001875
# 4 0.002879 -0.004605 -0.004235 0.027687 0.006027 -0.006420
# 5 0.007266 -0.010773 -0.005141 0.006027 0.033869 -0.001931
# 6 0.001624 0.013075 0.001875 -0.006420 -0.001931 0.030753
#
#
# Mechanical properties :
#
#
# Convention : Reuss Voigt Hill
#
# Bulk Modulus (GPa) = 27.16264 41.35791 34.26028
# Shear Modulus (GPa) = 27.47641 36.60138 32.03890
#
# Velocity S-wave (km/s) = 3.42073 3.94810 3.69384
# Velocity P-wave (km/s) = 5.21245 6.19648 5.72565
#
# Compressibility (1/GPa) = 0.03681527
#
# Stress axis : x y z
#
# Youngs Moduli (GPa) = 63.77020 37.20866 68.73956
#
# Poissons Ratio (x) = 0.25852 0.38848
# Poissons Ratio (y) = 0.44307 -0.16874
# Poissons Ratio (z) = 0.36040 -0.09134
#
# Static dielectric constant tensor:
#      x y z
#    x 1.929720 -0.015290 0.107640 
#    y -0.015290 2.360140 -0.104910 
#    z 0.107640 -0.104910 2.003090 
# 
# From -- ./inp_files/207529.got.cif
#   From: 2010.05.17/outbox.cif.g08.bks.cpg/sg2_104_cif.got.tgz:207529.got - 2010.06.03 11:33:40.
