data_PCOD9051649
_publ_section_title
;
Structure prediction by ZEFSAII (Michael W. Deem and Ramdas Pophale) SiO2 
 PCOD9051649
Probable space group: P -1
;
_chemical_formula_sum "Si O2"
_cell_formula_units_Z 12
_cell_length_a 9.657191
_cell_length_b 5.806244
_cell_length_c 16.493633
_cell_angle_alpha 76.721188
_cell_angle_beta 128.633939
_cell_angle_gamma 128.649798
_cell_volume 544.391333
_symmetry_space_group_name_H-M "P -1"
_symmetry_group_IT_number 2
_symmetry_cell_setting 'triclinic'
loop_
_space_group_symop_operation_xyz
x,y,z
-x,-y,-z
loop_
_atom_site_type_symbol
_atom_site_label
_atom_site_fract_x
_atom_site_fract_y
_atom_site_fract_z
Si Si1 0.886298 0.355263 0.724286
Si Si2 0.824656 0.661826 0.544449
Si Si3 0.026688 0.331186 0.607658
Si Si4 0.753130 0.260189 0.038028
Si Si5 0.887261 0.737718 0.913593
Si Si6 0.514688 0.706981 0.682940
O O1 0.850174 0.579446 0.650876
O O2 0.954607 0.246320 0.682525
O O3 0.085152 0.503495 0.850658
O O4 0.644977 0.065244 0.693797
O O5 0.947645 0.542250 0.550707
O O6 0.581086 0.450839 0.427338
O O7 0.918027 0.007371 0.551086
O O8 0.296693 0.541483 0.675261
O O9 0.898672 0.157869 0.071300
O O10 0.766045 0.431577 0.947991
O O11 0.500000 0.000000 0.000000
O O12 0.697713 0.689199 0.790843
O O13 0.000000 0.000000 0.000000
#
# Coordination Sequence:
#
# PCOD9051649 Si02
#       6
#     2   2   2   2   2   2
#     4  10  26  43  71 106 140 190 247 290 376 428
#     4  10  25  47  70 111 146 194 241 299 371 433
#     4  10  26  45  72 110 146 193 245 294 373 437
#     4  11  27  48  73 103 145 191 242 311 362 443
#     4  11  27  46  70 105 138 191 250 290 378 428
#     4  12  24  46  72 101 149 189 239 315 349 448
#
# _framework density 22.042964999999999
#
# number of rings (size 3 to 8) (size 9 to 14) (size 15 to 20)
#    1.000    0.333    1.667    1.500    7.000    4.000 
#    0.000    0.000    0.000    0.000    0.000    0.000 
#    0.000    0.000    0.000    0.000    0.000    0.000 
#
# Total GULP energy -66909.275215 kJ/mol
# GULP energy per Si atom -5575.772935 kJ/mol
# Density = 2.199279 g / cm^3
# Si number density = 22.042965 Si / 1000 Ang^3
#
#
#
# Elastic Constant Matrix: (Units=GPa)
#
#
# Indices 1 2 3 4 5 6 
#
# 1 102.8008 35.8940 36.5160 13.6691 16.8957 -3.2141
# 2 35.8940 128.8988 66.3559 7.6180 16.4319 -0.2275
# 3 36.5160 66.3559 123.1176 -4.9592 12.8871 -1.0992
# 4 13.6691 7.6180 -4.9592 46.4257 0.6879 3.8702
# 5 16.8957 16.4319 12.8871 0.6879 35.5122 12.5244
# 6 -3.2141 -0.2275 -1.0992 3.8702 12.5244 36.4904
#
#
#
# Elastic Compliance Matrix: (Units=1/GPa)
#
#
# Indices 1 2 3 4 5 6 
#
# 1 0.012649 -0.001200 -0.002648 -0.004009 -0.005616 0.003380
# 2 -0.001200 0.011493 -0.005597 -0.002175 -0.003053 0.001076
# 3 -0.002648 -0.005597 0.012107 0.003002 -0.000596 -0.000017
# 4 -0.004009 -0.002175 0.003002 0.023667 0.002672 -0.003703
# 5 -0.005616 -0.003053 -0.000596 0.002672 0.037199 -0.013583
# 6 0.003380 0.001076 -0.000017 -0.003703 -0.013583 0.032763
#
#
# Mechanical properties :
#
#
# Convention : Reuss Voigt Hill
#
# Bulk Modulus (GPa) = 57.60705 70.26101 63.93403
# Shear Modulus (GPa) = 32.35101 38.08908 35.22005
#
# Velocity S-wave (km/s) = 3.83513 4.16137 4.00157
# Velocity P-wave (km/s) = 6.76769 7.41843 7.10052
#
# Compressibility (1/GPa) = 0.01735899
#
# Stress axis : x y z
#
# Youngs Moduli (GPa) = 79.05775 87.00899 82.59447
#
# Poissons Ratio (x) = 0.10443 0.21872
# Poissons Ratio (y) = 0.09489 0.46226
# Poissons Ratio (z) = 0.20936 0.48697
#
# Static dielectric constant tensor:
#      x y z
#    x 1.869200 -0.012130 -0.050740 
#    y -0.012130 1.867610 -0.056010 
#    z -0.050740 -0.056010 1.749140 
# 
# From -- ./inp_files/552738.got.cif
#   From: 2010.05.17/outbox.cif.g08.bks.cpg/sg2_277_cif.got.tgz:552738.got - 2010.06.03 11:33:40.
