data_PCOD9051595
_publ_section_title
;
Structure prediction by ZEFSAII (Michael W. Deem and Ramdas Pophale) SiO2 
 PCOD9051595
Probable space group: P -1
;
_chemical_formula_sum "Si O2"
_cell_formula_units_Z 16
_cell_length_a 14.536904
_cell_length_b 15.015504
_cell_length_c 8.766305
_cell_angle_alpha 117.254144
_cell_angle_beta 125.412059
_cell_angle_gamma 27.764017
_cell_volume 718.860923
_symmetry_space_group_name_H-M "P -1"
_symmetry_group_IT_number 2
_symmetry_cell_setting 'triclinic'
loop_
_space_group_symop_operation_xyz
x,y,z
-x,-y,-z
loop_
_atom_site_type_symbol
_atom_site_label
_atom_site_fract_x
_atom_site_fract_y
_atom_site_fract_z
Si Si1 0.773175 0.715125 0.511827
Si Si2 0.562175 0.666745 0.234290
Si Si3 0.560315 0.122415 0.147187
Si Si4 0.552745 0.947127 0.761815
Si Si5 0.721663 0.480439 0.935803
Si Si6 0.969910 0.175201 0.711334
Si Si7 0.625587 0.433876 0.316529
Si Si8 0.126454 0.911653 0.895332
O O1 0.616176 0.737240 0.388525
O O2 0.756344 0.777583 0.710755
O O3 0.000000 0.500000 0.500000
O O4 0.660643 0.874579 0.408394
O O5 0.559342 0.591998 0.313435
O O6 0.737343 0.499208 0.142635
O O7 0.330876 0.830482 0.056079
O O8 0.478273 0.125676 0.218687
O O9 0.404197 0.332657 0.118718
O O10 0.806122 0.976121 0.281197
O O11 0.562620 0.037486 0.948586
O O12 0.929892 0.291271 0.890646
O O13 0.572930 0.492648 0.797816
O O14 0.768464 0.329662 0.523871
O O15 0.993402 0.055787 0.737853
O O16 0.771885 0.270826 0.198425
O O17 0.000000 0.000000 0.000000
#
# Coordination Sequence:
#
# PCOD9051595 Si02
#       8
#     2   2   2   2   2   2   2   2
#     4  11  25  45  71  98 131 173 232 284 342 393
#     4  11  23  44  64  98 138 176 221 278 333 408
#     4  11  24  44  69  96 135 176 224 276 347 394
#     4  10  25  47  66  97 133 171 224 294 331 399
#     4  11  23  43  66  95 140 174 217 271 335 408
#     4  12  24  40  69 100 131 180 223 271 331 401
#     4  11  24  41  63 100 143 165 224 274 325 404
#     4  11  22  42  67  98 138 186 220 265 336 408
#
# _framework density 22.257435000000001
#
# number of rings (size 3 to 8) (size 9 to 14) (size 15 to 20)
#    0.000    1.000    3.750    3.750    5.250    1.000 
#    2.250    2.500    0.000    0.000    0.000    0.000 
#    0.000    0.000    0.000    0.000    0.000    0.000 
#
# Total GULP energy -89524.133933 kJ/mol
# GULP energy per Si atom -5595.258371 kJ/mol
# Density = 2.220678 g / cm^3
# Si number density = 22.257435 Si / 1000 Ang^3
#
#
#
# Elastic Constant Matrix: (Units=GPa)
#
#
# Indices 1 2 3 4 5 6 
#
# 1 91.3077 28.6816 18.1103 -5.7492 -21.9520 24.0408
# 2 28.6816 86.2362 -5.8275 2.5732 -14.7635 2.7469
# 3 18.1103 -5.8275 64.8907 0.0335 -12.1287 4.8262
# 4 -5.7492 2.5732 0.0335 30.5520 6.5167 -15.4583
# 5 -21.9520 -14.7635 -12.1287 6.5167 28.7330 4.6580
# 6 24.0408 2.7469 4.8262 -15.4583 4.6580 47.3326
#
#
#
# Elastic Compliance Matrix: (Units=1/GPa)
#
#
# Indices 1 2 3 4 5 6 
#
# 1 0.019040 -0.003196 -0.001733 -0.005939 0.015592 -0.012783
# 2 -0.003196 0.014458 0.003804 -0.004432 0.007895 -0.001828
# 3 -0.001733 0.003804 0.018400 -0.004711 0.010074 -0.003747
# 4 -0.005939 -0.004432 -0.004711 0.047907 -0.023184 0.021682
# 5 0.015592 0.007895 0.010074 -0.023184 0.064056 -0.023280
# 6 -0.012783 -0.001828 -0.003747 0.021682 -0.023280 0.037480
#
#
# Mechanical properties :
#
#
# Convention : Reuss Voigt Hill
#
# Bulk Modulus (GPa) = 20.14152 36.04038 28.09095
# Shear Modulus (GPa) = 22.71291 34.75486 28.73388
#
# Velocity S-wave (km/s) = 3.19794 3.95586 3.59692
# Velocity P-wave (km/s) = 4.76495 6.09038 5.46798
#
# Compressibility (1/GPa) = 0.04964868
#
# Stress axis : x y z
#
# Youngs Moduli (GPa) = 52.52164 69.16562 54.34883
#
# Poissons Ratio (x) = 0.22104 0.09417
# Poissons Ratio (y) = 0.16785 -0.20675
# Poissons Ratio (z) = 0.09100 -0.26312
#
# Static dielectric constant tensor:
#      x y z
#    x 1.802480 -0.035380 -0.003640 
#    y -0.035380 1.817840 0.013650 
#    z -0.003640 0.013650 1.819510 
# 
# From -- ./inp_files/315672.got.cif
#   From: 2010.05.17/outbox.cif.g08.bks.cpg/sg2_158_cif.got.tgz:315672.got - 2010.06.03 11:33:40.
