data_PCOD9051869
_publ_section_title
;
Structure prediction by ZEFSAII (Michael W. Deem and Ramdas Pophale) SiO2 
 PCOD9051869
Probable space group: P -1
;
_chemical_formula_sum "Si O2"
_cell_formula_units_Z 14
_cell_length_a 8.162864
_cell_length_b 7.500245
_cell_length_c 10.180988
_cell_angle_alpha 115.034241
_cell_angle_beta 104.003489
_cell_angle_gamma 58.783814
_cell_volume 482.784534
_symmetry_space_group_name_H-M "P -1"
_symmetry_group_IT_number 2
_symmetry_cell_setting 'triclinic'
loop_
_space_group_symop_operation_xyz
x,y,z
-x,-y,-z
loop_
_atom_site_type_symbol
_atom_site_label
_atom_site_fract_x
_atom_site_fract_y
_atom_site_fract_z
Si Si1 0.085717 0.130900 0.470756
Si Si2 0.741512 0.283739 0.272264
Si Si3 0.758177 0.397937 0.879038
Si Si4 0.125913 0.103564 0.994107
Si Si5 0.549819 0.149384 0.414838
Si Si6 0.432510 0.294938 0.822624
Si Si7 0.176388 0.430552 0.308414
O O1 0.963647 0.191677 0.331770
O O2 0.014183 0.365862 0.606651
O O3 0.313239 0.962050 0.467821
O O4 0.000000 0.000000 0.500000
O O5 0.637823 0.276318 0.383748
O O6 0.665594 0.509368 0.244892
O O7 0.715095 0.107241 0.118038
O O8 0.648787 0.259288 0.854825
O O9 0.731244 0.464476 0.743207
O O10 0.668124 0.602278 0.026804
O O11 0.983670 0.270287 0.908589
O O12 0.163532 0.249354 0.153912
O O13 0.000000 0.000000 0.000000
O O14 0.322570 0.310777 0.418881
O O15 0.577572 0.927598 0.276579
#
# Coordination Sequence:
#
# PCOD9051869 Si02
#       7
#     2   2   2   2   2   2   2
#     4  10  25  48  73 102 142 191 238 286 356 426
#     4  11  24  47  71  99 145 189 229 297 355 414
#     4  11  22  40  66 102 145 179 234 290 351 423
#     4  12  24  42  68 108 140 179 238 294 349 420
#     4  11  24  45  71 103 142 188 236 288 353 422
#     4  11  23  41  67 107 141 185 232 291 358 420
#     4  12  25  45  75 105 140 190 236 291 358 419
#
# _framework density 28.998441
#
# number of rings (size 3 to 8) (size 9 to 14) (size 15 to 20)
#    0.000    0.857    2.857    4.714    2.000    4.000 
#    2.571    0.714    0.000    0.000    0.000    0.000 
#    0.000    0.000    0.000    0.000    0.000    0.000 
#
# Total GULP energy -78593.427025 kJ/mol
# GULP energy per Si atom -5613.816216 kJ/mol
# Density = 2.893244 g / cm^3
# Si number density = 28.998441 Si / 1000 Ang^3
#
#
#
# Elastic Constant Matrix: (Units=GPa)
#
#
# Indices 1 2 3 4 5 6 
#
# 1 83.5419 48.9833 32.6513 -4.4252 4.4725 0.7555
# 2 48.9833 198.9686 66.1259 -21.6389 11.9274 -23.2873
# 3 32.6513 66.1259 168.4674 21.2250 5.9663 0.0724
# 4 -4.4252 -21.6389 21.2250 75.9057 11.0411 15.4308
# 5 4.4725 11.9274 5.9663 11.0411 57.2067 -12.4533
# 6 0.7555 -23.2873 0.0724 15.4308 -12.4533 58.0545
#
#
#
# Elastic Compliance Matrix: (Units=1/GPa)
#
#
# Indices 1 2 3 4 5 6 
#
# 1 0.014556 -0.003079 -0.001701 0.000960 -0.000912 -0.001873
# 2 -0.003079 0.007153 -0.002462 0.002262 -0.000973 0.002102
# 3 -0.001701 -0.002462 0.007591 -0.002962 0.000404 -0.000101
# 4 0.000960 0.002262 -0.002962 0.016212 -0.004310 -0.004335
# 5 -0.000912 -0.000973 0.000404 -0.004310 0.019628 0.004977
# 6 -0.001873 0.002102 -0.000101 -0.004335 0.004977 0.020313
#
#
# Mechanical properties :
#
#
# Convention : Reuss Voigt Hill
#
# Bulk Modulus (GPa) = 67.49112 82.94431 75.21771
# Shear Modulus (GPa) = 47.67633 58.44788 53.06210
#
# Velocity S-wave (km/s) = 4.05915 4.49436 4.28229
# Velocity P-wave (km/s) = 6.73004 7.45637 7.10250
#
# Compressibility (1/GPa) = 0.01481676
#
# Stress axis : x y z
#
# Youngs Moduli (GPa) = 68.69851 139.81113 131.73743
#
# Poissons Ratio (x) = 0.43041 0.22405
# Poissons Ratio (y) = 0.21149 0.32437
# Poissons Ratio (z) = 0.11684 0.34425
#
# Static dielectric constant tensor:
#      x y z
#    x 2.229980 -0.069650 0.051580 
#    y -0.069650 2.264180 0.001810 
#    z 0.051580 0.001810 2.233230 
# 
# From -- ./inp_files/383297.got.cif
#   From: 2010.05.17/outbox.cif.g08.bks.cpg/sg2_192_cif.got.tgz:383297.got - 2010.06.03 11:33:40.
