data_PCOD9051201
_publ_section_title
;
Structure prediction by ZEFSAII (Michael W. Deem and Ramdas Pophale) SiO2 
 PCOD9051201
Probable space group: P -1
;
_chemical_formula_sum "Si O2"
_cell_formula_units_Z 14
_cell_length_a 8.827723
_cell_length_b 12.082091
_cell_length_c 17.709177
_cell_angle_alpha 19.422319
_cell_angle_beta 109.617972
_cell_angle_gamma 108.192894
_cell_volume 591.566582
_symmetry_space_group_name_H-M "P -1"
_symmetry_group_IT_number 2
_symmetry_cell_setting 'triclinic'
loop_
_space_group_symop_operation_xyz
x,y,z
-x,-y,-z
loop_
_atom_site_type_symbol
_atom_site_label
_atom_site_fract_x
_atom_site_fract_y
_atom_site_fract_z
Si Si1 0.528553 0.177469 0.605763
Si Si2 0.711549 0.327783 0.969657
Si Si3 0.083726 0.531622 0.644940
Si Si4 0.428609 0.295829 0.847545
Si Si5 0.212136 0.250527 0.140679
Si Si6 0.982203 0.607206 0.749713
Si Si7 0.754337 0.614702 0.468781
O O1 0.527419 0.367583 0.404040
O O2 0.647938 0.373714 0.555959
O O3 0.354242 0.239013 0.574201
O O4 0.623118 0.838915 0.819181
O O5 0.521374 0.293269 0.944120
O O6 0.751657 0.504706 0.941043
O O7 0.798770 0.532372 0.787656
O O8 0.785439 0.958728 0.210237
O O9 0.237479 0.291173 0.818064
O O10 0.035168 0.509661 0.737984
O O11 0.923138 0.451821 0.623661
O O12 0.139165 0.904501 0.386258
O O13 0.500000 0.000000 0.000000
O O14 0.089298 0.427950 0.947921
O O15 0.000000 0.000000 0.500000
#
# Coordination Sequence:
#
# PCOD9051201 Si02
#       7
#     2   2   2   2   2   2   2
#     4  10  25  45  72 102 150 184 242 294 362 423
#     4  12  24  45  74 101 148 187 238 296 357 425
#     4  11  25  45  73 106 143 183 245 292 356 423
#     4  11  25  46  70 106 143 186 241 298 350 430
#     4  11  25  45  70 109 142 188 241 298 353 430
#     4  12  24  45  73 107 147 186 237 298 359 424
#     4  11  23  46  74 105 141 195 235 297 359 422
#
# _framework density 23.665975
#
# number of rings (size 3 to 8) (size 9 to 14) (size 15 to 20)
#    0.000    0.857    4.286    2.143    2.000    6.286 
#    2.571    2.143    0.000    0.000    0.000    0.000 
#    0.000    0.000    0.000    0.000    0.000    0.000 
#
# Total GULP energy -78316.419639 kJ/mol
# GULP energy per Si atom -5594.029974 kJ/mol
# Density = 2.361211 g / cm^3
# Si number density = 23.665975 Si / 1000 Ang^3
#
#
#
# Elastic Constant Matrix: (Units=GPa)
#
#
# Indices 1 2 3 4 5 6 
#
# 1 124.1435 40.2660 37.2413 7.0685 22.1418 15.2081
# 2 40.2660 88.1899 25.3117 20.7715 15.0516 9.6992
# 3 37.2413 25.3117 69.2182 4.2678 11.2684 8.4472
# 4 7.0685 20.7715 4.2678 33.5592 4.8307 7.1675
# 5 22.1418 15.0516 11.2684 4.8307 43.6138 13.4999
# 6 15.2081 9.6992 8.4472 7.1675 13.4999 42.0757
#
#
#
# Elastic Compliance Matrix: (Units=1/GPa)
#
#
# Indices 1 2 3 4 5 6 
#
# 1 0.011067 -0.003454 -0.004075 0.001101 -0.002997 -0.001612
# 2 -0.003454 0.016212 -0.003226 -0.008656 -0.002149 0.000323
# 3 -0.004075 -0.003226 0.018105 0.000985 -0.001237 -0.001189
# 4 0.001101 -0.008656 0.000985 0.035832 -0.000376 -0.004583
# 5 -0.002997 -0.002149 -0.001237 -0.000376 0.027720 -0.007003
# 6 -0.001612 0.000323 -0.001189 -0.004583 -0.007003 0.027541
#
#
# Mechanical properties :
#
#
# Convention : Reuss Voigt Hill
#
# Bulk Modulus (GPa) = 41.88503 54.13216 48.00859
# Shear Modulus (GPa) = 30.13037 35.76526 32.94782
#
# Velocity S-wave (km/s) = 3.57200 3.89170 3.73527
# Velocity P-wave (km/s) = 5.89483 6.56634 6.23963
#
# Compressibility (1/GPa) = 0.02387488
#
# Stress axis : x y z
#
# Youngs Moduli (GPa) = 90.35755 61.68158 55.23415
#
# Poissons Ratio (x) = 0.21305 0.22506
# Poissons Ratio (y) = 0.31210 0.17818
# Poissons Ratio (z) = 0.36817 0.19898
#
# Static dielectric constant tensor:
#      x y z
#    x 1.881780 0.005500 -0.032230 
#    y 0.005500 1.881880 0.033060 
#    z -0.032230 0.033060 1.922000 
# 
# From -- ./inp_files/278935.got.cif
#   From: 2010.05.17/outbox.cif.g08.bks.cpg/sg2_140_cif.got.tgz:278935.got - 2010.06.03 11:33:40.
