data_PCOD9051353
_publ_section_title
;
Structure prediction by ZEFSAII (Michael W. Deem and Ramdas Pophale) SiO2 
 PCOD9051353
Probable space group: P -1
;
_chemical_formula_sum "Si O2"
_cell_formula_units_Z 12
_cell_length_a 7.797104
_cell_length_b 15.613817
_cell_length_c 8.463880
_cell_angle_alpha 132.370424
_cell_angle_beta 95.722197
_cell_angle_gamma 48.308350
_cell_volume 440.658714
_symmetry_space_group_name_H-M "P -1"
_symmetry_group_IT_number 2
_symmetry_cell_setting 'triclinic'
loop_
_space_group_symop_operation_xyz
x,y,z
-x,-y,-z
loop_
_atom_site_type_symbol
_atom_site_label
_atom_site_fract_x
_atom_site_fract_y
_atom_site_fract_z
Si Si1 0.683764 0.322168 0.622508
Si Si2 0.983432 0.249373 0.992582
Si Si3 0.187122 0.031826 0.067236
Si Si4 0.408811 0.843271 0.367298
Si Si5 0.093091 0.295053 0.573826
Si Si6 0.316728 0.309582 0.131726
O O1 0.364128 0.538187 0.799940
O O2 0.653406 0.241153 0.651303
O O3 0.854904 0.348321 0.713468
O O4 0.905005 0.149050 0.293275
O O5 0.133994 0.292561 0.069311
O O6 0.061381 0.136894 0.019431
O O7 0.155114 0.076147 0.665857
O O8 0.714889 0.903609 0.749801
O O9 0.485465 0.795462 0.823717
O O10 0.708660 0.733050 0.333833
O O11 0.459016 0.801012 0.133873
O O12 0.912497 0.462021 0.631401
#
# Coordination Sequence:
#
# PCOD9051353 Si02
#       6
#     2   2   2   2   2   2
#     4  10  26  45  69 106 134 181 228 283 343 399
#     4  12  24  45  74  99 140 182 227 283 341 406
#     4  10  26  46  66 107 136 179 232 279 341 406
#     4  12  26  46  71 103 139 180 228 283 340 409
#     4  10  25  46  68 103 138 175 231 281 336 407
#     4  12  25  45  72 102 138 184 226 281 344 403
#
# _framework density 27.231961999999999
#
# number of rings (size 3 to 8) (size 9 to 14) (size 15 to 20)
#    1.000    0.000    3.333    2.000    2.333    4.000 
#    0.000    0.000    0.000    0.000    0.000    0.000 
#    0.000    0.000    0.000    0.000    0.000    0.000 
#
# Total GULP energy -67368.948808 kJ/mol
# GULP energy per Si atom -5614.079067 kJ/mol
# Density = 2.716998 g / cm^3
# Si number density = 27.231962 Si / 1000 Ang^3
#
#
#
# Elastic Constant Matrix: (Units=GPa)
#
#
# Indices 1 2 3 4 5 6 
#
# 1 191.8185 72.3350 26.6380 24.1843 -24.1091 10.5323
# 2 72.3350 170.5089 34.7956 47.4676 -24.4885 11.9771
# 3 26.6380 34.7956 91.1844 20.0381 -34.1049 -3.2723
# 4 24.1843 47.4676 20.0381 60.2662 0.3925 -10.1038
# 5 -24.1091 -24.4885 -34.1049 0.3925 35.6129 0.1403
# 6 10.5323 11.9771 -3.2723 -10.1038 0.1403 48.6842
#
#
#
# Elastic Compliance Matrix: (Units=1/GPa)
#
#
# Indices 1 2 3 4 5 6 
#
# 1 0.006566 -0.001822 0.000439 -0.001585 0.003635 -0.001282
# 2 -0.001822 0.009869 0.000776 -0.007954 0.006398 -0.003651
# 3 0.000439 0.000776 0.019493 -0.007495 0.019583 -0.000588
# 4 -0.001585 -0.007954 -0.007495 0.027336 -0.014050 0.007510
# 5 0.003635 0.006398 0.019583 -0.014050 0.053865 -0.004115
# 6 -0.001282 -0.003651 -0.000588 0.007510 -0.004115 0.023247
#
#
# Mechanical properties :
#
#
# Convention : Reuss Voigt Hill
#
# Bulk Modulus (GPa) = 28.80657 80.11656 54.46156
# Shear Modulus (GPa) = 32.64530 50.22888 41.43709
#
# Velocity S-wave (km/s) = 3.46611 4.29940 3.90505
# Velocity P-wave (km/s) = 5.15943 7.35734 6.35414
#
# Compressibility (1/GPa) = 0.03471430
#
# Stress axis : x y z
#
# Youngs Moduli (GPa) = 152.28870 101.32878 51.30099
#
# Poissons Ratio (x) = 0.18462 -0.02251
# Poissons Ratio (y) = 0.27746 -0.03982
# Poissons Ratio (z) = -0.06683 -0.07865
#
# Static dielectric constant tensor:
#      x y z
#    x 2.156930 0.012480 0.033010 
#    y 0.012480 2.047190 -0.042810 
#    z 0.033010 -0.042810 2.134330 
# 
# From -- ./inp_files/197891.got.cif
#   From: 2010.05.17/outbox.cif.g08.bks.cpg/sg2_99_cif.got.tgz:197891.got - 2010.06.03 11:33:40.
