data_PCOD9051566
_publ_section_title
;
Structure prediction by ZEFSAII (Michael W. Deem and Ramdas Pophale) SiO2 
 PCOD9051566
Probable space group: P -1
;
_chemical_formula_sum "Si O2"
_cell_formula_units_Z 10
_cell_length_a 5.227655
_cell_length_b 17.080377
_cell_length_c 10.349701
_cell_angle_alpha 152.390120
_cell_angle_beta 64.637213
_cell_angle_gamma 108.037869
_cell_volume 381.572299
_symmetry_space_group_name_H-M "P -1"
_symmetry_group_IT_number 2
_symmetry_cell_setting 'triclinic'
loop_
_space_group_symop_operation_xyz
x,y,z
-x,-y,-z
loop_
_atom_site_type_symbol
_atom_site_label
_atom_site_fract_x
_atom_site_fract_y
_atom_site_fract_z
Si Si1 0.749898 0.843605 0.742459
Si Si2 0.473337 0.494724 0.315779
Si Si3 0.209554 0.119751 0.689096
Si Si4 0.882225 0.715014 0.778488
Si Si5 0.974656 0.315009 0.790326
O O1 0.626108 0.662399 0.517433
O O2 0.859045 0.860247 0.888413
O O3 0.966766 0.812896 0.530341
O O4 0.500000 0.000000 0.000000
O O5 0.398493 0.375513 0.276703
O O6 0.146589 0.575164 0.468203
O O7 0.661941 0.352884 0.978086
O O8 0.201896 0.251122 0.761911
O O9 0.500000 0.000000 0.500000
O O10 0.071338 0.214971 0.986815
O O11 0.000000 0.000000 0.500000
O O12 0.000000 0.500000 0.000000
#
# Coordination Sequence:
#
# PCOD9051566 Si02
#       5
#     2   2   2   2   2
#     4  11  25  47  73 114 157 197 256 332 399 456
#     4  10  25  46  76 107 153 200 268 303 392 471
#     4  12  28  51  78 115 159 211 265 328 400 476
#     4  11  26  45  80 105 148 212 262 315 385 481
#     4  10  25  48  75 112 156 202 258 325 394 465
#
# _framework density 26.207350999999999
#
# number of rings (size 3 to 8) (size 9 to 14) (size 15 to 20)
#    0.000    1.200    0.000    3.000   19.600    1.600 
#   10.800    0.000    0.000    0.000    0.000    0.000 
#    0.000    0.000    0.000    0.000    0.000    0.000 
#
# Total GULP energy -55889.721020 kJ/mol
# GULP energy per Si atom -5588.972102 kJ/mol
# Density = 2.614770 g / cm^3
# Si number density = 26.207351 Si / 1000 Ang^3
#
#
#
# Elastic Constant Matrix: (Units=GPa)
#
#
# Indices 1 2 3 4 5 6 
#
# 1 93.5397 40.6271 56.6660 -10.7756 -7.9455 -13.4397
# 2 40.6271 205.6763 80.5603 -2.8863 -26.4895 -39.3797
# 3 56.6660 80.5603 185.9920 -13.3353 -21.4331 -17.8152
# 4 -10.7756 -2.8863 -13.3353 52.5675 7.7925 -8.9806
# 5 -7.9455 -26.4895 -21.4331 7.7925 60.2235 -1.7068
# 6 -13.4397 -39.3797 -17.8152 -8.9806 -1.7068 52.8485
#
#
#
# Elastic Compliance Matrix: (Units=1/GPa)
#
#
# Indices 1 2 3 4 5 6 
#
# 1 0.013720 -0.000966 -0.003417 0.002243 -0.000065 0.001996
# 2 -0.000966 0.006989 -0.002041 0.000067 0.002335 0.004361
# 3 -0.003417 -0.002041 0.007547 0.000983 0.001220 0.000361
# 4 0.002243 0.000067 0.000983 0.020771 -0.001887 0.004420
# 5 -0.000065 0.002335 0.001220 -0.001887 0.018370 0.002408
# 6 0.001996 0.004361 0.000361 0.004420 0.002408 0.023629
#
#
# Mechanical properties :
#
#
# Convention : Reuss Voigt Hill
#
# Bulk Modulus (GPa) = 64.90377 93.43498 79.16938
# Shear Modulus (GPa) = 45.86655 53.61819 49.74237
#
# Velocity S-wave (km/s) = 4.18801 4.52809 4.36137
# Velocity P-wave (km/s) = 6.94299 7.94152 7.45898
#
# Compressibility (1/GPa) = 0.01540743
#
# Stress axis : x y z
#
# Youngs Moduli (GPa) = 72.88586 143.08149 132.49605
#
# Poissons Ratio (x) = 0.13828 0.45273
# Poissons Ratio (y) = 0.07044 0.27045
# Poissons Ratio (z) = 0.24904 0.29206
#
# Static dielectric constant tensor:
#      x y z
#    x 2.171670 -0.010840 0.119540 
#    y -0.010840 2.195750 0.009560 
#    z 0.119540 0.009560 2.066280 
# 
# From -- ./inp_files/132684.got.cif
#   From: 2010.05.17/outbox.cif.g08.bks.cpg/sg2_67_cif.got.tgz:132684.got - 2010.06.03 11:33:40.
