data_PCOD9051977
_publ_section_title
;
Structure prediction by ZEFSAII (Michael W. Deem and Ramdas Pophale) SiO2 
 PCOD9051977
Probable space group: P -1
;
_chemical_formula_sum "Si O2"
_cell_formula_units_Z 14
_cell_length_a 4.825795
_cell_length_b 12.076023
_cell_length_c 24.484175
_cell_angle_alpha 26.521234
_cell_angle_beta 102.457833
_cell_angle_gamma 112.737796
_cell_volume 557.513071
_symmetry_space_group_name_H-M "P -1"
_symmetry_group_IT_number 2
_symmetry_cell_setting 'triclinic'
loop_
_space_group_symop_operation_xyz
x,y,z
-x,-y,-z
loop_
_atom_site_type_symbol
_atom_site_label
_atom_site_fract_x
_atom_site_fract_y
_atom_site_fract_z
Si Si1 0.717231 0.306261 0.988966
Si Si2 0.855279 0.676352 0.156985
Si Si3 0.986353 0.150090 0.606744
Si Si4 0.454573 0.711965 0.211746
Si Si5 0.255788 0.780450 0.738569
Si Si6 0.237448 0.234137 0.079138
Si Si7 0.141599 0.336390 0.650619
O O1 0.990801 0.588074 0.855474
O O2 0.381990 0.282961 0.002591
O O3 0.902585 0.234154 0.076808
O O4 0.644809 0.044605 0.063416
O O5 0.528761 0.593982 0.211585
O O6 0.801859 0.433311 0.219076
O O7 0.094692 0.656801 0.220993
O O8 0.000000 0.000000 0.000000
O O9 0.925835 0.399274 0.470471
O O10 0.182079 0.259162 0.623593
O O11 0.628677 0.915101 0.708735
O O12 0.162350 0.036398 0.621843
O O13 0.595577 0.637978 0.304355
O O14 0.500000 0.500000 0.000000
O O15 0.178076 0.931122 0.226494
#
# Coordination Sequence:
#
# PCOD9051977 Si02
#       7
#     2   2   2   2   2   2   2
#     4  11  22  36  63  96 135 169 219 288 349 404
#     4  12  25  44  73 103 144 184 229 297 365 427
#     4  11  27  46  73 100 142 202 234 292 338 430
#     4  11  24  42  71 105 136 186 232 293 359 419
#     4  12  25  44  70 106 143 184 245 288 353 425
#     4  11  22  37  63  98 134 174 220 287 344 407
#     4  10  25  49  72 102 147 190 243 281 359 421
#
# _framework density 25.111519999999999
#
# number of rings (size 3 to 8) (size 9 to 14) (size 15 to 20)
#    0.000    0.857    1.429    6.000    2.000   10.286 
#    0.000    4.286    0.000    0.000    0.000    0.000 
#    0.000    0.000    0.000    0.000    0.000    0.000 
#
# Total GULP energy -78173.406493 kJ/mol
# GULP energy per Si atom -5583.814750 kJ/mol
# Density = 2.505437 g / cm^3
# Si number density = 25.111520 Si / 1000 Ang^3
#
#
#
# Elastic Constant Matrix: (Units=GPa)
#
#
# Indices 1 2 3 4 5 6 
#
# 1 123.6972 35.8772 28.1321 -3.2710 15.3625 -2.7675
# 2 35.8772 129.3859 42.2114 -7.7871 32.5439 -13.3080
# 3 28.1321 42.2114 119.5038 -2.7954 18.4135 -4.3593
# 4 -3.2710 -7.7871 -2.7954 30.8169 -1.6089 17.7179
# 5 15.3625 32.5439 18.4135 -1.6089 39.5760 -1.4830
# 6 -2.7675 -13.3080 -4.3593 17.7179 -1.4830 34.4120
#
#
#
# Elastic Compliance Matrix: (Units=1/GPa)
#
#
# Indices 1 2 3 4 5 6 
#
# 1 0.009072 -0.001731 -0.001298 0.000606 -0.001488 -0.000481
# 2 -0.001731 0.011158 -0.002277 -0.000009 -0.007310 0.003577
# 3 -0.001298 -0.002277 0.009821 -0.000045 -0.002188 0.000188
# 4 0.000606 -0.000009 -0.000045 0.046175 0.000782 -0.023701
# 5 -0.001488 -0.007310 -0.002188 0.000782 0.032823 -0.002212
# 6 -0.000481 0.003577 0.000188 -0.023701 -0.002212 0.042536
#
#
# Mechanical properties :
#
#
# Convention : Reuss Voigt Hill
#
# Bulk Modulus (GPa) = 51.44615 65.00316 58.22465
# Shear Modulus (GPa) = 29.64266 38.71873 34.18069
#
# Velocity S-wave (km/s) = 3.43948 3.93093 3.69339
# Velocity P-wave (km/s) = 6.02536 6.82238 6.43622
#
# Compressibility (1/GPa) = 0.01943780
#
# Stress axis : x y z
#
# Youngs Moduli (GPa) = 110.23521 89.62465 101.82496
#
# Poissons Ratio (x) = 0.15511 0.13220
# Poissons Ratio (y) = 0.19078 0.23186
# Poissons Ratio (z) = 0.14312 0.20408
#
# Static dielectric constant tensor:
#      x y z
#    x 2.014690 -0.035290 0.058500 
#    y -0.035290 2.053100 0.019140 
#    z 0.058500 0.019140 2.074230 
# 
# From -- ./inp_files/604409.got.cif
#   From: 2010.05.17/outbox.cif.g08.bks.cpg/sg2_303_cif.got.tgz:604409.got - 2010.06.03 11:33:40.
