data_PCOD9051541
_publ_section_title
;
Structure prediction by ZEFSAII (Michael W. Deem and Ramdas Pophale) SiO2 
 PCOD9051541
Probable space group: P -1
;
_chemical_formula_sum "Si O2"
_cell_formula_units_Z 16
_cell_length_a 9.639755
_cell_length_b 18.692025
_cell_length_c 9.721493
_cell_angle_alpha 50.574535
_cell_angle_beta 43.418154
_cell_angle_gamma 44.460160
_cell_volume 818.142241
_symmetry_space_group_name_H-M "P -1"
_symmetry_group_IT_number 2
_symmetry_cell_setting 'triclinic'
loop_
_space_group_symop_operation_xyz
x,y,z
-x,-y,-z
loop_
_atom_site_type_symbol
_atom_site_label
_atom_site_fract_x
_atom_site_fract_y
_atom_site_fract_z
Si Si1 0.971059 0.306269 0.033001
Si Si2 0.472354 0.346547 0.427912
Si Si3 0.219896 0.476651 0.189172
Si Si4 0.670729 0.129402 0.661903
Si Si5 0.168662 0.098826 0.268213
Si Si6 0.786855 0.478137 0.380677
Si Si7 0.478431 0.404070 0.827834
Si Si8 0.622078 0.770242 0.984236
O O1 0.912774 0.396378 0.852402
O O2 0.142546 0.316830 0.005565
O O3 0.725716 0.330811 0.238536
O O4 0.102895 0.178600 0.085317
O O5 0.308625 0.413293 0.341655
O O6 0.507168 0.229621 0.563922
O O7 0.374878 0.413464 0.553942
O O8 0.043612 0.447270 0.273898
O O9 0.429718 0.444178 0.970492
O O10 0.569992 0.165786 0.841413
O O11 0.929477 0.112975 0.483615
O O12 0.683499 0.020967 0.736704
O O13 0.291929 0.145711 0.223945
O O14 0.705358 0.398095 0.601857
O O15 0.718740 0.507326 0.235880
O O16 0.465498 0.295622 0.962308
#
# Coordination Sequence:
#
# PCOD9051541 Si02
#       8
#     2   2   2   2   2   2   2   2
#     4   9  19  33  52  80 106 143 174 219 268 313
#     4  11  21  36  54  79 117 143 173 225 270 324
#     4  12  22  36  53  78 119 146 173 215 278 327
#     4  10  17  35  53  83 107 133 181 226 266 309
#     4   8  19  31  56  81 105 134 179 232 266 300
#     4  11  22  35  54  77 106 152 185 217 261 317
#     4  11  23  34  53  79 111 147 180 224 255 327
#     4  10  19  33  55  79 106 138 175 227 266 308
#
# _framework density 19.556501000000001
#
# number of rings (size 3 to 8) (size 9 to 14) (size 15 to 20)
#    0.750    1.000    3.750    1.500    0.000    1.000 
#    0.000    0.000    0.000    0.750    0.000    8.750 
#    0.000    0.000    0.000    0.000    0.000    0.000 
#
# Total GULP energy -89101.512186 kJ/mol
# GULP energy per Si atom -5568.844512 kJ/mol
# Density = 1.951199 g / cm^3
# Si number density = 19.556501 Si / 1000 Ang^3
#
#
#
# Elastic Constant Matrix: (Units=GPa)
#
#
# Indices 1 2 3 4 5 6 
#
# 1 27.8734 14.2812 10.9406 -6.8524 -4.3871 2.6031
# 2 14.2812 119.2056 22.3154 -21.2510 3.9052 13.0236
# 3 10.9406 22.3154 60.0639 -10.4278 -9.4587 5.5273
# 4 -6.8524 -21.2510 -10.4278 29.3627 3.3591 -11.5722
# 5 -4.3871 3.9052 -9.4587 3.3591 31.3177 -7.6652
# 6 2.6031 13.0236 5.5273 -11.5722 -7.6652 21.1565
#
#
#
# Elastic Compliance Matrix: (Units=1/GPa)
#
#
# Indices 1 2 3 4 5 6 
#
# 1 0.041536 -0.003528 -0.004696 0.006298 0.005035 0.003557
# 2 -0.003528 0.010810 -0.002817 0.004738 -0.004290 -0.004447
# 3 -0.004696 -0.002817 0.019983 0.003793 0.005616 0.001201
# 4 0.006298 0.004738 0.003793 0.049089 0.001753 0.022804
# 5 0.005035 -0.004290 0.005616 0.001753 0.038460 0.015447
# 6 0.003557 -0.004447 0.001201 0.022804 0.015447 0.067323
#
#
# Mechanical properties :
#
#
# Convention : Reuss Voigt Hill
#
# Bulk Modulus (GPa) = 19.90177 33.57973 26.74075
# Shear Modulus (GPa) = 18.79469 27.00777 22.90123
#
# Velocity S-wave (km/s) = 3.10344 3.72023 3.42574
# Velocity P-wave (km/s) = 4.80004 5.97171 5.41765
#
# Compressibility (1/GPa) = 0.05024679
#
# Stress axis : x y z
#
# Youngs Moduli (GPa) = 24.07557 92.50764 50.04160
#
# Poissons Ratio (x) = 0.32635 0.23500
# Poissons Ratio (y) = 0.08493 0.14098
# Poissons Ratio (z) = 0.11306 0.26063
#
# Static dielectric constant tensor:
#      x y z
#    x 1.695810 0.015900 -0.060820 
#    y 0.015900 1.701350 -0.024720 
#    z -0.060820 -0.024720 1.761280 
# 
# From -- ./inp_files/216944.got.cif
#   From: 2010.05.17/outbox.cif.g08.bks.cpg/sg2_109_cif.got.tgz:216944.got - 2010.06.03 11:33:40.
