data_PCOD9051678
_publ_section_title
;
Structure prediction by ZEFSAII (Michael W. Deem and Ramdas Pophale) SiO2 
 PCOD9051678
Probable space group: P -1
;
_chemical_formula_sum "Si O2"
_cell_formula_units_Z 14
_cell_length_a 17.347871
_cell_length_b 20.307998
_cell_length_c 8.007909
_cell_angle_alpha 127.483579
_cell_angle_beta 39.078799
_cell_angle_gamma 158.816320
_cell_volume 554.272502
_symmetry_space_group_name_H-M "P -1"
_symmetry_group_IT_number 2
_symmetry_cell_setting 'triclinic'
loop_
_space_group_symop_operation_xyz
x,y,z
-x,-y,-z
loop_
_atom_site_type_symbol
_atom_site_label
_atom_site_fract_x
_atom_site_fract_y
_atom_site_fract_z
Si Si1 0.498584 0.781190 0.734678
Si Si2 0.850771 0.205945 0.168446
Si Si3 0.792696 0.011977 0.144348
Si Si4 0.380657 0.855436 0.853425
Si Si5 0.566858 0.649009 0.265068
Si Si6 0.778296 0.729618 0.672506
Si Si7 0.577481 0.348953 0.985300
O O1 0.287774 0.722760 0.926853
O O2 0.481792 0.690319 0.505524
O O3 0.417748 0.699647 0.927739
O O4 0.856830 0.036342 0.542043
O O5 0.897557 0.136779 0.006813
O O6 0.851256 0.248034 0.050202
O O7 0.500000 0.000000 0.500000
O O8 0.087112 0.398799 0.193646
O O9 0.651941 0.982753 0.480053
O O10 0.090369 0.150140 0.924847
O O11 0.531299 0.784541 0.174832
O O12 0.500000 0.000000 0.000000
O O13 0.348084 0.442669 0.399555
O O14 0.593163 0.646216 0.020577
O O15 0.669686 0.729100 0.717017
#
# Coordination Sequence:
#
# PCOD9051678 Si02
#       7
#     2   2   2   2   2   2   2
#     4  12  25  43  69 107 147 179 230 294 351 426
#     4  10  25  47  71  99 138 191 237 287 341 419
#     4  11  22  46  74 101 142 180 241 290 347 422
#     4  11  25  47  72  96 141 188 236 291 344 413
#     4  11  23  41  73 107 138 188 228 288 358 414
#     4  11  23  42  69 108 143 183 229 286 362 416
#     4  12  25  42  71 109 142 186 228 290 362 417
#
# _framework density 25.258334000000001
#
# number of rings (size 3 to 8) (size 9 to 14) (size 15 to 20)
#    0.000    0.857    4.286    2.571    0.000    5.714 
#    0.000    2.857    0.000    0.000    0.000    0.000 
#    0.000    0.000    0.000    0.000    0.000    0.000 
#
# Total GULP energy -78452.580637 kJ/mol
# GULP energy per Si atom -5603.755760 kJ/mol
# Density = 2.520084 g / cm^3
# Si number density = 25.258334 Si / 1000 Ang^3
#
#
#
# Elastic Constant Matrix: (Units=GPa)
#
#
# Indices 1 2 3 4 5 6 
#
# 1 169.8180 38.4368 12.6377 13.7302 -24.7215 -6.1271
# 2 38.4368 219.8728 49.1078 11.6254 -13.7634 2.4807
# 3 12.6377 49.1078 70.5372 16.9144 -13.0206 6.1902
# 4 13.7302 11.6254 16.9144 46.9526 -8.6150 -4.7195
# 5 -24.7215 -13.7634 -13.0206 -8.6150 28.9914 3.1492
# 6 -6.1271 2.4807 6.1902 -4.7195 3.1492 30.8113
#
#
#
# Elastic Compliance Matrix: (Units=1/GPa)
#
#
# Indices 1 2 3 4 5 6 
#
# 1 0.006947 -0.000967 0.000594 -0.000954 0.005377 0.000644
# 2 -0.000967 0.005547 -0.003736 0.000307 0.000207 0.000138
# 3 0.000594 -0.003736 0.019659 -0.005659 0.006429 -0.005055
# 4 -0.000954 0.000307 -0.005659 0.024643 0.003643 0.004325
# 5 0.005377 0.000207 0.006429 0.003643 0.043596 -0.004137
# 6 0.000644 0.000138 -0.005055 0.004325 -0.004137 0.034673
#
#
# Mechanical properties :
#
#
# Convention : Reuss Voigt Hill
#
# Bulk Modulus (GPa) = 41.78228 73.39919 57.59074
# Shear Modulus (GPa) = 33.05540 45.35411 39.20475
#
# Velocity S-wave (km/s) = 3.62151 4.24206 3.94401
# Velocity P-wave (km/s) = 5.83652 7.28807 6.60231
#
# Compressibility (1/GPa) = 0.02393359
#
# Stress axis : x y z
#
# Youngs Moduli (GPa) = 143.95506 180.28701 50.86774
#
# Poissons Ratio (x) = 0.17437 -0.03020
# Poissons Ratio (y) = 0.13923 0.19003
# Poissons Ratio (z) = -0.08547 0.67352
#
# Static dielectric constant tensor:
#      x y z
#    x 2.064620 -0.042870 0.056900 
#    y -0.042870 1.952790 -0.000960 
#    z 0.056900 -0.000960 1.990040 
# 
# From -- ./inp_files/337784.got.cif
#   From: 2010.05.17/outbox.cif.g08.bks.cpg/sg2_169_cif.got.tgz:337784.got - 2010.06.03 11:33:40.
