data_PCOD9051377
_publ_section_title
;
Structure prediction by ZEFSAII (Michael W. Deem and Ramdas Pophale) SiO2 
 PCOD9051377
Probable space group: P -1
;
_chemical_formula_sum "Si O2"
_cell_formula_units_Z 14
_cell_length_a 12.318594
_cell_length_b 15.214330
_cell_length_c 8.543116
_cell_angle_alpha 121.313117
_cell_angle_beta 29.846517
_cell_angle_gamma 132.597905
_cell_volume 576.581929
_symmetry_space_group_name_H-M "P -1"
_symmetry_group_IT_number 2
_symmetry_cell_setting 'triclinic'
loop_
_space_group_symop_operation_xyz
x,y,z
-x,-y,-z
loop_
_atom_site_type_symbol
_atom_site_label
_atom_site_fract_x
_atom_site_fract_y
_atom_site_fract_z
Si Si1 0.081978 0.136333 0.997791
Si Si2 0.772367 0.359014 0.987480
Si Si3 0.889390 0.560190 0.807082
Si Si4 0.172827 0.317570 0.271703
Si Si5 0.831768 0.078962 0.926861
Si Si6 0.673380 0.258949 0.349200
Si Si7 0.693376 0.819333 0.797094
O O1 0.387627 0.220226 0.710632
O O2 0.001121 0.138799 0.925346
O O3 0.980060 0.187658 0.306280
O O4 0.000000 0.000000 0.000000
O O5 0.757424 0.468442 0.031156
O O6 0.017386 0.358501 0.611925
O O7 0.770952 0.352006 0.168468
O O8 0.520216 0.239067 0.123747
O O9 0.729822 0.593373 0.919613
O O10 0.000000 0.500000 0.500000
O O11 0.131551 0.678474 0.692980
O O12 0.344830 0.286814 0.136699
O O13 0.024424 0.124893 0.581185
O O14 0.695893 0.933855 0.974505
O O15 0.659664 0.137557 0.193645
#
# Coordination Sequence:
#
# PCOD9051377 Si02
#       7
#     2   2   2   2   2   2   2
#     4  12  26  42  67 105 138 180 226 278 346 408
#     4  11  25  46  71  98 136 187 230 276 336 407
#     4  10  25  46  69 102 136 177 233 288 340 390
#     4  11  24  43  66 100 140 169 232 282 336 393
#     4  11  24  43  68 105 140 176 229 275 343 417
#     4  12  25  47  71  98 143 181 225 284 338 405
#     4  11  24  42  71 104 137 181 225 277 343 410
#
# _framework density 24.281027000000002
#
# number of rings (size 3 to 8) (size 9 to 14) (size 15 to 20)
#    0.000    0.857    5.714    0.429    6.000    1.714 
#    2.571    1.429    0.000    0.000    0.000    0.000 
#    0.000    0.000    0.000    0.000    0.000    0.000 
#
# Total GULP energy -78289.987232 kJ/mol
# GULP energy per Si atom -5592.141945 kJ/mol
# Density = 2.422576 g / cm^3
# Si number density = 24.281027 Si / 1000 Ang^3
#
#
#
# Elastic Constant Matrix: (Units=GPa)
#
#
# Indices 1 2 3 4 5 6 
#
# 1 138.7876 24.3195 16.3252 -2.5034 5.0373 -17.3719
# 2 24.3195 96.3900 17.7865 14.6879 -6.2234 -15.4425
# 3 16.3252 17.7865 57.0052 4.4437 4.0267 -11.4078
# 4 -2.5034 14.6879 4.4437 24.2182 0.7376 -5.3561
# 5 5.0373 -6.2234 4.0267 0.7376 26.6351 -2.0272
# 6 -17.3719 -15.4425 -11.4078 -5.3561 -2.0272 52.7886
#
#
#
# Elastic Compliance Matrix: (Units=1/GPa)
#
#
# Indices 1 2 3 4 5 6 
#
# 1 0.008081 -0.002000 -0.001389 0.002796 -0.001711 0.001992
# 2 -0.002000 0.013111 -0.002849 -0.007326 0.004226 0.001981
# 3 -0.001389 -0.002849 0.019697 -0.001335 -0.003138 0.002710
# 4 0.002796 -0.007326 -0.001335 0.047058 -0.003103 0.003144
# 5 -0.001711 0.004226 -0.003138 -0.003103 0.039507 0.001197
# 6 0.001992 0.001981 0.002710 0.003144 0.001197 0.021129
#
#
# Mechanical properties :
#
#
# Convention : Reuss Voigt Hill
#
# Bulk Modulus (GPa) = 35.19426 45.44946 40.32186
# Shear Modulus (GPa) = 29.32024 36.31182 32.81603
#
# Velocity S-wave (km/s) = 3.47873 3.87134 3.68028
# Velocity P-wave (km/s) = 5.53728 6.22429 5.89081
#
# Compressibility (1/GPa) = 0.02841372
#
# Stress axis : x y z
#
# Youngs Moduli (GPa) = 123.74794 76.26913 50.76918
#
# Poissons Ratio (x) = 0.15254 0.07050
# Poissons Ratio (y) = 0.24749 0.14465
# Poissons Ratio (z) = 0.17184 0.21731
#
# Static dielectric constant tensor:
#      x y z
#    x 1.922660 -0.048480 0.017410 
#    y -0.048480 2.007710 0.005810 
#    z 0.017410 0.005810 1.886930 
# 
# From -- ./inp_files/53693.got.cif
#   From: 2010.05.17/outbox.cif.g08.bks.cpg/sg2_27_cif.got.tgz:53693.got - 2010.06.03 11:33:40.
