data_PCOD9051898
_publ_section_title
;
Structure prediction by ZEFSAII (Michael W. Deem and Ramdas Pophale) SiO2 
 PCOD9051898
Probable space group: P -1
;
_chemical_formula_sum "Si O2"
_cell_formula_units_Z 12
_cell_length_a 8.057394
_cell_length_b 9.339123
_cell_length_c 12.938434
_cell_angle_alpha 35.991855
_cell_angle_beta 85.131797
_cell_angle_gamma 67.902654
_cell_volume 485.145934
_symmetry_space_group_name_H-M "P -1"
_symmetry_group_IT_number 2
_symmetry_cell_setting 'triclinic'
loop_
_space_group_symop_operation_xyz
x,y,z
-x,-y,-z
loop_
_atom_site_type_symbol
_atom_site_label
_atom_site_fract_x
_atom_site_fract_y
_atom_site_fract_z
Si Si1 0.815641 0.205489 0.822270
Si Si2 0.315711 0.458173 0.551249
Si Si3 0.601126 0.906311 0.938054
Si Si4 0.016085 0.150923 0.512857
Si Si5 0.284251 0.566141 0.948709
Si Si6 0.307790 0.314023 0.311988
O O1 0.831830 0.391014 0.622819
O O2 0.664497 0.449345 0.767709
O O3 0.754118 0.008271 0.882138
O O4 0.000000 0.000000 0.000000
O O5 0.500000 0.500000 0.500000
O O6 0.195149 0.614403 0.568240
O O7 0.421319 0.118598 0.748334
O O8 0.702280 0.600278 0.060070
O O9 0.500000 0.000000 0.000000
O O10 0.135937 0.296404 0.386941
O O11 0.133135 0.899459 0.738719
O O12 0.000000 0.000000 0.500000
O O13 0.500000 0.500000 0.000000
O O14 0.246041 0.423667 0.133650
O O15 0.500000 0.000000 0.500000
#
# Coordination Sequence:
#
# PCOD9051898 Si02
#       6
#     2   2   2   2   2   2
#     4  11  26  47  73 107 149 196 253 311 382 447
#     4  10  25  48  74 106 150 199 255 311 378 449
#     4  11  25  46  78 104 152 201 250 313 383 449
#     4  12  29  47  80 115 152 203 260 313 389 456
#     4  12  26  50  80 113 155 202 256 318 386 458
#     4  12  27  48  78 110 158 198 253 321 383 455
#
# _framework density 24.734824
#
# number of rings (size 3 to 8) (size 9 to 14) (size 15 to 20)
#    0.000    0.667    1.667    4.000   14.000    1.333 
#    0.000    0.000    0.000    0.000    0.000    0.000 
#    0.000    0.000    0.000    0.000    0.000    0.000 
#
# Total GULP energy -67150.467174 kJ/mol
# GULP energy per Si atom -5595.872265 kJ/mol
# Density = 2.467853 g / cm^3
# Si number density = 24.734824 Si / 1000 Ang^3
#
#
#
# Elastic Constant Matrix: (Units=GPa)
#
#
# Indices 1 2 3 4 5 6 
#
# 1 91.7436 42.8109 27.0187 -3.9366 -2.2472 -5.9224
# 2 42.8109 133.4414 20.7823 -5.1908 -8.4649 -3.2106
# 3 27.0187 20.7823 158.3062 8.8203 21.9797 -14.4984
# 4 -3.9366 -5.1908 8.8203 51.6818 -4.8010 -0.3466
# 5 -2.2472 -8.4649 21.9797 -4.8010 38.2843 3.9284
# 6 -5.9224 -3.2106 -14.4984 -0.3466 3.9284 51.3052
#
#
#
# Elastic Compliance Matrix: (Units=1/GPa)
#
#
# Indices 1 2 3 4 5 6 
#
# 1 0.013389 -0.003868 -0.001927 0.001067 0.001101 0.000682
# 2 -0.003868 0.009074 -0.000965 0.001011 0.002494 -0.000335
# 3 -0.001927 -0.000965 0.007840 -0.002061 -0.005324 0.002326
# 4 0.001067 0.001011 -0.002061 0.020258 0.004068 -0.000571
# 5 0.001101 0.002494 -0.005324 0.004068 0.030667 -0.003542
# 6 0.000682 -0.000335 0.002326 -0.000571 -0.003542 0.020474
#
#
# Mechanical properties :
#
#
# Convention : Reuss Voigt Hill
#
# Bulk Modulus (GPa) = 59.58001 62.74610 61.16305
# Shear Modulus (GPa) = 41.38561 47.77957 44.58259
#
# Velocity S-wave (km/s) = 4.09488 4.39985 4.25010
# Velocity P-wave (km/s) = 6.81888 7.15780 6.99040
#
# Compressibility (1/GPa) = 0.01678415
#
# Stress axis : x y z
#
# Youngs Moduli (GPa) = 74.68783 110.19981 127.55837
#
# Poissons Ratio (x) = 0.42620 0.24585
# Poissons Ratio (y) = 0.28886 0.12304
# Poissons Ratio (z) = 0.14395 0.10629
#
# Static dielectric constant tensor:
#      x y z
#    x 1.933470 0.010070 -0.043300 
#    y 0.010070 1.951720 0.056840 
#    z -0.043300 0.056840 2.032620 
# 
# From -- ./inp_files/160279.got.cif
#   From: 2010.05.17/outbox.cif.g08.bks.cpg/sg2_81_cif.got.tgz:160279.got - 2010.06.03 11:33:40.
