data_PCOD9051486
_publ_section_title
;
Structure prediction by ZEFSAII (Michael W. Deem and Ramdas Pophale) SiO2 
 PCOD9051486
Probable space group: P -1
;
_chemical_formula_sum "Si O2"
_cell_formula_units_Z 16
_cell_length_a 12.412355
_cell_length_b 11.653875
_cell_length_c 11.527716
_cell_angle_alpha 143.480913
_cell_angle_beta 88.790287
_cell_angle_gamma 64.424056
_cell_volume 651.538335
_symmetry_space_group_name_H-M "P -1"
_symmetry_group_IT_number 2
_symmetry_cell_setting 'triclinic'
loop_
_space_group_symop_operation_xyz
x,y,z
-x,-y,-z
loop_
_atom_site_type_symbol
_atom_site_label
_atom_site_fract_x
_atom_site_fract_y
_atom_site_fract_z
Si Si1 0.474286 0.159437 0.259789
Si Si2 0.407737 0.811539 0.916440
Si Si3 0.119624 0.915953 0.530775
Si Si4 0.076684 0.040018 0.129217
Si Si5 0.311679 0.421006 0.723338
Si Si6 0.039009 0.533012 0.898867
Si Si7 0.450203 0.632473 0.233951
Si Si8 0.152946 0.468258 0.276753
O O1 0.459006 0.354378 0.326229
O O2 0.387537 0.316711 0.509058
O O3 0.402681 0.046527 0.137131
O O4 0.671440 0.871674 0.022182
O O5 0.478280 0.596345 0.848510
O O6 0.225145 0.976582 0.027492
O O7 0.257455 0.865251 0.431751
O O8 0.186989 0.629497 0.349783
O O9 0.000000 0.000000 0.500000
O O10 0.052151 0.139175 0.817090
O O11 0.938390 0.352602 0.454109
O O12 0.176403 0.774873 0.004863
O O13 0.000000 0.000000 0.000000
O O14 0.464587 0.277536 0.679774
O O15 0.221821 0.351895 0.713392
O O16 0.000000 0.500000 0.000000
O O17 0.971193 0.488020 0.763600
O O18 0.500000 0.500000 0.000000
#
# Coordination Sequence:
#
# PCOD9051486 Si02
#       8
#     2   2   2   2   2   2   2   2
#     4  11  25  47  74 110 153 194 261 320 384 465
#     4  10  25  46  72 107 150 197 251 315 386 454
#     4  12  24  46  75 110 154 198 256 313 385 463
#     4  11  27  45  73 108 153 202 256 316 384 458
#     4  11  26  47  74 110 154 197 261 317 388 464
#     4  12  26  46  78 111 152 205 259 319 386 467
#     4  11  25  45  75 107 152 205 251 315 391 461
#     4  12  26  47  78 110 154 204 255 323 393 457
#
# _framework density 24.557265000000001
#
# number of rings (size 3 to 8) (size 9 to 14) (size 15 to 20)
#    0.000    0.750    3.750    2.250    7.000    4.500 
#    0.000    1.875    0.000    0.000    0.000    0.000 
#    0.000    0.000    0.000    0.000    0.000    0.000 
#
# Total GULP energy -89380.318262 kJ/mol
# GULP energy per Si atom -5586.269891 kJ/mol
# Density = 2.450137 g / cm^3
# Si number density = 24.557265 Si / 1000 Ang^3
#
#
#
# Elastic Constant Matrix: (Units=GPa)
#
#
# Indices 1 2 3 4 5 6 
#
# 1 239.7860 48.9219 57.2390 -23.5214 -29.4814 -12.4547
# 2 48.9219 73.0641 29.5889 -12.1770 -13.4441 6.1076
# 3 57.2390 29.5889 121.1635 -28.3982 -19.6737 1.6945
# 4 -23.5214 -12.1770 -28.3982 49.3266 2.2184 -0.9313
# 5 -29.4814 -13.4441 -19.6737 2.2184 50.6468 -7.2946
# 6 -12.4547 6.1076 1.6945 -0.9313 -7.2946 47.6744
#
#
#
# Elastic Compliance Matrix: (Units=1/GPa)
#
#
# Indices 1 2 3 4 5 6 
#
# 1 0.005559 -0.002757 -0.001353 0.001132 0.002248 0.002220
# 2 -0.002757 0.017213 -0.002239 0.001522 0.001659 -0.002562
# 3 -0.001353 -0.002239 0.011061 0.005049 0.002701 0.000052
# 4 0.001132 0.001522 0.005049 0.024015 0.002074 0.000708
# 5 0.002248 0.001659 0.002701 0.002074 0.023005 0.003839
# 6 0.002220 -0.002562 0.000052 0.000708 0.003839 0.022483
#
#
# Mechanical properties :
#
#
# Convention : Reuss Voigt Hill
#
# Bulk Modulus (GPa) = 47.31953 78.39037 62.85495
# Shear Modulus (GPa) = 40.62443 49.41380 45.01911
#
# Velocity S-wave (km/s) = 4.07169 4.49061 4.28627
# Velocity P-wave (km/s) = 6.43551 7.67321 7.08145
#
# Compressibility (1/GPa) = 0.02113292
#
# Stress axis : x y z
#
# Youngs Moduli (GPa) = 179.89843 58.09721 90.41035
#
# Poissons Ratio (x) = 0.16018 0.12237
# Poissons Ratio (y) = 0.49600 0.20242
# Poissons Ratio (z) = 0.24348 0.13008
#
# Static dielectric constant tensor:
#      x y z
#    x 1.911550 -0.016770 0.015900 
#    y -0.016770 2.042840 0.066410 
#    z 0.015900 0.066410 1.963180 
# 
# From -- ./inp_files/429068.got.cif
#   From: 2010.05.17/outbox.cif.g08.bks.cpg/sg2_215_cif.got.tgz:429068.got - 2010.06.03 11:33:40.
