data_PCOD9051900
_publ_section_title
;
Structure prediction by ZEFSAII (Michael W. Deem and Ramdas Pophale) SiO2 
 PCOD9051900
Probable space group: P -1
;
_chemical_formula_sum "Si O2"
_cell_formula_units_Z 9
_cell_length_a 7.906377
_cell_length_b 8.754432
_cell_length_c 8.026363
_cell_angle_alpha 47.288920
_cell_angle_beta 108.758219
_cell_angle_gamma 131.774430
_cell_volume 295.699391
_symmetry_space_group_name_H-M "P -1"
_symmetry_group_IT_number 2
_symmetry_cell_setting 'triclinic'
loop_
_space_group_symop_operation_xyz
x,y,z
-x,-y,-z
loop_
_atom_site_type_symbol
_atom_site_label
_atom_site_fract_x
_atom_site_fract_y
_atom_site_fract_z
Si Si1 0.952700 0.157215 0.020664
Si Si2 0.500000 0.500000 0.000000
Si Si3 0.517041 0.242202 0.746629
Si Si4 0.009709 0.258374 0.320851
Si Si5 0.300820 0.896008 0.347827
O O1 0.930720 0.266668 0.105364
O O2 0.728793 0.836865 0.223846
O O3 0.886988 0.200975 0.789059
O O4 0.220281 0.296025 0.014873
O O5 0.520481 0.776226 0.821103
O O6 0.724374 0.503126 0.718628
O O7 0.575706 0.225599 0.587055
O O8 0.500000 0.000000 0.000000
O O9 0.844527 0.217722 0.444170
O O10 0.000000 0.000000 0.500000
#
# Coordination Sequence:
#
# PCOD9051900 Si02
#       5
#     2   1   2   2   2
#     4  11  25  47  72 104 150 187 234 304 352 424
#     4  12  24  44  70 108 138 194 232 288 362 416
#     4  10  25  48  74 107 146 187 237 298 360 422
#     4  12  26  45  74 111 141 189 244 286 361 435
#     4  11  26  46  74 106 146 187 238 296 359 425
#
# _framework density 30.436319000000001
#
# number of rings (size 3 to 8) (size 9 to 14) (size 15 to 20)
#    0.000    0.889    2.222    4.000    0.000   11.556 
#    0.000    0.000    0.000    0.000    0.000    0.000 
#    0.000    0.000    0.000    0.000    0.000    0.000 
#
# Total GULP energy -50186.782076 kJ/mol
# GULP energy per Si atom -5576.309120 kJ/mol
# Density = 3.036704 g / cm^3
# Si number density = 30.436319 Si / 1000 Ang^3
#
#
#
# Elastic Constant Matrix: (Units=GPa)
#
#
# Indices 1 2 3 4 5 6 
#
# 1 170.8161 102.5643 46.7240 -0.5041 -38.3055 39.2839
# 2 102.5643 302.7142 100.5575 -18.7107 -18.4269 17.3037
# 3 46.7240 100.5575 103.4866 29.0739 -29.9918 1.8045
# 4 -0.5041 -18.7107 29.0739 97.5050 -15.9381 -2.2106
# 5 -38.3055 -18.4269 -29.9918 -15.9381 65.0969 -6.0447
# 6 39.2839 17.3037 1.8045 -2.2106 -6.0447 83.1744
#
#
#
# Elastic Compliance Matrix: (Units=1/GPa)
#
#
# Indices 1 2 3 4 5 6 
#
# 1 0.009255 -0.002449 -0.000616 0.000374 0.004233 -0.003531
# 2 -0.002449 0.006303 -0.006351 0.002776 -0.001911 -0.000082
# 3 -0.000616 -0.006351 0.019362 -0.006080 0.005404 0.001423
# 4 0.000374 0.002776 -0.006080 0.012816 0.001325 -0.000185
# 5 0.004233 -0.001911 0.005404 0.001325 0.020105 -0.000223
# 6 -0.003531 -0.000082 0.001423 -0.000185 -0.000223 0.013656
#
#
# Mechanical properties :
#
#
# Convention : Reuss Voigt Hill
#
# Bulk Modulus (GPa) = 62.15682 119.63427 90.89554
# Shear Modulus (GPa) = 47.30727 70.96667 59.13697
#
# Velocity S-wave (km/s) = 3.94674 4.83395 4.41270
# Velocity P-wave (km/s) = 6.42147 8.39928 7.47607
#
# Compressibility (1/GPa) = 0.01608834
#
# Stress axis : x y z
#
# Youngs Moduli (GPa) = 108.04511 158.65780 51.64714
#
# Poissons Ratio (x) = 0.38849 0.03182
# Poissons Ratio (y) = 0.26456 0.32803
# Poissons Ratio (z) = 0.06657 1.00768
#
# Static dielectric constant tensor:
#      x y z
#    x 2.567050 -0.048420 -0.011070 
#    y -0.048420 2.325370 -0.014120 
#    z -0.011070 -0.014120 2.608660 
# 
# From -- ./inp_files/129215.got.cif
#   From: 2010.05.17/outbox.cif.g08.bks.cpg/sg2_65_cif.got.tgz:129215.got - 2010.06.03 11:33:40.
