data_PCOD9051712
_publ_section_title
;
Structure prediction by ZEFSAII (Michael W. Deem and Ramdas Pophale) SiO2 
 PCOD9051712
Probable space group: P -1
;
_chemical_formula_sum "Si O2"
_cell_formula_units_Z 16
_cell_length_a 11.988807
_cell_length_b 8.906155
_cell_length_c 17.744841
_cell_angle_alpha 98.869568
_cell_angle_beta 49.309811
_cell_angle_gamma 138.423108
_cell_volume 713.870422
_symmetry_space_group_name_H-M "P -1"
_symmetry_group_IT_number 2
_symmetry_cell_setting 'triclinic'
loop_
_space_group_symop_operation_xyz
x,y,z
-x,-y,-z
loop_
_atom_site_type_symbol
_atom_site_label
_atom_site_fract_x
_atom_site_fract_y
_atom_site_fract_z
Si Si1 0.281459 0.329351 0.766931
Si Si2 0.897653 0.258061 0.484188
Si Si3 0.189944 0.643633 0.601958
Si Si4 0.797506 0.692579 0.853654
Si Si5 0.380504 0.292115 0.209526
Si Si6 0.145316 0.299520 0.504181
Si Si7 0.313129 0.686637 0.030574
Si Si8 0.203093 0.586518 0.759678
O O1 0.371415 0.413704 0.822119
O O2 0.582022 0.568769 0.607151
O O3 0.159987 0.384796 0.800524
O O4 0.060769 0.004020 0.809278
O O5 0.976304 0.374249 0.373248
O O6 0.000000 0.500000 0.500000
O O7 0.059546 0.264454 0.453588
O O8 0.550370 0.929291 0.628427
O O9 0.233810 0.535386 0.522816
O O10 0.098085 0.499609 0.712161
O O11 0.500000 0.000000 0.500000
O O12 0.783529 0.738283 0.777318
O O13 0.773035 0.496588 0.874582
O O14 0.500000 0.500000 0.000000
O O15 0.519070 0.276084 0.098491
O O16 0.137648 0.007352 0.350347
O O17 0.008340 0.478404 0.114302
O O18 0.500000 0.000000 0.000000
#
# Coordination Sequence:
#
# PCOD9051712 Si02
#       8
#     2   2   2   2   2   2   2   2
#     4  12  26  44  73 106 146 183 237 288 351 430
#     4   9  20  37  61  97 142 172 226 284 333 414
#     4   9  20  36  64  94 139 180 225 286 346 401
#     4  10  25  47  73 102 138 181 238 291 346 423
#     4  11  25  48  72 102 145 188 232 289 357 413
#     4  11  22  43  65 102 144 184 229 286 350 423
#     4  11  25  47  75  99 135 184 237 295 345 418
#     4  11  22  41  64 100 136 178 236 281 345 414
#
# _framework density 22.413032000000001
#
# number of rings (size 3 to 8) (size 9 to 14) (size 15 to 20)
#    0.000    1.500    1.250    3.375    5.250    5.500 
#    0.000    2.500    0.000    0.000    0.000    0.000 
#    0.000    0.000    0.000    0.000    0.000    0.000 
#
# Total GULP energy -89293.752818 kJ/mol
# GULP energy per Si atom -5580.859551 kJ/mol
# Density = 2.236202 g / cm^3
# Si number density = 22.413032 Si / 1000 Ang^3
#
#
#
# Elastic Constant Matrix: (Units=GPa)
#
#
# Indices 1 2 3 4 5 6 
#
# 1 146.3754 66.2189 21.3498 4.2277 -1.3732 -9.4555
# 2 66.2189 145.4279 42.0152 -9.7159 15.1545 0.3881
# 3 21.3498 42.0152 68.7511 8.4796 -12.2214 0.8957
# 4 4.2277 -9.7159 8.4796 32.1292 -4.1298 -0.6576
# 5 -1.3732 15.1545 -12.2214 -4.1298 40.0063 8.6249
# 6 -9.4555 0.3881 0.8957 -0.6576 8.6249 39.5285
#
#
#
# Elastic Compliance Matrix: (Units=1/GPa)
#
#
# Indices 1 2 3 4 5 6 
#
# 1 0.009042 -0.004625 0.000587 -0.002501 0.001594 0.001806
# 2 -0.004625 0.012398 -0.008059 0.005615 -0.006855 0.000544
# 3 0.000587 -0.008059 0.021898 -0.007115 0.009563 -0.002482
# 4 -0.002501 0.005615 -0.007115 0.034927 -0.000839 0.000272
# 5 0.001594 -0.006855 0.009563 -0.000839 0.031937 -0.006751
# 6 0.001806 0.000544 -0.002482 0.000272 -0.006751 0.027258
#
#
# Mechanical properties :
#
#
# Convention : Reuss Voigt Hill
#
# Bulk Modulus (GPa) = 52.23439 68.85801 60.54620
# Shear Modulus (GPa) = 29.75550 37.73084 33.74317
#
# Velocity S-wave (km/s) = 3.64757 4.10742 3.88431
# Velocity P-wave (km/s) = 6.41059 7.29956 6.86947
#
# Compressibility (1/GPa) = 0.01914447
#
# Stress axis : x y z
#
# Youngs Moduli (GPa) = 110.59212 80.65613 45.66687
#
# Poissons Ratio (x) = 0.37302 -0.02679
# Poissons Ratio (y) = 0.51147 0.36802
# Poissons Ratio (z) = -0.06488 0.64999
#
# Static dielectric constant tensor:
#      x y z
#    x 0.921650 -1.241860 -0.911690 
#    y -1.241860 0.167910 -1.213470 
#    z -0.911690 -1.213470 0.924080 
# 
# From -- ./inp_files/566771.got.cif
#   From: 2010.05.17/outbox.cif.g08.bks.cpg/sg2_284_cif.got.tgz:566771.got - 2010.06.03 11:33:40.
