data_PCOD9051602
_publ_section_title
;
Structure prediction by ZEFSAII (Michael W. Deem and Ramdas Pophale) SiO2 
 PCOD9051602
Probable space group: P -1
;
_chemical_formula_sum "Si O2"
_cell_formula_units_Z 16
_cell_length_a 9.381163
_cell_length_b 10.652272
_cell_length_c 13.165947
_cell_angle_alpha 129.321966
_cell_angle_beta 50.682170
_cell_angle_gamma 137.261320
_cell_volume 654.326633
_symmetry_space_group_name_H-M "P -1"
_symmetry_group_IT_number 2
_symmetry_cell_setting 'triclinic'
loop_
_space_group_symop_operation_xyz
x,y,z
-x,-y,-z
loop_
_atom_site_type_symbol
_atom_site_label
_atom_site_fract_x
_atom_site_fract_y
_atom_site_fract_z
Si Si1 0.389524 0.901069 0.891786
Si Si2 0.677379 0.754315 0.740573
Si Si3 0.979081 0.864780 0.100992
Si Si4 0.372253 0.332622 0.663351
Si Si5 0.725168 0.230019 0.422862
Si Si6 0.140309 0.596282 0.325200
Si Si7 0.403055 0.151043 0.826833
Si Si8 0.912928 0.777548 0.449359
O O1 0.520567 0.797290 0.766068
O O2 0.431427 0.055672 0.865602
O O3 0.123326 0.775814 0.963702
O O4 0.500000 0.000000 0.000000
O O5 0.530875 0.544272 0.748979
O O6 0.827065 0.738651 0.582406
O O7 0.830625 0.915191 0.837175
O O8 0.828829 0.784262 0.228199
O O9 0.812951 0.840621 0.075581
O O10 0.511750 0.242955 0.523223
O O11 0.276282 0.352076 0.611851
O O12 0.812243 0.301875 0.533621
O O13 0.923011 0.379612 0.332577
O O14 0.651774 0.012793 0.318170
O O15 0.374136 0.646060 0.202503
O O16 0.087055 0.718572 0.336394
O O17 0.000000 0.000000 0.500000
#
# Coordination Sequence:
#
# PCOD9051602 Si02
#       8
#     2   2   2   2   2   2   2   2
#     4  10  25  47  67  93 125 172 232 276 316 370
#     4  11  23  43  64  92 134 169 215 274 321 382
#     4  11  25  44  66  91 125 175 225 270 317 374
#     4  12  24  39  66  96 135 171 211 264 332 390
#     4  11  24  40  64 102 138 167 208 260 328 405
#     4  11  24  39  62 102 141 163 207 258 325 402
#     4  12  24  42  71  93 131 177 212 266 329 382
#     4  12  22  37  64  99 135 170 206 261 330 401
#
# _framework density 24.452618999999999
#
# number of rings (size 3 to 8) (size 9 to 14) (size 15 to 20)
#    0.000    0.750    3.750    4.125    5.250    0.500 
#    0.000    2.500    0.000    5.250    0.000    0.000 
#    0.000    0.000    0.000    0.000    0.000    0.000 
#
# Total GULP energy -89479.751000 kJ/mol
# GULP energy per Si atom -5592.484437 kJ/mol
# Density = 2.439696 g / cm^3
# Si number density = 24.452619 Si / 1000 Ang^3
#
#
#
# Elastic Constant Matrix: (Units=GPa)
#
#
# Indices 1 2 3 4 5 6 
#
# 1 134.7131 -13.0664 18.2030 -18.1040 -27.2981 9.5278
# 2 -13.0664 95.3542 17.6116 -16.9192 -14.7817 11.3300
# 3 18.2030 17.6116 46.8569 -30.1800 -5.8544 13.9771
# 4 -18.1040 -16.9192 -30.1800 32.5175 16.6209 -5.0938
# 5 -27.2981 -14.7817 -5.8544 16.6209 37.9978 -12.5558
# 6 9.5278 11.3300 13.9771 -5.0938 -12.5558 23.5583
#
#
#
# Elastic Compliance Matrix: (Units=1/GPa)
#
#
# Indices 1 2 3 4 5 6 
#
# 1 0.010076 0.003172 -0.008821 -0.005944 0.011127 0.004278
# 2 0.003172 0.013046 -0.002226 0.003790 0.004325 -0.003112
# 3 -0.008821 -0.002226 0.137348 0.148553 -0.079867 -0.087296
# 4 -0.005944 0.003790 0.148553 0.203774 -0.101245 -0.097455
# 5 0.011127 0.004325 -0.079867 -0.101245 0.090090 0.066929
# 6 0.004278 -0.003112 -0.087296 -0.097455 0.066929 0.108606
#
#
# Mechanical properties :
#
#
# Convention : Reuss Voigt Hill
#
# Bulk Modulus (GPa) = 6.90993 35.82451 21.36722
# Shear Modulus (GPa) = 7.97539 35.75982 21.86760
#
# Velocity S-wave (km/s) = 1.80794 3.82830 2.99370
# Velocity P-wave (km/s) = 2.68145 5.85009 4.55048
#
# Compressibility (1/GPa) = 0.14471925
#
# Stress axis : x y z
#
# Youngs Moduli (GPa) = 99.24365 76.65432 7.28079
#
# Poissons Ratio (x) = -0.24314 0.06422
# Poissons Ratio (y) = -0.31479 0.01621
# Poissons Ratio (z) = 0.87543 0.17063
#
# Static dielectric constant tensor:
#      x y z
#    x 1.967920 -0.005470 -0.068090 
#    y -0.005470 2.070430 0.114480 
#    z -0.068090 0.114480 2.145960 
# 
# From -- ./inp_files/390438.got.cif
#   From: 2010.05.17/outbox.cif.g08.bks.cpg/sg2_196_cif.got.tgz:390438.got - 2010.06.03 11:33:40.
