data_PCOD9051115
_publ_section_title
;
Structure prediction by ZEFSAII (Michael W. Deem and Ramdas Pophale) SiO2 
 PCOD9051115
Probable space group: P -1
;
_chemical_formula_sum "Si O2"
_cell_formula_units_Z 12
_cell_length_a 11.192194
_cell_length_b 9.529652
_cell_length_c 7.756395
_cell_angle_alpha 83.384164
_cell_angle_beta 115.097384
_cell_angle_gamma 139.097279
_cell_volume 460.178370
_symmetry_space_group_name_H-M "P -1"
_symmetry_group_IT_number 2
_symmetry_cell_setting 'triclinic'
loop_
_space_group_symop_operation_xyz
x,y,z
-x,-y,-z
loop_
_atom_site_type_symbol
_atom_site_label
_atom_site_fract_x
_atom_site_fract_y
_atom_site_fract_z
Si Si1 0.007490 0.661785 0.609844
Si Si2 0.289672 0.420040 0.773342
Si Si3 0.906208 0.027200 0.130626
Si Si4 0.327791 0.223321 0.304573
Si Si5 0.327930 0.732630 0.945243
Si Si6 0.595945 0.219951 0.620318
O O1 0.937891 0.707679 0.409290
O O2 0.782288 0.427036 0.581908
O O3 0.124231 0.865262 0.784527
O O4 0.148321 0.639859 0.715114
O O5 0.223664 0.218649 0.849381
O O6 0.465579 0.549045 0.710542
O O7 0.376848 0.616485 0.924982
O O8 0.818865 0.985800 0.892678
O O9 0.158951 0.200505 0.260764
O O10 0.416852 0.192190 0.507501
O O11 0.297853 0.702984 0.137320
O O12 0.500000 0.000000 0.000000
O O13 0.500000 0.000000 0.500000
#
# Coordination Sequence:
#
# PCOD9051115 Si02
#       6
#     2   2   2   2   2   2
#     4  11  25  46  70 103 140 182 237 281 353 416
#     4  11  25  45  71 105 142 182 232 291 347 414
#     4  11  24  45  75 100 141 187 230 289 346 419
#     4  10  25  45  70 101 143 179 240 277 352 412
#     4  12  26  44  72 104 140 181 233 294 348 412
#     4  11  25  44  71 100 141 184 232 290 345 418
#
# _framework density 26.076841999999999
#
# number of rings (size 3 to 8) (size 9 to 14) (size 15 to 20)
#    0.000    1.000    0.000    6.000    9.333    2.667 
#    3.000    0.000    0.000    0.000    0.000    0.000 
#    0.000    0.000    0.000    0.000    0.000    0.000 
#
# Total GULP energy -67140.826392 kJ/mol
# GULP energy per Si atom -5595.068866 kJ/mol
# Density = 2.601749 g / cm^3
# Si number density = 26.076842 Si / 1000 Ang^3
#
#
#
# Elastic Constant Matrix: (Units=GPa)
#
#
# Indices 1 2 3 4 5 6 
#
# 1 111.6152 35.0720 22.1911 -0.0496 22.2482 -8.0779
# 2 35.0720 105.9823 1.1146 13.4774 2.5379 -4.0845
# 3 22.1911 1.1146 135.6141 -14.5224 35.8231 -2.7335
# 4 -0.0496 13.4774 -14.5224 39.9277 -2.0525 0.1838
# 5 22.2482 2.5379 35.8231 -2.0525 48.6212 9.3167
# 6 -8.0779 -4.0845 -2.7335 0.1838 9.3167 36.4034
#
#
#
# Elastic Compliance Matrix: (Units=1/GPa)
#
#
# Indices 1 2 3 4 5 6 
#
# 1 0.011515 -0.003648 -0.000222 0.000863 -0.005558 0.003547
# 2 -0.003648 0.011105 -0.000161 -0.003760 0.001015 0.000184
# 3 -0.000222 -0.000161 0.009774 0.003215 -0.007445 0.002556
# 4 0.000863 -0.003760 0.003215 0.027409 -0.001457 0.000245
# 5 -0.005558 0.001015 -0.007445 -0.001457 0.030287 -0.009423
# 6 0.003547 0.000184 0.002556 0.000245 -0.009423 0.030880
#
#
# Mechanical properties :
#
#
# Convention : Reuss Voigt Hill
#
# Bulk Modulus (GPa) = 41.09935 52.21856 46.65896
# Shear Modulus (GPa) = 36.45809 44.64604 40.55207
#
# Velocity S-wave (km/s) = 3.74318 4.14224 3.94775
# Velocity P-wave (km/s) = 5.87170 6.55331 6.22185
#
# Compressibility (1/GPa) = 0.02433128
#
# Stress axis : x y z
#
# Youngs Moduli (GPa) = 86.84433 90.04572 102.31226
#
# Poissons Ratio (x) = 0.32850 0.02272
# Poissons Ratio (y) = 0.31682 0.01650
# Poissons Ratio (z) = 0.01929 0.01452
#
# Static dielectric constant tensor:
#      x y z
#    x 2.055860 0.057370 -0.078740 
#    y 0.057370 1.636990 0.865970 
#    z -0.078740 0.865970 -0.071640 
# 
# From -- ./inp_files/174680.got.cif
#   From: 2010.05.17/outbox.cif.g08.bks.cpg/sg2_88_cif.got.tgz:174680.got - 2010.06.03 11:33:40.
