data_PCOD9051491
_publ_section_title
;
Structure prediction by ZEFSAII (Michael W. Deem and Ramdas Pophale) SiO2 
 PCOD9051491
Probable space group: P -1
;
_chemical_formula_sum "Si O2"
_cell_formula_units_Z 15
_cell_length_a 6.870833
_cell_length_b 10.653389
_cell_length_c 13.378331
_cell_angle_alpha 49.418536
_cell_angle_beta 59.531106
_cell_angle_gamma 80.369974
_cell_volume 620.940852
_symmetry_space_group_name_H-M "P -1"
_symmetry_group_IT_number 2
_symmetry_cell_setting 'triclinic'
loop_
_space_group_symop_operation_xyz
x,y,z
-x,-y,-z
loop_
_atom_site_type_symbol
_atom_site_label
_atom_site_fract_x
_atom_site_fract_y
_atom_site_fract_z
Si Si1 0.682563 0.226033 0.579777
Si Si2 0.026524 0.265390 0.138915
Si Si3 0.375176 0.013797 0.922805
Si Si4 0.904112 0.331985 0.908465
Si Si5 0.425169 0.698562 0.651261
Si Si6 0.616998 0.611481 0.291654
Si Si7 0.906818 0.914075 0.464142
Si Si8 0.500000 0.500000 0.000000
O O1 0.603264 0.214423 0.492164
O O2 0.575841 0.369359 0.586777
O O3 0.950214 0.227051 0.521792
O O4 0.549212 0.054431 0.761899
O O5 0.816800 0.330124 0.213219
O O6 0.277604 0.364726 0.065382
O O7 0.963474 0.064773 0.289549
O O8 0.985530 0.292322 0.019062
O O9 0.297594 0.189268 0.862105
O O10 0.191467 0.841487 0.037041
O O11 0.500000 0.000000 0.000000
O O12 0.133887 0.435877 0.735487
O O13 0.696331 0.424027 0.929954
O O14 0.492155 0.523331 0.695391
O O15 0.635496 0.821181 0.591498
O O16 0.000000 0.000000 0.500000
#
# Coordination Sequence:
#
# PCOD9051491 Si02
#       8
#     2   2   2   2   2   2   2   1
#     4  10  25  46  72 108 145 197 245 304 367 444
#     4  12  28  46  78 110 151 198 244 322 377 442
#     4  10  25  46  74 105 151 196 250 301 371 452
#     4  12  26  47  74 112 148 196 249 316 376 441
#     4  12  25  49  73 107 155 195 247 310 374 445
#     4  10  26  46  71 104 150 195 247 301 375 431
#     4  12  27  44  75 110 147 197 249 300 375 453
#     4  12  28  46  80 106 152 190 258 306 378 448
#
# _framework density 24.156891999999999
#
# number of rings (size 3 to 8) (size 9 to 14) (size 15 to 20)
#    0.800    0.000    2.667    3.200    7.467    1.600 
#    2.400    0.000    0.000    0.000    0.000    0.000 
#    0.000    0.000    0.000    0.000    0.000    0.000 
#
# Total GULP energy -83562.103477 kJ/mol
# GULP energy per Si atom -5570.806898 kJ/mol
# Density = 2.410191 g / cm^3
# Si number density = 24.156892 Si / 1000 Ang^3
#
#
#
# Elastic Constant Matrix: (Units=GPa)
#
#
# Indices 1 2 3 4 5 6 
#
# 1 136.5044 65.8716 64.3000 11.3424 -40.8677 10.2172
# 2 65.8716 119.4387 54.3777 11.2961 -22.2712 2.1877
# 3 64.3000 54.3777 95.1490 28.9316 -19.3594 5.3510
# 4 11.3424 11.2961 28.9316 47.5869 1.8289 -11.7049
# 5 -40.8677 -22.2712 -19.3594 1.8289 46.5230 3.7241
# 6 10.2172 2.1877 5.3510 -11.7049 3.7241 53.4106
#
#
#
# Elastic Compliance Matrix: (Units=1/GPa)
#
#
# Indices 1 2 3 4 5 6 
#
# 1 0.014797 -0.003770 -0.005828 -0.000109 0.008992 -0.002743
# 2 -0.003770 0.012708 -0.004986 0.001113 0.000581 0.000904
# 3 -0.005828 -0.004986 0.021374 -0.011354 0.002111 -0.003458
# 4 -0.000109 0.001113 -0.011354 0.029904 -0.006111 0.008092
# 5 0.008992 0.000581 0.002111 -0.006111 0.031229 -0.005472
# 6 -0.002743 0.000904 -0.003458 0.008092 -0.005472 0.021712
#
#
# Mechanical properties :
#
#
# Convention : Reuss Voigt Hill
#
# Bulk Modulus (GPa) = 50.73326 80.02118 65.37722
# Shear Modulus (GPa) = 29.85753 40.60695 35.23224
#
# Velocity S-wave (km/s) = 3.51947 4.10441 3.82314
# Velocity P-wave (km/s) = 6.12884 7.46050 6.82722
#
# Compressibility (1/GPa) = 0.01971094
#
# Stress axis : x y z
#
# Youngs Moduli (GPa) = 67.58280 78.68885 46.78564
#
# Poissons Ratio (x) = 0.29666 0.27266
# Poissons Ratio (y) = 0.25479 0.23329
# Poissons Ratio (z) = 0.39386 0.39236
#
# Static dielectric constant tensor:
#      x y z
#    x 1.948510 -0.071880 0.037790 
#    y -0.071880 1.977240 0.017780 
#    z 0.037790 0.017780 1.983940 
# 
# From -- ./inp_files/482010.got.cif
#   From: 2010.05.17/outbox.cif.g08.bks.cpg/sg2_242_cif.got.tgz:482010.got - 2010.06.03 11:33:40.
