data_PCOD9051589
_publ_section_title
;
Structure prediction by ZEFSAII (Michael W. Deem and Ramdas Pophale) SiO2 
 PCOD9051589
Probable space group: P -1
;
_chemical_formula_sum "Si O2"
_cell_formula_units_Z 14
_cell_length_a 9.946177
_cell_length_b 6.934329
_cell_length_c 11.816612
_cell_angle_alpha 53.091566
_cell_angle_beta 49.824301
_cell_angle_gamma 62.908764
_cell_volume 494.825365
_symmetry_space_group_name_H-M "P -1"
_symmetry_group_IT_number 2
_symmetry_cell_setting 'triclinic'
loop_
_space_group_symop_operation_xyz
x,y,z
-x,-y,-z
loop_
_atom_site_type_symbol
_atom_site_label
_atom_site_fract_x
_atom_site_fract_y
_atom_site_fract_z
Si Si1 0.111360 0.762812 0.934996
Si Si2 0.684250 0.803016 0.389867
Si Si3 0.500000 0.500000 0.000000
Si Si4 0.057419 0.165958 0.562876
Si Si5 0.613232 0.608367 0.153118
Si Si6 0.231000 0.919423 0.089825
Si Si7 0.941164 0.386240 0.314272
Si Si8 0.500000 0.500000 0.500000
O O1 0.202768 0.565705 0.866057
O O2 0.243177 0.971865 0.786907
O O3 0.069138 0.071902 0.057550
O O4 0.054915 0.579342 0.126571
O O5 0.784211 0.773435 0.464091
O O6 0.746060 0.540194 0.382242
O O7 0.483584 0.773267 0.487595
O O8 0.529562 0.498591 0.126334
O O9 0.357126 0.737789 0.010694
O O10 0.961384 0.689382 0.594012
O O11 0.870471 0.216566 0.711779
O O12 0.071315 0.876308 0.638338
O O13 0.511738 0.640870 0.314502
O O14 0.666484 0.867337 0.992218
#
# Coordination Sequence:
#
# PCOD9051589 Si02
#       8
#     2   2   1   2   2   2   2   1
#     4  11  26  50  93 125 166 219 302 356 436 506
#     4  11  27  47  77 120 168 229 276 358 426 523
#     4  12  32  52  82 124 180 238 278 342 456 516
#     4  10  25  46  86 126 171 219 285 358 443 509
#     4  12  29  55  83 125 172 235 283 366 424 527
#     4  11  26  54  84 128 171 228 288 360 427 530
#     4  11  23  47  82 134 165 211 286 372 423 517
#     4  12  32  54  76 120 188 216 298 352 440 510
#
# _framework density 28.292811
#
# number of rings (size 3 to 8) (size 9 to 14) (size 15 to 20)
#    0.000    0.857    1.429    2.571   16.000    1.714 
#    0.000    0.000    0.000    0.000    0.000    0.000 
#    0.000    0.000    0.000    0.000    0.000    0.000 
#
# Total GULP energy -78029.169138 kJ/mol
# GULP energy per Si atom -5573.512081 kJ/mol
# Density = 2.822841 g / cm^3
# Si number density = 28.292811 Si / 1000 Ang^3
#
#
#
# Elastic Constant Matrix: (Units=GPa)
#
#
# Indices 1 2 3 4 5 6 
#
# 1 148.7641 79.2756 74.0257 -13.9208 45.1392 5.3602
# 2 79.2756 189.8585 49.8519 -14.3764 -20.5409 -4.0954
# 3 74.0257 49.8519 165.3867 -20.8463 20.5509 9.8775
# 4 -13.9208 -14.3764 -20.8463 59.0461 4.6306 -2.5127
# 5 45.1392 -20.5409 20.5509 4.6306 51.2632 7.2625
# 6 5.3602 -4.0954 9.8775 -2.5127 7.2625 64.4961
#
#
#
# Elastic Compliance Matrix: (Units=1/GPa)
#
#
# Indices 1 2 3 4 5 6 
#
# 1 0.019538 -0.009268 -0.003147 0.002834 -0.020002 0.000632
# 2 -0.009268 0.010661 -0.000771 -0.000862 0.012807 0.000090
# 3 -0.003147 -0.000771 0.008089 0.001955 -0.000836 -0.000856
# 4 0.002834 -0.000862 0.001955 0.018540 -0.005405 0.000741
# 5 -0.020002 0.012807 -0.000836 -0.005405 0.043428 -0.002497
# 6 0.000632 0.000090 -0.000856 0.000741 -0.002497 0.015899
#
#
# Mechanical properties :
#
#
# Convention : Reuss Voigt Hill
#
# Bulk Modulus (GPa) = 83.90747 101.14618 92.52683
# Shear Modulus (GPa) = 34.13010 55.01815 44.57412
#
# Velocity S-wave (km/s) = 3.47698 4.41454 3.97351
# Velocity P-wave (km/s) = 6.77055 7.86204 7.33662
#
# Compressibility (1/GPa) = 0.01191789
#
# Stress axis : x y z
#
# Youngs Moduli (GPa) = 51.18231 93.79614 123.62945
#
# Poissons Ratio (x) = 0.86927 0.38902
# Poissons Ratio (y) = 0.47434 0.09530
# Poissons Ratio (z) = 0.16105 0.07230
#
# Static dielectric constant tensor:
#      x y z
#    x 2.545310 0.113770 -0.063700 
#    y 0.113770 2.271000 0.072950 
#    z -0.063700 0.072950 2.335940 
# 
# From -- ./inp_files/409971.got.cif
#   From: 2010.05.17/outbox.cif.g08.bks.cpg/sg2_205_cif.got.tgz:409971.got - 2010.06.03 11:33:40.
