data_PCOD9051881
_publ_section_title
;
Structure prediction by ZEFSAII (Michael W. Deem and Ramdas Pophale) SiO2 
 PCOD9051881
Probable space group: P -1
;
_chemical_formula_sum "Si O2"
_cell_formula_units_Z 15
_cell_length_a 6.203598
_cell_length_b 11.637729
_cell_length_c 12.154931
_cell_angle_alpha 47.880085
_cell_angle_beta 105.675746
_cell_angle_gamma 92.524513
_cell_volume 615.027265
_symmetry_space_group_name_H-M "P -1"
_symmetry_group_IT_number 2
_symmetry_cell_setting 'triclinic'
loop_
_space_group_symop_operation_xyz
x,y,z
-x,-y,-z
loop_
_atom_site_type_symbol
_atom_site_label
_atom_site_fract_x
_atom_site_fract_y
_atom_site_fract_z
Si Si1 0.500000 0.500000 0.500000
Si Si2 0.343816 0.060933 0.221886
Si Si3 0.937137 0.674293 0.128013
Si Si4 0.804555 0.370783 0.406701
Si Si5 0.434172 0.723628 0.753829
Si Si6 0.697139 0.806877 0.336647
Si Si7 0.001637 0.111539 0.825759
Si Si8 0.797301 0.408990 0.996846
O O1 0.635636 0.442836 0.434600
O O2 0.550756 0.676480 0.378728
O O3 0.387766 0.163632 0.266819
O O4 0.577532 0.936722 0.320419
O O5 0.153992 0.953344 0.244278
O O6 0.273905 0.195697 0.030561
O O7 0.858084 0.510963 0.245045
O O8 0.048652 0.717640 0.230310
O O9 0.122659 0.664707 0.062647
O O10 0.705879 0.247038 0.396214
O O11 0.052174 0.288240 0.537937
O O12 0.580405 0.548539 0.867933
O O13 0.268374 0.710232 0.844101
O O14 0.744902 0.901916 0.175147
O O15 0.000000 0.000000 0.000000
O O16 0.000000 0.500000 0.000000
#
# Coordination Sequence:
#
# PCOD9051881 Si02
#       8
#     1   2   2   2   2   2   2   2
#     4  12  28  52  78 104 154 192 266 306 368 468
#     4  11  26  47  72 113 149 196 249 315 371 463
#     4  11  23  47  79 110 148 195 257 317 381 433
#     4  12  27  48  76 113 149 205 251 313 378 445
#     4  11  25  43  72 112 153 203 252 303 386 445
#     4  12  28  49  74 110 152 200 251 316 376 458
#     4  10  25  48  73 111 149 195 247 316 388 433
#     4  11  21  42  73 111 152 194 256 319 363 448
#
# _framework density 24.389163
#
# number of rings (size 3 to 8) (size 9 to 14) (size 15 to 20)
#    0.000    0.800    4.000    2.000    7.467    2.667 
#    2.400    2.667    0.000    0.000    0.000    0.000 
#    0.000    0.000    0.000    0.000    0.000    0.000 
#
# Total GULP energy -83566.272327 kJ/mol
# GULP energy per Si atom -5571.084822 kJ/mol
# Density = 2.433365 g / cm^3
# Si number density = 24.389163 Si / 1000 Ang^3
#
#
#
# Elastic Constant Matrix: (Units=GPa)
#
#
# Indices 1 2 3 4 5 6 
#
# 1 82.3721 25.4573 29.2761 5.0026 -7.4938 -4.5114
# 2 25.4573 144.0778 20.3732 7.1527 11.5388 3.8867
# 3 29.2761 20.3732 58.4773 0.7683 -8.3934 7.0695
# 4 5.0026 7.1527 0.7683 32.7223 7.7724 -2.9069
# 5 -7.4938 11.5388 -8.3934 7.7724 31.8997 8.9174
# 6 -4.5114 3.8867 7.0695 -2.9069 8.9174 43.6858
#
#
#
# Elastic Compliance Matrix: (Units=1/GPa)
#
#
# Indices 1 2 3 4 5 6 
#
# 1 0.015742 -0.001922 -0.007117 -0.002186 0.002407 0.002311
# 2 -0.001922 0.007948 -0.002395 -0.000433 -0.003922 0.000254
# 3 -0.007117 -0.002395 0.023257 -0.001171 0.007232 -0.005840
# 4 -0.002186 -0.000433 -0.001171 0.033800 -0.010107 0.004314
# 5 0.002407 -0.003922 0.007232 -0.010107 0.040348 -0.009481
# 6 0.002311 0.000254 -0.005840 0.004314 -0.009481 0.026274
#
#
# Mechanical properties :
#
#
# Convention : Reuss Voigt Hill
#
# Bulk Modulus (GPa) = 41.52768 48.34892 44.93830
# Shear Modulus (GPa) = 28.04864 35.64959 31.84912
#
# Velocity S-wave (km/s) = 3.39491 3.82736 3.61761
# Velocity P-wave (km/s) = 5.69485 6.27683 5.99291
#
# Compressibility (1/GPa) = 0.02408032
#
# Stress axis : x y z
#
# Youngs Moduli (GPa) = 63.52600 125.82410 42.99760
#
# Poissons Ratio (x) = 0.24180 0.30600
# Poissons Ratio (y) = 0.12208 0.10297
# Poissons Ratio (z) = 0.45209 0.30131
#
# Static dielectric constant tensor:
#      x y z
#    x 2.039230 -0.054710 0.050360 
#    y -0.054710 2.028850 0.055160 
#    z 0.050360 0.055160 2.086700 
# 
# From -- ./inp_files/363718.got.cif
#   From: 2010.05.17/outbox.cif.g08.bks.cpg/sg2_182_cif.got.tgz:363718.got - 2010.06.03 11:33:40.
