data_PCOD9051961
_publ_section_title
;
Structure prediction by ZEFSAII (Michael W. Deem and Ramdas Pophale) SiO2 
 PCOD9051961
Probable space group: P -1
;
_chemical_formula_sum "Si O2"
_cell_formula_units_Z 12
_cell_length_a 10.011494
_cell_length_b 6.733550
_cell_length_c 11.669591
_cell_angle_alpha 129.952366
_cell_angle_beta 129.336157
_cell_angle_gamma 74.597175
_cell_volume 452.959966
_symmetry_space_group_name_H-M "P -1"
_symmetry_group_IT_number 2
_symmetry_cell_setting 'triclinic'
loop_
_space_group_symop_operation_xyz
x,y,z
-x,-y,-z
loop_
_atom_site_type_symbol
_atom_site_label
_atom_site_fract_x
_atom_site_fract_y
_atom_site_fract_z
Si Si1 0.929062 0.318157 0.503605
Si Si2 0.511310 0.152023 0.183870
Si Si3 0.582529 0.738926 0.437868
Si Si4 0.908514 0.740877 0.205189
Si Si5 0.386559 0.679726 0.106681
Si Si6 0.909563 0.076494 0.863686
O O1 0.717430 0.244625 0.361100
O O2 0.000000 0.500000 0.500000
O O3 0.999078 0.408929 0.702859
O O4 0.978566 0.044687 0.395774
O O5 0.463362 0.440314 0.289233
O O6 0.404598 0.920660 0.120025
O O7 0.500000 0.000000 0.000000
O O8 0.572683 0.708476 0.283630
O O9 0.500000 0.000000 0.500000
O O10 0.766514 0.823300 0.636667
O O11 0.957421 0.786751 0.114089
O O12 0.698567 0.628210 0.079680
O O13 0.215972 0.720705 0.102649
O O14 0.000000 0.000000 0.000000
#
# Coordination Sequence:
#
# PCOD9051961 Si02
#       6
#     2   2   2   2   2   2
#     4  11  25  45  77 107 150 198 252 319 386 452
#     4  12  26  44  77 110 149 198 255 311 385 461
#     4  10  25  49  70 104 149 193 250 312 380 444
#     4  11  25  46  71 111 150 193 256 318 381 453
#     4  11  26  46  71 105 152 194 247 316 383 450
#     4  11  26  45  76 104 146 204 253 307 374 455
#
# _framework density 26.492407
#
# number of rings (size 3 to 8) (size 9 to 14) (size 15 to 20)
#    0.000    1.000    0.000    4.500    9.333    8.000 
#    3.000    0.000    0.000    0.000    0.000    0.000 
#    0.000    0.000    0.000    0.000    0.000    0.000 
#
# Total GULP energy -66900.535539 kJ/mol
# GULP energy per Si atom -5575.044628 kJ/mol
# Density = 2.643211 g / cm^3
# Si number density = 26.492407 Si / 1000 Ang^3
#
#
#
# Elastic Constant Matrix: (Units=GPa)
#
#
# Indices 1 2 3 4 5 6 
#
# 1 65.7927 56.7478 28.3490 -4.9937 1.5210 26.3430
# 2 56.7478 212.7144 104.2255 8.0285 3.7872 42.8709
# 3 28.3490 104.2255 207.3888 -13.7699 17.4329 21.0815
# 4 -4.9937 8.0285 -13.7699 67.3776 -1.5819 11.7066
# 5 1.5210 3.7872 17.4329 -1.5819 26.9599 -0.0013
# 6 26.3430 42.8709 21.0815 11.7066 -0.0013 50.7956
#
#
#
# Elastic Compliance Matrix: (Units=1/GPa)
#
#
# Indices 1 2 3 4 5 6 
#
# 1 0.022962 -0.004647 0.000436 0.003904 -0.000696 -0.009067
# 2 -0.004647 0.008201 -0.003410 -0.001512 0.001227 -0.002747
# 3 0.000436 -0.003410 0.007006 0.001898 -0.003964 -0.000693
# 4 0.003904 -0.001512 0.001898 0.016626 -0.000260 -0.005367
# 5 -0.000696 0.001227 -0.003964 -0.000260 0.039507 0.001032
# 6 -0.009067 -0.002747 -0.000693 -0.005367 0.001032 0.028232
#
#
# Mechanical properties :
#
#
# Convention : Reuss Voigt Hill
#
# Bulk Modulus (GPa) = 43.61847 96.06005 69.83926
# Shear Modulus (GPa) = 34.38328 48.79821 41.59075
#
# Velocity S-wave (km/s) = 3.60648 4.29647 3.96651
# Velocity P-wave (km/s) = 5.81744 7.80712 6.88453
#
# Compressibility (1/GPa) = 0.02292607
#
# Stress axis : x y z
#
# Youngs Moduli (GPa) = 43.54950 121.93780 142.73671
#
# Poissons Ratio (x) = 0.56665 -0.06223
# Poissons Ratio (y) = 0.20238 0.48680
# Poissons Ratio (z) = -0.01899 0.41586
#
# Static dielectric constant tensor:
#      x y z
#    x 2.143470 -0.121580 -0.239480 
#    y -0.121580 2.246360 0.171590 
#    z -0.239480 0.171590 2.594320 
# 
# From -- ./inp_files/92974.got.cif
#   From: 2010.05.17/outbox.cif.g08.bks.cpg/sg2_47_cif.got.tgz:92974.got - 2010.06.03 11:33:40.
