data_PCOD9051799
_publ_section_title
;
Structure prediction by ZEFSAII (Michael W. Deem and Ramdas Pophale) SiO2 
 PCOD9051799
Probable space group: P -1
;
_chemical_formula_sum "Si O2"
_cell_formula_units_Z 12
_cell_length_a 7.363853
_cell_length_b 9.455391
_cell_length_c 11.311772
_cell_angle_alpha 38.118985
_cell_angle_beta 75.508003
_cell_angle_gamma 65.298865
_cell_volume 437.356105
_symmetry_space_group_name_H-M "P -1"
_symmetry_group_IT_number 2
_symmetry_cell_setting 'triclinic'
loop_
_space_group_symop_operation_xyz
x,y,z
-x,-y,-z
loop_
_atom_site_type_symbol
_atom_site_label
_atom_site_fract_x
_atom_site_fract_y
_atom_site_fract_z
Si Si1 0.953566 0.123188 0.217397
Si Si2 0.303501 0.929589 0.103521
Si Si3 0.610341 0.123668 0.121696
Si Si4 0.979473 0.575538 0.594029
Si Si5 0.572193 0.638293 0.559600
Si Si6 0.765771 0.468252 0.208853
O O1 0.728186 0.219124 0.135928
O O2 0.949071 0.300616 0.208932
O O3 0.976409 0.848607 0.427438
O O4 0.134896 0.077030 0.126867
O O5 0.846948 0.561547 0.251247
O O6 0.378126 0.637302 0.322159
O O7 0.233067 0.940454 0.972095
O O8 0.500000 0.000000 0.000000
O O9 0.577017 0.873968 0.331173
O O10 0.402495 0.327173 0.976976
O O11 0.758062 0.584596 0.655725
O O12 0.000000 0.500000 0.500000
O O13 0.357852 0.697588 0.615387
#
# Coordination Sequence:
#
# PCOD9051799 Si02
#       6
#     2   2   2   2   2   2
#     4  11  24  50  82 120 166 207 272 338 405 474
#     4  11  25  48  80 118 157 219 273 331 393 484
#     4  10  25  47  80 117 162 216 264 330 407 484
#     4  11  24  47  86 118 156 219 269 331 400 483
#     4  10  25  51  80 116 161 206 278 325 401 489
#     4  11  26  51  81 123 163 211 263 340 411 476
#
# _framework density 27.437593
#
# number of rings (size 3 to 8) (size 9 to 14) (size 15 to 20)
#    0.000    1.333    1.667    1.500    2.333    9.333 
#   15.000    5.000    0.000    0.000    0.000    0.000 
#    0.000    0.000    0.000    0.000    0.000    0.000 
#
# Total GULP energy -67132.943060 kJ/mol
# GULP energy per Si atom -5594.411922 kJ/mol
# Density = 2.737514 g / cm^3
# Si number density = 27.437593 Si / 1000 Ang^3
#
#
#
# Elastic Constant Matrix: (Units=GPa)
#
#
# Indices 1 2 3 4 5 6 
#
# 1 190.9962 38.0956 61.8808 2.6224 -0.6441 5.8147
# 2 38.0956 173.7681 52.2143 4.3696 3.6470 -11.5823
# 3 61.8808 52.2143 174.0907 6.2231 -1.3239 -7.2619
# 4 2.6224 4.3696 6.2231 23.5855 -4.8874 -4.2628
# 5 -0.6441 3.6470 -1.3239 -4.8874 48.6149 2.2259
# 6 5.8147 -11.5823 -7.2619 -4.2628 2.2259 38.6081
#
#
#
# Elastic Compliance Matrix: (Units=1/GPa)
#
#
# Indices 1 2 3 4 5 6 
#
# 1 0.006094 -0.000846 -0.001968 -0.000258 0.000137 -0.001578
# 2 -0.000846 0.006561 -0.001579 -0.000524 -0.000681 0.001780
# 3 -0.001968 -0.001579 0.007001 -0.001128 0.000123 0.001008
# 4 -0.000258 -0.000524 -0.001128 0.044493 0.004280 0.004335
# 5 0.000137 -0.000681 0.000123 0.004280 0.021100 -0.000946
# 6 -0.001578 0.001780 0.001008 0.004335 -0.000946 0.027396
#
#
# Mechanical properties :
#
#
# Convention : Reuss Voigt Hill
#
# Bulk Modulus (GPa) = 92.00542 93.69292 92.84917
# Shear Modulus (GPa) = 39.98289 47.93933 43.96111
#
# Velocity S-wave (km/s) = 3.82151 4.18450 4.00712
# Velocity P-wave (km/s) = 7.28542 7.58739 7.43794
#
# Compressibility (1/GPa) = 0.01086892
#
# Stress axis : x y z
#
# Youngs Moduli (GPa) = 164.09188 152.41685 142.84577
#
# Poissons Ratio (x) = 0.12899 0.28111
# Poissons Ratio (y) = 0.13887 0.22558
# Poissons Ratio (z) = 0.32292 0.24069
#
# Static dielectric constant tensor:
#      x y z
#    x 2.188010 0.046090 0.071690 
#    y 0.046090 2.248490 -0.073460 
#    z 0.071690 -0.073460 2.255790 
# 
# From -- ./inp_files/81646.got.cif
#   From: 2010.05.17/outbox.cif.g08.bks.cpg/sg2_41_cif.got.tgz:81646.got - 2010.06.03 11:33:40.
