data_PCOD9051173
_publ_section_title
;
Structure prediction by ZEFSAII (Michael W. Deem and Ramdas Pophale) SiO2 
 PCOD9051173
Probable space group: P -1
;
_chemical_formula_sum "Si O2"
_cell_formula_units_Z 16
_cell_length_a 5.559069
_cell_length_b 8.964078
_cell_length_c 17.111298
_cell_angle_alpha 48.527913
_cell_angle_beta 97.375102
_cell_angle_gamma 106.507833
_cell_volume 610.439653
_symmetry_space_group_name_H-M "P -1"
_symmetry_group_IT_number 2
_symmetry_cell_setting 'triclinic'
loop_
_space_group_symop_operation_xyz
x,y,z
-x,-y,-z
loop_
_atom_site_type_symbol
_atom_site_label
_atom_site_fract_x
_atom_site_fract_y
_atom_site_fract_z
Si Si1 0.307195 0.525974 0.670655
Si Si2 0.135135 0.234637 0.900044
Si Si3 0.308621 0.648554 0.317626
Si Si4 0.002317 0.839954 0.353686
Si Si5 0.337486 0.926970 0.823663
Si Si6 0.281266 0.630233 0.068395
Si Si7 0.590240 0.761612 0.751667
Si Si8 0.021974 0.217810 0.465054
O O1 0.139142 0.321382 0.781688
O O2 0.432982 0.421399 0.643938
O O3 0.458808 0.641933 0.712000
O O4 0.235376 0.716752 0.560323
O O5 0.432078 0.271204 0.920962
O O6 0.958821 0.354114 0.896631
O O7 0.000000 0.000000 0.000000
O O8 0.155442 0.428753 0.348408
O O9 0.138382 0.686356 0.369314
O O10 0.420806 0.881405 0.207864
O O11 0.844277 0.760305 0.452785
O O12 0.879559 0.968633 0.244684
O O13 0.219060 0.025122 0.337450
O O14 0.404891 0.823617 0.783755
O O15 0.270525 0.756063 0.946119
O O16 0.276537 0.391565 0.144612
O O17 0.000000 0.000000 0.500000
#
# Coordination Sequence:
#
# PCOD9051173 Si02
#       8
#     2   2   2   2   2   2   2   2
#     4  11  26  46  73 104 147 193 245 321 375 453
#     4  11  26  45  74 111 157 198 256 309 385 456
#     4  11  26  46  72 102 146 187 253 300 385 445
#     4  11  26  46  73 105 148 195 251 312 375 460
#     4  11  25  46  72 106 148 197 247 310 381 450
#     4  11  26  43  75 112 149 203 255 313 380 455
#     4  10  25  45  71 106 151 192 252 310 378 449
#     4  12  27  44  76 107 143 195 252 311 388 448
#
# _framework density 26.210618
#
# number of rings (size 3 to 8) (size 9 to 14) (size 15 to 20)
#    0.000    1.000    0.000    4.125   14.000    5.500 
#    0.000    0.000    0.000    0.000    0.000    0.000 
#    0.000    0.000    0.000    0.000    0.000    0.000 
#
# Total GULP energy -89238.522145 kJ/mol
# GULP energy per Si atom -5577.407634 kJ/mol
# Density = 2.615096 g / cm^3
# Si number density = 26.210618 Si / 1000 Ang^3
#
#
#
# Elastic Constant Matrix: (Units=GPa)
#
#
# Indices 1 2 3 4 5 6 
#
# 1 81.2141 42.6380 39.1163 1.4300 5.1466 -39.0090
# 2 42.6380 161.5959 54.8927 -29.0199 6.6363 -28.2778
# 3 39.1163 54.8927 150.8787 -11.5137 22.3565 -4.6488
# 4 1.4300 -29.0199 -11.5137 47.0431 -8.9058 4.3310
# 5 5.1466 6.6363 22.3565 -8.9058 42.3367 -5.4831
# 6 -39.0090 -28.2778 -4.6488 4.3310 -5.4831 55.0250
#
#
#
# Elastic Compliance Matrix: (Units=1/GPa)
#
#
# Indices 1 2 3 4 5 6 
#
# 1 0.023689 -0.002679 -0.005252 -0.004837 0.001301 0.015484
# 2 -0.002679 0.008930 -0.002320 0.005103 0.001515 0.002243
# 3 -0.005252 -0.002320 0.009394 0.000614 -0.004427 -0.004611
# 4 -0.004837 0.005103 0.000614 0.025785 0.004586 -0.002328
# 5 0.001301 0.001515 -0.004427 0.004586 0.027000 0.003657
# 6 0.015484 0.002243 -0.004611 -0.002328 0.003657 0.030461
#
#
# Mechanical properties :
#
#
# Convention : Reuss Voigt Hill
#
# Bulk Modulus (GPa) = 46.48774 74.10918 60.29846
# Shear Modulus (GPa) = 32.69417 46.01709 39.35563
#
# Velocity S-wave (km/s) = 3.53563 4.19461 3.87914
# Velocity P-wave (km/s) = 5.86876 7.19691 6.56650
#
# Compressibility (1/GPa) = 0.02151105
#
# Stress axis : x y z
#
# Youngs Moduli (GPa) = 42.21352 111.98148 106.44804
#
# Poissons Ratio (x) = 0.30002 0.55903
# Poissons Ratio (y) = 0.11310 0.24700
# Poissons Ratio (z) = 0.22169 0.25983
#
# Static dielectric constant tensor:
#      x y z
#    x 2.875840 0.222130 0.055140 
#    y 0.222130 2.081390 0.066310 
#    z 0.055140 0.066310 2.112600 
# 
# From -- ./inp_files/547771.got.cif
#   From: 2010.05.17/outbox.cif.g08.bks.cpg/sg2_274_cif.got.tgz:547771.got - 2010.06.03 11:33:40.
