data_PCOD9051091
_publ_section_title
;
Structure prediction by ZEFSAII (Michael W. Deem and Ramdas Pophale) SiO2 
 PCOD9051091
Probable space group: P -1
;
_chemical_formula_sum "Si O2"
_cell_formula_units_Z 16
_cell_length_a 5.357325
_cell_length_b 18.159344
_cell_length_c 21.480257
_cell_angle_alpha 21.588199
_cell_angle_beta 61.135751
_cell_angle_gamma 70.356662
_cell_volume 630.819449
_symmetry_space_group_name_H-M "P -1"
_symmetry_group_IT_number 2
_symmetry_cell_setting 'triclinic'
loop_
_space_group_symop_operation_xyz
x,y,z
-x,-y,-z
loop_
_atom_site_type_symbol
_atom_site_label
_atom_site_fract_x
_atom_site_fract_y
_atom_site_fract_z
Si Si1 0.490654 0.252168 0.911392
Si Si2 0.347767 0.569512 0.382807
Si Si3 0.885640 0.734509 0.504605
Si Si4 0.505267 0.814121 0.296522
Si Si5 0.054512 0.801933 0.681934
Si Si6 0.582350 0.615068 0.986470
Si Si7 0.347274 0.187393 0.414908
Si Si8 0.938402 0.180169 0.118726
O O1 0.550807 0.282020 0.806726
O O2 0.673698 0.490669 0.724076
O O3 0.144780 0.204414 0.012738
O O4 0.602383 0.068411 0.072256
O O5 0.528164 0.710122 0.308546
O O6 0.379259 0.336806 0.553962
O O7 0.000000 0.500000 0.500000
O O8 0.925503 0.791217 0.527986
O O9 0.167770 0.757256 0.409284
O O10 0.772437 0.925605 0.347720
O O11 0.299537 0.737996 0.662901
O O12 0.786270 0.640590 0.880338
O O13 0.256128 0.937696 0.609494
O O14 0.000000 0.000000 0.500000
O O15 0.325668 0.721936 0.929067
O O16 0.810100 0.719833 0.935159
O O17 0.397025 0.365566 0.216267
#
# Coordination Sequence:
#
# PCOD9051091 Si02
#       8
#     2   2   2   2   2   2   2   2
#     4  11  24  45  74 106 145 191 249 299 375 439
#     4  11  23  46  70 102 145 192 239 307 363 445
#     4  11  22  47  71 103 143 186 244 301 367 438
#     4  10  25  45  69 105 144 190 247 300 369 439
#     4  11  26  46  71 101 143 192 241 305 365 446
#     4  12  26  47  73 104 146 187 250 299 372 444
#     4  11  25  44  71 102 142 190 241 299 374 429
#     4  11  27  45  73 108 143 195 241 309 367 441
#
# _framework density 25.363833
#
# number of rings (size 3 to 8) (size 9 to 14) (size 15 to 20)
#    0.000    1.000    3.750    1.500    5.250    4.000 
#    2.250    0.000    0.000    0.000    0.000    0.000 
#    0.000    0.000    0.000    0.000    0.000    0.000 
#
# Total GULP energy -89256.767852 kJ/mol
# GULP energy per Si atom -5578.547991 kJ/mol
# Density = 2.530610 g / cm^3
# Si number density = 25.363833 Si / 1000 Ang^3
#
#
#
# Elastic Constant Matrix: (Units=GPa)
#
#
# Indices 1 2 3 4 5 6 
#
# 1 79.1447 23.9934 28.3701 -9.6615 15.8063 -30.0703
# 2 23.9934 94.9747 44.0318 2.3322 9.2187 -11.3387
# 3 28.3701 44.0318 210.6318 -11.0001 18.4442 -20.3697
# 4 -9.6615 2.3322 -11.0001 67.3042 -3.0680 14.7962
# 5 15.8063 9.2187 18.4442 -3.0680 32.4721 -13.7170
# 6 -30.0703 -11.3387 -20.3697 14.7962 -13.7170 39.7470
#
#
#
# Elastic Compliance Matrix: (Units=1/GPa)
#
#
# Indices 1 2 3 4 5 6 
#
# 1 0.018899 -0.002778 -0.000527 -0.000106 -0.002943 0.012259
# 2 -0.002778 0.012414 -0.002165 -0.001339 -0.000841 0.000538
# 3 -0.000527 -0.002165 0.005556 0.000610 -0.001814 0.000978
# 4 -0.000106 -0.001339 0.000610 0.016400 -0.001179 -0.006662
# 5 -0.002943 -0.000841 -0.001814 -0.001179 0.037621 0.010026
# 6 0.012259 0.000538 0.000978 -0.006662 0.010026 0.041029
#
#
# Mechanical properties :
#
#
# Convention : Reuss Voigt Hill
#
# Bulk Modulus (GPa) = 38.56820 64.17131 51.36976
# Shear Modulus (GPa) = 33.00300 47.12839 40.06570
#
# Velocity S-wave (km/s) = 3.61111 4.31524 3.97878
# Velocity P-wave (km/s) = 5.71190 7.08404 6.43465
#
# Compressibility (1/GPa) = 0.02592809
#
# Stress axis : x y z
#
# Youngs Moduli (GPa) = 52.91382 80.55726 179.96942
#
# Poissons Ratio (x) = 0.22381 0.09485
# Poissons Ratio (y) = 0.14701 0.38964
# Poissons Ratio (z) = 0.02789 0.17441
#
# Static dielectric constant tensor:
#      x y z
#    x 2.367330 0.133970 -0.029420 
#    y 0.133970 2.116770 0.021040 
#    z -0.029420 0.021040 1.982520 
# 
# From -- ./inp_files/582040.got.cif
#   From: 2010.05.17/outbox.cif.g08.bks.cpg/sg2_292_cif.got.tgz:582040.got - 2010.06.03 11:33:40.
