data_PCOD9051780
_publ_section_title
;
Structure prediction by ZEFSAII (Michael W. Deem and Ramdas Pophale) SiO2 
 PCOD9051780
Probable space group: P -1
;
_chemical_formula_sum "Si O2"
_cell_formula_units_Z 16
_cell_length_a 10.489546
_cell_length_b 12.637441
_cell_length_c 7.338900
_cell_angle_alpha 121.693760
_cell_angle_beta 117.563092
_cell_angle_gamma 101.315413
_cell_volume 596.513387
_symmetry_space_group_name_H-M "P -1"
_symmetry_group_IT_number 2
_symmetry_cell_setting 'triclinic'
loop_
_space_group_symop_operation_xyz
x,y,z
-x,-y,-z
loop_
_atom_site_type_symbol
_atom_site_label
_atom_site_fract_x
_atom_site_fract_y
_atom_site_fract_z
Si Si1 0.335804 0.032368 0.469785
Si Si2 0.949596 0.324447 0.963015
Si Si3 0.746576 0.601983 0.283225
Si Si4 0.863896 0.245567 0.432134
Si Si5 0.646964 0.773962 0.643748
Si Si6 0.658899 0.516649 0.734070
Si Si7 0.806005 0.940426 0.253388
Si Si8 0.698632 0.302280 0.053655
O O1 0.301705 0.076178 0.292574
O O2 0.311253 0.118734 0.697895
O O3 0.173776 0.858015 0.243984
O O4 0.550317 0.134811 0.719329
O O5 0.911322 0.334822 0.735499
O O6 0.158545 0.405722 0.182657
O O7 0.872763 0.379510 0.110287
O O8 0.691889 0.684948 0.455341
O O9 0.701064 0.595903 0.032652
O O10 0.659514 0.428742 0.135079
O O11 0.958001 0.694132 0.507542
O O12 0.739287 0.266627 0.245078
O O13 0.791415 0.073361 0.285181
O O14 0.500000 0.500000 0.500000
O O15 0.436879 0.662329 0.440506
O O16 0.746597 0.821893 0.944209
O O17 0.000000 0.000000 0.500000
#
# Coordination Sequence:
#
# PCOD9051780 Si02
#       8
#     2   2   2   2   2   2   2   2
#     4  11  26  49  80 117 158 202 272 330 393 472
#     4  10  26  51  77 116 156 204 263 327 392 472
#     4  11  26  50  72 119 160 209 265 323 392 478
#     4  10  25  47  76 110 160 202 267 324 392 469
#     4  12  27  49  82 113 161 206 258 334 405 458
#     4  11  27  48  78 117 159 210 261 331 396 469
#     4  11  27  49  79 120 153 205 264 336 401 465
#     4  12  25  49  77 114 158 215 265 316 392 480
#
# _framework density 26.82253
#
# number of rings (size 3 to 8) (size 9 to 14) (size 15 to 20)
#    0.000    1.000    1.250    2.625    8.750    7.000 
#    4.500    0.000    0.000    0.000    0.000    0.000 
#    0.000    0.000    0.000    0.000    0.000    0.000 
#
# Total GULP energy -89706.986218 kJ/mol
# GULP energy per Si atom -5606.686639 kJ/mol
# Density = 2.676148 g / cm^3
# Si number density = 26.822530 Si / 1000 Ang^3
#
#
#
# Elastic Constant Matrix: (Units=GPa)
#
#
# Indices 1 2 3 4 5 6 
#
# 1 87.4145 12.4343 42.0738 2.9886 16.3965 27.9338
# 2 12.4343 114.6967 40.1090 -0.4025 8.9211 12.1540
# 3 42.0738 40.1090 143.8142 -10.8303 1.7613 9.5381
# 4 2.9886 -0.4025 -10.8303 58.7904 5.7754 4.8749
# 5 16.3965 8.9211 1.7613 5.7754 41.6813 6.5394
# 6 27.9338 12.1540 9.5381 4.8749 6.5394 38.7288
#
#
#
# Elastic Compliance Matrix: (Units=1/GPa)
#
#
# Indices 1 2 3 4 5 6 
#
# 1 0.018320 0.001380 -0.004944 -0.000347 -0.005446 -0.011466
# 2 0.001380 0.010105 -0.003000 -0.000095 -0.002085 -0.003064
# 3 -0.004944 -0.003000 0.009222 0.001618 0.001699 0.001746
# 4 -0.000347 -0.000095 0.001618 0.017692 -0.002049 -0.001999
# 5 -0.005446 -0.002085 0.001699 -0.002049 0.026809 -0.000105
# 6 -0.011466 -0.003064 0.001746 -0.001999 -0.000105 0.034892
#
#
# Mechanical properties :
#
#
# Convention : Reuss Voigt Hill
#
# Bulk Modulus (GPa) = 40.78448 59.46218 50.12333
# Shear Modulus (GPa) = 36.14289 44.59398 40.36844
#
# Velocity S-wave (km/s) = 3.67479 4.08187 3.88367
# Velocity P-wave (km/s) = 5.76574 6.66576 6.23202
#
# Compressibility (1/GPa) = 0.02451913
#
# Stress axis : x y z
#
# Youngs Moduli (GPa) = 54.58402 98.96378 108.43945
#
# Poissons Ratio (x) = -0.13658 0.53608
# Poissons Ratio (y) = -0.07533 0.32535
# Poissons Ratio (z) = 0.26984 0.29692
#
# Static dielectric constant tensor:
#      x y z
#    x 2.218980 -0.128570 0.024950 
#    y -0.128570 2.163110 0.021890 
#    z 0.024950 0.021890 2.100870 
# 
# From -- ./inp_files/259667.got.cif
#   From: 2010.05.17/outbox.cif.g08.bks.cpg/sg2_130_cif.got.tgz:259667.got - 2010.06.03 11:33:40.
