data_PCOD9051553
_publ_section_title
;
Structure prediction by ZEFSAII (Michael W. Deem and Ramdas Pophale) SiO2 
 PCOD9051553
Probable space group: P -1
;
_chemical_formula_sum "Si O2"
_cell_formula_units_Z 14
_cell_length_a 7.931467
_cell_length_b 11.708033
_cell_length_c 9.155835
_cell_angle_alpha 78.808785
_cell_angle_beta 131.664351
_cell_angle_gamma 76.442985
_cell_volume 541.068833
_symmetry_space_group_name_H-M "P -1"
_symmetry_group_IT_number 2
_symmetry_cell_setting 'triclinic'
loop_
_space_group_symop_operation_xyz
x,y,z
-x,-y,-z
loop_
_atom_site_type_symbol
_atom_site_label
_atom_site_fract_x
_atom_site_fract_y
_atom_site_fract_z
Si Si1 0.546935 0.210128 0.316566
Si Si2 0.249338 0.605887 0.739185
Si Si3 0.510697 0.569775 0.336581
Si Si4 0.812210 0.003595 0.764363
Si Si5 0.956460 0.705292 0.832897
Si Si6 0.477226 0.155564 0.777354
Si Si7 0.240209 0.987777 0.737702
O O1 0.669421 0.287162 0.288002
O O2 0.752727 0.110791 0.577768
O O3 0.255318 0.124374 0.719471
O O4 0.517030 0.123885 0.191618
O O5 0.255724 0.534106 0.608687
O O6 0.015647 0.663693 0.707116
O O7 0.500000 0.500000 0.000000
O O8 0.500000 0.500000 0.500000
O O9 0.531293 0.705444 0.301336
O O10 0.229205 0.614368 0.093018
O O11 0.543517 0.077378 0.681514
O O12 0.884032 0.858921 0.782687
O O13 0.000000 0.000000 0.000000
O O14 0.721084 0.696948 0.776379
O O15 0.697793 0.081754 0.050277
O O16 0.000000 0.000000 0.500000
#
# Coordination Sequence:
#
# PCOD9051553 Si02
#       7
#     2   2   2   2   2   2   2
#     4  12  26  45  78 115 150 204 258 319 405 464
#     4  10  25  46  75 105 153 206 266 307 376 474
#     4  11  24  49  76 110 154 210 263 318 383 470
#     4  12  24  43  73 117 152 193 249 326 402 467
#     4  11  25  47  77 110 155 200 258 327 388 465
#     4  11  24  45  75 115 159 191 265 324 398 472
#     4  11  25  44  75 118 157 199 252 327 407 470
#
# _framework density 25.874713
#
# number of rings (size 3 to 8) (size 9 to 14) (size 15 to 20)
#    0.000    0.857    2.857    3.857    2.000    2.286 
#    0.000    4.286    0.000    8.571    0.000    0.000 
#    0.000    0.000    0.000    0.000    0.000    0.000 
#
# Total GULP energy -78260.852314 kJ/mol
# GULP energy per Si atom -5590.060880 kJ/mol
# Density = 2.581582 g / cm^3
# Si number density = 25.874713 Si / 1000 Ang^3
#
#
#
# Elastic Constant Matrix: (Units=GPa)
#
#
# Indices 1 2 3 4 5 6 
#
# 1 167.1299 64.0118 72.8729 1.3961 -30.2146 -17.0252
# 2 64.0118 127.2754 44.1378 -14.8828 -26.1410 -15.9557
# 3 72.8729 44.1378 166.4956 10.9564 -26.7492 13.0473
# 4 1.3961 -14.8828 10.9564 29.8544 5.8760 -13.6294
# 5 -30.2146 -26.1410 -26.7492 5.8760 64.3676 -0.1645
# 6 -17.0252 -15.9557 13.0473 -13.6294 -0.1645 63.8256
#
#
#
# Elastic Compliance Matrix: (Units=1/GPa)
#
#
# Indices 1 2 3 4 5 6 
#
# 1 0.008949 -0.002763 -0.003082 0.000050 0.001799 0.002342
# 2 -0.002763 0.012209 -0.002727 0.009078 0.001712 0.004816
# 3 -0.003082 -0.002727 0.009254 -0.007248 0.001940 -0.004938
# 4 0.000050 0.009078 -0.007248 0.047763 -0.003626 0.013954
# 5 0.001799 0.001712 0.001940 -0.003626 0.018212 -0.000216
# 6 0.002342 0.004816 -0.004938 0.013954 -0.000216 0.021485
#
#
# Mechanical properties :
#
#
# Convention : Reuss Voigt Hill
#
# Bulk Modulus (GPa) = 75.37213 91.43844 83.40528
# Shear Modulus (GPa) = 35.85805 50.26810 43.06307
#
# Velocity S-wave (km/s) = 3.72672 4.41245 4.08400
# Velocity P-wave (km/s) = 6.90730 7.83423 7.38532
#
# Compressibility (1/GPa) = 0.01326750
#
# Stress axis : x y z
#
# Youngs Moduli (GPa) = 111.74615 81.90656 108.06409
#
# Poissons Ratio (x) = 0.22630 0.33307
# Poissons Ratio (y) = 0.30874 0.29470
# Poissons Ratio (z) = 0.34442 0.22336
#
# Static dielectric constant tensor:
#      x y z
#    x 2.593270 -0.012060 0.236630 
#    y -0.012060 2.122260 -0.035010 
#    z 0.236630 -0.035010 2.191240 
# 
# From -- ./inp_files/201593.got.cif
#   From: 2010.05.17/outbox.cif.g08.bks.cpg/sg2_101_cif.got.tgz:201593.got - 2010.06.03 11:33:40.
