data_PCOD9051860
_publ_section_title
;
Structure prediction by ZEFSAII (Michael W. Deem and Ramdas Pophale) SiO2 
 PCOD9051860
Probable space group: P -1
;
_chemical_formula_sum "Si O2"
_cell_formula_units_Z 15
_cell_length_a 5.743484
_cell_length_b 11.949589
_cell_length_c 11.681921
_cell_angle_alpha 89.890283
_cell_angle_beta 111.145359
_cell_angle_gamma 128.294285
_cell_volume 559.332986
_symmetry_space_group_name_H-M "P -1"
_symmetry_group_IT_number 2
_symmetry_cell_setting 'triclinic'
loop_
_space_group_symop_operation_xyz
x,y,z
-x,-y,-z
loop_
_atom_site_type_symbol
_atom_site_label
_atom_site_fract_x
_atom_site_fract_y
_atom_site_fract_z
Si Si1 0.832305 0.214046 0.252032
Si Si2 0.533332 0.522971 0.762984
Si Si3 0.323608 0.659561 0.103346
Si Si4 0.273272 0.890590 0.156159
Si Si5 0.500000 0.500000 0.500000
Si Si6 0.801118 0.022946 0.611917
Si Si7 0.638563 0.757042 0.921314
Si Si8 0.698409 0.761022 0.493637
O O1 0.516089 0.202081 0.196048
O O2 0.079769 0.331235 0.199185
O O3 0.086745 0.278752 0.406086
O O4 0.656517 0.042309 0.205320
O O5 0.488126 0.385097 0.800225
O O6 0.368920 0.494426 0.611424
O O7 0.470352 0.590305 0.854585
O O8 0.248174 0.749329 0.159985
O O9 0.519363 0.756943 0.025534
O O10 0.000000 0.500000 0.000000
O O11 0.173837 0.919614 0.257865
O O12 0.033502 0.861110 0.011582
O O13 0.376207 0.589419 0.424188
O O14 0.116528 0.137808 0.584614
O O15 0.500000 0.000000 0.500000
O O16 0.699415 0.862976 0.581355
#
# Coordination Sequence:
#
# PCOD9051860 Si02
#       8
#     2   2   2   2   1   2   2   2
#     4  11  25  47  69 106 145 183 243 305 353 430
#     4  11  26  49  72 104 148 188 240 304 363 433
#     4  12  26  49  69 105 146 190 243 298 352 439
#     4  12  28  43  76 108 142 198 244 296 368 422
#     4  10  26  44  76 104 140 188 226 306 368 414
#     4  11  25  47  73 104 144 195 244 296 354 436
#     4  12  26  45  77 103 145 193 241 296 361 436
#     4  10  25  48  72 106 147 187 245 304 353 436
#
# _framework density 26.81766
#
# number of rings (size 3 to 8) (size 9 to 14) (size 15 to 20)
#    0.000    0.800    4.000    0.800    9.333    2.133 
#    0.000    2.000    0.000    0.000    0.000    0.000 
#    0.000    0.000    0.000    0.000    0.000    0.000 
#
# Total GULP energy -83731.859963 kJ/mol
# GULP energy per Si atom -5582.123998 kJ/mol
# Density = 2.675662 g / cm^3
# Si number density = 26.817660 Si / 1000 Ang^3
#
#
#
# Elastic Constant Matrix: (Units=GPa)
#
#
# Indices 1 2 3 4 5 6 
#
# 1 68.0229 35.4328 47.8259 11.9424 -22.4584 -21.9371
# 2 35.4328 150.8062 13.9301 16.0398 -27.7010 -29.0432
# 3 47.8259 13.9301 137.9999 13.2779 -15.2895 -17.3960
# 4 11.9424 16.0398 13.2779 51.7933 -3.5082 -8.6552
# 5 -22.4584 -27.7010 -15.2895 -3.5082 62.5278 9.2540
# 6 -21.9371 -29.0432 -17.3960 -8.6552 9.2540 48.8019
#
#
#
# Elastic Compliance Matrix: (Units=1/GPa)
#
#
# Indices 1 2 3 4 5 6 
#
# 1 0.024903 -0.003018 -0.006888 -0.001754 0.004983 0.005687
# 2 -0.003018 0.008477 0.001013 -0.001472 0.002342 0.003344
# 3 -0.006888 0.001013 0.009752 -0.001087 0.000187 0.000754
# 4 -0.001754 -0.001472 -0.001087 0.020693 -0.000644 0.001741
# 5 0.004983 0.002342 0.000187 -0.000644 0.018827 0.000016
# 6 0.005687 0.003344 0.000754 0.001741 0.000016 0.025612
#
#
# Mechanical properties :
#
#
# Convention : Reuss Voigt Hill
#
# Bulk Modulus (GPa) = 39.45434 61.24517 50.34976
# Shear Modulus (GPa) = 37.17473 49.93393 43.55433
#
# Velocity S-wave (km/s) = 3.72721 4.31975 4.03437
# Velocity P-wave (km/s) = 5.76774 6.91140 6.36531
#
# Compressibility (1/GPa) = 0.02534575
#
# Stress axis : x y z
#
# Youngs Moduli (GPa) = 40.15580 117.96218 102.54674
#
# Poissons Ratio (x) = 0.35598 0.70636
# Poissons Ratio (y) = 0.12118 -0.10386
# Poissons Ratio (z) = 0.27660 -0.11947
#
# Static dielectric constant tensor:
#      x y z
#    x 2.871890 4.595890 2.687430 
#    y 4.595890 31.843040 17.482780 
#    z 2.687430 17.482780 12.398020 
# 
# From -- ./inp_files/363971.got.cif
#   From: 2010.05.17/outbox.cif.g08.bks.cpg/sg2_182_cif.got.tgz:363971.got - 2010.06.03 11:33:40.
