data_PCOD9051024
_publ_section_title
;
Structure prediction by ZEFSAII (Michael W. Deem and Ramdas Pophale) SiO2 
 PCOD9051024
Probable space group: P -1
;
_chemical_formula_sum "Si O2"
_cell_formula_units_Z 16
_cell_length_a 18.821498
_cell_length_b 9.988012
_cell_length_c 16.553186
_cell_angle_alpha 153.927830
_cell_angle_beta 141.618763
_cell_angle_gamma 41.051985
_cell_volume 834.797205
_symmetry_space_group_name_H-M "P -1"
_symmetry_group_IT_number 2
_symmetry_cell_setting 'triclinic'
loop_
_space_group_symop_operation_xyz
x,y,z
-x,-y,-z
loop_
_atom_site_type_symbol
_atom_site_label
_atom_site_fract_x
_atom_site_fract_y
_atom_site_fract_z
Si Si1 0.863966 0.589156 0.015206
Si Si2 0.386173 0.569988 0.881185
Si Si3 0.588452 0.291385 0.352929
Si Si4 0.833515 0.561140 0.313966
Si Si5 0.009374 0.989655 0.745598
Si Si6 0.503314 0.361948 0.705207
Si Si7 0.735988 0.613050 0.082030
Si Si8 0.346938 0.277261 0.220696
O O1 0.818718 0.610376 0.077306
O O2 0.919805 0.878378 0.191054
O O3 0.957190 0.280567 0.912930
O O4 0.753175 0.584119 0.855804
O O5 0.291744 0.369077 0.715811
O O6 0.425625 0.504279 0.789074
O O7 0.500000 0.500000 0.000000
O O8 0.332204 0.930476 0.041274
O O9 0.546938 0.463189 0.325829
O O10 0.472369 0.242449 0.270242
O O11 0.650678 0.507553 0.582858
O O12 0.669148 0.962917 0.229534
O O13 0.806476 0.495323 0.161598
O O14 0.904326 0.839109 0.535261
O O15 0.909785 0.272146 0.271827
O O16 0.500000 0.000000 0.500000
O O17 0.634089 0.419911 0.867862
#
# Coordination Sequence:
#
# PCOD9051024 Si02
#       8
#     2   2   2   2   2   2   2   2
#     4  11  23  43  69  91 125 172 222 270 317 376
#     4  12  22  39  66  96 134 169 206 261 333 393
#     4  11  23  39  63  98 133 171 213 259 326 394
#     4  11  24  44  67  94 129 168 219 268 323 375
#     4  10  25  45  67  91 121 178 225 266 317 379
#     4  12  25  37  59 102 137 169 209 258 326 392
#     4  12  24  42  66  97 133 167 216 272 320 383
#     4  11  21  39  66  92 129 175 214 259 321 394
#
# _framework density 19.166329999999999
#
# number of rings (size 3 to 8) (size 9 to 14) (size 15 to 20)
#    0.000    0.750    5.000    2.625    1.750    3.000 
#    0.000    0.000    0.000    0.000    0.000    0.000 
#    0.000    0.000    0.000    0.000    0.000    0.000 
#
# Total GULP energy -89491.142318 kJ/mol
# GULP energy per Si atom -5593.196395 kJ/mol
# Density = 1.912271 g / cm^3
# Si number density = 19.166330 Si / 1000 Ang^3
#
#
#
# Elastic Constant Matrix: (Units=GPa)
#
#
# Indices 1 2 3 4 5 6 
#
# 1 144.0248 20.0104 61.2190 -14.7583 7.7373 12.8156
# 2 20.0104 50.6797 18.7690 -9.3866 2.3141 8.9680
# 3 61.2190 18.7690 112.0182 2.3018 12.7958 11.8156
# 4 -14.7583 -9.3866 2.3018 32.2841 -0.6183 -6.1976
# 5 7.7373 2.3141 12.7958 -0.6183 28.0431 -4.2707
# 6 12.8156 8.9680 11.8156 -6.1976 -4.2707 28.8725
#
#
#
# Elastic Compliance Matrix: (Units=1/GPa)
#
#
# Indices 1 2 3 4 5 6 
#
# 1 0.009825 -0.000959 -0.005146 0.004367 -0.000351 -0.001072
# 2 -0.000959 0.023046 -0.002878 0.005589 -0.000884 -0.004486
# 3 -0.005146 -0.002878 0.013352 -0.005033 -0.005175 -0.004132
# 4 0.004367 0.005589 -0.005033 0.036254 0.002424 0.006526
# 5 -0.000351 -0.000884 -0.005175 0.002424 0.039604 0.008927
# 6 -0.001072 -0.004486 -0.004132 0.006526 0.008927 0.040916
#
#
# Mechanical properties :
#
#
# Convention : Reuss Voigt Hill
#
# Bulk Modulus (GPa) = 35.38877 56.30218 45.84547
# Shear Modulus (GPa) = 26.26300 31.62155 28.94228
#
# Velocity S-wave (km/s) = 3.70573 4.06624 3.89016
# Velocity P-wave (km/s) = 6.06746 7.17531 6.64451
#
# Compressibility (1/GPa) = 0.02825755
#
# Stress axis : x y z
#
# Youngs Moduli (GPa) = 101.77686 43.39219 74.89587
#
# Poissons Ratio (x) = 0.04163 0.38538
# Poissons Ratio (y) = 0.09764 0.21554
# Poissons Ratio (z) = 0.52370 0.12488
#
# Static dielectric constant tensor:
#      x y z
#    x 1.655340 -0.004570 0.026780 
#    y -0.004570 1.661030 0.005680 
#    z 0.026780 0.005680 1.658850 
# 
# From -- ./inp_files/178199.got.cif
#   From: 2010.05.17/outbox.cif.g08.bks.cpg/sg2_90_cif.got.tgz:178199.got - 2010.06.03 11:33:40.
