data_PCOD9051758
_publ_section_title
;
Structure prediction by ZEFSAII (Michael W. Deem and Ramdas Pophale) SiO2 
 PCOD9051758
Probable space group: P -1
;
_chemical_formula_sum "Si O2"
_cell_formula_units_Z 15
_cell_length_a 13.422211
_cell_length_b 15.608567
_cell_length_c 9.746787
_cell_angle_alpha 90.626187
_cell_angle_beta 99.299071
_cell_angle_gamma 160.661869
_cell_volume 577.889416
_symmetry_space_group_name_H-M "P -1"
_symmetry_group_IT_number 2
_symmetry_cell_setting 'triclinic'
loop_
_space_group_symop_operation_xyz
x,y,z
-x,-y,-z
loop_
_atom_site_type_symbol
_atom_site_label
_atom_site_fract_x
_atom_site_fract_y
_atom_site_fract_z
Si Si1 0.500000 0.500000 0.500000
Si Si2 0.771096 0.056192 0.492710
Si Si3 0.366695 0.247442 0.629514
Si Si4 0.778041 0.353616 0.126743
Si Si5 0.310152 0.037328 0.247400
Si Si6 0.559719 0.999230 0.204797
Si Si7 0.422924 0.310306 0.248337
Si Si8 0.542412 0.432374 0.982544
O O1 0.617874 0.500087 0.583238
O O2 0.356378 0.341474 0.319428
O O3 0.649291 0.866367 0.399392
O O4 0.573001 0.916807 0.588661
O O5 0.752260 0.113836 0.377324
O O6 0.158039 0.356263 0.642924
O O7 0.422997 0.312874 0.801736
O O8 0.000000 0.000000 0.500000
O O9 0.611470 0.276019 0.205417
O O10 0.160597 0.693482 0.165220
O O11 0.760674 0.243403 0.187668
O O12 0.517415 0.132298 0.935004
O O13 0.262351 0.097499 0.281648
O O14 0.936461 0.714398 0.088973
O O15 0.334665 0.229755 0.066410
O O16 0.500000 0.500000 0.000000
#
# Coordination Sequence:
#
# PCOD9051758 Si02
#       8
#     1   2   2   2   2   2   2   2
#     4  12  22  40  68  92 142 190 232 290 350 428
#     4  11  25  43  70 103 140 187 244 297 365 442
#     4  12  24  44  66  97 140 184 235 294 357 431
#     4  10  25  48  74 106 147 189 242 313 376 442
#     4  11  26  44  69 103 142 185 243 302 363 442
#     4  10  25  47  75 106 145 190 246 305 382 446
#     4  11  25  43  65 101 143 185 238 294 361 430
#     4  11  25  43  66 100 140 188 239 294 365 432
#
# _framework density 25.956524000000002
#
# number of rings (size 3 to 8) (size 9 to 14) (size 15 to 20)
#    0.000    1.067    4.000    0.800    7.467    5.867 
#    0.000    0.000    0.000    0.000    0.000    0.000 
#    0.000    0.000    0.000    0.000    0.000    0.000 
#
# Total GULP energy -83688.093162 kJ/mol
# GULP energy per Si atom -5579.206211 kJ/mol
# Density = 2.589745 g / cm^3
# Si number density = 25.956524 Si / 1000 Ang^3
#
#
#
# Elastic Constant Matrix: (Units=GPa)
#
#
# Indices 1 2 3 4 5 6 
#
# 1 55.2820 -3.8894 26.6225 -2.1028 -14.5506 -7.7045
# 2 -3.8894 59.3325 26.0281 -18.5904 -3.9366 2.9247
# 3 26.6225 26.0281 184.0285 -40.4797 -22.4586 -6.5751
# 4 -2.1028 -18.5904 -40.4797 36.6280 -3.8266 0.9609
# 5 -14.5506 -3.9366 -22.4586 -3.8266 40.6292 -15.5275
# 6 -7.7045 2.9247 -6.5751 0.9609 -15.5275 34.7489
#
#
#
# Elastic Compliance Matrix: (Units=1/GPa)
#
#
# Indices 1 2 3 4 5 6 
#
# 1 0.023696 0.003254 -0.001579 0.002254 0.011947 0.009957
# 2 0.003254 0.020877 -0.000617 0.010505 0.003961 0.000327
# 3 -0.001579 -0.000617 0.008964 0.010112 0.006886 0.004195
# 4 0.002254 0.010505 0.010112 0.045249 0.014209 0.006627
# 5 0.011947 0.003961 0.006886 0.014209 0.042995 0.022438
# 6 0.009957 0.000327 0.004195 0.006627 0.022438 0.041595
#
#
# Mechanical properties :
#
#
# Convention : Reuss Voigt Hill
#
# Bulk Modulus (GPa) = 17.96861 44.01840 30.99351
# Shear Modulus (GPa) = 25.02363 39.06000 32.04182
#
# Velocity S-wave (km/s) = 3.10830 3.88341 3.51727
# Velocity P-wave (km/s) = 4.45193 6.09124 5.33492
#
# Compressibility (1/GPa) = 0.05565260
#
# Stress axis : x y z
#
# Youngs Moduli (GPa) = 42.20086 47.90034 111.55522
#
# Poissons Ratio (x) = -0.15586 0.17611
# Poissons Ratio (y) = -0.13732 0.06889
# Poissons Ratio (z) = 0.06662 0.02958
#
# Static dielectric constant tensor:
#      x y z
#    x 2.033950 -0.054900 0.040350 
#    y -0.054900 2.107910 -0.052890 
#    z 0.040350 -0.052890 2.094130 
# 
# From -- ./inp_files/317706.got.cif
#   From: 2010.05.17/outbox.cif.g08.bks.cpg/sg2_159_cif.got.tgz:317706.got - 2010.06.03 11:33:40.
