data_PCOD9051074
_publ_section_title
;
Structure prediction by ZEFSAII (Michael W. Deem and Ramdas Pophale) SiO2 
 PCOD9051074
Probable space group: P -1
;
_chemical_formula_sum "Si O2"
_cell_formula_units_Z 16
_cell_length_a 13.281234
_cell_length_b 13.191246
_cell_length_c 13.434150
_cell_angle_alpha 49.989105
_cell_angle_beta 31.424800
_cell_angle_gamma 33.171960
_cell_volume 650.098825
_symmetry_space_group_name_H-M "P -1"
_symmetry_group_IT_number 2
_symmetry_cell_setting 'triclinic'
loop_
_space_group_symop_operation_xyz
x,y,z
-x,-y,-z
loop_
_atom_site_type_symbol
_atom_site_label
_atom_site_fract_x
_atom_site_fract_y
_atom_site_fract_z
Si Si1 0.962127 0.011878 0.405960
Si Si2 0.837589 0.566939 0.968466
Si Si3 0.347964 0.906754 0.877282
Si Si4 0.419721 0.961553 0.988415
Si Si5 0.392872 0.401829 0.645859
Si Si6 0.881337 0.325202 0.948914
Si Si7 0.244545 0.691739 0.222531
Si Si8 0.761257 0.780574 0.456855
O O1 0.105708 0.072085 0.203121
O O2 0.119942 0.806490 0.359846
O O3 0.642545 0.185439 0.534493
O O4 0.000000 0.000000 0.500000
O O5 0.899665 0.387283 0.000249
O O6 0.102157 0.530570 0.753752
O O7 0.606474 0.738414 0.983345
O O8 0.699669 0.624194 0.156660
O O9 0.595291 0.764067 0.679322
O O10 0.438678 0.970417 0.847072
O O11 0.276648 0.805663 0.054651
O O12 0.067948 0.102291 0.938544
O O13 0.500000 0.000000 0.000000
O O14 0.500000 0.500000 0.500000
O O15 0.051268 0.340311 0.722190
O O16 0.553341 0.475125 0.106227
O O17 0.996818 0.731648 0.357226
O O18 0.500000 0.000000 0.500000
#
# Coordination Sequence:
#
# PCOD9051074 Si02
#       8
#     2   2   2   2   2   2   2   2
#     4  11  22  40  62  94 133 175 217 268 332 400
#     4  11  24  44  64  97 143 172 225 295 325 404
#     4  10  25  45  69 101 136 182 229 275 347 409
#     4  11  23  42  66  97 137 180 222 277 341 407
#     4  11  25  41  65 100 132 184 231 269 345 409
#     4  11  23  46  70 100 136 178 231 285 347 397
#     4  11  24  47  68 101 141 176 226 287 343 397
#     4  10  25  45  74 103 131 181 235 283 339 412
#
# _framework density 24.611643999999998
#
# number of rings (size 3 to 8) (size 9 to 14) (size 15 to 20)
#    0.000    1.250    3.750    1.125   12.250    2.500 
#    2.250    3.750    0.000    0.000    0.000    0.000 
#    0.000    0.000    0.000    0.000    0.000    0.000 
#
# Total GULP energy -89258.497927 kJ/mol
# GULP energy per Si atom -5578.656120 kJ/mol
# Density = 2.455563 g / cm^3
# Si number density = 24.611644 Si / 1000 Ang^3
#
#
#
# Elastic Constant Matrix: (Units=GPa)
#
#
# Indices 1 2 3 4 5 6 
#
# 1 58.3901 15.4016 24.8585 13.3187 -3.4475 -0.4657
# 2 15.4016 88.5011 37.7953 16.6107 -18.9934 -15.6773
# 3 24.8585 37.7953 140.1647 29.3650 -15.1471 -6.4047
# 4 13.3187 16.6107 29.3650 39.9141 -3.4293 -2.0767
# 5 -3.4475 -18.9934 -15.1471 -3.4293 49.8258 1.8888
# 6 -0.4657 -15.6773 -6.4047 -2.0767 1.8888 27.1363
#
#
#
# Elastic Compliance Matrix: (Units=1/GPa)
#
#
# Indices 1 2 3 4 5 6 
#
# 1 0.019502 -0.002054 -0.002135 -0.004195 -0.000309 -0.001656
# 2 -0.002054 0.015647 -0.002301 -0.003329 0.004595 0.007887
# 3 -0.002135 -0.002301 0.009372 -0.005081 0.001461 0.000356
# 4 -0.004195 -0.003329 -0.005081 0.031461 -0.000911 -0.000723
# 5 -0.000309 0.004595 0.001461 -0.000911 0.022129 0.001384
# 6 -0.001656 0.007887 0.000356 -0.000723 0.001384 0.041311
#
#
# Mechanical properties :
#
#
# Convention : Reuss Voigt Hill
#
# Bulk Modulus (GPa) = 31.70404 49.24076 40.47240
# Shear Modulus (GPa) = 30.69033 37.30862 33.99947
#
# Velocity S-wave (km/s) = 3.53510 3.89767 3.72080
# Velocity P-wave (km/s) = 5.43804 6.34873 5.91095
#
# Compressibility (1/GPa) = 0.03154172
#
# Stress axis : x y z
#
# Youngs Moduli (GPa) = 51.27571 63.90857 106.69869
#
# Poissons Ratio (x) = 0.13130 0.22781
# Poissons Ratio (y) = 0.10534 0.24547
# Poissons Ratio (z) = 0.10948 0.14703
#
# Static dielectric constant tensor:
#      x y z
#    x 2.124370 0.030770 0.047430 
#    y 0.030770 1.960430 -0.008310 
#    z 0.047430 -0.008310 1.971270 
# 
# From -- ./inp_files/534323.got.cif
#   From: 2010.05.17/outbox.cif.g08.bks.cpg/sg2_268_cif.got.tgz:534323.got - 2010.06.03 11:33:40.
