data_PCOD9051932
_publ_section_title
;
Structure prediction by ZEFSAII (Michael W. Deem and Ramdas Pophale) SiO2 
 PCOD9051932
Probable space group: P -1
;
_chemical_formula_sum "Si O2"
_cell_formula_units_Z 14
_cell_length_a 9.516764
_cell_length_b 13.895158
_cell_length_c 11.644085
_cell_angle_alpha 30.405337
_cell_angle_beta 130.995738
_cell_angle_gamma 115.807514
_cell_volume 552.836048
_symmetry_space_group_name_H-M "P -1"
_symmetry_group_IT_number 2
_symmetry_cell_setting 'triclinic'
loop_
_space_group_symop_operation_xyz
x,y,z
-x,-y,-z
loop_
_atom_site_type_symbol
_atom_site_label
_atom_site_fract_x
_atom_site_fract_y
_atom_site_fract_z
Si Si1 0.249086 0.650091 0.936311
Si Si2 0.862192 0.621068 0.125897
Si Si3 0.560219 0.201661 0.321728
Si Si4 0.144121 0.810792 0.966008
Si Si5 0.211182 0.015419 0.125565
Si Si6 0.105602 0.265486 0.500967
Si Si7 0.492274 0.734492 0.395141
O O1 0.339075 0.766180 0.773995
O O2 0.410072 0.440491 0.279851
O O3 0.189749 0.774075 0.894860
O O4 0.054021 0.629986 0.792370
O O5 0.022089 0.398161 0.432683
O O6 0.651502 0.620277 0.967883
O O7 0.817995 0.760702 0.071761
O O8 0.959781 0.744427 0.967930
O O9 0.500000 0.000000 0.500000
O O10 0.702845 0.154903 0.554356
O O11 0.101901 0.041879 0.735166
O O12 0.330757 0.692312 0.268903
O O13 0.371460 0.939605 0.187810
O O14 0.000000 0.000000 0.000000
O O15 0.323762 0.253640 0.592868
#
# Coordination Sequence:
#
# PCOD9051932 Si02
#       7
#     2   2   2   2   2   2   2
#     4  12  27  49  84 115 156 204 265 323 386 463
#     4  11  25  50  78 111 157 201 261 319 384 463
#     4  10  25  48  78 112 154 204 260 313 392 454
#     4  12  27  50  80 116 158 203 258 328 384 459
#     4  11  24  46  78 107 157 203 247 321 391 445
#     4  12  27  47  80 116 152 206 263 313 388 468
#     4  12  27  49  79 116 161 201 259 324 394 458
#
# _framework density 25.323962999999999
#
# number of rings (size 3 to 8) (size 9 to 14) (size 15 to 20)
#    0.000    0.571    2.857    4.286    6.000    3.429 
#    0.000    1.429    0.000    0.000    0.000    0.000 
#    0.000    0.000    0.000    0.000    0.000    0.000 
#
# Total GULP energy -78479.910304 kJ/mol
# GULP energy per Si atom -5605.707879 kJ/mol
# Density = 2.526632 g / cm^3
# Si number density = 25.323963 Si / 1000 Ang^3
#
#
#
# Elastic Constant Matrix: (Units=GPa)
#
#
# Indices 1 2 3 4 5 6 
#
# 1 155.6077 51.3147 43.2752 12.9941 30.0436 -5.8497
# 2 51.3147 114.0957 64.1203 6.4022 19.3239 -11.8611
# 3 43.2752 64.1203 125.6385 2.9789 30.3417 -13.1721
# 4 12.9941 6.4022 2.9789 72.0106 -5.4272 10.3525
# 5 30.0436 19.3239 30.3417 -5.4272 54.9426 -4.4420
# 6 -5.8497 -11.8611 -13.1721 10.3525 -4.4420 47.3533
#
#
#
# Elastic Compliance Matrix: (Units=1/GPa)
#
#
# Indices 1 2 3 4 5 6 
#
# 1 0.008270 -0.002709 -0.000595 -0.001509 -0.003374 0.000191
# 2 -0.002709 0.013405 -0.005722 -0.000695 -0.000014 0.001582
# 3 -0.000595 -0.005722 0.012323 -0.000455 -0.004382 0.001609
# 4 -0.001509 -0.000695 -0.000455 0.014934 0.002512 -0.003516
# 5 -0.003374 -0.000014 -0.004382 0.002512 0.022714 -0.000058
# 6 0.000191 0.001582 0.001609 -0.003516 -0.000058 0.022749
#
#
# Mechanical properties :
#
#
# Convention : Reuss Voigt Hill
#
# Bulk Modulus (GPa) = 62.72047 79.19581 70.95814
# Shear Modulus (GPa) = 42.45854 50.63674 46.54764
#
# Velocity S-wave (km/s) = 4.09909 4.47649 4.29194
# Velocity P-wave (km/s) = 6.87200 7.61969 7.25548
#
# Compressibility (1/GPa) = 0.01594376
#
# Stress axis : x y z
#
# Youngs Moduli (GPa) = 120.92044 74.60156 81.15194
#
# Poissons Ratio (x) = 0.20208 0.04832
# Poissons Ratio (y) = 0.32755 0.46438
# Poissons Ratio (z) = 0.07200 0.42690
#
# Static dielectric constant tensor:
#      x y z
#    x 1.951950 -0.032290 0.017010 
#    y -0.032290 2.022740 -0.014590 
#    z 0.017010 -0.014590 2.059300 
# 
# From -- ./inp_files/417383.got.cif
#   From: 2010.05.17/outbox.cif.g08.bks.cpg/sg2_209_cif.got.tgz:417383.got - 2010.06.03 11:33:40.
