data_PCOD9051611
_publ_section_title
;
Structure prediction by ZEFSAII (Michael W. Deem and Ramdas Pophale) SiO2 
 PCOD9051611
Probable space group: P -1
;
_chemical_formula_sum "Si O2"
_cell_formula_units_Z 12
_cell_length_a 7.691828
_cell_length_b 11.027364
_cell_length_c 8.487374
_cell_angle_alpha 64.777937
_cell_angle_beta 52.641551
_cell_angle_gamma 77.762256
_cell_volume 516.577167
_symmetry_space_group_name_H-M "P -1"
_symmetry_group_IT_number 2
_symmetry_cell_setting 'triclinic'
loop_
_space_group_symop_operation_xyz
x,y,z
-x,-y,-z
loop_
_atom_site_type_symbol
_atom_site_label
_atom_site_fract_x
_atom_site_fract_y
_atom_site_fract_z
Si Si1 0.575712 0.860853 0.612650
Si Si2 0.997617 0.902785 0.202762
Si Si3 0.289205 0.669802 0.075094
Si Si4 0.541719 0.325437 0.677406
Si Si5 0.689828 0.030798 0.753833
Si Si6 0.117715 0.461538 0.793938
O O1 0.500000 0.000000 0.500000
O O2 0.769095 0.825749 0.411180
O O3 0.663550 0.918063 0.699336
O O4 0.422094 0.729670 0.815976
O O5 0.826570 0.200814 0.873389
O O6 0.083295 0.976835 0.273298
O O7 0.000000 0.000000 0.000000
O O8 0.424043 0.635863 0.175957
O O9 0.089529 0.566612 0.192700
O O10 0.632531 0.181903 0.656404
O O11 0.280491 0.338536 0.788859
O O12 0.706156 0.426497 0.432705
O O13 0.500000 0.000000 0.000000
O O14 0.000000 0.500000 0.000000
#
# Coordination Sequence:
#
# PCOD9051611 Si02
#       6
#     2   2   2   2   2   2
#     4  12  24  38  65 103 135 178 220 268 340 404
#     4  11  23  40  64  98 139 181 215 272 335 406
#     4  11  25  44  67  97 138 175 224 281 336 397
#     4  10  25  47  68  97 137 174 226 279 332 401
#     4  11  22  43  68  99 139 173 216 279 341 401
#     4  11  27  45  72  96 127 183 230 281 334 393
#
# _framework density 23.229831999999998
#
# number of rings (size 3 to 8) (size 9 to 14) (size 15 to 20)
#    0.000    1.000    5.000    1.000    7.000    4.667 
#    0.000    0.000    0.000    0.000    0.000    0.000 
#    0.000    0.000    0.000    0.000    0.000    0.000 
#
# Total GULP energy -66961.967754 kJ/mol
# GULP energy per Si atom -5580.163980 kJ/mol
# Density = 2.317696 g / cm^3
# Si number density = 23.229832 Si / 1000 Ang^3
#
#
#
# Elastic Constant Matrix: (Units=GPa)
#
#
# Indices 1 2 3 4 5 6 
#
# 1 61.9555 15.6398 14.2350 17.2641 -5.8419 2.1456
# 2 15.6398 37.8763 5.6485 -1.6745 0.1214 9.2763
# 3 14.2350 5.6485 154.6877 14.0769 -26.0103 -11.2104
# 4 17.2641 -1.6745 14.0769 24.4245 -0.9750 1.7382
# 5 -5.8419 0.1214 -26.0103 -0.9750 37.0845 4.2034
# 6 2.1456 9.2763 -11.2104 1.7382 4.2034 29.8090
#
#
#
# Elastic Compliance Matrix: (Units=1/GPa)
#
#
# Indices 1 2 3 4 5 6 
#
# 1 0.024284 -0.011605 0.000650 -0.018385 0.003532 0.002682
# 2 -0.011605 0.034953 -0.002557 0.012804 -0.002101 -0.011454
# 3 0.000650 -0.002557 0.008116 -0.005342 0.005281 0.003368
# 4 -0.018385 0.012804 -0.005342 0.058253 -0.004308 -0.007460
# 5 0.003532 -0.002101 0.005281 -0.004308 0.031321 -0.001780
# 6 0.002682 -0.011454 0.003368 -0.007460 -0.001780 0.038871
#
#
# Mechanical properties :
#
#
# Convention : Reuss Voigt Hill
#
# Bulk Modulus (GPa) = 24.79552 36.17400 30.48476
# Shear Modulus (GPa) = 21.16256 32.86334 27.01295
#
# Velocity S-wave (km/s) = 3.02156 3.76534 3.41377
# Velocity P-wave (km/s) = 4.78229 5.87450 5.35631
#
# Compressibility (1/GPa) = 0.04032987
#
# Stress axis : x y z
#
# Youngs Moduli (GPa) = 41.17922 28.60970 123.20770
#
# Poissons Ratio (x) = 0.33203 -0.08014
# Poissons Ratio (y) = 0.47790 0.31504
# Poissons Ratio (z) = -0.02679 0.07315
#
# Static dielectric constant tensor:
#      x y z
#    x 2.157640 0.031820 0.071050 
#    y 0.031820 1.984840 -0.035320 
#    z 0.071050 -0.035320 1.807630 
# 
# From -- ./inp_files/160970.got.cif
#   From: 2010.05.17/outbox.cif.g08.bks.cpg/sg2_81_cif.got.tgz:160970.got - 2010.06.03 11:33:40.
