data_PCOD9051903
_publ_section_title
;
Structure prediction by ZEFSAII (Michael W. Deem and Ramdas Pophale) SiO2 
 PCOD9051903
Probable space group: P -1
;
_chemical_formula_sum "Si O2"
_cell_formula_units_Z 15
_cell_length_a 17.457208
_cell_length_b 8.851814
_cell_length_c 11.395020
_cell_angle_alpha 53.020338
_cell_angle_beta 147.369864
_cell_angle_gamma 139.361745
_cell_volume 614.831861
_symmetry_space_group_name_H-M "P -1"
_symmetry_group_IT_number 2
_symmetry_cell_setting 'triclinic'
loop_
_space_group_symop_operation_xyz
x,y,z
-x,-y,-z
loop_
_atom_site_type_symbol
_atom_site_label
_atom_site_fract_x
_atom_site_fract_y
_atom_site_fract_z
Si Si1 0.135477 0.546801 0.794431
Si Si2 0.911795 0.135526 0.840569
Si Si3 0.576638 0.387994 0.222580
Si Si4 0.385306 0.888143 0.785422
Si Si5 0.981332 0.762921 0.624571
Si Si6 0.434298 0.648270 0.302313
Si Si7 0.518788 0.807926 0.565225
Si Si8 0.000000 0.500000 0.000000
O O1 0.216675 0.640465 0.727992
O O2 0.961060 0.292343 0.713883
O O3 0.111887 0.738709 0.725431
O O4 0.278799 0.545170 0.058249
O O5 0.709032 0.938663 0.695179
O O6 0.967156 0.323298 0.929477
O O7 0.000000 0.000000 0.000000
O O8 0.534447 0.170460 0.191411
O O9 0.783270 0.558093 0.428734
O O10 0.501504 0.338328 0.280476
O O11 0.500000 0.500000 0.000000
O O12 0.402160 0.113237 0.654260
O O13 0.500000 0.000000 0.000000
O O14 0.000000 0.000000 0.500000
O O15 0.004862 0.690189 0.819800
O O16 0.500000 0.500000 0.500000
O O17 0.373153 0.683792 0.333218
O O18 0.500000 0.000000 0.500000
#
# Coordination Sequence:
#
# PCOD9051903 Si02
#       8
#     2   2   2   2   2   2   2   1
#     4  10  25  49  76 110 163 200 273 332 407 493
#     4  11  26  46  77 114 153 212 267 338 408 480
#     4  12  30  48  78 115 155 210 270 327 412 490
#     4  10  25  48  74 108 159 202 255 333 398 480
#     4  11  28  50  78 118 161 218 268 338 423 487
#     4  11  25  45  77 114 151 210 264 326 406 484
#     4  12  26  47  75 110 156 198 267 329 402 480
#     4  10  26  50  78 110 170 204 276 336 412 494
#
# _framework density 24.396913000000001
#
# number of rings (size 3 to 8) (size 9 to 14) (size 15 to 20)
#    0.000    1.067    1.333    2.400   18.667    0.533 
#    2.400    0.000    0.000    0.000    0.000    0.000 
#    0.000    0.000    0.000    0.000    0.000    0.000 
#
# Total GULP energy -83532.568890 kJ/mol
# GULP energy per Si atom -5568.837926 kJ/mol
# Density = 2.434138 g / cm^3
# Si number density = 24.396913 Si / 1000 Ang^3
#
#
#
# Elastic Constant Matrix: (Units=GPa)
#
#
# Indices 1 2 3 4 5 6 
#
# 1 100.1622 43.3050 52.7140 -7.9668 -24.8801 26.2350
# 2 43.3050 140.6527 56.2708 -32.2203 -11.6771 18.0235
# 3 52.7140 56.2708 143.1280 -30.3468 -19.2144 18.0041
# 4 -7.9668 -32.2203 -30.3468 60.7182 4.4710 -1.1969
# 5 -24.8801 -11.6771 -19.2144 4.4710 52.5303 -10.7804
# 6 26.2350 18.0235 18.0041 -1.1969 -10.7804 53.1196
#
#
#
# Elastic Compliance Matrix: (Units=1/GPa)
#
#
# Indices 1 2 3 4 5 6 
#
# 1 0.015267 -0.002629 -0.003783 -0.001701 0.004486 -0.004494
# 2 -0.002629 0.009707 -0.001916 0.003851 -0.000390 -0.001338
# 3 -0.003783 -0.001916 0.010079 0.003435 0.001052 -0.000607
# 4 -0.001701 0.003851 0.003435 0.020030 -0.000668 -0.001315
# 5 0.004486 -0.000390 0.001052 -0.000668 0.021926 0.001995
# 6 -0.004494 -0.001338 -0.000607 -0.001315 0.001995 0.022080
#
#
# Mechanical properties :
#
#
# Convention : Reuss Voigt Hill
#
# Bulk Modulus (GPa) = 54.35064 76.50250 65.42657
# Shear Modulus (GPa) = 41.02563 48.71716 44.87140
#
# Velocity S-wave (km/s) = 4.10517 4.47347 4.29327
# Velocity P-wave (km/s) = 6.69298 7.62287 7.17301
#
# Compressibility (1/GPa) = 0.01839905
#
# Stress axis : x y z
#
# Youngs Moduli (GPa) = 65.50056 103.02212 99.21653
#
# Poissons Ratio (x) = 0.27080 0.37530
# Poissons Ratio (y) = 0.17218 0.19006
# Poissons Ratio (z) = 0.24776 0.19735
#
# Static dielectric constant tensor:
#      x y z
#    x -0.042010 0.456390 0.544210 
#    y 0.456390 1.912300 -0.088060 
#    z 0.544210 -0.088060 1.841430 
# 
# From -- ./inp_files/461969.got.cif
#   From: 2010.05.17/outbox.cif.g08.bks.cpg/sg2_231_cif.got.tgz:461969.got - 2010.06.03 11:33:40.
