data_PCOD9051762
_publ_section_title
;
Structure prediction by ZEFSAII (Michael W. Deem and Ramdas Pophale) SiO2 
 PCOD9051762
Probable space group: P -1
;
_chemical_formula_sum "Si O2"
_cell_formula_units_Z 13
_cell_length_a 5.130727
_cell_length_b 5.084192
_cell_length_c 21.268784
_cell_angle_alpha 89.774774
_cell_angle_beta 60.748203
_cell_angle_gamma 85.821816
_cell_volume 482.453778
_symmetry_space_group_name_H-M "P -1"
_symmetry_group_IT_number 2
_symmetry_cell_setting 'triclinic'
loop_
_space_group_symop_operation_xyz
x,y,z
-x,-y,-z
loop_
_atom_site_type_symbol
_atom_site_label
_atom_site_fract_x
_atom_site_fract_y
_atom_site_fract_z
Si Si1 0.231178 0.213496 0.405910
Si Si2 0.500000 0.000000 0.500000
Si Si3 0.752709 0.622250 0.833891
Si Si4 0.636641 0.987087 0.737928
Si Si5 0.071501 0.248212 0.610201
Si Si6 0.023030 0.089459 0.860674
Si Si7 0.741174 0.321539 0.012245
O O1 0.441625 0.095109 0.323906
O O2 0.100865 0.499529 0.398951
O O3 0.385682 0.203757 0.453969
O O4 0.947816 0.023091 0.431764
O O5 0.576971 0.763152 0.435372
O O6 0.735875 0.723514 0.764960
O O7 0.444237 0.737793 0.904196
O O8 0.831688 0.320498 0.844192
O O9 0.991664 0.799648 0.837994
O O10 0.365591 0.140895 0.806869
O O11 0.913690 0.162290 0.692020
O O12 0.888370 0.104692 0.946977
O O13 0.500000 0.500000 0.000000
O O14 0.000000 0.500000 0.000000
#
# Coordination Sequence:
#
# PCOD9051762 Si02
#       7
#     2   1   2   2   2   2   2
#     4  10  26  44  66 103 137 178 238 290 351 440
#     4  12  24  46  76  96 144 188 228 294 368 420
#     4  11  27  45  72 104 145 195 247 305 375 439
#     4  10  28  42  74  98 150 180 250 292 380 424
#     4  10  26  44  66 103 137 178 238 290 351 440
#     4  11  27  45  72 104 145 195 247 305 375 439
#     4  10  25  47  75 109 150 198 260 313 377 445
#
# _framework density 26.945585000000001
#
# number of rings (size 3 to 8) (size 9 to 14) (size 15 to 20)
#    0.923    0.615    0.000    1.385   15.077    3.077 
#    0.000    0.000    0.000    0.000    0.000    0.000 
#    0.000    0.000    0.000    0.000    0.000    0.000 
#
# Total GULP energy -72572.378577 kJ/mol
# GULP energy per Si atom -5582.490660 kJ/mol
# Density = 2.688426 g / cm^3
# Si number density = 26.945585 Si / 1000 Ang^3
#
#
#
# Elastic Constant Matrix: (Units=GPa)
#
#
# Indices 1 2 3 4 5 6 
#
# 1 81.5941 24.2457 18.3886 -1.3749 4.0028 1.0884
# 2 24.2457 128.2381 40.9492 -18.2172 -8.8115 -13.7976
# 3 18.3886 40.9492 166.9563 -16.3075 4.8945 -18.9397
# 4 -1.3749 -18.2172 -16.3075 42.6744 -21.7272 -1.7550
# 5 4.0028 -8.8115 4.8945 -21.7272 26.2750 4.4288
# 6 1.0884 -13.7976 -18.9397 -1.7550 4.4288 36.5430
#
#
#
# Elastic Compliance Matrix: (Units=1/GPa)
#
#
# Indices 1 2 3 4 5 6 
#
# 1 0.013907 -0.003721 -0.001130 -0.005353 -0.007283 -0.001779
# 2 -0.003721 0.011869 -0.001472 0.011605 0.013963 0.002695
# 3 -0.001130 -0.001472 0.007047 0.001811 -0.000692 0.003301
# 4 -0.005353 0.011605 0.001811 0.053600 0.048322 0.002198
# 5 -0.007283 0.013963 -0.000692 0.048322 0.084407 -0.002779
# 6 -0.001779 0.002695 0.003301 0.002198 -0.002779 0.030589
#
#
# Mechanical properties :
#
#
# Convention : Reuss Voigt Hill
#
# Bulk Modulus (GPa) = 49.55961 60.43949 54.99955
# Shear Modulus (GPa) = 22.64601 40.64548 31.64575
#
# Velocity S-wave (km/s) = 2.90217 3.88806 3.43072
# Velocity P-wave (km/s) = 5.44633 6.52954 6.01238
#
# Compressibility (1/GPa) = 0.02017772
#
# Stress axis : x y z
#
# Youngs Moduli (GPa) = 71.90649 84.25117 141.90967
#
# Poissons Ratio (x) = 0.31348 0.16041
# Poissons Ratio (y) = 0.26754 0.20882
# Poissons Ratio (z) = 0.08128 0.12398
#
# Static dielectric constant tensor:
#      x y z
#    x 5.810330 0.107370 -3.061090 
#    y 0.107370 2.108890 -0.019090 
#    z -3.061090 -0.019090 4.706530 
# 
# From -- ./inp_files/602727.got.cif
#   From: 2010.05.17/outbox.cif.g08.bks.cpg/sg2_302_cif.got.tgz:602727.got - 2010.06.03 11:33:40.
