data_PCOD9051392
_publ_section_title
;
Structure prediction by ZEFSAII (Michael W. Deem and Ramdas Pophale) SiO2 
 PCOD9051392
Probable space group: P -1
;
_chemical_formula_sum "Si O2"
_cell_formula_units_Z 14
_cell_length_a 5.385132
_cell_length_b 11.872853
_cell_length_c 8.895162
_cell_angle_alpha 83.604170
_cell_angle_beta 94.829930
_cell_angle_gamma 101.069909
_cell_volume 553.521595
_symmetry_space_group_name_H-M "P -1"
_symmetry_group_IT_number 2
_symmetry_cell_setting 'triclinic'
loop_
_space_group_symop_operation_xyz
x,y,z
-x,-y,-z
loop_
_atom_site_type_symbol
_atom_site_label
_atom_site_fract_x
_atom_site_fract_y
_atom_site_fract_z
Si Si1 0.286364 0.332909 0.867651
Si Si2 0.182899 0.984151 0.150119
Si Si3 0.558830 0.549622 0.745169
Si Si4 0.259781 0.785033 0.005333
Si Si5 0.233603 0.596482 0.442910
Si Si6 0.056805 0.202470 0.603071
Si Si7 0.129666 0.205382 0.254567
O O1 0.343554 0.472185 0.846142
O O2 0.517961 0.287198 0.965317
O O3 0.006696 0.278573 0.922562
O O4 0.270904 0.282545 0.702654
O O5 0.350240 0.899192 0.096135
O O6 0.032945 0.913933 0.291308
O O7 0.273901 0.111743 0.199063
O O8 0.000000 0.000000 0.000000
O O9 0.439609 0.591592 0.581916
O O10 0.709661 0.452800 0.708061
O O11 0.741325 0.662801 0.793049
O O12 0.150563 0.812041 0.832520
O O13 0.163193 0.721234 0.419890
O O14 0.000000 0.500000 0.500000
O O15 0.122364 0.187116 0.435787
#
# Coordination Sequence:
#
# PCOD9051392 Si02
#       7
#     2   2   2   2   2   2   2
#     4  11  23  44  71  99 136 190 229 279 351 421
#     4   9  21  44  67  96 139 182 231 282 350 409
#     4  11  22  36  65  99 141 177 230 282 349 410
#     4  10  25  46  69  97 141 187 232 281 351 410
#     4  11  20  39  62 102 141 176 216 284 352 409
#     4  11  21  41  74  99 132 181 237 285 340 409
#     4  11  23  41  64 104 137 176 233 295 336 406
#
# _framework density 25.2926
#
# number of rings (size 3 to 8) (size 9 to 14) (size 15 to 20)
#    0.000    1.429    2.857    3.000    0.000    2.286 
#    0.000   23.571    0.000    0.000    0.000    0.000 
#    0.000    0.000    0.000    0.000    0.000    0.000 
#
# Total GULP energy -78325.430909 kJ/mol
# GULP energy per Si atom -5594.673636 kJ/mol
# Density = 2.523503 g / cm^3
# Si number density = 25.292600 Si / 1000 Ang^3
#
#
#
# Elastic Constant Matrix: (Units=GPa)
#
#
# Indices 1 2 3 4 5 6 
#
# 1 89.3173 36.4777 31.9261 1.1739 8.0515 0.7160
# 2 36.4777 170.8673 45.2307 0.2694 -6.6078 12.3289
# 3 31.9261 45.2307 150.8990 4.4161 2.4278 3.6143
# 4 1.1739 0.2694 4.4161 56.9574 4.4000 -1.4923
# 5 8.0515 -6.6078 2.4278 4.4000 33.1374 -9.7809
# 6 0.7160 12.3289 3.6143 -1.4923 -9.7809 36.2065
#
#
#
# Elastic Compliance Matrix: (Units=1/GPa)
#
#
# Indices 1 2 3 4 5 6 
#
# 1 0.013231 -0.002416 -0.002016 0.000170 -0.003634 -0.000212
# 2 -0.002416 0.006968 -0.001560 -0.000030 0.001580 -0.001744
# 3 -0.002016 -0.001560 0.007550 -0.000514 -0.000398 -0.000311
# 4 0.000170 -0.000030 -0.000514 0.017777 -0.002322 0.000164
# 5 -0.003634 0.001580 -0.000398 -0.002322 0.034293 0.008742
# 6 -0.000212 -0.001744 -0.000311 0.000164 0.008742 0.030617
#
#
# Mechanical properties :
#
#
# Convention : Reuss Voigt Hill
#
# Bulk Modulus (GPa) = 63.43879 70.92806 67.18342
# Shear Modulus (GPa) = 39.16150 45.09020 42.12585
#
# Velocity S-wave (km/s) = 3.93916 4.22683 4.08553
# Velocity P-wave (km/s) = 6.76947 7.20593 6.99111
#
# Compressibility (1/GPa) = 0.01576323
#
# Stress axis : x y z
#
# Youngs Moduli (GPa) = 75.58189 143.50640 132.44789
#
# Poissons Ratio (x) = 0.34675 0.26707
# Poissons Ratio (y) = 0.18263 0.20665
# Poissons Ratio (z) = 0.15240 0.22391
#
# Static dielectric constant tensor:
#      x y z
#    x 2.012170 0.033570 -0.064460 
#    y 0.033570 2.027890 -0.013280 
#    z -0.064460 -0.013280 2.071330 
# 
# From -- ./inp_files/131671.got.cif
#   From: 2010.05.17/outbox.cif.g08.bks.cpg/sg2_66_cif.got.tgz:131671.got - 2010.06.03 11:33:40.
