data_PCOD9051440
_publ_section_title
;
Structure prediction by ZEFSAII (Michael W. Deem and Ramdas Pophale) SiO2 
 PCOD9051440
Probable space group: P -1
;
_chemical_formula_sum "Si O2"
_cell_formula_units_Z 16
_cell_length_a 20.263918
_cell_length_b 18.055079
_cell_length_c 8.783259
_cell_angle_alpha 136.226403
_cell_angle_beta 40.013312
_cell_angle_gamma 160.164620
_cell_volume 701.071286
_symmetry_space_group_name_H-M "P -1"
_symmetry_group_IT_number 2
_symmetry_cell_setting 'triclinic'
loop_
_space_group_symop_operation_xyz
x,y,z
-x,-y,-z
loop_
_atom_site_type_symbol
_atom_site_label
_atom_site_fract_x
_atom_site_fract_y
_atom_site_fract_z
Si Si1 0.671287 0.731499 0.619646
Si Si2 0.400036 0.091578 0.949277
Si Si3 0.304383 0.753859 0.162125
Si Si4 0.890486 0.362607 0.146159
Si Si5 0.396990 0.695615 0.380760
Si Si6 0.612623 0.933806 0.633445
Si Si7 0.964068 0.796430 0.752878
Si Si8 0.096366 0.075447 0.193779
O O1 0.500000 0.500000 0.500000
O O2 0.886666 0.906652 0.410385
O O3 0.605139 0.794552 0.806866
O O4 0.721317 0.762189 0.758403
O O5 0.615824 0.222951 0.788974
O O6 0.401274 0.107149 0.789346
O O7 0.221907 0.853718 0.978387
O O8 0.067476 0.516467 0.188478
O O9 0.338141 0.909972 0.308805
O O10 0.459081 0.831869 0.887523
O O11 0.722364 0.300843 0.383391
O O12 0.000000 0.500000 0.000000
O O13 0.478361 0.737823 0.466667
O O14 0.228916 0.459502 0.261586
O O15 0.835282 0.082597 0.493682
O O16 0.883411 0.811949 0.799123
O O17 0.047161 0.927121 0.955185
#
# Coordination Sequence:
#
# PCOD9051440 Si02
#       8
#     2   2   2   2   2   2   2   2
#     4  11  25  48  73  99 138 183 239 290 354 409
#     4  12  27  43  69 104 142 178 229 292 347 412
#     4  11  23  39  65  98 136 183 232 273 343 418
#     4  12  24  44  68 100 143 188 229 277 345 423
#     4  12  25  42  68 102 145 184 231 281 351 418
#     4  11  22  40  66  99 138 183 233 281 338 424
#     4  11  24  44  71 102 142 185 230 297 353 402
#     4  10  25  46  71 102 134 181 244 292 345 419
#
# _framework density 22.822216000000001
#
# number of rings (size 3 to 8) (size 9 to 14) (size 15 to 20)
#    0.000    0.750    3.750    3.375    1.750    6.500 
#    0.000    3.125    0.000    0.000    0.000    0.000 
#    0.000    0.000    0.000    0.000    0.000    0.000 
#
# Total GULP energy -89457.526566 kJ/mol
# GULP energy per Si atom -5591.095410 kJ/mol
# Density = 2.277027 g / cm^3
# Si number density = 22.822216 Si / 1000 Ang^3
#
#
#
# Elastic Constant Matrix: (Units=GPa)
#
#
# Indices 1 2 3 4 5 6 
#
# 1 93.2402 33.6723 11.6881 24.2388 -1.2993 7.3816
# 2 33.6723 107.1409 29.7163 28.3739 -2.9320 1.2680
# 3 11.6881 29.7163 82.6313 16.7232 2.5561 -22.4868
# 4 24.2388 28.3739 16.7232 38.7090 1.3224 1.6827
# 5 -1.2993 -2.9320 2.5561 1.3224 41.2296 1.1308
# 6 7.3816 1.2680 -22.4868 1.6827 1.1308 36.9950
#
#
#
# Elastic Compliance Matrix: (Units=1/GPa)
#
#
# Indices 1 2 3 4 5 6 
#
# 1 0.013530 -0.002364 -0.000501 -0.006427 0.000568 -0.002648
# 2 -0.002364 0.012791 -0.003532 -0.006333 0.001308 -0.001865
# 3 -0.000501 -0.003532 0.017568 -0.005122 -0.001498 0.011178
# 4 -0.006427 -0.006333 -0.005122 0.036903 -0.001430 -0.003249
# 5 0.000568 0.001308 -0.001498 -0.001430 0.024552 -0.001754
# 6 -0.002648 -0.001865 0.011178 -0.003249 -0.001754 0.034619
#
#
# Mechanical properties :
#
#
# Convention : Reuss Voigt Hill
#
# Bulk Modulus (GPa) = 32.16015 48.12954 40.14485
# Shear Modulus (GPa) = 30.65167 37.24909 33.95038
#
# Velocity S-wave (km/s) = 3.66876 4.04436 3.86113
# Velocity P-wave (km/s) = 5.66291 6.55315 6.12423
#
# Compressibility (1/GPa) = 0.03109438
#
# Stress axis : x y z
#
# Youngs Moduli (GPa) = 73.90998 78.17811 56.92204
#
# Poissons Ratio (x) = 0.18484 0.02852
# Poissons Ratio (y) = 0.17475 0.20105
# Poissons Ratio (z) = 0.03703 0.27613
#
# Static dielectric constant tensor:
#      x y z
#    x 1.883380 0.012190 0.057490 
#    y 0.012190 1.830790 0.009590 
#    z 0.057490 0.009590 1.872990 
# 
# From -- ./inp_files/348932.got.cif
#   From: 2010.05.17/outbox.cif.g08.bks.cpg/sg2_175_cif.got.tgz:348932.got - 2010.06.03 11:33:40.
