data_PCOD9051030
_publ_section_title
;
Structure prediction by ZEFSAII (Michael W. Deem and Ramdas Pophale) SiO2 
 PCOD9051030
Probable space group: P -1
;
_chemical_formula_sum "Si O2"
_cell_formula_units_Z 16
_cell_length_a 16.218949
_cell_length_b 14.790571
_cell_length_c 11.477330
_cell_angle_alpha 150.115172
_cell_angle_beta 118.406946
_cell_angle_gamma 41.534760
_cell_volume 774.467174
_symmetry_space_group_name_H-M "P -1"
_symmetry_group_IT_number 2
_symmetry_cell_setting 'triclinic'
loop_
_space_group_symop_operation_xyz
x,y,z
-x,-y,-z
loop_
_atom_site_type_symbol
_atom_site_label
_atom_site_fract_x
_atom_site_fract_y
_atom_site_fract_z
Si Si1 0.892333 0.776907 0.658798
Si Si2 0.358316 0.140939 0.713788
Si Si3 0.206927 0.768560 0.751078
Si Si4 0.428055 0.857711 0.195306
Si Si5 0.087871 0.568658 0.350945
Si Si6 0.962351 0.268735 0.770778
Si Si7 0.476453 0.654795 0.409364
Si Si8 0.231365 0.996484 0.801509
O O1 0.000000 0.500000 0.500000
O O2 0.950765 0.700419 0.481098
O O3 0.731427 0.930825 0.731607
O O4 0.885638 0.989099 0.942843
O O5 0.466306 0.153553 0.807384
O O6 0.397090 0.980717 0.440591
O O7 0.391355 0.945388 0.616765
O O8 0.192158 0.456315 0.964893
O O9 0.138756 0.684699 0.566398
O O10 0.367626 0.508219 0.622381
O O11 0.215848 0.894996 0.790330
O O12 0.498938 0.552485 0.892023
O O13 0.050023 0.650360 0.281233
O O14 0.216100 0.231965 0.081169
O O15 0.094943 0.164625 0.811656
O O16 0.000000 0.000000 0.500000
O O17 0.379421 0.732391 0.538720
#
# Coordination Sequence:
#
# PCOD9051030 Si02
#       8
#     2   2   2   2   2   2   2   2
#     4  11  24  45  71  98 140 180 228 286 337 408
#     4  11  24  46  69 100 138 181 225 283 339 407
#     4  11  26  45  66 104 134 184 229 276 344 410
#     4  10  25  45  67  99 138 182 227 279 340 402
#     4  12  25  44  70 100 136 183 224 281 346 401
#     4  12  25  46  73 106 136 179 233 285 345 405
#     4  11  25  43  70  99 139 179 232 274 341 414
#     4  12  24  44  70 102 140 176 226 285 344 402
#
# _framework density 20.659364
#
# number of rings (size 3 to 8) (size 9 to 14) (size 15 to 20)
#    0.000    0.750    3.750    3.000    3.500    0.500 
#    9.000    0.000    0.000    0.000    0.000    0.000 
#    0.000    0.000    0.000    0.000    0.000    0.000 
#
# Total GULP energy -89493.388889 kJ/mol
# GULP energy per Si atom -5593.336806 kJ/mol
# Density = 2.061234 g / cm^3
# Si number density = 20.659364 Si / 1000 Ang^3
#
#
#
# Elastic Constant Matrix: (Units=GPa)
#
#
# Indices 1 2 3 4 5 6 
#
# 1 54.0787 -4.1776 5.0612 1.2344 -2.1885 10.6497
# 2 -4.1776 26.2488 5.0929 -0.3825 11.4399 -1.7716
# 3 5.0612 5.0929 85.4594 10.5557 -5.0827 5.7646
# 4 1.2344 -0.3825 10.5557 34.3348 2.0702 -0.3248
# 5 -2.1885 11.4399 -5.0827 2.0702 42.8020 -2.2160
# 6 10.6497 -1.7716 5.7646 -0.3248 -2.2160 22.4162
#
#
#
# Elastic Compliance Matrix: (Units=1/GPa)
#
#
# Indices 1 2 3 4 5 6 
#
# 1 0.020640 0.002891 -0.000704 -0.000567 -0.000262 -0.009431
# 2 0.002891 0.044883 -0.004011 0.002392 -0.012336 0.002020
# 3 -0.000704 -0.004011 0.012859 -0.004159 0.002604 -0.003092
# 4 -0.000567 0.002392 -0.004159 0.030621 -0.002554 0.001719
# 5 -0.000262 -0.012336 0.002604 -0.002554 0.027138 0.001125
# 6 -0.009431 0.002020 -0.003092 0.001719 0.001125 0.050182
#
#
# Mechanical properties :
#
#
# Convention : Reuss Voigt Hill
#
# Bulk Modulus (GPa) = 13.38089 19.74888 16.56489
# Shear Modulus (GPa) = 23.26839 30.56463 26.91651
#
# Velocity S-wave (km/s) = 3.35966 3.85054 3.61345
# Velocity P-wave (km/s) = 4.64120 5.41747 5.04429
#
# Compressibility (1/GPa) = 0.07473342
#
# Stress axis : x y z
#
# Youngs Moduli (GPa) = 48.44897 22.28024 77.76408
#
# Poissons Ratio (x) = -0.06441 0.05475
# Poissons Ratio (y) = -0.14006 0.31194
# Poissons Ratio (z) = 0.03411 0.08937
#
# Static dielectric constant tensor:
#      x y z
#    x 1.721620 -0.003480 0.001170 
#    y -0.003480 1.705430 -0.034050 
#    z 0.001170 -0.034050 1.757940 
# 
# From -- ./inp_files/428221.got.cif
#   From: 2010.05.17/outbox.cif.g08.bks.cpg/sg2_215_cif.got.tgz:428221.got - 2010.06.03 11:33:40.
