data_PCOD9051419
_publ_section_title
;
Structure prediction by ZEFSAII (Michael W. Deem and Ramdas Pophale) SiO2 
 PCOD9051419
Probable space group: P -1
;
_chemical_formula_sum "Si O2"
_cell_formula_units_Z 16
_cell_length_a 11.087247
_cell_length_b 7.314135
_cell_length_c 12.201864
_cell_angle_alpha 83.847826
_cell_angle_beta 117.557992
_cell_angle_gamma 54.340885
_cell_volume 607.407682
_symmetry_space_group_name_H-M "P -1"
_symmetry_group_IT_number 2
_symmetry_cell_setting 'triclinic'
loop_
_space_group_symop_operation_xyz
x,y,z
-x,-y,-z
loop_
_atom_site_type_symbol
_atom_site_label
_atom_site_fract_x
_atom_site_fract_y
_atom_site_fract_z
Si Si1 0.802261 0.757105 0.345110
Si Si2 0.142274 0.294131 0.858327
Si Si3 0.453413 0.030609 0.349073
Si Si4 0.029448 0.890497 0.398514
Si Si5 0.390338 0.684636 0.046186
Si Si6 0.491413 0.415071 0.657532
Si Si7 0.136233 0.724410 0.239262
Si Si8 0.162351 0.556343 0.046819
O O1 0.776306 0.689234 0.219387
O O2 0.640079 0.887935 0.359326
O O3 0.000000 0.500000 0.500000
O O4 0.848805 0.922570 0.324606
O O5 0.932175 0.405880 0.728977
O O6 0.291425 0.980852 0.966070
O O7 0.110061 0.463269 0.935232
O O8 0.397670 0.873577 0.317521
O O9 0.500000 0.000000 0.500000
O O10 0.297628 0.307608 0.202997
O O11 0.265982 0.622825 0.513511
O O12 0.031295 0.962421 0.268036
O O13 0.000000 0.000000 0.500000
O O14 0.500000 0.500000 0.000000
O O15 0.517734 0.581014 0.216117
O O16 0.263424 0.630196 0.029388
O O17 0.638693 0.432865 0.675731
O O18 0.036903 0.782615 0.074111
#
# Coordination Sequence:
#
# PCOD9051419 Si02
#       8
#     2   2   2   2   2   2   2   2
#     4  11  26  47  70 108 144 189 252 305 368 449
#     4  11  25  50  76 108 150 195 252 311 376 441
#     4  12  26  45  74 107 151 197 248 303 379 445
#     4  11  25  43  73 103 145 196 249 309 370 438
#     4  11  26  44  74 111 147 192 253 308 372 450
#     4  11  24  45  69 104 149 191 247 303 375 440
#     4  10  25  46  70 107 147 191 251 305 365 445
#     4  11  25  46  77 107 147 200 245 309 375 443
#
# _framework density 26.341452
#
# number of rings (size 3 to 8) (size 9 to 14) (size 15 to 20)
#    0.000    1.000    2.500    2.250   12.250    3.000 
#    2.250    0.000    0.000    0.000    0.000    0.000 
#    0.000    0.000    0.000    0.000    0.000    0.000 
#
# Total GULP energy -89149.992375 kJ/mol
# GULP energy per Si atom -5571.874523 kJ/mol
# Density = 2.628150 g / cm^3
# Si number density = 26.341452 Si / 1000 Ang^3
#
#
#
# Elastic Constant Matrix: (Units=GPa)
#
#
# Indices 1 2 3 4 5 6 
#
# 1 136.7130 43.9444 45.7005 21.9206 -9.7827 -30.5131
# 2 43.9444 129.5443 61.6055 36.0361 -23.4475 -17.5343
# 3 45.7005 61.6055 157.9972 29.2123 -24.9902 -5.2028
# 4 21.9206 36.0361 29.2123 70.5702 -8.8808 -15.3739
# 5 -9.7827 -23.4475 -24.9902 -8.8808 44.0292 22.0867
# 6 -30.5131 -17.5343 -5.2028 -15.3739 22.0867 57.4077
#
#
#
# Elastic Compliance Matrix: (Units=1/GPa)
#
#
# Indices 1 2 3 4 5 6 
#
# 1 0.009756 -0.001935 -0.002306 -0.000273 -0.002961 0.005452
# 2 -0.001935 0.011232 -0.002612 -0.003652 0.003391 -0.000117
# 3 -0.002306 -0.002612 0.008959 -0.001839 0.004542 -0.003451
# 4 -0.000273 -0.003652 -0.001839 0.017533 -0.001428 0.003818
# 5 -0.002961 0.003391 0.004542 -0.001428 0.032721 -0.013098
# 6 0.005452 -0.000117 -0.003451 0.003818 -0.013098 0.026030
#
#
# Mechanical properties :
#
#
# Convention : Reuss Voigt Hill
#
# Bulk Modulus (GPa) = 61.57130 80.75058 71.16094
# Shear Modulus (GPa) = 39.88818 52.60171 46.24495
#
# Velocity S-wave (km/s) = 3.89559 4.47354 4.19453
# Velocity P-wave (km/s) = 6.60751 7.57662 7.10860
#
# Compressibility (1/GPa) = 0.01624133
#
# Stress axis : x y z
#
# Youngs Moduli (GPa) = 102.50077 89.03341 111.61404
#
# Poissons Ratio (x) = 0.17229 0.25736
# Poissons Ratio (y) = 0.19835 0.29153
# Poissons Ratio (z) = 0.23635 0.23255
#
# Static dielectric constant tensor:
#      x y z
#    x 2.055300 -0.179430 0.110550 
#    y -0.179430 2.198190 0.155130 
#    z 0.110550 0.155130 2.065290 
# 
# From -- ./inp_files/419463.got.cif
#   From: 2010.05.17/outbox.cif.g08.bks.cpg/sg2_210_cif.got.tgz:419463.got - 2010.06.03 11:33:40.
