data_PCOD9051930
_publ_section_title
;
Structure prediction by ZEFSAII (Michael W. Deem and Ramdas Pophale) SiO2 
 PCOD9051930
Probable space group: P -1
;
_chemical_formula_sum "Si O2"
_cell_formula_units_Z 13
_cell_length_a 8.862660
_cell_length_b 10.121515
_cell_length_c 7.947268
_cell_angle_alpha 52.992930
_cell_angle_beta 68.359315
_cell_angle_gamma 69.244980
_cell_volume 520.680535
_symmetry_space_group_name_H-M "P -1"
_symmetry_group_IT_number 2
_symmetry_cell_setting 'triclinic'
loop_
_space_group_symop_operation_xyz
x,y,z
-x,-y,-z
loop_
_atom_site_type_symbol
_atom_site_label
_atom_site_fract_x
_atom_site_fract_y
_atom_site_fract_z
Si Si1 0.126351 0.108590 0.451782
Si Si2 0.837139 0.156070 0.775402
Si Si3 0.433818 0.339063 0.218477
Si Si4 0.493986 0.696440 0.389362
Si Si5 0.818409 0.785123 0.019825
Si Si6 0.902742 0.443647 0.739753
Si Si7 0.500000 0.000000 0.500000
O O1 0.295731 0.023254 0.537330
O O2 0.999875 0.189834 0.585265
O O3 0.177054 0.195855 0.195344
O O4 0.000000 0.000000 0.500000
O O5 0.678328 0.202692 0.683400
O O6 0.816057 0.288902 0.833338
O O7 0.854835 0.958136 0.955598
O O8 0.484050 0.280235 0.436970
O O9 0.239696 0.407479 0.258255
O O10 0.499072 0.160667 0.244350
O O11 0.500000 0.500000 0.000000
O O12 0.500000 0.500000 0.500000
O O13 0.646163 0.752807 0.189016
O O14 0.961283 0.630450 0.125090
O O15 0.000000 0.500000 0.500000
#
# Coordination Sequence:
#
# PCOD9051930 Si02
#       7
#     2   2   2   2   2   2   1
#     4  10  25  48  77 114 149 204 260 318 383 470
#     4  11  24  46  76 106 149 198 253 320 386 460
#     4  12  29  46  77 112 150 204 260 318 389 465
#     4  12  25  49  70 109 158 190 258 323 384 464
#     4  11  25  45  75 109 150 201 252 312 394 460
#     4  12  24  48  67 109 148 191 250 316 386 454
#     4  12  28  52  80 110 160 202 258 324 394 458
#
# _framework density 24.967324000000001
#
# number of rings (size 3 to 8) (size 9 to 14) (size 15 to 20)
#    0.000    0.615    3.077    3.692    8.615    1.231 
#    0.000    2.308    0.000    0.000    0.000    0.000 
#    0.000    0.000    0.000    0.000    0.000    0.000 
#
# Total GULP energy -72502.501648 kJ/mol
# GULP energy per Si atom -5577.115511 kJ/mol
# Density = 2.491050 g / cm^3
# Si number density = 24.967324 Si / 1000 Ang^3
#
#
#
# Elastic Constant Matrix: (Units=GPa)
#
#
# Indices 1 2 3 4 5 6 
#
# 1 186.9640 34.8139 56.7945 4.7755 8.1579 -56.0696
# 2 34.8139 87.0059 25.5100 -14.3310 1.4735 -27.2882
# 3 56.7945 25.5100 158.6575 -6.5975 -20.2234 -38.5714
# 4 4.7755 -14.3310 -6.5975 41.4546 -6.4833 9.3816
# 5 8.1579 1.4735 -20.2234 -6.4833 58.0641 -13.6275
# 6 -56.0696 -27.2882 -38.5714 9.3816 -13.6275 60.0626
#
#
#
# Elastic Compliance Matrix: (Units=1/GPa)
#
#
# Indices 1 2 3 4 5 6 
#
# 1 0.008012 -0.001309 -0.001256 -0.003098 -0.000355 0.006482
# 2 -0.001309 0.014246 -0.000357 0.004162 0.001256 0.004656
# 3 -0.001256 -0.000357 0.008665 0.000950 0.004507 0.005104
# 4 -0.003098 0.004162 0.000950 0.027419 0.002773 -0.004045
# 5 -0.000355 0.001256 0.004507 0.002773 0.020865 0.007435
# 6 0.006482 0.004656 0.005104 -0.004045 0.007435 0.030412
#
#
# Mechanical properties :
#
#
# Convention : Reuss Voigt Hill
#
# Bulk Modulus (GPa) = 39.87293 74.09603 56.98448
# Shear Modulus (GPa) = 40.38030 52.95020 46.66525
#
# Velocity S-wave (km/s) = 4.02596 4.61019 4.32794
# Velocity P-wave (km/s) = 6.13318 7.62103 6.91722
#
# Compressibility (1/GPa) = 0.02507967
#
# Stress axis : x y z
#
# Youngs Moduli (GPa) = 124.80717 70.19272 115.41002
#
# Poissons Ratio (x) = 0.09189 0.14494
# Poissons Ratio (y) = 0.16338 0.04120
# Poissons Ratio (z) = 0.15674 0.02506
#
# Static dielectric constant tensor:
#      x y z
#    x 1.959480 0.042690 -0.063130 
#    y 0.042690 1.995150 -0.104970 
#    z -0.063130 -0.104970 1.964900 
# 
# From -- ./inp_files/149594.got.cif
#   From: 2010.05.17/outbox.cif.g08.bks.cpg/sg2_75_cif.got.tgz:149594.got - 2010.06.03 11:33:40.
