data_PCOD9051384
_publ_section_title
;
Structure prediction by ZEFSAII (Michael W. Deem and Ramdas Pophale) SiO2 
 PCOD9051384
Probable space group: P -1
;
_chemical_formula_sum "Si O2"
_cell_formula_units_Z 16
_cell_length_a 9.086623
_cell_length_b 4.855776
_cell_length_c 14.771227
_cell_angle_alpha 100.989530
_cell_angle_beta 110.491747
_cell_angle_gamma 84.973505
_cell_volume 599.154350
_symmetry_space_group_name_H-M "P -1"
_symmetry_group_IT_number 2
_symmetry_cell_setting 'triclinic'
loop_
_space_group_symop_operation_xyz
x,y,z
-x,-y,-z
loop_
_atom_site_type_symbol
_atom_site_label
_atom_site_fract_x
_atom_site_fract_y
_atom_site_fract_z
Si Si1 0.351889 0.013238 0.855828
Si Si2 0.927830 0.562279 0.798811
Si Si3 0.794322 0.152026 0.607093
Si Si4 0.703888 0.477305 0.432670
Si Si5 0.076164 0.825637 0.669307
Si Si6 0.381448 0.445938 0.166659
Si Si7 0.501513 0.950783 0.349341
Si Si8 0.257718 0.576447 0.952341
O O1 0.221719 0.007816 0.747536
O O2 0.496980 0.810241 0.845476
O O3 0.289920 0.864079 0.924801
O O4 0.360081 0.336197 0.906157
O O5 0.877104 0.280798 0.721595
O O6 0.765208 0.672728 0.814337
O O7 0.998749 0.723746 0.738998
O O8 0.072590 0.520372 0.895584
O O9 0.748155 0.386881 0.538142
O O10 0.642911 0.022257 0.611718
O O11 0.936675 0.960898 0.589354
O O12 0.842209 0.414137 0.388079
O O13 0.641899 0.789264 0.422596
O O14 0.563801 0.260616 0.363341
O O15 0.457009 0.719050 0.248994
O O16 0.304089 0.561953 0.065005
#
# Coordination Sequence:
#
# PCOD9051384 Si02
#       8
#     2   2   2   2   2   2   2   2
#     4  11  24  44  69 102 144 176 233 284 337 413
#     4  10  25  46  69 104 145 179 231 288 343 417
#     4  11  25  45  72 101 141 184 229 287 352 407
#     4  12  27  47  73 102 138 186 234 287 341 414
#     4  11  25  44  69 101 142 184 230 284 345 410
#     4  11  24  46  74 103 139 188 227 285 352 406
#     4  11  28  45  72 104 141 177 237 289 340 413
#     4  11  24  47  70 106 138 183 228 285 343 418
#
# _framework density 26.704305999999999
#
# number of rings (size 3 to 8) (size 9 to 14) (size 15 to 20)
#    0.000    1.000    2.500    2.250    8.750    1.500 
#    4.500    1.875    0.000    0.000    0.000    0.000 
#    0.000    0.000    0.000    0.000    0.000    0.000 
#
# Total GULP energy -89727.936678 kJ/mol
# GULP energy per Si atom -5607.996042 kJ/mol
# Density = 2.664353 g / cm^3
# Si number density = 26.704306 Si / 1000 Ang^3
#
#
#
# Elastic Constant Matrix: (Units=GPa)
#
#
# Indices 1 2 3 4 5 6 
#
# 1 138.5827 7.0121 41.0088 -2.3986 1.0214 -14.6167
# 2 7.0121 88.7066 8.5437 -3.8482 -0.6661 -0.8904
# 3 41.0088 8.5437 121.9502 -0.6273 17.8690 -12.0333
# 4 -2.3986 -3.8482 -0.6273 39.2406 -1.5459 -3.3521
# 5 1.0214 -0.6661 17.8690 -1.5459 39.9213 -4.7742
# 6 -14.6167 -0.8904 -12.0333 -3.3521 -4.7742 32.8691
#
#
#
# Elastic Compliance Matrix: (Units=1/GPa)
#
#
# Indices 1 2 3 4 5 6 
#
# 1 0.008346 -0.000328 -0.002685 0.000745 0.001370 0.002994
# 2 -0.000328 0.011426 -0.000763 0.001119 0.000594 0.000085
# 3 -0.002685 -0.000763 0.009948 -0.000090 -0.004184 0.001810
# 4 0.000745 0.001119 -0.000090 0.025966 0.001426 0.003184
# 5 0.001370 0.000594 -0.004184 0.001426 0.027336 0.003209
# 6 0.002994 0.000085 0.001810 0.003184 0.003209 0.033211
#
#
# Mechanical properties :
#
#
# Convention : Reuss Voigt Hill
#
# Bulk Modulus (GPa) = 45.11209 51.37430 48.24320
# Shear Modulus (GPa) = 38.11733 41.91786 40.01760
#
# Velocity S-wave (km/s) = 3.78217 3.96625 3.87530
# Velocity P-wave (km/s) = 6.00025 6.34467 6.17486
#
# Compressibility (1/GPa) = 0.02216700
#
# Stress axis : x y z
#
# Youngs Moduli (GPa) = 119.82334 87.51643 100.52741
#
# Poissons Ratio (x) = 0.02875 0.26990
# Poissons Ratio (y) = 0.03936 0.07670
# Poissons Ratio (z) = 0.32170 0.06678
#
# Static dielectric constant tensor:
#      x y z
#    x 2.111410 0.006720 0.057950 
#    y 0.006720 2.062620 0.015840 
#    z 0.057950 0.015840 2.128640 
# 
# From -- ./inp_files/488334.got.cif
#   From: 2010.05.17/outbox.cif.g08.bks.cpg/sg2_245_cif.got.tgz:488334.got - 2010.06.03 11:33:40.
