data_PCOD9051178
_publ_section_title
;
Structure prediction by ZEFSAII (Michael W. Deem and Ramdas Pophale) SiO2 
 PCOD9051178
Probable space group: P -1
;
_chemical_formula_sum "Si O2"
_cell_formula_units_Z 10
_cell_length_a 15.650681
_cell_length_b 16.897753
_cell_length_c 5.155258
_cell_angle_alpha 74.003298
_cell_angle_beta 104.796239
_cell_angle_gamma 162.308586
_cell_volume 398.150722
_symmetry_space_group_name_H-M "P -1"
_symmetry_group_IT_number 2
_symmetry_cell_setting 'triclinic'
loop_
_space_group_symop_operation_xyz
x,y,z
-x,-y,-z
loop_
_atom_site_type_symbol
_atom_site_label
_atom_site_fract_x
_atom_site_fract_y
_atom_site_fract_z
Si Si1 0.819630 0.115257 0.982852
Si Si2 0.792699 0.277332 0.833148
Si Si3 0.751715 0.573816 0.300516
Si Si4 0.094702 0.033124 0.294201
Si Si5 0.439608 0.768495 0.506316
O O1 0.893151 0.275660 0.836300
O O2 0.092605 0.301545 0.968844
O O3 0.672997 0.980264 0.268464
O O4 0.591283 0.888899 0.789861
O O5 0.717929 0.282674 0.565676
O O6 0.000000 0.500000 0.000000
O O7 0.500000 0.000000 0.000000
O O8 0.935129 0.804789 0.374454
O O9 0.742979 0.472797 0.494341
O O10 0.429342 0.316412 0.280803
O O11 0.000000 0.000000 0.500000
O O12 0.000000 0.000000 0.000000
#
# Coordination Sequence:
#
# PCOD9051178 Si02
#       5
#     2   2   2   2   2
#     4  11  27  48  76 113 156 201 255 305 362 441
#     4  10  25  45  71 107 158 206 248 301 363 425
#     4  12  28  51  84 112 150 196 250 313 376 450
#     4  12  30  54  80 111 150 191 244 314 394 460
#     4  11  27  48  76 113 156 201 255 305 362 441
#
# _framework density 25.116116000000002
#
# number of rings (size 3 to 8) (size 9 to 14) (size 15 to 20)
#    0.000    0.800    2.000    1.800   14.000    4.000 
#    0.000    0.000    0.000    0.000    0.000    0.000 
#    0.000    0.000    0.000    0.000    0.000    0.000 
#
# Total GULP energy -56074.975611 kJ/mol
# GULP energy per Si atom -5607.497561 kJ/mol
# Density = 2.505895 g / cm^3
# Si number density = 25.116116 Si / 1000 Ang^3
#
#
#
# Elastic Constant Matrix: (Units=GPa)
#
#
# Indices 1 2 3 4 5 6 
#
# 1 195.4776 65.5793 37.7226 0.7791 -27.4757 4.3663
# 2 65.5793 170.7738 20.7297 5.3972 -8.8572 -6.8859
# 3 37.7226 20.7297 95.4877 -0.6550 -5.7708 3.2675
# 4 0.7791 5.3972 -0.6550 34.7479 -5.5135 5.5836
# 5 -27.4757 -8.8572 -5.7708 -5.5135 43.8026 -7.1281
# 6 4.3663 -6.8859 3.2675 5.5836 -7.1281 66.7491
#
#
#
# Elastic Compliance Matrix: (Units=1/GPa)
#
#
# Indices 1 2 3 4 5 6 
#
# 1 0.006736 -0.002198 -0.001954 0.000762 0.003578 -0.000253
# 2 -0.002198 0.006854 -0.000666 -0.001196 -0.000072 0.000976
# 3 -0.001954 -0.000666 0.011417 0.000466 0.000117 -0.000526
# 4 0.000762 -0.001196 0.000466 0.029912 0.003687 -0.002304
# 5 0.003578 -0.000072 0.000117 0.003687 0.025898 0.002210
# 6 -0.000253 0.000976 -0.000526 -0.002304 0.002210 0.015553
#
#
# Mechanical properties :
#
#
# Convention : Reuss Voigt Hill
#
# Bulk Modulus (GPa) = 65.05277 78.86693 71.95985
# Shear Modulus (GPa) = 44.99290 51.57376 48.28333
#
# Velocity S-wave (km/s) = 4.23708 4.53638 4.38928
# Velocity P-wave (km/s) = 7.06358 7.67511 7.37569
#
# Compressibility (1/GPa) = 0.01537213
#
# Stress axis : x y z
#
# Youngs Moduli (GPa) = 148.46438 145.90016 87.58802
#
# Poissons Ratio (x) = 0.32071 0.17111
# Poissons Ratio (y) = 0.32635 0.05829
# Poissons Ratio (z) = 0.29004 0.09710
#
# Static dielectric constant tensor:
#      x y z
#    x 1.996240 0.018830 0.032430 
#    y 0.018830 1.971390 -0.018530 
#    z 0.032430 -0.018530 1.975280 
# 
# From -- ./inp_files/5255.got.cif
#   From: 2010.05.17/outbox.cif.g08.bks.cpg/sg2_3_cif.got.tgz:5255.got - 2010.06.03 11:33:40.
