data_PCOD9051570
_publ_section_title
;
Structure prediction by ZEFSAII (Michael W. Deem and Ramdas Pophale) SiO2 
 PCOD9051570
Probable space group: P -1
;
_chemical_formula_sum "Si O2"
_cell_formula_units_Z 16
_cell_length_a 16.072245
_cell_length_b 5.901112
_cell_length_c 7.987964
_cell_angle_alpha 68.758138
_cell_angle_beta 103.321364
_cell_angle_gamma 78.970011
_cell_volume 654.839730
_symmetry_space_group_name_H-M "P -1"
_symmetry_group_IT_number 2
_symmetry_cell_setting 'triclinic'
loop_
_space_group_symop_operation_xyz
x,y,z
-x,-y,-z
loop_
_atom_site_type_symbol
_atom_site_label
_atom_site_fract_x
_atom_site_fract_y
_atom_site_fract_z
Si Si1 0.299501 0.529607 0.213985
Si Si2 0.187968 0.922710 0.327268
Si Si3 0.990517 0.054130 0.179469
Si Si4 0.556416 0.894628 0.221189
Si Si5 0.270641 0.136719 0.553603
Si Si6 0.900137 0.682146 0.378913
Si Si7 0.497029 0.432398 0.212915
Si Si8 0.150982 0.445095 0.963852
O O1 0.311460 0.270120 0.392145
O O2 0.395670 0.539681 0.202990
O O3 0.241090 0.737002 0.259487
O O4 0.234882 0.540127 0.024519
O O5 0.253455 0.893527 0.523946
O O6 0.089329 0.917880 0.334130
O O7 0.163368 0.200150 0.153017
O O8 0.945187 0.352605 0.099030
O O9 0.919476 0.943486 0.268744
O O10 0.000000 0.000000 0.000000
O O11 0.660387 0.888258 0.257660
O O12 0.548559 0.602451 0.299270
O O13 0.523506 0.118609 0.291272
O O14 0.500000 0.000000 0.000000
O O15 0.169208 0.298229 0.509388
O O16 0.851980 0.615506 0.213677
O O17 0.000000 0.500000 0.500000
O O18 0.500000 0.500000 0.000000
#
# Coordination Sequence:
#
# PCOD9051570 Si02
#       8
#     2   2   2   2   2   2   2   2
#     4  11  25  45  73 106 141 194 242 308 376 458
#     4  11  24  45  70 104 145 189 252 299 377 447
#     4  12  23  43  68 103 142 198 246 299 364 442
#     4  10  25  49  75 107 146 196 249 313 383 457
#     4  11  28  45  72 105 150 191 244 313 376 449
#     4  12  27  44  70 109 150 192 248 306 372 442
#     4  10  25  46  77 107 146 186 253 306 381 448
#     4  11  24  41  73  98 142 196 247 298 370 445
#
# _framework density 24.433458000000002
#
# number of rings (size 3 to 8) (size 9 to 14) (size 15 to 20)
#    0.000    1.000    2.500    1.875   10.500    7.000 
#    0.000    0.000    0.000    0.000    0.000    0.000 
#    0.000    0.000    0.000    0.000    0.000    0.000 
#
# Total GULP energy -89339.322548 kJ/mol
# GULP energy per Si atom -5583.707659 kJ/mol
# Density = 2.437785 g / cm^3
# Si number density = 24.433458 Si / 1000 Ang^3
#
#
#
# Elastic Constant Matrix: (Units=GPa)
#
#
# Indices 1 2 3 4 5 6 
#
# 1 146.5542 43.9982 32.1488 11.0155 24.5332 6.0662
# 2 43.9982 132.2538 14.4310 10.4970 21.6901 10.2225
# 3 32.1488 14.4310 74.2171 12.2995 15.0763 10.2933
# 4 11.0155 10.4970 12.2995 35.7562 6.5470 15.2719
# 5 24.5332 21.6901 15.0763 6.5470 43.8408 5.7387
# 6 6.0662 10.2225 10.2933 15.2719 5.7387 30.8965
#
#
#
# Elastic Compliance Matrix: (Units=1/GPa)
#
#
# Indices 1 2 3 4 5 6 
#
# 1 0.008543 -0.002083 -0.002692 -0.000970 -0.002798 0.000908
# 2 -0.002083 0.008914 0.000126 -0.000772 -0.002957 -0.001652
# 3 -0.002692 0.000126 0.016169 -0.002958 -0.003305 -0.002824
# 4 -0.000970 -0.000772 -0.002958 0.036816 -0.001395 -0.016507
# 5 -0.002798 -0.002957 -0.003305 -0.001395 0.027416 -0.001774
# 6 0.000908 -0.001652 -0.002824 -0.016507 -0.001774 0.042164
#
#
# Mechanical properties :
#
#
# Convention : Reuss Voigt Hill
#
# Bulk Modulus (GPa) = 41.10300 59.35345 50.22822
# Shear Modulus (GPa) = 31.76043 39.59517 35.67780
#
# Velocity S-wave (km/s) = 3.60929 4.02995 3.82541
# Velocity P-wave (km/s) = 5.85049 6.78223 6.33351
#
# Compressibility (1/GPa) = 0.02432913
#
# Stress axis : x y z
#
# Youngs Moduli (GPa) = 117.05464 112.18156 61.84710
#
# Poissons Ratio (x) = 0.23362 0.16652
# Poissons Ratio (y) = 0.24377 -0.00782
# Poissons Ratio (z) = 0.31516 -0.01419
#
# Static dielectric constant tensor:
#      x y z
#    x 1.892120 0.035160 -0.048230 
#    y 0.035160 2.114680 0.004100 
#    z -0.048230 0.004100 1.962080 
# 
# From -- ./inp_files/288522.got.cif
#   From: 2010.05.17/outbox.cif.g08.bks.cpg/sg2_145_cif.got.tgz:288522.got - 2010.06.03 11:33:40.
