data_PCOD9051810
_publ_section_title
;
Structure prediction by ZEFSAII (Michael W. Deem and Ramdas Pophale) SiO2 
 PCOD9051810
Probable space group: P -1
;
_chemical_formula_sum "Si O2"
_cell_formula_units_Z 16
_cell_length_a 22.624734
_cell_length_b 16.528601
_cell_length_c 14.528335
_cell_angle_alpha 150.371988
_cell_angle_beta 19.877112
_cell_angle_gamma 159.897891
_cell_volume 630.384569
_symmetry_space_group_name_H-M "P -1"
_symmetry_group_IT_number 2
_symmetry_cell_setting 'triclinic'
loop_
_space_group_symop_operation_xyz
x,y,z
-x,-y,-z
loop_
_atom_site_type_symbol
_atom_site_label
_atom_site_fract_x
_atom_site_fract_y
_atom_site_fract_z
Si Si1 0.101574 0.443637 0.613904
Si Si2 0.108761 0.991000 0.961077
Si Si3 0.621718 0.181112 0.164854
Si Si4 0.515657 0.417592 0.681419
Si Si5 0.738887 0.074029 0.140587
Si Si6 0.747499 0.235493 0.579282
Si Si7 0.758283 0.968235 0.558651
Si Si8 0.170149 0.182990 0.513322
O O1 0.306567 0.456017 0.364303
O O2 0.219591 0.703351 0.679608
O O3 0.951404 0.252358 0.562604
O O4 0.902613 0.323419 0.870917
O O5 0.243535 0.219589 0.927533
O O6 0.243749 0.027477 0.894884
O O7 0.135875 0.848671 0.720032
O O8 0.852573 0.896533 0.277255
O O9 0.594367 0.301029 0.401140
O O10 0.513470 0.167804 0.212968
O O11 0.426257 0.914727 0.225154
O O12 0.579405 0.591000 0.682625
O O13 0.476348 0.863429 0.262800
O O14 0.988518 0.197527 0.838125
O O15 0.000000 0.500000 0.500000
O O16 0.763623 0.892753 0.576382
O O17 0.000000 0.000000 0.500000
#
# Coordination Sequence:
#
# PCOD9051810 Si02
#       8
#     2   2   2   2   2   2   2   2
#     4  12  22  44  76 100 135 187 235 288 337 417
#     4  10  25  48  68 105 141 185 234 279 352 420
#     4  11  24  45  68 105 139 184 235 292 349 403
#     4  11  22  42  75  96 137 182 236 288 345 406
#     4  11  23  46  75 103 136 183 244 281 342 422
#     4  11  25  44  71 104 144 183 227 291 352 416
#     4  11  27  44  67 104 148 181 230 289 354 413
#     4  11  23  46  68 105 134 185 240 288 347 410
#
# _framework density 25.381333000000001
#
# number of rings (size 3 to 8) (size 9 to 14) (size 15 to 20)
#    0.000    1.000    5.000    1.875    1.750    3.000 
#    4.500    0.000    0.000    0.000    0.000    0.000 
#    0.000    0.000    0.000    0.000    0.000    0.000 
#
# Total GULP energy -89513.685371 kJ/mol
# GULP energy per Si atom -5594.605336 kJ/mol
# Density = 2.532356 g / cm^3
# Si number density = 25.381333 Si / 1000 Ang^3
#
#
#
# Elastic Constant Matrix: (Units=GPa)
#
#
# Indices 1 2 3 4 5 6 
#
# 1 115.1036 51.7446 42.5821 -18.3825 -5.9236 -2.1295
# 2 51.7446 101.3401 8.8592 -21.0752 -3.9710 3.3962
# 3 42.5821 8.8592 57.9441 -1.7454 7.3967 -5.6861
# 4 -18.3825 -21.0752 -1.7454 30.7942 2.8913 6.0247
# 5 -5.9236 -3.9710 7.3967 2.8913 41.1067 -14.1764
# 6 -2.1295 3.3962 -5.6861 6.0247 -14.1764 33.8003
#
#
#
# Elastic Compliance Matrix: (Units=1/GPa)
#
#
# Indices 1 2 3 4 5 6 
#
# 1 0.016868 -0.006529 -0.011692 0.004479 0.003774 0.000536
# 2 -0.006529 0.014463 0.002681 0.006967 -0.001674 -0.003357
# 3 -0.011692 0.002681 0.026184 -0.003522 -0.005262 0.001820
# 4 0.004479 0.006967 -0.003522 0.042199 -0.004628 -0.010473
# 5 0.003774 -0.001674 -0.005262 -0.004628 0.030514 0.013144
# 6 0.000536 -0.003357 0.001820 -0.010473 0.013144 0.037642
#
#
# Mechanical properties :
#
#
# Convention : Reuss Voigt Hill
#
# Bulk Modulus (GPa) = 37.82839 53.41773 45.62306
# Shear Modulus (GPa) = 24.06597 32.55370 28.30984
#
# Velocity S-wave (km/s) = 3.08259 3.58520 3.34335
# Velocity P-wave (km/s) = 5.25416 6.18304 5.73743
#
# Compressibility (1/GPa) = 0.02643517
#
# Stress axis : x y z
#
# Youngs Moduli (GPa) = 59.28463 69.14180 38.19077
#
# Poissons Ratio (x) = 0.45145 0.44652
# Poissons Ratio (y) = 0.38709 -0.10239
# Poissons Ratio (z) = 0.69314 -0.18538
#
# Static dielectric constant tensor:
#      x y z
#    x 1.979650 -0.024030 -0.011850 
#    y -0.024030 2.090180 0.026470 
#    z -0.011850 0.026470 1.968560 
# 
# From -- ./inp_files/543179.got.cif
#   From: 2010.05.17/outbox.cif.g08.bks.cpg/sg2_272_cif.got.tgz:543179.got - 2010.06.03 11:33:40.
