data_PCOD9051791
_publ_section_title
;
Structure prediction by ZEFSAII (Michael W. Deem and Ramdas Pophale) SiO2 
 PCOD9051791
Probable space group: P -1
;
_chemical_formula_sum "Si O2"
_cell_formula_units_Z 12
_cell_length_a 8.730686
_cell_length_b 9.130938
_cell_length_c 15.558264
_cell_angle_alpha 37.013994
_cell_angle_beta 76.537073
_cell_angle_gamma 103.003322
_cell_volume 517.258075
_symmetry_space_group_name_H-M "P -1"
_symmetry_group_IT_number 2
_symmetry_cell_setting 'triclinic'
loop_
_space_group_symop_operation_xyz
x,y,z
-x,-y,-z
loop_
_atom_site_type_symbol
_atom_site_label
_atom_site_fract_x
_atom_site_fract_y
_atom_site_fract_z
Si Si1 0.403926 0.618722 0.705220
Si Si2 0.365583 0.547338 0.549891
Si Si3 0.207852 0.726758 0.803120
Si Si4 0.916923 0.146438 0.699433
Si Si5 0.519326 0.247058 0.947203
Si Si6 0.039318 0.153722 0.327268
O O1 0.328353 0.456281 0.697659
O O2 0.219538 0.488167 0.861051
O O3 0.534998 0.529115 0.766836
O O4 0.500000 0.000000 0.500000
O O5 0.500000 0.500000 0.500000
O O6 0.124225 0.286397 0.663278
O O7 0.548084 0.967492 0.329894
O O8 0.155039 0.892498 0.666449
O O9 0.000000 0.500000 0.000000
O O10 0.000000 0.500000 0.500000
O O11 0.902633 0.979191 0.691443
O O12 0.689990 0.942089 0.875412
O O13 0.743251 0.446830 0.876796
O O14 0.500000 0.000000 0.000000
O O15 0.000000 0.000000 0.500000
#
# Coordination Sequence:
#
# PCOD9051791 Si02
#       6
#     2   2   2   2   2   2
#     4  10  25  47  78 107 147 202 254 316 378 455
#     4  11  25  47  72 107 152 193 257 311 382 451
#     4  11  25  46  78 107 145 203 253 319 378 454
#     4  12  29  46  75 113 156 207 251 319 384 461
#     4  12  29  50  77 114 156 204 258 314 390 463
#     4  12  26  49  76 109 155 203 257 318 391 459
#
# _framework density 23.199254
#
# number of rings (size 3 to 8) (size 9 to 14) (size 15 to 20)
#    0.000    0.667    1.667    4.500   14.000    0.667 
#    0.000    0.000    0.000    0.000    0.000    0.000 
#    0.000    0.000    0.000    0.000    0.000    0.000 
#
# Total GULP energy -66966.407373 kJ/mol
# GULP energy per Si atom -5580.533948 kJ/mol
# Density = 2.314645 g / cm^3
# Si number density = 23.199254 Si / 1000 Ang^3
#
#
#
# Elastic Constant Matrix: (Units=GPa)
#
#
# Indices 1 2 3 4 5 6 
#
# 1 75.1954 45.1137 32.1286 4.4311 -7.5226 -26.0106
# 2 45.1137 190.8563 37.0397 2.9361 -23.2692 -24.4469
# 3 32.1286 37.0397 114.0195 6.0590 -16.6629 5.4803
# 4 4.4311 2.9361 6.0590 39.6411 -3.1351 -5.9161
# 5 -7.5226 -23.2692 -16.6629 -3.1351 48.3139 -1.9688
# 6 -26.0106 -24.4469 5.4803 -5.9161 -1.9688 47.4042
#
#
#
# Elastic Compliance Matrix: (Units=1/GPa)
#
#
# Indices 1 2 3 4 5 6 
#
# 1 0.020963 -0.002389 -0.005583 0.000379 0.000660 0.010990
# 2 -0.002389 0.006664 -0.001267 0.000532 0.002535 0.002444
# 3 -0.005583 -0.001267 0.011401 -0.001624 0.002138 -0.005149
# 4 0.000379 0.000532 -0.001624 0.026117 0.001613 0.003997
# 5 0.000660 0.002535 0.002138 0.001613 0.022968 0.002578
# 6 0.010990 0.002444 -0.005149 0.003997 0.002578 0.029587
#
#
# Mechanical properties :
#
#
# Convention : Reuss Voigt Hill
#
# Bulk Modulus (GPa) = 48.66090 67.62613 58.14352
# Shear Modulus (GPa) = 34.95820 44.79113 39.87467
#
# Velocity S-wave (km/s) = 3.88605 4.39876 4.15033
# Velocity P-wave (km/s) = 6.41529 7.41702 6.93427
#
# Compressibility (1/GPa) = 0.02055038
#
# Stress axis : x y z
#
# Youngs Moduli (GPa) = 47.70383 150.05856 87.70982
#
# Poissons Ratio (x) = 0.35852 0.48965
# Poissons Ratio (y) = 0.11397 0.11112
# Poissons Ratio (z) = 0.26631 0.19012
#
# Static dielectric constant tensor:
#      x y z
#    x 1.688140 0.106080 0.091790 
#    y 0.106080 1.786030 -0.109060 
#    z 0.091790 -0.109060 1.822820 
# 
# From -- ./inp_files/162139.got.cif
#   From: 2010.05.17/outbox.cif.g08.bks.cpg/sg2_82_cif.got.tgz:162139.got - 2010.06.03 11:33:40.
