data_PCOD9051327
_publ_section_title
;
Structure prediction by ZEFSAII (Michael W. Deem and Ramdas Pophale) SiO2 
 PCOD9051327
Probable space group: P -1
;
_chemical_formula_sum "Si O2"
_cell_formula_units_Z 14
_cell_length_a 5.456252
_cell_length_b 6.278345
_cell_length_c 23.198109
_cell_angle_alpha 85.562417
_cell_angle_beta 50.623436
_cell_angle_gamma 77.084771
_cell_volume 596.548960
_symmetry_space_group_name_H-M "P -1"
_symmetry_group_IT_number 2
_symmetry_cell_setting 'triclinic'
loop_
_space_group_symop_operation_xyz
x,y,z
-x,-y,-z
loop_
_atom_site_type_symbol
_atom_site_label
_atom_site_fract_x
_atom_site_fract_y
_atom_site_fract_z
Si Si1 0.702286 0.787303 0.203916
Si Si2 0.758271 0.960744 0.411088
Si Si3 0.846646 0.442170 0.693734
Si Si4 0.431790 0.108283 0.336026
Si Si5 0.110390 0.905372 0.923698
Si Si6 0.252078 0.475822 0.165744
Si Si7 0.664665 0.631271 0.018582
O O1 0.347320 0.742393 0.254856
O O2 0.828849 0.911872 0.131630
O O3 0.922883 0.540386 0.177503
O O4 0.682346 0.939884 0.260542
O O5 0.856406 0.703360 0.382921
O O6 0.500000 0.000000 0.500000
O O7 0.588276 0.086032 0.376659
O O8 0.084760 0.034549 0.382955
O O9 0.649626 0.643593 0.681191
O O10 0.886922 0.534222 0.749002
O O11 0.454608 0.732212 0.879620
O O12 0.000000 0.000000 0.000000
O O13 0.799445 0.806822 0.957029
O O14 0.424046 0.667533 0.109497
O O15 0.500000 0.500000 0.000000
O O16 0.000000 0.500000 0.000000
#
# Coordination Sequence:
#
# PCOD9051327 Si02
#       7
#     2   2   2   2   2   2   2
#     4  11  25  43  72 100 141 191 242 300 356 430
#     4  11  26  48  76 111 147 184 235 290 352 434
#     4  11  25  45  71 107 146 186 241 291 357 435
#     4  11  25  46  74 109 145 191 234 286 363 426
#     4  11  25  46  69 104 140 192 255 311 374 423
#     4  11  24  43  69  93 143 188 238 303 358 429
#     4  10  25  46  66  97 139 187 241 305 366 422
#
# _framework density 23.468316000000002
#
# number of rings (size 3 to 8) (size 9 to 14) (size 15 to 20)
#    0.000    1.143    2.857    1.286   10.000    1.714 
#    7.714    0.000    0.000    0.000    0.000    0.000 
#    0.000    0.000    0.000    0.000    0.000    0.000 
#
# Total GULP energy -78098.075757 kJ/mol
# GULP energy per Si atom -5578.433983 kJ/mol
# Density = 2.341490 g / cm^3
# Si number density = 23.468316 Si / 1000 Ang^3
#
#
#
# Elastic Constant Matrix: (Units=GPa)
#
#
# Indices 1 2 3 4 5 6 
#
# 1 105.6238 34.0546 40.3121 -0.3160 5.3898 -9.8223
# 2 34.0546 113.7025 50.2974 9.9548 7.8477 -27.2766
# 3 40.3121 50.2974 141.5258 27.0482 13.8109 -4.9071
# 4 -0.3160 9.9548 27.0482 41.9270 -6.2426 -1.2426
# 5 5.3898 7.8477 13.8109 -6.2426 36.7201 -3.7359
# 6 -9.8223 -27.2766 -4.9071 -1.2426 -3.7359 41.8707
#
#
#
# Elastic Compliance Matrix: (Units=1/GPa)
#
#
# Indices 1 2 3 4 5 6 
#
# 1 0.011370 -0.002076 -0.003009 0.002621 0.000462 0.001081
# 2 -0.002076 0.012854 -0.003556 -0.000621 -0.000456 0.007410
# 3 -0.003009 -0.003556 0.010838 -0.006877 -0.004282 -0.002339
# 4 0.002621 -0.000621 -0.006877 0.029594 0.007462 0.000948
# 5 0.000462 -0.000456 -0.004282 0.007462 0.030370 0.002241
# 6 0.001081 0.007410 -0.002339 0.000948 0.002241 0.028918
#
#
# Mechanical properties :
#
#
# Convention : Reuss Voigt Hill
#
# Bulk Modulus (GPa) = 56.24993 67.79783 62.02388
# Shear Modulus (GPa) = 33.97805 39.84940 36.91372
#
# Velocity S-wave (km/s) = 3.80916 4.12516 3.97030
# Velocity P-wave (km/s) = 6.58534 7.18617 6.89231
#
# Compressibility (1/GPa) = 0.01777780
#
# Stress axis : x y z
#
# Youngs Moduli (GPa) = 87.94827 77.79913 92.26788
#
# Poissons Ratio (x) = 0.16153 0.27767
# Poissons Ratio (y) = 0.18261 0.32814
# Poissons Ratio (z) = 0.26467 0.27669
#
# Static dielectric constant tensor:
#      x y z
#    x 1.999460 0.091920 0.010150 
#    y 0.091920 2.112120 0.025810 
#    z 0.010150 0.025810 1.932500 
# 
# From -- ./inp_files/603129.got.cif
#   From: 2010.05.17/outbox.cif.g08.bks.cpg/sg2_302_cif.got.tgz:603129.got - 2010.06.03 11:33:40.
