data_PCOD9051325
_publ_section_title
;
Structure prediction by ZEFSAII (Michael W. Deem and Ramdas Pophale) SiO2 
 PCOD9051325
Probable space group: P -1
;
_chemical_formula_sum "Si O2"
_cell_formula_units_Z 16
_cell_length_a 14.174084
_cell_length_b 8.094486
_cell_length_c 10.203995
_cell_angle_alpha 136.721924
_cell_angle_beta 55.818120
_cell_angle_gamma 132.238834
_cell_volume 588.107897
_symmetry_space_group_name_H-M "P -1"
_symmetry_group_IT_number 2
_symmetry_cell_setting 'triclinic'
loop_
_space_group_symop_operation_xyz
x,y,z
-x,-y,-z
loop_
_atom_site_type_symbol
_atom_site_label
_atom_site_fract_x
_atom_site_fract_y
_atom_site_fract_z
Si Si1 0.972847 0.751922 0.647626
Si Si2 0.228824 0.895216 0.830044
Si Si3 0.589390 0.292668 0.538028
Si Si4 0.803823 0.729875 0.258918
Si Si5 0.016515 0.358005 0.718306
Si Si6 0.608193 0.920202 0.642202
Si Si7 0.309719 0.455534 0.141585
Si Si8 0.727244 0.155348 0.932387
O O1 0.974237 0.776769 0.502693
O O2 0.839011 0.681275 0.776560
O O3 0.000000 0.500000 0.500000
O O4 0.090007 0.026137 0.767568
O O5 0.279805 0.722013 0.604504
O O6 0.076594 0.685864 0.837692
O O7 0.278773 0.915350 0.951987
O O8 0.302417 0.212633 0.915222
O O9 0.612610 0.501181 0.757117
O O10 0.500000 0.000000 0.500000
O O11 0.522278 0.284483 0.447464
O O12 0.888311 0.664301 0.262124
O O13 0.721988 0.439683 0.089505
O O14 0.716718 0.850894 0.459519
O O15 0.870153 0.227403 0.807390
O O16 0.644950 0.236554 0.763762
O O17 0.621337 0.927591 0.792241
#
# Coordination Sequence:
#
# PCOD9051325 Si02
#       8
#     2   2   2   2   2   2   2   2
#     4  12  21  37  67 101 130 166 213 264 322 386
#     4  11  24  42  71  95 126 175 218 265 324 392
#     4  10  25  46  66  92 129 174 223 269 325 379
#     4  11  23  40  64  93 137 174 204 265 331 386
#     4  11  22  42  66  95 137 174 206 259 334 394
#     4  11  25  42  63  96 128 172 219 272 324 374
#     4  11  23  43  68  95 130 169 219 268 326 386
#     4  11  24  42  65  99 135 169 215 263 323 398
#
# _framework density 27.205894000000001
#
# number of rings (size 3 to 8) (size 9 to 14) (size 15 to 20)
#    0.000    1.000    3.750    3.375    1.750    6.500 
#    0.000    6.875    0.000    0.000    0.000    0.000 
#    0.000    0.000    0.000    0.000    0.000    0.000 
#
# Total GULP energy -89635.417942 kJ/mol
# GULP energy per Si atom -5602.213621 kJ/mol
# Density = 2.714397 g / cm^3
# Si number density = 27.205894 Si / 1000 Ang^3
#
#
#
# Elastic Constant Matrix: (Units=GPa)
#
#
# Indices 1 2 3 4 5 6 
#
# 1 86.7219 4.3045 25.6721 15.7733 18.4256 1.0681
# 2 4.3045 80.9890 9.8206 25.1266 -8.8891 -0.0958
# 3 25.6721 9.8206 67.5763 29.8750 9.6595 10.5019
# 4 15.7733 25.1266 29.8750 56.7662 8.0394 5.4105
# 5 18.4256 -8.8891 9.6595 8.0394 48.3051 5.5024
# 6 1.0681 -0.0958 10.5019 5.4105 5.5024 37.6562
#
#
#
# Elastic Compliance Matrix: (Units=1/GPa)
#
#
# Indices 1 2 3 4 5 6 
#
# 1 0.013981 -0.000437 -0.004477 -0.000845 -0.004564 0.001639
# 2 -0.000437 0.015056 0.000662 -0.007493 0.004011 0.000357
# 3 -0.004477 0.000662 0.021511 -0.009905 -0.000323 -0.004400
# 4 -0.000845 -0.007493 -0.009905 0.026931 -0.003490 -0.000592
# 5 -0.004564 0.004011 -0.000323 -0.003490 0.024145 -0.002797
# 6 0.001639 0.000357 -0.004400 -0.000592 -0.002797 0.028231
#
#
# Mechanical properties :
#
#
# Convention : Reuss Voigt Hill
#
# Bulk Modulus (GPa) = 23.78392 34.98683 29.38537
# Shear Modulus (GPa) = 32.81383 41.57816 37.19599
#
# Velocity S-wave (km/s) = 3.47670 3.91356 3.70158
# Velocity P-wave (km/s) = 4.98777 5.77141 5.39384
#
# Compressibility (1/GPa) = 0.04204522
#
# Stress axis : x y z
#
# Youngs Moduli (GPa) = 71.52391 66.41979 46.48679
#
# Poissons Ratio (x) = 0.02903 0.20810
# Poissons Ratio (y) = 0.03126 -0.03077
# Poissons Ratio (z) = 0.32018 -0.04396
#
# Static dielectric constant tensor:
#      x y z
#    x 2.279740 -0.089340 -0.069860 
#    y -0.089340 2.158150 0.017460 
#    z -0.069860 0.017460 2.205120 
# 
# From -- ./inp_files/448306.got.cif
#   From: 2010.05.17/outbox.cif.g08.bks.cpg/sg2_225_cif.got.tgz:448306.got - 2010.06.03 11:33:40.
