data_PCOD9051849
_publ_section_title
;
Structure prediction by ZEFSAII (Michael W. Deem and Ramdas Pophale) SiO2 
 PCOD9051849
Probable space group: P -1
;
_chemical_formula_sum "Si O2"
_cell_formula_units_Z 14
_cell_length_a 7.840453
_cell_length_b 14.576759
_cell_length_c 9.526969
_cell_angle_alpha 128.198955
_cell_angle_beta 68.700641
_cell_angle_gamma 139.126356
_cell_volume 548.294100
_symmetry_space_group_name_H-M "P -1"
_symmetry_group_IT_number 2
_symmetry_cell_setting 'triclinic'
loop_
_space_group_symop_operation_xyz
x,y,z
-x,-y,-z
loop_
_atom_site_type_symbol
_atom_site_label
_atom_site_fract_x
_atom_site_fract_y
_atom_site_fract_z
Si Si1 0.132422 0.368263 0.092609
Si Si2 0.693486 0.114217 0.753866
Si Si3 0.157970 0.760615 0.654135
Si Si4 0.935306 0.865294 0.496471
Si Si5 0.816142 0.359933 0.761201
Si Si6 0.826368 0.838149 0.797550
Si Si7 0.387502 0.523873 0.801939
O O1 0.356213 0.379658 0.082441
O O2 0.964726 0.330978 0.245534
O O3 0.255831 0.539929 0.147127
O O4 0.933204 0.229706 0.902730
O O5 0.796328 0.086724 0.563734
O O6 0.630771 0.208977 0.787682
O O7 0.449513 0.949538 0.755131
O O8 0.174862 0.684651 0.443126
O O9 0.970222 0.780238 0.684926
O O10 0.848629 0.894962 0.688680
O O11 0.712015 0.658208 0.355776
O O12 0.000000 0.000000 0.500000
O O13 0.108780 0.464895 0.835779
O O14 0.533572 0.666583 0.771178
O O15 0.000000 0.000000 0.000000
#
# Coordination Sequence:
#
# PCOD9051849 Si02
#       7
#     2   2   2   2   2   2   2
#     4  11  26  43  73 106 137 194 235 288 359 418
#     4  11  25  46  66 106 150 177 238 297 354 430
#     4  11  24  45  71 102 143 184 242 294 347 434
#     4  11  26  43  71 103 142 192 228 297 364 407
#     4  11  24  46  73 101 138 195 228 297 366 405
#     4  11  25  45  72 102 138 195 233 291 361 414
#     4  10  25  48  72 101 149 180 248 291 342 441
#
# _framework density 25.533740999999999
#
# number of rings (size 3 to 8) (size 9 to 14) (size 15 to 20)
#    0.000    1.143    2.857    2.143   10.000    3.429 
#    0.000    0.000    0.000    0.000    0.000    0.000 
#    0.000    0.000    0.000    0.000    0.000    0.000 
#
# Total GULP energy -78173.141614 kJ/mol
# GULP energy per Si atom -5583.795830 kJ/mol
# Density = 2.547563 g / cm^3
# Si number density = 25.533741 Si / 1000 Ang^3
#
#
#
# Elastic Constant Matrix: (Units=GPa)
#
#
# Indices 1 2 3 4 5 6 
#
# 1 55.3151 33.9046 7.4639 -2.2895 10.7196 -8.4313
# 2 33.9046 168.7450 61.3996 -17.4017 8.0031 -24.7007
# 3 7.4639 61.3996 91.3961 -14.4094 18.5486 5.0465
# 4 -2.2895 -17.4017 -14.4094 38.8850 -7.4663 4.9988
# 5 10.7196 8.0031 18.5486 -7.4663 31.8916 -1.9699
# 6 -8.4313 -24.7007 5.0465 4.9988 -1.9699 43.2144
#
#
#
# Elastic Compliance Matrix: (Units=1/GPa)
#
#
# Indices 1 2 3 4 5 6 
#
# 1 0.022613 -0.005341 0.003153 -0.001609 -0.008422 0.000793
# 2 -0.005341 0.010610 -0.007633 0.001676 0.004330 0.005917
# 3 0.003153 -0.007633 0.018573 0.002639 -0.009741 -0.006666
# 4 -0.001609 0.001676 0.002639 0.028689 0.005132 -0.002749
# 5 -0.008422 0.004330 -0.009741 0.005132 0.040165 0.003207
# 6 0.000793 0.005917 -0.006666 -0.002749 0.003207 0.027920
#
#
# Mechanical properties :
#
#
# Convention : Reuss Voigt Hill
#
# Bulk Modulus (GPa) = 31.10042 57.88802 44.49422
# Shear Modulus (GPa) = 27.94384 36.97740 32.46062
#
# Velocity S-wave (km/s) = 3.31174 3.80962 3.56937
# Velocity P-wave (km/s) = 5.17978 6.48624 5.86947
#
# Compressibility (1/GPa) = 0.03215391
#
# Stress axis : x y z
#
# Youngs Moduli (GPa) = 44.22228 94.24792 53.84266
#
# Poissons Ratio (x) = 0.50340 -0.16978
# Poissons Ratio (y) = 0.23620 0.41098
# Poissons Ratio (z) = -0.13945 0.71940
#
# Static dielectric constant tensor:
#      x y z
#    x 2.113800 -0.052440 -0.013370 
#    y -0.052440 2.145850 -0.115050 
#    z -0.013370 -0.115050 2.313980 
# 
# From -- ./inp_files/208691.got.cif
#   From: 2010.05.17/outbox.cif.g08.bks.cpg/sg2_105_cif.got.tgz:208691.got - 2010.06.03 11:33:40.
