data_PCOD9051952
_publ_section_title
;
Structure prediction by ZEFSAII (Michael W. Deem and Ramdas Pophale) SiO2 
 PCOD9051952
Probable space group: P -1
;
_chemical_formula_sum "Si O2"
_cell_formula_units_Z 16
_cell_length_a 15.648406
_cell_length_b 8.422130
_cell_length_c 11.898983
_cell_angle_alpha 142.302677
_cell_angle_beta 47.639053
_cell_angle_gamma 133.466338
_cell_volume 665.702215
_symmetry_space_group_name_H-M "P -1"
_symmetry_group_IT_number 2
_symmetry_cell_setting 'triclinic'
loop_
_space_group_symop_operation_xyz
x,y,z
-x,-y,-z
loop_
_atom_site_type_symbol
_atom_site_label
_atom_site_fract_x
_atom_site_fract_y
_atom_site_fract_z
Si Si1 0.920951 0.677022 0.389397
Si Si2 0.527351 0.238934 0.376915
Si Si3 0.741294 0.932517 0.770141
Si Si4 0.250428 0.111421 0.806583
Si Si5 0.309428 0.746686 0.355244
Si Si6 0.528495 0.460425 0.741634
Si Si7 0.210218 0.783031 0.891512
Si Si8 0.862751 0.467811 0.809975
O O1 0.790703 0.687032 0.551588
O O2 0.891322 0.515808 0.207508
O O3 0.998550 0.532884 0.312786
O O4 0.000000 0.000000 0.500000
O O5 0.500000 0.500000 0.500000
O O6 0.537464 0.272420 0.522110
O O7 0.656294 0.240285 0.217160
O O8 0.410271 0.966933 0.310699
O O9 0.595391 0.778355 0.825579
O O10 0.785432 0.190177 0.791533
O O11 0.808560 0.047612 0.891913
O O12 0.384603 0.352330 0.836106
O O13 0.261755 0.920526 0.586209
O O14 0.221731 0.940531 0.851531
O O15 0.153439 0.269498 0.967163
O O16 0.389100 0.588046 0.257857
O O17 0.197997 0.559842 0.274057
#
# Coordination Sequence:
#
# PCOD9051952 Si02
#       8
#     2   2   2   2   2   2   2   2
#     4  10  25  49  67  92 136 177 228 280 333 388
#     4  11  22  37  68 101 135 173 217 275 331 400
#     4  11  25  42  70 100 131 178 225 279 331 393
#     4  11  24  42  66 103 137 176 219 271 335 407
#     4  11  22  42  66  95 141 178 213 269 337 396
#     4  11  21  44  67  98 145 177 212 269 344 399
#     4  12  24  44  71  99 135 178 221 273 345 392
#     4  11  27  42  67 101 131 179 231 276 323 398
#
# _framework density 24.034768
#
# number of rings (size 3 to 8) (size 9 to 14) (size 15 to 20)
#    0.000    1.000    3.750    2.250    7.000    5.000 
#    0.000    4.375    0.000    0.000    0.000    0.000 
#    0.000    0.000    0.000    0.000    0.000    0.000 
#
# Total GULP energy -89543.127264 kJ/mol
# GULP energy per Si atom -5596.445454 kJ/mol
# Density = 2.398006 g / cm^3
# Si number density = 24.034768 Si / 1000 Ang^3
#
#
#
# Elastic Constant Matrix: (Units=GPa)
#
#
# Indices 1 2 3 4 5 6 
#
# 1 62.9679 -8.2064 20.7405 -2.6007 -4.6248 0.4397
# 2 -8.2064 74.0290 -2.8412 1.7373 -1.8181 2.6413
# 3 20.7405 -2.8412 79.1669 10.8010 0.4537 1.2020
# 4 -2.6007 1.7373 10.8010 20.2861 -0.8110 5.4601
# 5 -4.6248 -1.8181 0.4537 -0.8110 51.0675 17.0415
# 6 0.4397 2.6413 1.2020 5.4601 17.0415 31.4568
#
#
#
# Elastic Compliance Matrix: (Units=1/GPa)
#
#
# Indices 1 2 3 4 5 6 
#
# 1 0.018427 0.001856 -0.005556 0.006017 0.002802 -0.002763
# 2 0.001856 0.013823 0.000093 -0.000465 0.001248 -0.001785
# 3 -0.005556 0.000093 0.015361 -0.009466 -0.001419 0.001895
# 4 0.006017 -0.000465 -0.009466 0.058914 0.005926 -0.013120
# 5 0.002802 0.001248 -0.001419 0.005926 0.024853 -0.014582
# 6 -0.002763 -0.001785 0.001895 -0.013120 -0.014582 0.042083
#
#
# Mechanical properties :
#
#
# Convention : Reuss Voigt Hill
#
# Bulk Modulus (GPa) = 24.75451 26.17219 25.46335
# Shear Modulus (GPa) = 25.75460 34.32682 30.04071
#
# Velocity S-wave (km/s) = 3.27701 3.78327 3.53921
# Velocity P-wave (km/s) = 4.96389 5.47697 5.22673
#
# Compressibility (1/GPa) = 0.04039668
#
# Stress axis : x y z
#
# Youngs Moduli (GPa) = 54.26940 72.34444 65.09873
#
# Poissons Ratio (x) = -0.13424 0.36169
# Poissons Ratio (y) = -0.10070 -0.00608
# Poissons Ratio (z) = 0.30152 -0.00675
#
# Static dielectric constant tensor:
#      x y z
#    x 1.899560 -0.002460 -0.003780 
#    y -0.002460 1.977840 -0.023790 
#    z -0.003780 -0.023790 1.925240 
# 
# From -- ./inp_files/259000.got.cif
#   From: 2010.05.17/outbox.cif.g08.bks.cpg/sg2_130_cif.got.tgz:259000.got - 2010.06.03 11:33:40.
