data_PCOD9051670
_publ_section_title
;
Structure prediction by ZEFSAII (Michael W. Deem and Ramdas Pophale) SiO2 
 PCOD9051670
Probable space group: P -1
;
_chemical_formula_sum "Si O2"
_cell_formula_units_Z 11
_cell_length_a 5.088872
_cell_length_b 13.256456
_cell_length_c 16.175877
_cell_angle_alpha 153.056470
_cell_angle_beta 93.024575
_cell_angle_gamma 72.798050
_cell_volume 412.487551
_symmetry_space_group_name_H-M "P -1"
_symmetry_group_IT_number 2
_symmetry_cell_setting 'triclinic'
loop_
_space_group_symop_operation_xyz
x,y,z
-x,-y,-z
loop_
_atom_site_type_symbol
_atom_site_label
_atom_site_fract_x
_atom_site_fract_y
_atom_site_fract_z
Si Si1 0.664630 0.643212 0.304219
Si Si2 0.673272 0.253015 0.146607
Si Si3 0.495827 0.985772 0.805209
Si Si4 0.500000 0.500000 0.500000
Si Si5 0.808199 0.221914 0.892291
Si Si6 0.936662 0.817524 0.311043
O O1 0.729256 0.457026 0.246676
O O2 0.932909 0.622049 0.234496
O O3 0.432417 0.951728 0.548391
O O4 0.553287 0.507184 0.136592
O O5 0.478964 0.407419 0.336899
O O6 0.530451 0.134037 0.994031
O O7 0.000000 0.000000 0.000000
O O8 0.634658 0.677714 0.596966
O O9 0.673886 0.040576 0.776311
O O10 0.134828 0.090448 0.853025
O O11 0.888278 0.262111 0.831093
O O12 0.000000 0.000000 0.500000
#
# Coordination Sequence:
#
# PCOD9051670 Si02
#       6
#     2   2   2   1   2   2
#     4  10  25  47  71 110 153 195 249 316 374 456
#     4  11  26  49  76 113 152 202 260 314 384 456
#     4  11  27  49  76 115 152 207 258 315 383 466
#     4  12  24  44  76 102 150 198 252 316 374 438
#     4  11  26  49  76 106 158 199 247 315 392 449
#     4  11  26  44  77 115 147 201 257 310 384 460
#
# _framework density 26.667470000000002
#
# number of rings (size 3 to 8) (size 9 to 14) (size 15 to 20)
#    0.000    1.091    0.000    4.364   12.727    3.636 
#    0.000    1.818    0.000    0.000    0.000    0.000 
#    0.000    0.000    0.000    0.000    0.000    0.000 
#
# Total GULP energy -61242.699407 kJ/mol
# GULP energy per Si atom -5567.518128 kJ/mol
# Density = 2.660677 g / cm^3
# Si number density = 26.667470 Si / 1000 Ang^3
#
#
#
# Elastic Constant Matrix: (Units=GPa)
#
#
# Indices 1 2 3 4 5 6 
#
# 1 118.2302 39.9574 24.0988 -2.5708 20.0735 10.8709
# 2 39.9574 148.1906 41.5142 -33.5717 4.4551 29.9714
# 3 24.0988 41.5142 88.4695 -13.3959 14.7445 13.0169
# 4 -2.5708 -33.5717 -13.3959 64.6615 8.2903 15.7005
# 5 20.0735 4.4551 14.7445 8.2903 53.0795 1.0488
# 6 10.8709 29.9714 13.0169 15.7005 1.0488 68.9775
#
#
#
# Elastic Compliance Matrix: (Units=1/GPa)
#
#
# Indices 1 2 3 4 5 6 
#
# 1 0.010045 -0.002414 -0.001158 -0.000659 -0.003169 -0.000117
# 2 -0.002414 0.010539 -0.002601 0.006086 -0.000099 -0.005092
# 3 -0.001158 -0.002601 0.014077 0.002429 -0.003597 -0.001842
# 4 -0.000659 0.006086 0.002429 0.021537 -0.004145 -0.007838
# 5 -0.003169 -0.000099 -0.003597 -0.004145 0.021657 0.001836
# 6 -0.000117 -0.005092 -0.001842 -0.007838 0.001836 0.018832
#
#
# Mechanical properties :
#
#
# Convention : Reuss Voigt Hill
#
# Bulk Modulus (GPa) = 44.81089 62.89234 53.85162
# Shear Modulus (GPa) = 42.92935 53.96503 48.44719
#
# Velocity S-wave (km/s) = 4.01659 4.50336 4.26692
# Velocity P-wave (km/s) = 6.19279 7.11867 6.67181
#
# Compressibility (1/GPa) = 0.02231600
#
# Stress axis : x y z
#
# Youngs Moduli (GPa) = 99.55685 94.88372 71.03638
#
# Poissons Ratio (x) = 0.22909 0.08222
# Poissons Ratio (y) = 0.24037 0.18473
# Poissons Ratio (z) = 0.11524 0.24675
#
# Static dielectric constant tensor:
#      x y z
#    x 2.335080 -0.083350 -0.041290 
#    y -0.083350 2.183180 0.198420 
#    z -0.041290 0.198420 2.335670 
# 
# From -- ./inp_files/483154.got.cif
#   From: 2010.05.17/outbox.cif.g08.bks.cpg/sg2_242_cif.got.tgz:483154.got - 2010.06.03 11:33:40.
