data_PCOD9051813
_publ_section_title
;
Structure prediction by ZEFSAII (Michael W. Deem and Ramdas Pophale) SiO2 
 PCOD9051813
Probable space group: P -1
;
_chemical_formula_sum "Si O2"
_cell_formula_units_Z 16
_cell_length_a 13.083128
_cell_length_b 10.603135
_cell_length_c 13.295360
_cell_angle_alpha 83.766598
_cell_angle_beta 145.157493
_cell_angle_gamma 71.302407
_cell_volume 725.465330
_symmetry_space_group_name_H-M "P -1"
_symmetry_group_IT_number 2
_symmetry_cell_setting 'triclinic'
loop_
_space_group_symop_operation_xyz
x,y,z
-x,-y,-z
loop_
_atom_site_type_symbol
_atom_site_label
_atom_site_fract_x
_atom_site_fract_y
_atom_site_fract_z
Si Si1 0.581967 0.279059 0.367962
Si Si2 0.625446 0.801391 0.639427
Si Si3 0.004106 0.207260 0.827889
Si Si4 0.378574 0.812609 0.245264
Si Si5 0.100029 0.513316 0.417670
Si Si6 0.269734 0.786747 0.737877
Si Si7 0.163114 0.658377 0.104458
Si Si8 0.215970 0.517967 0.737499
O O1 0.464069 0.211723 0.325969
O O2 0.614082 0.264963 0.276212
O O3 0.396262 0.483519 0.243639
O O4 0.856590 0.176513 0.646460
O O5 0.511045 0.766020 0.465263
O O6 0.500000 0.000000 0.500000
O O7 0.926314 0.684300 0.887064
O O8 0.043799 0.309064 0.781470
O O9 0.828216 0.344572 0.767131
O O10 0.249083 0.010966 0.090114
O O11 0.612429 0.653145 0.376150
O O12 0.165228 0.809022 0.071903
O O13 0.108552 0.555217 0.535674
O O14 0.957891 0.452151 0.317545
O O15 0.225812 0.663437 0.743927
O O16 0.509522 0.696612 0.012775
O O17 0.000000 0.000000 0.500000
#
# Coordination Sequence:
#
# PCOD9051813 Si02
#       8
#     2   2   2   2   2   2   2   2
#     4  12  25  45  72 102 139 192 234 285 359 420
#     4  12  26  43  65 110 148 182 236 283 348 430
#     4  12  23  43  71 100 139 189 231 279 355 423
#     4  12  25  45  72 104 145 192 228 288 355 420
#     4  11  25  45  72  99 136 183 236 295 350 414
#     4  11  26  48  72 102 140 181 236 295 350 418
#     4  12  24  46  71 103 150 186 232 292 345 427
#     4  10  25  48  69 101 136 178 240 299 352 405
#
# _framework density 22.054808999999999
#
# number of rings (size 3 to 8) (size 9 to 14) (size 15 to 20)
#    0.000    0.500    5.000    2.625    5.250    2.000 
#    2.250    2.500    0.000    0.000    0.000    0.000 
#    0.000    0.000    0.000    0.000    0.000    0.000 
#
# Total GULP energy -89377.680886 kJ/mol
# GULP energy per Si atom -5586.105055 kJ/mol
# Density = 2.200461 g / cm^3
# Si number density = 22.054809 Si / 1000 Ang^3
#
#
#
# Elastic Constant Matrix: (Units=GPa)
#
#
# Indices 1 2 3 4 5 6 
#
# 1 165.1314 44.3804 43.8665 -8.5249 -7.5825 36.4091
# 2 44.3804 67.4070 16.7671 -13.3496 -9.0251 26.8571
# 3 43.8665 16.7671 81.1270 -2.2632 -10.2030 18.2639
# 4 -8.5249 -13.3496 -2.2632 27.3742 3.4186 -9.2006
# 5 -7.5825 -9.0251 -10.2030 3.4186 30.7224 3.7496
# 6 36.4091 26.8571 18.2639 -9.2006 3.7496 27.3155
#
#
#
# Elastic Compliance Matrix: (Units=1/GPa)
#
#
# Indices 1 2 3 4 5 6 
#
# 1 0.009381 -0.001368 -0.002067 -0.001887 0.002754 -0.010791
# 2 -0.001368 0.028895 0.003054 0.002434 0.012498 -0.029525
# 3 -0.002067 0.003054 0.016820 -0.003382 0.008026 -0.013736
# 4 -0.001887 0.002434 -0.003382 0.044002 -0.008004 0.018304
# 5 0.002754 0.012498 0.008026 -0.008004 0.044128 -0.030078
# 6 -0.010791 -0.029525 -0.013736 0.018304 -0.030078 0.099500
#
#
# Mechanical properties :
#
#
# Convention : Reuss Voigt Hill
#
# Bulk Modulus (GPa) = 18.40434 58.18817 38.29625
# Shear Modulus (GPa) = 19.11339 30.99251 25.05295
#
# Velocity S-wave (km/s) = 2.94705 3.75273 3.37403
# Velocity P-wave (km/s) = 4.46577 6.72444 5.70794
#
# Compressibility (1/GPa) = 0.05433501
#
# Stress axis : x y z
#
# Youngs Moduli (GPa) = 106.60351 34.60802 59.45379
#
# Poissons Ratio (x) = 0.04734 0.12286
# Poissons Ratio (y) = 0.14581 -0.18158
# Poissons Ratio (z) = 0.22030 -0.10570
#
# Static dielectric constant tensor:
#      x y z
#    x 1.806510 0.037910 0.059320 
#    y 0.037910 1.805040 0.047830 
#    z 0.059320 0.047830 1.964140 
# 
# From -- ./inp_files/428247.got.cif
#   From: 2010.05.17/outbox.cif.g08.bks.cpg/sg2_215_cif.got.tgz:428247.got - 2010.06.03 11:33:40.
