data_PCOD9051588
_publ_section_title
;
Structure prediction by ZEFSAII (Michael W. Deem and Ramdas Pophale) SiO2 
 PCOD9051588
Probable space group: P -1
;
_chemical_formula_sum "Si O2"
_cell_formula_units_Z 14
_cell_length_a 14.340366
_cell_length_b 5.273406
_cell_length_c 7.874681
_cell_angle_alpha 116.594416
_cell_angle_beta 80.041108
_cell_angle_gamma 91.555764
_cell_volume 523.619363
_symmetry_space_group_name_H-M "P -1"
_symmetry_group_IT_number 2
_symmetry_cell_setting 'triclinic'
loop_
_space_group_symop_operation_xyz
x,y,z
-x,-y,-z
loop_
_atom_site_type_symbol
_atom_site_label
_atom_site_fract_x
_atom_site_fract_y
_atom_site_fract_z
Si Si1 0.211267 0.875430 0.142131
Si Si2 0.036126 0.319184 0.595868
Si Si3 0.560223 0.880515 0.106017
Si Si4 0.372332 0.694663 0.242227
Si Si5 0.386937 0.568357 0.577335
Si Si6 0.120302 0.354678 0.108352
Si Si7 0.219690 0.364414 0.742444
O O1 0.311038 0.917041 0.211973
O O2 0.169045 0.650605 0.217239
O O3 0.145353 0.139600 0.186690
O O4 0.216638 0.683327 0.913500
O O5 0.988284 0.524850 0.822336
O O6 0.000000 0.500000 0.500000
O O7 0.147474 0.310796 0.598478
O O8 0.000000 0.000000 0.500000
O O9 0.616719 0.133187 0.234845
O O10 0.672564 0.660965 0.370484
O O11 0.500000 0.000000 0.000000
O O12 0.624348 0.603707 0.950990
O O13 0.343924 0.630717 0.423181
O O14 0.480606 0.784221 0.232809
O O15 0.500000 0.500000 0.500000
O O16 0.169923 0.227487 0.882681
#
# Coordination Sequence:
#
# PCOD9051588 Si02
#       7
#     2   2   2   2   2   2   2
#     4  10  25  46  82 111 158 210 274 319 412 481
#     4  12  28  52  82 126 165 202 270 343 411 491
#     4  11  24  47  74 106 156 215 279 336 414 469
#     4  11  26  45  76 110 162 216 274 350 398 484
#     4  12  26  51  77 122 160 218 277 342 404 492
#     4  10  25  50  80 113 156 207 267 324 410 481
#     4  10  28  48  84 109 165 213 272 331 415 484
#
# _framework density 26.736975999999999
#
# number of rings (size 3 to 8) (size 9 to 14) (size 15 to 20)
#    0.857    0.286    1.429    2.571   10.000    0.571 
#    7.714    0.000    0.000    0.000    0.000    0.000 
#    0.000    0.000    0.000    0.000    0.000    0.000 
#
# Total GULP energy -78286.155254 kJ/mol
# GULP energy per Si atom -5591.868232 kJ/mol
# Density = 2.667612 g / cm^3
# Si number density = 26.736976 Si / 1000 Ang^3
#
#
#
# Elastic Constant Matrix: (Units=GPa)
#
#
# Indices 1 2 3 4 5 6 
#
# 1 112.5832 13.3438 15.5913 0.1091 5.0229 -14.8621
# 2 13.3438 136.0725 22.7488 -3.2089 3.9122 -8.2862
# 3 15.5913 22.7488 107.3579 -10.1453 13.9431 -3.1759
# 4 0.1091 -3.2089 -10.1453 38.0796 -2.5033 -3.0474
# 5 5.0229 3.9122 13.9431 -2.5033 31.1442 -1.2995
# 6 -14.8621 -8.2862 -3.1759 -3.0474 -1.2995 36.0289
#
#
#
# Elastic Compliance Matrix: (Units=1/GPa)
#
#
# Indices 1 2 3 4 5 6 
#
# 1 0.009621 -0.000515 -0.001078 -0.000117 -0.000859 0.003714
# 2 -0.000515 0.007747 -0.001470 0.000371 -0.000141 0.001466
# 3 -0.001078 -0.001470 0.010560 0.002435 -0.004165 0.000204
# 4 -0.000117 0.000371 0.002435 0.027226 0.001179 0.002597
# 5 -0.000859 -0.000141 -0.004165 0.001179 0.034248 0.000581
# 6 0.003714 0.001466 0.000204 0.002597 0.000581 0.029883
#
#
# Mechanical properties :
#
#
# Convention : Reuss Voigt Hill
#
# Bulk Modulus (GPa) = 45.86661 51.04235 48.45448
# Shear Modulus (GPa) = 37.68451 41.33921 39.51186
#
# Velocity S-wave (km/s) = 3.75834 3.93637 3.84838
# Velocity P-wave (km/s) = 6.00212 6.30809 6.15701
#
# Compressibility (1/GPa) = 0.02180235
#
# Stress axis : x y z
#
# Youngs Moduli (GPa) = 103.93473 129.07573 94.69945
#
# Poissons Ratio (x) = 0.06650 0.10206
# Poissons Ratio (y) = 0.05355 0.13922
# Poissons Ratio (z) = 0.11202 0.18976
#
# Static dielectric constant tensor:
#      x y z
#    x 2.291470 -0.019470 -0.165840 
#    y -0.019470 2.075240 -0.000330 
#    z -0.165840 -0.000330 2.145290 
# 
# From -- ./inp_files/323041.got.cif
#   From: 2010.05.17/outbox.cif.g08.bks.cpg/sg2_162_cif.got.tgz:323041.got - 2010.06.03 11:33:40.
