data_PCOD9051373
_publ_section_title
;
Structure prediction by ZEFSAII (Michael W. Deem and Ramdas Pophale) SiO2 
 PCOD9051373
Probable space group: P -1
;
_chemical_formula_sum "Si O2"
_cell_formula_units_Z 16
_cell_length_a 14.570542
_cell_length_b 11.801120
_cell_length_c 8.501303
_cell_angle_alpha 36.858270
_cell_angle_beta 117.726730
_cell_angle_gamma 129.742385
_cell_volume 670.817876
_symmetry_space_group_name_H-M "P -1"
_symmetry_group_IT_number 2
_symmetry_cell_setting 'triclinic'
loop_
_space_group_symop_operation_xyz
x,y,z
-x,-y,-z
loop_
_atom_site_type_symbol
_atom_site_label
_atom_site_fract_x
_atom_site_fract_y
_atom_site_fract_z
Si Si1 0.812925 0.934128 0.960183
Si Si2 0.976470 0.767403 0.414916
Si Si3 0.291969 0.576211 0.957891
Si Si4 0.400269 0.529829 0.796944
Si Si5 0.159557 0.699210 0.214262
Si Si6 0.572880 0.656401 0.527816
Si Si7 0.635443 0.106514 0.052145
Si Si8 0.977173 0.755696 0.784738
O O1 0.892928 0.872930 0.204614
O O2 0.698159 0.708975 0.074415
O O3 0.789630 0.112304 0.824974
O O4 0.893520 0.052317 0.740611
O O5 0.920099 0.546772 0.511766
O O6 0.977763 0.688113 0.679554
O O7 0.354699 0.446305 0.222273
O O8 0.150402 0.412528 0.050409
O O9 0.337769 0.620244 0.765066
O O10 0.339480 0.789430 0.869557
O O11 0.477049 0.665292 0.558991
O O12 0.500000 0.500000 0.000000
O O13 0.268010 0.708061 0.191290
O O14 0.077434 0.750879 0.976502
O O15 0.500000 0.500000 0.500000
O O16 0.661461 0.906964 0.278470
O O17 0.500000 0.000000 0.000000
O O18 0.000000 0.000000 0.500000
#
# Coordination Sequence:
#
# PCOD9051373 Si02
#       8
#     2   2   2   2   2   2   2   2
#     4  11  25  47  71 100 143 185 236 287 360 417
#     4  11  25  44  71 104 140 188 231 291 355 419
#     4  11  25  46  68 102 141 176 235 288 349 421
#     4  10  25  46  69 101 141 184 230 289 351 415
#     4  12  26  45  72 106 140 182 238 294 348 428
#     4  11  23  44  72  98 137 184 233 284 344 413
#     4  12  26  42  71 105 134 182 236 284 345 414
#     4  12  23  45  73 102 144 185 233 291 358 415
#
# _framework density 23.851481
#
# number of rings (size 3 to 8) (size 9 to 14) (size 15 to 20)
#    0.000    0.750    3.750    3.000    7.000    1.500 
#    0.000    0.000    0.000    0.000    0.000    0.000 
#    0.000    0.000    0.000    0.000    0.000    0.000 
#
# Total GULP energy -89546.410685 kJ/mol
# GULP energy per Si atom -5596.650668 kJ/mol
# Density = 2.379719 g / cm^3
# Si number density = 23.851481 Si / 1000 Ang^3
#
#
#
# Elastic Constant Matrix: (Units=GPa)
#
#
# Indices 1 2 3 4 5 6 
#
# 1 82.9173 34.4427 6.5836 10.8657 -14.6280 11.7305
# 2 34.4427 81.7393 -7.7158 -12.0683 -6.4614 0.6289
# 3 6.5836 -7.7158 58.1154 -7.1995 3.2446 8.9632
# 4 10.8657 -12.0683 -7.1995 40.7608 -3.8765 3.5544
# 5 -14.6280 -6.4614 3.2446 -3.8765 41.2759 -12.6907
# 6 11.7305 0.6289 8.9632 3.5544 -12.6907 47.1370
#
#
#
# Elastic Compliance Matrix: (Units=1/GPa)
#
#
# Indices 1 2 3 4 5 6 
#
# 1 0.017988 -0.008745 -0.004060 -0.007550 0.004021 -0.001936
# 2 -0.008745 0.017554 0.004238 0.008252 0.000271 0.000587
# 3 -0.004060 0.004238 0.019755 0.005893 -0.003023 -0.004061
# 4 -0.007550 0.008252 0.005893 0.030210 0.000533 -0.001486
# 5 0.004021 0.000271 -0.003023 0.000533 0.028170 0.007115
# 6 -0.001936 0.000587 -0.004061 -0.001486 0.007115 0.024488
#
#
# Mechanical properties :
#
#
# Convention : Reuss Voigt Hill
#
# Bulk Modulus (GPa) = 26.20354 32.15477 29.17916
# Shear Modulus (GPa) = 29.75849 38.46552 34.11200
#
# Velocity S-wave (km/s) = 3.53605 4.02021 3.78588
# Velocity P-wave (km/s) = 5.26132 5.92115 5.60096
#
# Compressibility (1/GPa) = 0.03816278
#
# Stress axis : x y z
#
# Youngs Moduli (GPa) = 55.59414 56.96706 50.62050
#
# Poissons Ratio (x) = 0.49816 0.20551
# Poissons Ratio (y) = 0.48615 -0.21452
# Poissons Ratio (z) = 0.22571 -0.24141
#
# Static dielectric constant tensor:
#      x y z
#    x 1.939140 -0.039900 -0.009950 
#    y -0.039900 1.981430 0.015280 
#    z -0.009950 0.015280 1.903910 
# 
# From -- ./inp_files/306299.got.cif
#   From: 2010.05.17/outbox.cif.g08.bks.cpg/sg2_154_cif.got.tgz:306299.got - 2010.06.03 11:33:40.
