data_PCOD9051090
_publ_section_title
;
Structure prediction by ZEFSAII (Michael W. Deem and Ramdas Pophale) SiO2 
 PCOD9051090
Probable space group: P -1
;
_chemical_formula_sum "Si O2"
_cell_formula_units_Z 14
_cell_length_a 14.637383
_cell_length_b 26.976902
_cell_length_c 15.328223
_cell_angle_alpha 20.017470
_cell_angle_beta 161.614236
_cell_angle_gamma 162.086810
_cell_volume 543.711809
_symmetry_space_group_name_H-M "P -1"
_symmetry_group_IT_number 2
_symmetry_cell_setting 'triclinic'
loop_
_space_group_symop_operation_xyz
x,y,z
-x,-y,-z
loop_
_atom_site_type_symbol
_atom_site_label
_atom_site_fract_x
_atom_site_fract_y
_atom_site_fract_z
Si Si1 0.547365 0.476216 0.421510
Si Si2 0.384688 0.170114 0.068268
Si Si3 0.378702 0.154603 0.898334
Si Si4 0.825344 0.824657 0.690415
Si Si5 0.286651 0.878388 0.182225
Si Si6 0.165646 0.457868 0.947975
Si Si7 0.447920 0.156941 0.339397
O O1 0.636997 0.662027 0.225959
O O2 0.455022 0.340684 0.638145
O O3 0.220060 0.406915 0.177042
O O4 0.841043 0.476869 0.628610
O O5 0.532112 0.166591 0.113583
O O6 0.560188 0.168446 0.320580
O O7 0.000000 0.000000 0.000000
O O8 0.958185 0.004780 0.759552
O O9 0.517637 0.088939 0.055536
O O10 0.448697 0.784843 0.436119
O O11 0.841084 0.675233 0.904718
O O12 0.000000 0.000000 0.500000
O O13 0.001305 0.853107 0.896981
O O14 0.309580 0.842244 0.366279
O O15 0.500496 0.655692 0.910178
#
# Coordination Sequence:
#
# PCOD9051090 Si02
#       7
#     2   2   2   2   2   2   2
#     4  11  24  46  71 108 137 186 234 291 345 415
#     4   9  22  46  73 103 142 187 230 287 352 419
#     4  11  23  46  72 104 145 184 238 290 344 414
#     4  12  25  46  70 104 137 188 232 290 353 414
#     4  12  25  43  71 101 142 183 236 284 347 416
#     4  11  26  46  73  99 148 181 236 290 352 415
#     4  10  25  45  69 105 141 186 233 282 358 409
#
# _framework density 25.748934999999999
#
# number of rings (size 3 to 8) (size 9 to 14) (size 15 to 20)
#    0.000    1.143    1.429    3.429    8.000    1.714 
#    7.714    3.571    0.000    0.000    0.000    0.000 
#    0.000    0.000    0.000    0.000    0.000    0.000 
#
# Total GULP energy -78219.621058 kJ/mol
# GULP energy per Si atom -5587.115790 kJ/mol
# Density = 2.569033 g / cm^3
# Si number density = 25.748935 Si / 1000 Ang^3
#
#
#
# Elastic Constant Matrix: (Units=GPa)
#
#
# Indices 1 2 3 4 5 6 
#
# 1 91.3423 37.6664 22.4829 -18.8075 -9.0068 -30.6521
# 2 37.6664 115.5891 30.1020 -20.2664 0.6760 -14.1151
# 3 22.4829 30.1020 116.3785 7.7961 -7.5833 -0.5592
# 4 -18.8075 -20.2664 7.7961 35.9803 -12.1431 6.8689
# 5 -9.0068 0.6760 -7.5833 -12.1431 67.1228 -8.2236
# 6 -30.6521 -14.1151 -0.5592 6.8689 -8.2236 40.6855
#
#
#
# Elastic Compliance Matrix: (Units=1/GPa)
#
#
# Indices 1 2 3 4 5 6 
#
# 1 0.019712 -0.002336 -0.003378 0.009008 0.005583 0.013602
# 2 -0.002336 0.011286 -0.002812 0.005652 0.000431 0.001250
# 3 -0.003378 -0.002812 0.010278 -0.005261 -0.000534 -0.002599
# 4 0.009008 0.005652 -0.005261 0.038823 0.008040 0.003745
# 5 0.005583 0.000431 -0.000534 0.008040 0.017845 0.006598
# 6 0.013602 0.001250 -0.002599 0.003745 0.006598 0.035925
#
#
# Mechanical properties :
#
#
# Convention : Reuss Voigt Hill
#
# Bulk Modulus (GPa) = 41.28356 55.97914 48.63135
# Shear Modulus (GPa) = 31.44692 44.29497 37.87095
#
# Velocity S-wave (km/s) = 3.49849 4.15211 3.83923
# Velocity P-wave (km/s) = 5.69097 6.69135 6.21133
#
# Compressibility (1/GPa) = 0.02422271
#
# Stress axis : x y z
#
# Youngs Moduli (GPa) = 50.72980 88.60457 97.29633
#
# Poissons Ratio (x) = 0.20699 0.32868
# Poissons Ratio (y) = 0.11851 0.27364
# Poissons Ratio (z) = 0.17137 0.24920
#
# Static dielectric constant tensor:
#      x y z
#    x 2.138660 0.107950 0.066430 
#    y 0.107950 2.047950 -0.026280 
#    z 0.066430 -0.026280 2.071280 
# 
# From -- ./inp_files/535716.got.cif
#   From: 2010.05.17/outbox.cif.g08.bks.cpg/sg2_268_cif.got.tgz:535716.got - 2010.06.03 11:33:40.
