data_PCOD9051684
_publ_section_title
;
Structure prediction by ZEFSAII (Michael W. Deem and Ramdas Pophale) SiO2 
 PCOD9051684
Probable space group: P -1
;
_chemical_formula_sum "Si O2"
_cell_formula_units_Z 14
_cell_length_a 11.580127
_cell_length_b 11.550404
_cell_length_c 11.837370
_cell_angle_alpha 95.000106
_cell_angle_beta 37.971992
_cell_angle_gamma 66.397067
_cell_volume 624.617296
_symmetry_space_group_name_H-M "P -1"
_symmetry_group_IT_number 2
_symmetry_cell_setting 'triclinic'
loop_
_space_group_symop_operation_xyz
x,y,z
-x,-y,-z
loop_
_atom_site_type_symbol
_atom_site_label
_atom_site_fract_x
_atom_site_fract_y
_atom_site_fract_z
Si Si1 0.774523 0.126141 0.926038
Si Si2 0.309925 0.694183 0.216709
Si Si3 0.215240 0.446152 0.001185
Si Si4 0.199594 0.992197 0.769348
Si Si5 0.123946 0.473027 0.525675
Si Si6 0.837318 0.853050 0.758761
Si Si7 0.795566 0.744134 0.178331
O O1 0.725875 0.192934 0.841901
O O2 0.026518 0.076109 0.791111
O O3 0.853832 0.953238 0.840379
O O4 0.470516 0.295615 0.238035
O O5 0.000967 0.801021 0.510255
O O6 0.500000 0.500000 0.000000
O O7 0.476884 0.662231 0.195472
O O8 0.007438 0.547032 0.279087
O O9 0.089195 0.583890 0.009655
O O10 0.212872 0.320228 0.937416
O O11 0.227184 0.107977 0.808416
O O12 0.534845 0.809362 0.460029
O O13 0.000000 0.000000 0.000000
O O14 0.000000 0.500000 0.500000
O O15 0.998987 0.660934 0.660968
O O16 0.500000 0.000000 0.000000
#
# Coordination Sequence:
#
# PCOD9051684 Si02
#       7
#     2   2   2   2   2   2   2
#     4  12  25  44  70 104 143 184 244 296 368 435
#     4  12  23  43  71 104 148 190 233 304 370 435
#     4  11  23  46  71 102 144 188 243 294 366 440
#     4  11  25  48  70 104 142 189 249 301 361 434
#     4  12  23  44  67 106 145 185 236 297 368 430
#     4  12  25  40  66 105 144 188 233 290 366 439
#     4  10  25  47  72 102 143 197 239 299 362 435
#
# _framework density 22.413724999999999
#
# number of rings (size 3 to 8) (size 9 to 14) (size 15 to 20)
#    0.000    0.571    4.286    3.000    2.000    1.143 
#    2.571    2.143    0.000    0.000    0.000    0.000 
#    0.000    0.000    0.000    0.000    0.000    0.000 
#
# Total GULP energy -78301.166481 kJ/mol
# GULP energy per Si atom -5592.940463 kJ/mol
# Density = 2.236271 g / cm^3
# Si number density = 22.413725 Si / 1000 Ang^3
#
#
#
# Elastic Constant Matrix: (Units=GPa)
#
#
# Indices 1 2 3 4 5 6 
#
# 1 115.9409 14.3912 19.1917 9.8135 5.6238 -3.0624
# 2 14.3912 61.7302 30.2134 8.7655 10.3217 14.2059
# 3 19.1917 30.2134 123.3770 -9.9597 -4.9951 -3.1135
# 4 9.8135 8.7655 -9.9597 40.9559 3.1156 0.4429
# 5 5.6238 10.3217 -4.9951 3.1156 33.5717 4.0254
# 6 -3.0624 14.2059 -3.1135 0.4429 4.0254 13.6217
#
#
#
# Elastic Compliance Matrix: (Units=1/GPa)
#
#
# Indices 1 2 3 4 5 6 
#
# 1 0.009435 -0.002291 -0.001002 -0.001958 -0.001415 0.004763
# 2 -0.002291 0.030445 -0.008737 -0.007307 -0.005721 -0.032335
# 3 -0.001002 -0.008737 0.011142 0.004490 0.002842 0.010447
# 4 -0.001958 -0.007307 0.004490 0.027476 -0.000191 0.007369
# 5 -0.001415 -0.005721 0.002842 -0.000191 0.032624 -0.003336
# 6 0.004763 -0.032335 0.010447 0.007369 -0.003336 0.111339
#
#
# Mechanical properties :
#
#
# Convention : Reuss Voigt Hill
#
# Bulk Modulus (GPa) = 37.08737 47.62674 42.35706
# Shear Modulus (GPa) = 19.56888 33.44663 26.50775
#
# Velocity S-wave (km/s) = 2.95799 3.86714 3.44271
# Velocity P-wave (km/s) = 5.31497 6.42143 5.89422
#
# Compressibility (1/GPa) = 0.02696335
#
# Stress axis : x y z
#
# Youngs Moduli (GPa) = 105.98333 32.84607 89.75227
#
# Poissons Ratio (x) = 0.07525 0.08992
# Poissons Ratio (y) = 0.24280 0.78414
# Poissons Ratio (z) = 0.10618 0.28697
#
# Static dielectric constant tensor:
#      x y z
#    x 1.837660 0.008060 0.015910 
#    y 0.008060 1.872630 -0.008590 
#    z 0.015910 -0.008590 1.872860 
# 
# From -- ./inp_files/426126.got.cif
#   From: 2010.05.17/outbox.cif.g08.bks.cpg/sg2_214_cif.got.tgz:426126.got - 2010.06.03 11:33:40.
