data_PCOD9051818
_publ_section_title
;
Structure prediction by ZEFSAII (Michael W. Deem and Ramdas Pophale) SiO2 
 PCOD9051818
Probable space group: P -1
;
_chemical_formula_sum "Si O2"
_cell_formula_units_Z 16
_cell_length_a 11.220623
_cell_length_b 13.946999
_cell_length_c 18.107188
_cell_angle_alpha 162.161398
_cell_angle_beta 48.402258
_cell_angle_gamma 130.539523
_cell_volume 647.147875
_symmetry_space_group_name_H-M "P -1"
_symmetry_group_IT_number 2
_symmetry_cell_setting 'triclinic'
loop_
_space_group_symop_operation_xyz
x,y,z
-x,-y,-z
loop_
_atom_site_type_symbol
_atom_site_label
_atom_site_fract_x
_atom_site_fract_y
_atom_site_fract_z
Si Si1 0.860512 0.190521 0.430526
Si Si2 0.570382 0.233962 0.368495
Si Si3 0.436114 0.254563 0.768767
Si Si4 0.335801 0.879329 0.295818
Si Si5 0.304168 0.106943 0.265135
Si Si6 0.982822 0.183420 0.541995
Si Si7 0.824546 0.893515 0.964492
Si Si8 0.856045 0.165562 0.999248
O O1 0.891415 0.193710 0.508476
O O2 0.813105 0.533897 0.683644
O O3 0.025803 0.105110 0.264511
O O4 0.725562 0.929865 0.270521
O O5 0.460008 0.125024 0.264280
O O6 0.664681 0.567675 0.556581
O O7 0.444229 0.187908 0.453041
O O8 0.700154 0.982735 0.142220
O O9 0.584046 0.272356 0.777311
O O10 0.500000 0.000000 0.500000
O O11 0.372419 0.586659 0.011326
O O12 0.155721 0.954484 0.445421
O O13 0.266765 0.847480 0.027319
O O14 0.153279 0.074302 0.360991
O O15 0.036418 0.514013 0.800024
O O16 0.784655 0.093946 0.056224
O O17 0.000000 0.000000 0.000000
#
# Coordination Sequence:
#
# PCOD9051818 Si02
#       8
#     2   2   2   2   2   2   2   2
#     4  11  22  36  63  96 136 168 212 260 330 396
#     4  11  25  47  65  98 133 169 224 276 315 381
#     4  11  22  38  59  95 141 173 204 256 335 405
#     4  11  25  39  66  96 135 173 211 270 328 383
#     4  10  25  48  69  89 129 177 228 272 314 376
#     4  11  21  45  66  95 130 172 218 269 321 387
#     4  12  23  38  66 102 134 164 216 268 329 398
#     4  11  22  41  68  93 127 178 214 268 325 382
#
# _framework density 24.723870999999999
#
# number of rings (size 3 to 8) (size 9 to 14) (size 15 to 20)
#    0.000    1.000    5.000    1.875    5.250    1.000 
#    0.000    0.625    0.000    0.000    0.000    0.000 
#    0.000    0.000    0.000    0.000    0.000    0.000 
#
# Total GULP energy -89306.257697 kJ/mol
# GULP energy per Si atom -5581.641106 kJ/mol
# Density = 2.466760 g / cm^3
# Si number density = 24.723871 Si / 1000 Ang^3
#
#
#
# Elastic Constant Matrix: (Units=GPa)
#
#
# Indices 1 2 3 4 5 6 
#
# 1 81.0535 26.5359 16.3953 -11.7258 0.3451 33.6240
# 2 26.5359 138.6859 36.5535 -14.1687 -11.9784 27.8796
# 3 16.3953 36.5535 75.7378 0.1413 -2.4854 4.9020
# 4 -11.7258 -14.1687 0.1413 35.7928 1.9291 -0.0625
# 5 0.3451 -11.9784 -2.4854 1.9291 33.7526 -4.5513
# 6 33.6240 27.8796 4.9020 -0.0625 -4.5513 38.2706
#
#
#
# Elastic Compliance Matrix: (Units=1/GPa)
#
#
# Indices 1 2 3 4 5 6 
#
# 1 0.022508 0.001576 -0.004413 0.008155 -0.003258 -0.020733
# 2 0.001576 0.010445 -0.004799 0.004549 0.001980 -0.008136
# 3 -0.004413 -0.004799 0.016150 -0.003424 0.000449 0.005353
# 4 0.008155 0.004549 -0.003424 0.032512 -0.001957 -0.010220
# 5 -0.003258 0.001980 0.000449 -0.001957 0.031192 0.005068
# 6 -0.020733 -0.008136 0.005353 -0.010220 0.005068 0.050173
#
#
# Mechanical properties :
#
#
# Convention : Reuss Voigt Hill
#
# Bulk Modulus (GPa) = 29.55930 50.49407 40.02669
# Shear Modulus (GPa) = 26.38103 35.96271 31.17187
#
# Velocity S-wave (km/s) = 3.27008 3.81803 3.55463
# Velocity P-wave (km/s) = 5.12246 6.31696 5.75081
#
# Compressibility (1/GPa) = 0.03383030
#
# Stress axis : x y z
#
# Youngs Moduli (GPa) = 44.42769 95.73627 61.92025
#
# Poissons Ratio (x) = -0.15089 0.27328
# Poissons Ratio (y) = -0.07002 0.29718
# Poissons Ratio (z) = 0.19608 0.45947
#
# Static dielectric constant tensor:
#      x y z
#    x 1.988840 -0.035380 0.016840 
#    y -0.035380 2.052470 -0.038010 
#    z 0.016840 -0.038010 2.056870 
# 
# From -- ./inp_files/69048.got.cif
#   From: 2010.05.17/outbox.cif.g08.bks.cpg/sg2_35_cif.got.tgz:69048.got - 2010.06.03 11:33:40.
