data_PCOD9051382
_publ_section_title
;
Structure prediction by ZEFSAII (Michael W. Deem and Ramdas Pophale) SiO2 
 PCOD9051382
Probable space group: P -1
;
_chemical_formula_sum "Si O2"
_cell_formula_units_Z 14
_cell_length_a 6.498071
_cell_length_b 16.213288
_cell_length_c 12.590480
_cell_angle_alpha 148.559441
_cell_angle_beta 114.543004
_cell_angle_gamma 63.294379
_cell_volume 616.643450
_symmetry_space_group_name_H-M "P -1"
_symmetry_group_IT_number 2
_symmetry_cell_setting 'triclinic'
loop_
_space_group_symop_operation_xyz
x,y,z
-x,-y,-z
loop_
_atom_site_type_symbol
_atom_site_label
_atom_site_fract_x
_atom_site_fract_y
_atom_site_fract_z
Si Si1 0.024932 0.476846 0.336815
Si Si2 0.140553 0.853920 0.009068
Si Si3 0.734851 0.055234 0.638010
Si Si4 0.231425 0.454581 0.132815
Si Si5 0.954266 0.245522 0.724388
Si Si6 0.686112 0.111947 0.148443
Si Si7 0.598377 0.574453 0.468030
O O1 0.057105 0.485658 0.229089
O O2 0.257797 0.487779 0.462868
O O3 0.807956 0.607679 0.475255
O O4 0.970342 0.303663 0.168268
O O5 0.270858 0.883438 0.176119
O O6 0.285079 0.844630 0.921114
O O7 0.931234 0.008196 0.121756
O O8 0.791676 0.188992 0.715713
O O9 0.500000 0.000000 0.500000
O O10 0.943803 0.902747 0.493532
O O11 0.475130 0.454365 0.241644
O O12 0.180480 0.602939 0.203656
O O13 0.169437 0.302213 0.891584
O O14 0.590229 0.268725 0.370950
O O15 0.500000 0.000000 0.000000
#
# Coordination Sequence:
#
# PCOD9051382 Si02
#       7
#     2   2   2   2   2   2   2
#     4  11  25  42  68 105 141 174 231 276 343 422
#     4  11  25  44  68 102 136 178 233 281 335 422
#     4  11  25  46  72  96 137 179 232 286 343 396
#     4  11  24  45  72  97 145 177 228 286 341 406
#     4  10  25  46  69 104 128 184 235 280 338 409
#     4  11  25  44  69  99 141 183 225 279 349 409
#     4  11  26  41  70 102 137 184 222 278 351 407
#
# _framework density 22.703558000000001
#
# number of rings (size 3 to 8) (size 9 to 14) (size 15 to 20)
#    0.000    1.143    2.857    1.286    8.000    5.714 
#    0.000    2.857    0.000    0.000    0.000    0.000 
#    0.000    0.000    0.000    0.000    0.000    0.000 
#
# Total GULP energy -78355.701857 kJ/mol
# GULP energy per Si atom -5596.835847 kJ/mol
# Density = 2.265188 g / cm^3
# Si number density = 22.703558 Si / 1000 Ang^3
#
#
#
# Elastic Constant Matrix: (Units=GPa)
#
#
# Indices 1 2 3 4 5 6 
#
# 1 104.9486 58.0228 46.1329 1.0384 6.2075 4.2473
# 2 58.0228 107.7485 58.5589 -4.7735 12.8488 18.9679
# 3 46.1329 58.5589 136.0383 -19.5765 13.0826 6.4090
# 4 1.0384 -4.7735 -19.5765 38.2741 -3.8608 3.8279
# 5 6.2075 12.8488 13.0826 -3.8608 52.2259 3.7880
# 6 4.2473 18.9679 6.4090 3.8279 3.7880 34.1435
#
#
#
# Elastic Compliance Matrix: (Units=1/GPa)
#
#
# Indices 1 2 3 4 5 6 
#
# 1 0.014410 -0.007129 -0.002373 -0.002761 0.000221 0.002898
# 2 -0.007129 0.017030 -0.004288 0.000723 -0.001659 -0.007666
# 3 -0.002373 -0.004288 0.010799 0.004929 -0.001019 0.000211
# 4 -0.002761 0.000723 0.004929 0.029400 0.001411 -0.004436
# 5 0.000221 -0.001659 -0.001019 0.001411 0.019982 -0.001290
# 6 0.002898 -0.007666 0.000211 -0.004436 -0.001290 0.033787
#
#
# Mechanical properties :
#
#
# Convention : Reuss Voigt Hill
#
# Bulk Modulus (GPa) = 68.22277 74.90716 71.56497
# Shear Modulus (GPa) = 31.67066 37.33008 34.50037
#
# Velocity S-wave (km/s) = 3.73897 4.05932 3.90244
# Velocity P-wave (km/s) = 6.98244 7.41862 7.20384
#
# Compressibility (1/GPa) = 0.01465786
#
# Stress axis : x y z
#
# Youngs Moduli (GPa) = 69.39629 58.72058 92.60148
#
# Poissons Ratio (x) = 0.41862 0.21976
# Poissons Ratio (y) = 0.49473 0.39710
# Poissons Ratio (z) = 0.16469 0.25181
#
# Static dielectric constant tensor:
#      x y z
#    x 1.854670 -0.022200 -0.007710 
#    y -0.022200 1.822940 0.033340 
#    z -0.007710 0.033340 1.853260 
# 
# From -- ./inp_files/368177.got.cif
#   From: 2010.05.17/outbox.cif.g08.bks.cpg/sg2_185_cif.got.tgz:368177.got - 2010.06.03 11:33:40.
