data_PCOD9051959
_publ_section_title
;
Structure prediction by ZEFSAII (Michael W. Deem and Ramdas Pophale) SiO2 
 PCOD9051959
Probable space group: P -1
;
_chemical_formula_sum "Si O2"
_cell_formula_units_Z 16
_cell_length_a 12.993254
_cell_length_b 13.347937
_cell_length_c 14.197074
_cell_angle_alpha 55.151836
_cell_angle_beta 148.176715
_cell_angle_gamma 148.915762
_cell_volume 548.903965
_symmetry_space_group_name_H-M "P -1"
_symmetry_group_IT_number 2
_symmetry_cell_setting 'triclinic'
loop_
_space_group_symop_operation_xyz
x,y,z
-x,-y,-z
loop_
_atom_site_type_symbol
_atom_site_label
_atom_site_fract_x
_atom_site_fract_y
_atom_site_fract_z
Si Si1 0.744597 0.046881 0.314234
Si Si2 0.281700 0.693099 0.889550
Si Si3 0.831323 0.108915 0.560640
Si Si4 0.061101 0.451555 0.663937
Si Si5 0.144738 0.223146 0.257913
Si Si6 0.300105 0.435566 0.076767
Si Si7 0.486705 0.653904 0.332458
Si Si8 0.937182 0.860413 0.100132
O O1 0.771364 0.189415 0.203839
O O2 0.641165 0.017473 0.359822
O O3 0.157963 0.210362 0.524454
O O4 0.468299 0.785074 0.216314
O O5 0.043169 0.527297 0.700601
O O6 0.215190 0.532035 0.983960
O O7 0.735016 0.943167 0.094948
O O8 0.793869 0.200922 0.553147
O O9 0.267976 0.339871 0.741652
O O10 0.811713 0.994538 0.687646
O O11 0.000000 0.500000 0.500000
O O12 0.496514 0.638418 0.905632
O O13 0.251523 0.309466 0.187599
O O14 0.168858 0.379221 0.226789
O O15 0.392293 0.283634 0.495756
O O16 0.047680 0.255416 0.889133
O O17 0.000000 0.000000 0.000000
#
# Coordination Sequence:
#
# PCOD9051959 Si02
#       8
#     2   2   2   2   2   2   2   2
#     4  11  24  44  75  98 136 187 224 293 354 397
#     4  12  24  43  70 104 142 177 223 288 354 404
#     4  11  20  41  70  95 136 181 224 267 335 413
#     4  11  21  40  63  99 139 174 216 269 339 414
#     4  11  25  46  74  97 136 178 235 295 337 405
#     4  11  22  42  68 102 136 183 225 275 341 420
#     4  10  25  49  69  99 132 180 246 285 341 415
#     4  11  23  39  69 100 138 183 231 270 334 416
#
# _framework density 29.148996
#
# number of rings (size 3 to 8) (size 9 to 14) (size 15 to 20)
#    0.000    1.000    5.000    2.250    3.500    1.000 
#    4.500    1.875    0.000    0.000    0.000    0.000 
#    0.000    0.000    0.000    0.000    0.000    0.000 
#
# Total GULP energy -89399.003859 kJ/mol
# GULP energy per Si atom -5587.437741 kJ/mol
# Density = 2.908265 g / cm^3
# Si number density = 29.148996 Si / 1000 Ang^3
#
#
#
# Elastic Constant Matrix: (Units=GPa)
#
#
# Indices 1 2 3 4 5 6 
#
# 1 118.6638 53.8445 21.5249 1.9806 -25.2688 -2.3265
# 2 53.8445 206.4031 27.2535 -21.2133 14.7218 -12.2549
# 3 21.5249 27.2535 49.6885 1.6748 -3.2379 -2.6243
# 4 1.9806 -21.2133 1.6748 64.1409 -8.4847 -1.4175
# 5 -25.2688 14.7218 -3.2379 -8.4847 45.6968 -12.8108
# 6 -2.3265 -12.2549 -2.6243 -1.4175 -12.8108 63.6918
#
#
#
# Elastic Compliance Matrix: (Units=1/GPa)
#
#
# Indices 1 2 3 4 5 6 
#
# 1 0.012159 -0.003315 -0.002857 -0.000326 0.007884 0.001267
# 2 -0.003315 0.006498 -0.002411 0.001837 -0.003663 0.000334
# 3 -0.002857 -0.002411 0.022799 -0.001197 0.000728 0.000491
# 4 -0.000326 0.001837 -0.001197 0.016604 0.002555 0.001176
# 5 0.007884 -0.003663 0.000728 0.002555 0.029521 0.005608
# 6 0.001267 0.000334 0.000491 0.001176 0.005608 0.016985
#
#
# Mechanical properties :
#
#
# Convention : Reuss Voigt Hill
#
# Bulk Modulus (GPa) = 41.17027 64.44459 52.80743
# Shear Modulus (GPa) = 38.51228 52.84807 45.68017
#
# Velocity S-wave (km/s) = 3.63880 4.26259 3.96299
# Velocity P-wave (km/s) = 5.63997 6.81050 6.25269
#
# Compressibility (1/GPa) = 0.02428937
#
# Stress axis : x y z
#
# Youngs Moduli (GPa) = 82.24495 153.89418 43.86142
#
# Poissons Ratio (x) = 0.51020 0.12532
# Poissons Ratio (y) = 0.27266 0.10574
# Poissons Ratio (z) = 0.23498 0.37102
#
# Static dielectric constant tensor:
#      x y z
#    x 2.373630 -0.074100 0.069560 
#    y -0.074100 2.332820 -0.070790 
#    z 0.069560 -0.070790 2.336500 
# 
# From -- ./inp_files/534348.got.cif
#   From: 2010.05.17/outbox.cif.g08.bks.cpg/sg2_268_cif.got.tgz:534348.got - 2010.06.03 11:33:40.
