data_PCOD9051309
_publ_section_title
;
Structure prediction by ZEFSAII (Michael W. Deem and Ramdas Pophale) SiO2 
 PCOD9051309
Probable space group: P -1
;
_chemical_formula_sum "Si O2"
_cell_formula_units_Z 12
_cell_length_a 22.341367
_cell_length_b 9.039985
_cell_length_c 9.744606
_cell_angle_alpha 38.228705
_cell_angle_beta 146.484864
_cell_angle_gamma 150.667750
_cell_volume 519.653263
_symmetry_space_group_name_H-M "P -1"
_symmetry_group_IT_number 2
_symmetry_cell_setting 'triclinic'
loop_
_space_group_symop_operation_xyz
x,y,z
-x,-y,-z
loop_
_atom_site_type_symbol
_atom_site_label
_atom_site_fract_x
_atom_site_fract_y
_atom_site_fract_z
Si Si1 0.364207 0.151085 0.492527
Si Si2 0.323501 0.885873 0.886961
Si Si3 0.428609 0.902158 0.582369
Si Si4 0.933702 0.134789 0.181312
Si Si5 0.878997 0.832831 0.999765
Si Si6 0.675160 0.730624 0.175647
O O1 0.500000 0.500000 0.500000
O O2 0.233161 0.129545 0.289296
O O3 0.375405 0.985085 0.759536
O O4 0.355544 0.028589 0.414768
O O5 0.288639 0.090674 0.742776
O O6 0.195305 0.527323 0.890784
O O7 0.444976 0.961566 0.166118
O O8 0.312574 0.535264 0.619942
O O9 0.500000 0.000000 0.500000
O O10 0.786349 0.983546 0.092086
O O11 0.000000 0.000000 0.500000
O O12 0.000000 0.500000 0.000000
O O13 0.917476 0.973795 0.122876
O O14 0.000000 0.000000 0.000000
O O15 0.500000 0.500000 0.000000
#
# Coordination Sequence:
#
# PCOD9051309 Si02
#       6
#     2   2   2   2   2   2
#     4  12  26  45  78 109 150 196 255 325 397 463
#     4  11  25  47  75 109 152 194 260 314 399 460
#     4  11  24  43  75 116 156 195 258 330 395 468
#     4  12  31  55  81 114 164 215 270 330 410 484
#     4  12  30  50  77 108 155 207 261 322 394 482
#     4  10  25  45  81 113 154 202 266 328 393 468
#
# _framework density 23.092323
#
# number of rings (size 3 to 8) (size 9 to 14) (size 15 to 20)
#    0.000    0.667    1.667    3.500   16.333    0.667 
#    0.000    0.000    0.000    0.000    0.000    0.000 
#    0.000    0.000    0.000    0.000    0.000    0.000 
#
# Total GULP energy -66885.533680 kJ/mol
# GULP energy per Si atom -5573.794473 kJ/mol
# Density = 2.303976 g / cm^3
# Si number density = 23.092323 Si / 1000 Ang^3
#
#
#
# Elastic Constant Matrix: (Units=GPa)
#
#
# Indices 1 2 3 4 5 6 
#
# 1 203.7337 99.3922 42.6772 5.6272 -12.9363 7.6754
# 2 99.3922 183.0719 54.9197 -33.8367 -13.5701 -5.8113
# 3 42.6772 54.9197 98.9290 7.9698 -22.0841 11.8331
# 4 5.6272 -33.8367 7.9698 32.4640 -2.1297 -1.8496
# 5 -12.9363 -13.5701 -22.0841 -2.1297 48.9236 -5.4878
# 6 7.6754 -5.8113 11.8331 -1.8496 -5.4878 67.7221
#
#
#
# Elastic Compliance Matrix: (Units=1/GPa)
#
#
# Indices 1 2 3 4 5 6 
#
# 1 0.008043 -0.006173 0.000885 -0.008130 0.000258 -0.001797
# 2 -0.006173 0.014475 -0.007206 0.018161 0.000338 0.003724
# 3 0.000885 -0.007206 0.016099 -0.011511 0.004612 -0.003472
# 4 -0.008130 0.018161 -0.011511 0.054359 0.000734 0.006035
# 5 0.000258 0.000338 0.004612 0.000734 0.022835 0.001064
# 6 -0.001797 0.003724 -0.003472 0.006035 0.001064 0.016147
#
#
# Mechanical properties :
#
#
# Convention : Reuss Voigt Hill
#
# Bulk Modulus (GPa) = 73.37046 97.74587 85.55816
# Shear Modulus (GPa) = 30.96164 49.07165 40.01665
#
# Velocity S-wave (km/s) = 3.66563 4.61480 4.16733
# Velocity P-wave (km/s) = 7.05390 8.41518 7.76443
#
# Compressibility (1/GPa) = 0.01362946
#
# Stress axis : x y z
#
# Youngs Moduli (GPa) = 124.33003 69.08398 62.11531
#
# Poissons Ratio (x) = 0.42644 -0.05495
# Poissons Ratio (y) = 0.76745 0.44759
# Poissons Ratio (z) = -0.10998 0.49781
#
# Static dielectric constant tensor:
#      x y z
#    x 1.853460 0.001700 0.077600 
#    y 0.001700 1.901860 0.009340 
#    z 0.077600 0.009340 2.164190 
# 
# From -- ./inp_files/90891.got.cif
#   From: 2010.05.17/outbox.cif.g08.bks.cpg/sg2_46_cif.got.tgz:90891.got - 2010.06.03 11:33:40.
