data_PCOD9051923
_publ_section_title
;
Structure prediction by ZEFSAII (Michael W. Deem and Ramdas Pophale) SiO2 
 PCOD9051923
Probable space group: P -1
;
_chemical_formula_sum "Si O2"
_cell_formula_units_Z 14
_cell_length_a 11.578069
_cell_length_b 9.612566
_cell_length_c 8.605366
_cell_angle_alpha 121.390137
_cell_angle_beta 38.777144
_cell_angle_gamma 117.670708
_cell_volume 508.975453
_symmetry_space_group_name_H-M "P -1"
_symmetry_group_IT_number 2
_symmetry_cell_setting 'triclinic'
loop_
_space_group_symop_operation_xyz
x,y,z
-x,-y,-z
loop_
_atom_site_type_symbol
_atom_site_label
_atom_site_fract_x
_atom_site_fract_y
_atom_site_fract_z
Si Si1 0.211917 0.731663 0.336666
Si Si2 0.783222 0.491119 0.538918
Si Si3 0.459759 0.997409 0.853715
Si Si4 0.020333 0.191866 0.626284
Si Si5 0.875039 0.899821 0.940297
Si Si6 0.431942 0.302248 0.635119
Si Si7 0.914005 0.622327 0.048169
O O1 0.227971 0.554870 0.293588
O O2 0.166604 0.740706 0.206151
O O3 0.029460 0.808259 0.635412
O O4 0.390947 0.851079 0.266591
O O5 0.603110 0.398708 0.596320
O O6 0.819909 0.677126 0.545262
O O7 0.955035 0.395435 0.245274
O O8 0.511033 0.831647 0.623411
O O9 0.262151 0.024620 0.997733
O O10 0.500000 0.000000 0.000000
O O11 0.055716 0.212325 0.785084
O O12 0.000000 0.000000 0.500000
O O13 0.720635 0.788942 0.140060
O O14 0.000000 0.000000 0.000000
O O15 0.303435 0.424330 0.761778
O O16 0.000000 0.500000 0.000000
#
# Coordination Sequence:
#
# PCOD9051923 Si02
#       7
#     2   2   2   2   2   2   2
#     4  12  25  47  78 113 163 214 271 333 410 489
#     4  11  25  51  79 111 159 217 279 329 400 497
#     4  12  29  44  74 131 174 209 274 353 414 479
#     4  11  27  47  77 114 160 210 263 337 416 476
#     4  12  25  45  77 118 163 222 277 328 406 505
#     4  12  24  46  80 113 159 217 278 333 404 499
#     4  10  25  48  76 112 154 210 263 335 407 484
#
# _framework density 27.506236999999999
#
# number of rings (size 3 to 8) (size 9 to 14) (size 15 to 20)
#    0.000    0.571    4.286    2.571    6.000    2.286 
#    0.000    3.571    0.000    0.000    0.000    0.000 
#    0.000    0.000    0.000    0.000    0.000    0.000 
#
# Total GULP energy -78347.711747 kJ/mol
# GULP energy per Si atom -5596.265125 kJ/mol
# Density = 2.744363 g / cm^3
# Si number density = 27.506237 Si / 1000 Ang^3
#
#
#
# Elastic Constant Matrix: (Units=GPa)
#
#
# Indices 1 2 3 4 5 6 
#
# 1 235.3098 74.4038 65.2493 -8.8692 -29.1693 12.5986
# 2 74.4038 154.5036 58.3880 -12.7298 -2.1540 10.0142
# 3 65.2493 58.3880 114.6859 1.5967 -20.6744 7.8522
# 4 -8.8692 -12.7298 1.5967 48.0355 7.0154 -4.5264
# 5 -29.1693 -2.1540 -20.6744 7.0154 60.1909 -9.6485
# 6 12.5986 10.0142 7.8522 -4.5264 -9.6485 68.7752
#
#
#
# Elastic Compliance Matrix: (Units=1/GPa)
#
#
# Indices 1 2 3 4 5 6 
#
# 1 0.005648 -0.001954 -0.001852 0.000277 0.001959 -0.000246
# 2 -0.001954 0.009120 -0.003947 0.002469 -0.002374 -0.000690
# 3 -0.001852 -0.003947 0.012455 -0.002327 0.003483 -0.000173
# 4 0.000277 0.002469 -0.002327 0.022125 -0.003013 0.000889
# 5 0.001959 -0.002374 0.003483 -0.003013 0.019363 0.002107
# 6 -0.000246 -0.000690 -0.000173 0.000889 0.002107 0.015059
#
#
# Mechanical properties :
#
#
# Convention : Reuss Voigt Hill
#
# Bulk Modulus (GPa) = 85.34875 100.06460 92.70667
# Shear Modulus (GPa) = 48.45913 55.83086 52.14499
#
# Velocity S-wave (km/s) = 4.20187 4.51017 4.35875
# Velocity P-wave (km/s) = 7.39170 7.97370 7.68821
#
# Compressibility (1/GPa) = 0.01171663
#
# Stress axis : x y z
#
# Youngs Moduli (GPa) = 177.06906 109.65399 80.29124
#
# Poissons Ratio (x) = 0.21421 0.14873
# Poissons Ratio (y) = 0.34591 0.31688
# Poissons Ratio (z) = 0.32801 0.43276
#
# Static dielectric constant tensor:
#      x y z
#    x 2.377640 -0.045040 0.247870 
#    y -0.045040 2.271710 -0.057240 
#    z 0.247870 -0.057240 2.360390 
# 
# From -- ./inp_files/253416.got.cif
#   From: 2010.05.17/outbox.cif.g08.bks.cpg/sg2_127_cif.got.tgz:253416.got - 2010.06.03 11:33:40.
