data_PCOD9051895
_publ_section_title
;
Structure prediction by ZEFSAII (Michael W. Deem and Ramdas Pophale) SiO2 
 PCOD9051895
Probable space group: P -1
;
_chemical_formula_sum "Si O2"
_cell_formula_units_Z 12
_cell_length_a 11.804671
_cell_length_b 10.564340
_cell_length_c 9.157304
_cell_angle_alpha 73.633392
_cell_angle_beta 133.859659
_cell_angle_gamma 69.249627
_cell_volume 479.936517
_symmetry_space_group_name_H-M "P -1"
_symmetry_group_IT_number 2
_symmetry_cell_setting 'triclinic'
loop_
_space_group_symop_operation_xyz
x,y,z
-x,-y,-z
loop_
_atom_site_type_symbol
_atom_site_label
_atom_site_fract_x
_atom_site_fract_y
_atom_site_fract_z
Si Si1 0.328132 0.692579 0.511714
Si Si2 0.008969 0.105547 0.594298
Si Si3 0.072630 0.364110 0.469043
Si Si4 0.177697 0.534156 0.066335
Si Si5 0.489789 0.845593 0.282147
Si Si6 0.150554 0.107288 0.139687
O O1 0.624665 0.482799 0.800029
O O2 0.252931 0.720431 0.602086
O O3 0.259022 0.891485 0.350325
O O4 0.133115 0.731157 0.234623
O O5 0.053741 0.222715 0.537410
O O6 0.000000 0.000000 0.500000
O O7 0.250391 0.919977 0.980372
O O8 0.350879 0.208823 0.696021
O O9 0.000000 0.500000 0.500000
O O10 0.874073 0.516177 0.107778
O O11 0.310011 0.367318 0.369687
O O12 0.907529 0.769606 0.809321
O O13 0.334826 0.039529 0.198479
#
# Coordination Sequence:
#
# PCOD9051895 Si02
#       6
#     2   2   2   2   2   2
#     4   9  20  38  66 109 138 178 235 307 352 419
#     4  11  25  48  75 105 148 194 238 296 370 428
#     4  12  29  48  69 110 153 192 236 297 373 432
#     4  11  23  44  76 102 140 191 246 296 354 431
#     4  10  25  48  74 105 145 192 244 299 353 438
#     4   9  19  40  70 107 138 178 245 302 355 407
#
# _framework density 25.003307
#
# number of rings (size 3 to 8) (size 9 to 14) (size 15 to 20)
#    0.000    1.667    0.000    3.500    7.000    2.667 
#    6.000    0.000    0.000    0.000    0.000    0.000 
#    0.000    0.000    0.000    0.000    0.000    0.000 
#
# Total GULP energy -67173.323117 kJ/mol
# GULP energy per Si atom -5597.776926 kJ/mol
# Density = 2.494640 g / cm^3
# Si number density = 25.003307 Si / 1000 Ang^3
#
#
#
# Elastic Constant Matrix: (Units=GPa)
#
#
# Indices 1 2 3 4 5 6 
#
# 1 170.4179 88.0952 34.2619 -13.3518 33.4480 -41.2084
# 2 88.0952 193.1040 40.4434 5.2622 -0.1777 -26.4221
# 3 34.2619 40.4434 96.5550 6.9813 -1.0690 -9.1255
# 4 -13.3518 5.2622 6.9813 26.5494 -15.7325 0.4581
# 5 33.4480 -0.1777 -1.0690 -15.7325 49.6665 -13.8272
# 6 -41.2084 -26.4221 -9.1255 0.4581 -13.8272 47.3927
#
#
#
# Elastic Compliance Matrix: (Units=1/GPa)
#
#
# Indices 1 2 3 4 5 6 
#
# 1 0.010802 -0.003864 -0.002032 0.003936 -0.004560 0.005478
# 2 -0.003864 0.007471 -0.001497 -0.001610 0.002433 0.001242
# 3 -0.002032 -0.001497 0.011958 -0.003606 0.000440 -0.000136
# 4 0.003936 -0.001610 -0.003606 0.049385 0.014461 0.005572
# 5 -0.004560 0.002433 0.000440 0.014461 0.029455 0.005930
# 6 0.005478 0.001242 -0.000136 0.005572 0.005930 0.028206
#
#
# Mechanical properties :
#
#
# Convention : Reuss Voigt Hill
#
# Bulk Modulus (GPa) = 64.74957 87.29756 76.02356
# Shear Modulus (GPa) = 31.80398 44.54014 38.17206
#
# Velocity S-wave (km/s) = 3.57037 4.22521 3.91151
# Velocity P-wave (km/s) = 6.55357 7.66768 7.13241
#
# Compressibility (1/GPa) = 0.01544412
#
# Stress axis : x y z
#
# Youngs Moduli (GPa) = 92.57408 133.84730 83.62790
#
# Poissons Ratio (x) = 0.51723 0.16991
# Poissons Ratio (y) = 0.35774 0.12523
# Poissons Ratio (z) = 0.18809 0.20042
#
# Static dielectric constant tensor:
#      x y z
#    x 2.020670 0.001300 -0.010770 
#    y 0.001300 1.975790 -0.008230 
#    z -0.010770 -0.008230 2.017820 
# 
# From -- ./inp_files/258243.got.cif
#   From: 2010.05.17/outbox.cif.g08.bks.cpg/sg2_130_cif.got.tgz:258243.got - 2010.06.03 11:33:40.
