data_PCOD9051498
_publ_section_title
;
Structure prediction by ZEFSAII (Michael W. Deem and Ramdas Pophale) SiO2 
 PCOD9051498
Probable space group: P -1
;
_chemical_formula_sum "Si O2"
_cell_formula_units_Z 12
_cell_length_a 16.109249
_cell_length_b 5.455521
_cell_length_c 12.192969
_cell_angle_alpha 70.787713
_cell_angle_beta 146.201401
_cell_angle_gamma 121.259486
_cell_volume 497.656462
_symmetry_space_group_name_H-M "P -1"
_symmetry_group_IT_number 2
_symmetry_cell_setting 'triclinic'
loop_
_space_group_symop_operation_xyz
x,y,z
-x,-y,-z
loop_
_atom_site_type_symbol
_atom_site_label
_atom_site_fract_x
_atom_site_fract_y
_atom_site_fract_z
Si Si1 0.141717 0.835045 0.097648
Si Si2 0.355608 0.994681 0.099100
Si Si3 0.632503 0.410797 0.015370
Si Si4 0.855955 0.407618 0.445814
Si Si5 0.857133 0.976166 0.695579
Si Si6 0.683880 0.555190 0.395944
O O1 0.275318 0.870811 0.146607
O O2 0.207565 0.950472 0.274185
O O3 0.000000 0.500000 0.000000
O O4 0.039278 0.005806 0.919170
O O5 0.556465 0.207413 0.300081
O O6 0.319145 0.740595 0.008859
O O7 0.292965 0.234412 0.960212
O O8 0.689129 0.326448 0.202121
O O9 0.433916 0.313243 0.801080
O O10 0.847543 0.638956 0.489018
O O11 0.000000 0.500000 0.500000
O O12 0.868758 0.178529 0.576050
O O13 0.735041 0.655641 0.561033
#
# Coordination Sequence:
#
# PCOD9051498 Si02
#       6
#     2   2   2   2   2   2
#     4  11  26  47  75 104 154 193 253 310 370 441
#     4  10  25  47  76 109 147 199 242 302 372 438
#     4  10  25  46  76 109 154 193 242 300 377 438
#     4  12  26  44  73 110 152 192 250 303 372 445
#     4  11  26  45  72 109 144 201 247 310 372 436
#     4  10  25  46  72 112 150 192 248 300 379 442
#
# _framework density 24.113019999999999
#
# number of rings (size 3 to 8) (size 9 to 14) (size 15 to 20)
#    1.000    0.333    0.000    3.500   11.667    2.667 
#    0.000    4.167    0.000    0.000    0.000    0.000 
#    0.000    0.000    0.000    0.000    0.000    0.000 
#
# Total GULP energy -67064.514788 kJ/mol
# GULP energy per Si atom -5588.709566 kJ/mol
# Density = 2.405814 g / cm^3
# Si number density = 24.113020 Si / 1000 Ang^3
#
#
#
# Elastic Constant Matrix: (Units=GPa)
#
#
# Indices 1 2 3 4 5 6 
#
# 1 195.2504 67.0683 37.8593 -1.5244 -18.6930 -15.5817
# 2 67.0683 91.0063 26.4874 -11.5170 -7.6541 -17.8255
# 3 37.8593 26.4874 113.5471 -16.0055 -23.1511 -3.3026
# 4 -1.5244 -11.5170 -16.0055 34.6973 -7.6840 -9.7389
# 5 -18.6930 -7.6541 -23.1511 -7.6840 34.9581 3.6523
# 6 -15.5817 -17.8255 -3.3026 -9.7389 3.6523 44.8173
#
#
#
# Elastic Compliance Matrix: (Units=1/GPa)
#
#
# Indices 1 2 3 4 5 6 
#
# 1 0.007218 -0.005058 -0.001093 -0.001502 0.001704 -0.000048
# 2 -0.005058 0.017277 -0.000834 0.007276 0.001445 0.006515
# 3 -0.001093 -0.000834 0.012299 0.007645 0.008941 0.001127
# 4 -0.001502 0.007276 0.007645 0.040723 0.013690 0.010669
# 5 0.001704 0.001445 0.008941 0.013690 0.038590 0.001656
# 6 -0.000048 0.006515 0.001127 0.010669 0.001656 0.027154
#
#
# Mechanical properties :
#
#
# Convention : Reuss Voigt Hill
#
# Bulk Modulus (GPa) = 43.81099 73.62597 58.71848
# Shear Modulus (GPa) = 30.33256 40.78712 35.55984
#
# Velocity S-wave (km/s) = 3.55058 4.11724 3.84437
# Velocity P-wave (km/s) = 5.91754 7.29399 6.64152
#
# Compressibility (1/GPa) = 0.02282532
#
# Stress axis : x y z
#
# Youngs Moduli (GPa) = 138.53425 57.88066 81.30598
#
# Poissons Ratio (x) = 0.29275 0.08884
# Poissons Ratio (y) = 0.70068 0.06782
# Poissons Ratio (z) = 0.15137 0.04828
#
# Static dielectric constant tensor:
#      x y z
#    x 1.896030 -0.042520 0.031780 
#    y -0.042520 2.046420 -0.010430 
#    z 0.031780 -0.010430 1.912380 
# 
# From -- ./inp_files/129827.got.cif
#   From: 2010.05.17/outbox.cif.g08.bks.cpg/sg2_65_cif.got.tgz:129827.got - 2010.06.03 11:33:40.
