data_PCOD9051696
_publ_section_title
;
Structure prediction by ZEFSAII (Michael W. Deem and Ramdas Pophale) SiO2 
 PCOD9051696
Probable space group: P -1
;
_chemical_formula_sum "Si O2"
_cell_formula_units_Z 10
_cell_length_a 6.683073
_cell_length_b 7.688524
_cell_length_c 12.236122
_cell_angle_alpha 64.148105
_cell_angle_beta 61.051642
_cell_angle_gamma 108.621382
_cell_volume 365.982889
_symmetry_space_group_name_H-M "P -1"
_symmetry_group_IT_number 2
_symmetry_cell_setting 'triclinic'
loop_
_space_group_symop_operation_xyz
x,y,z
-x,-y,-z
loop_
_atom_site_type_symbol
_atom_site_label
_atom_site_fract_x
_atom_site_fract_y
_atom_site_fract_z
Si Si1 0.430655 0.429650 0.165471
Si Si2 0.097756 0.864242 0.878662
Si Si3 0.647805 0.220669 0.806425
Si Si4 0.494582 0.163060 0.360576
Si Si5 0.813124 0.740927 0.409284
O O1 0.261250 0.521642 0.232833
O O2 0.322909 0.149363 0.296337
O O3 0.500000 0.500000 0.000000
O O4 0.767842 0.628967 0.082291
O O5 0.204592 0.749804 0.805119
O O6 0.372091 0.073141 0.831320
O O7 0.043210 0.014489 0.773932
O O8 0.950076 0.301742 0.648634
O O9 0.500000 0.000000 0.000000
O O10 0.336349 0.244013 0.449993
O O11 0.500000 0.000000 0.500000
O O12 0.500000 0.500000 0.500000
#
# Coordination Sequence:
#
# PCOD9051696 Si02
#       5
#     2   2   2   2   2
#     4  12  26  46  80 112 150 204 257 305 380 455
#     4  11  25  48  74 108 152 200 252 311 372 461
#     4  12  26  46  77 110 153 197 256 310 378 453
#     4  10  25  47  72 106 156 195 248 310 378 438
#     4  11  26  46  74 111 151 198 250 314 383 443
#
# _framework density 27.323682000000002
#
# number of rings (size 3 to 8) (size 9 to 14) (size 15 to 20)
#    0.000    0.800    2.000    3.600    5.600    4.000 
#    3.600    0.000    0.000    0.000    0.000    0.000 
#    0.000    0.000    0.000    0.000    0.000    0.000 
#
# Total GULP energy -55735.760627 kJ/mol
# GULP energy per Si atom -5573.576063 kJ/mol
# Density = 2.726149 g / cm^3
# Si number density = 27.323682 Si / 1000 Ang^3
#
#
#
# Elastic Constant Matrix: (Units=GPa)
#
#
# Indices 1 2 3 4 5 6 
#
# 1 163.5000 65.8772 72.8558 23.5894 9.6544 -24.2735
# 2 65.8772 104.8947 48.5756 30.1920 -27.6750 -37.7988
# 3 72.8558 48.5756 134.7155 28.9098 -13.5849 -23.6820
# 4 23.5894 30.1920 28.9098 56.0985 -14.7613 -11.1589
# 5 9.6544 -27.6750 -13.5849 -14.7613 86.2713 -5.6998
# 6 -24.2735 -37.7988 -23.6820 -11.1589 -5.6998 65.5318
#
#
#
# Elastic Compliance Matrix: (Units=1/GPa)
#
#
# Indices 1 2 3 4 5 6 
#
# 1 0.010464 -0.006225 -0.004018 -0.000333 -0.003961 -0.001568
# 2 -0.006225 0.019969 -0.000683 -0.004213 0.006858 0.008844
# 3 -0.004018 -0.000683 0.010906 -0.002805 0.001581 0.001719
# 4 -0.000333 -0.004213 -0.002805 0.022311 0.002089 0.000413
# 5 -0.003961 0.006858 0.001581 0.002089 0.015154 0.004734
# 6 -0.001568 0.008844 0.001719 0.000413 0.004734 0.020884
#
#
# Mechanical properties :
#
#
# Convention : Reuss Voigt Hill
#
# Bulk Modulus (GPa) = 51.31911 86.41417 68.86664
# Shear Modulus (GPa) = 39.05172 55.96708 47.50940
#
# Velocity S-wave (km/s) = 3.78461 4.53072 4.17437
# Velocity P-wave (km/s) = 6.15795 7.68536 6.96366
#
# Compressibility (1/GPa) = 0.01948592
#
# Stress axis : x y z
#
# Youngs Moduli (GPa) = 95.56404 50.07852 91.69350
#
# Poissons Ratio (x) = 0.31176 0.36842
# Poissons Ratio (y) = 0.59493 0.06262
# Poissons Ratio (z) = 0.38398 0.03420
#
# Static dielectric constant tensor:
#      x y z
#    x 0.000000 0.000000 0.000000 
#    y 0.000000 0.000000 0.000000 
#    z 0.000000 0.000000 0.000000 
# 
# From -- ./inp_files/15401.got.cif
#   From: 2010.05.17/outbox.cif.g08.bks.cpg/sg2_8_cif.got.tgz:15401.got - 2010.06.03 11:33:40.
