data_PCOD9051825
_publ_section_title
;
Structure prediction by ZEFSAII (Michael W. Deem and Ramdas Pophale) SiO2 
 PCOD9051825
Probable space group: P -1
;
_chemical_formula_sum "Si O2"
_cell_formula_units_Z 16
_cell_length_a 12.452423
_cell_length_b 9.744915
_cell_length_c 13.009403
_cell_angle_alpha 33.016129
_cell_angle_beta 53.981416
_cell_angle_gamma 73.094185
_cell_volume 618.110286
_symmetry_space_group_name_H-M "P -1"
_symmetry_group_IT_number 2
_symmetry_cell_setting 'triclinic'
loop_
_space_group_symop_operation_xyz
x,y,z
-x,-y,-z
loop_
_atom_site_type_symbol
_atom_site_label
_atom_site_fract_x
_atom_site_fract_y
_atom_site_fract_z
Si Si1 0.884795 0.720318 0.842011
Si Si2 0.892609 0.277945 0.535985
Si Si3 0.392367 0.763508 0.582392
Si Si4 0.790539 0.029695 0.549176
Si Si5 0.693064 0.674647 0.271011
Si Si6 0.325840 0.266643 0.511170
Si Si7 0.359705 0.832495 0.106340
Si Si8 0.982504 0.182467 0.986249
O O1 0.046343 0.731851 0.732245
O O2 0.925851 0.014501 0.694647
O O3 0.825344 0.780450 0.727590
O O4 0.746830 0.459061 0.132955
O O5 0.768205 0.153288 0.593028
O O6 0.806813 0.314967 0.656313
O O7 0.020862 0.559986 0.237958
O O8 0.344113 0.001314 0.426017
O O9 0.399640 0.589332 0.585687
O O10 0.549277 0.839354 0.498562
O O11 0.683061 0.643869 0.419733
O O12 0.858419 0.728653 0.108516
O O13 0.656095 0.932461 0.101830
O O14 0.372036 0.552613 0.239709
O O15 0.163207 0.005221 0.748559
O O16 0.500000 0.000000 0.000000
O O17 0.000000 0.000000 0.000000
#
# Coordination Sequence:
#
# PCOD9051825 Si02
#       8
#     2   2   2   2   2   2   2   2
#     4   9  19  34  54  85 102 125 181 236 262 298
#     4  10  17  35  55  72 110 140 171 214 265 307
#     4  12  19  32  57  81 104 135 175 224 269 311
#     4   9  19  33  56  82 100 134 175 229 269 307
#     4  11  20  33  56  74 106 152 177 204 266 315
#     4  11  24  35  48  79 118 139 177 215 259 319
#     4  12  21  31  53  83 109 136 177 220 257 314
#     4  10  20  37  51  74 110 152 176 206 253 326
#
# _framework density 25.885346999999999
#
# number of rings (size 3 to 8) (size 9 to 14) (size 15 to 20)
#    0.750    0.750    6.250    0.750    1.750    0.500 
#    0.000    0.000    0.000    1.500    0.000    0.000 
#    0.000    0.000    0.000    0.000    0.000    0.000 
#
# Total GULP energy -89222.365101 kJ/mol
# GULP energy per Si atom -5576.397819 kJ/mol
# Density = 2.582643 g / cm^3
# Si number density = 25.885347 Si / 1000 Ang^3
#
#
#
# Elastic Constant Matrix: (Units=GPa)
#
#
# Indices 1 2 3 4 5 6 
#
# 1 101.5943 24.2605 32.1738 3.5835 0.5471 -42.4398
# 2 24.2605 73.5735 19.3777 -2.9263 7.6969 -27.4657
# 3 32.1738 19.3777 107.7580 2.7893 8.8584 -21.9238
# 4 3.5835 -2.9263 2.7893 28.5247 -7.8226 1.5184
# 5 0.5471 7.6969 8.8584 -7.8226 46.8210 2.1545
# 6 -42.4398 -27.4657 -21.9238 1.5184 2.1545 41.7501
#
#
#
# Elastic Compliance Matrix: (Units=1/GPa)
#
#
# Indices 1 2 3 4 5 6 
#
# 1 0.017839 0.001459 -0.001623 -0.003339 -0.001548 0.018443
# 2 0.001459 0.018769 -0.000750 0.000112 -0.003569 0.013617
# 3 -0.001623 -0.000750 0.010911 -0.001798 -0.002396 0.003776
# 4 -0.003339 0.000112 -0.001798 0.037895 0.006968 -0.006002
# 5 -0.001548 -0.003569 -0.002396 0.006968 0.023887 -0.006665
# 6 0.018443 0.013617 0.003776 -0.006002 -0.006665 0.054202
#
#
# Mechanical properties :
#
#
# Convention : Reuss Voigt Hill
#
# Bulk Modulus (GPa) = 21.88565 48.28333 35.08449
# Shear Modulus (GPa) = 27.69143 37.22674 32.45908
#
# Velocity S-wave (km/s) = 3.27429 3.79639 3.54497
# Velocity P-wave (km/s) = 4.77156 6.15712 5.50808
#
# Compressibility (1/GPa) = 0.04569203
#
# Stress axis : x y z
#
# Youngs Moduli (GPa) = 56.05759 53.27820 91.64924
#
# Poissons Ratio (x) = -0.07773 0.14872
# Poissons Ratio (y) = -0.08179 0.06873
# Poissons Ratio (z) = 0.09097 0.03996
#
# Static dielectric constant tensor:
#      x y z
#    x 2.270090 -0.055730 -0.013250 
#    y -0.055730 2.108480 -0.015380 
#    z -0.013250 -0.015380 2.106460 
# 
# From -- ./inp_files/541701.got.cif
#   From: 2010.05.17/outbox.cif.g08.bks.cpg/sg2_271_cif.got.tgz:541701.got - 2010.06.03 11:33:40.
