data_PCOD9051297
_publ_section_title
;
Structure prediction by ZEFSAII (Michael W. Deem and Ramdas Pophale) SiO2 
 PCOD9051297
Probable space group: P -1
;
_chemical_formula_sum "Si O2"
_cell_formula_units_Z 11
_cell_length_a 9.811702
_cell_length_b 13.345576
_cell_length_c 16.872665
_cell_angle_alpha 153.860193
_cell_angle_beta 151.035433
_cell_angle_gamma 34.465458
_cell_volume 463.411578
_symmetry_space_group_name_H-M "P -1"
_symmetry_group_IT_number 2
_symmetry_cell_setting 'triclinic'
loop_
_space_group_symop_operation_xyz
x,y,z
-x,-y,-z
loop_
_atom_site_type_symbol
_atom_site_label
_atom_site_fract_x
_atom_site_fract_y
_atom_site_fract_z
Si Si1 0.306906 0.410737 0.038422
Si Si2 0.669975 0.209993 0.225686
Si Si3 0.672260 0.069616 0.854255
Si Si4 0.500000 0.500000 0.500000
Si Si5 0.196922 0.771936 0.404438
Si Si6 0.742735 0.116091 0.744814
O O1 0.497929 0.382780 0.195458
O O2 0.248968 0.654580 0.137708
O O3 0.501874 0.236236 0.951657
O O4 0.010218 0.312048 0.825061
O O5 0.680035 0.331781 0.401940
O O6 0.973697 0.080699 0.255876
O O7 0.500000 0.000000 0.000000
O O8 0.676901 0.177480 0.846444
O O9 0.502431 0.853494 0.605023
O O10 0.000000 0.000000 0.000000
O O11 0.250775 0.583583 0.367421
O O12 0.000000 0.000000 0.500000
O O13 0.500000 0.000000 0.500000
#
# Coordination Sequence:
#
# PCOD9051297 Si02
#       6
#     2   2   2   1   2   2
#     4  11  26  50  79 109 155 210 252 313 395 465
#     4  12  28  51  76 114 154 203 268 320 381 471
#     4  11  24  49  77 114 159 195 252 325 388 459
#     4  12  28  44  80 106 148 202 266 314 380 444
#     4  10  25  45  78 109 146 201 253 310 379 466
#     4  12  30  48  75 115 157 200 259 321 391 461
#
# _framework density 23.736996999999999
#
# number of rings (size 3 to 8) (size 9 to 14) (size 15 to 20)
#    0.000    0.727    1.818    3.818   12.727    3.636 
#    0.000    0.000    0.000    0.000    0.000    0.000 
#    0.000    0.000    0.000    0.000    0.000    0.000 
#
# Total GULP energy -61307.647967 kJ/mol
# GULP energy per Si atom -5573.422542 kJ/mol
# Density = 2.368297 g / cm^3
# Si number density = 23.736997 Si / 1000 Ang^3
#
#
#
# Elastic Constant Matrix: (Units=GPa)
#
#
# Indices 1 2 3 4 5 6 
#
# 1 135.6233 18.5319 70.6407 -21.6465 -28.9988 16.8825
# 2 18.5319 109.1630 48.3667 -30.0443 8.1793 -2.6562
# 3 70.6407 48.3667 142.0178 -18.7382 3.5993 16.2082
# 4 -21.6465 -30.0443 -18.7382 43.1342 -6.1322 -0.8398
# 5 -28.9988 8.1793 3.5993 -6.1322 54.1387 -15.8621
# 6 16.8825 -2.6562 16.2082 -0.8398 -15.8621 43.8104
#
#
#
# Elastic Compliance Matrix: (Units=1/GPa)
#
#
# Indices 1 2 3 4 5 6 
#
# 1 0.013251 0.001805 -0.006656 0.006180 0.008122 0.000524
# 2 0.001805 0.013134 -0.004564 0.008241 0.000884 0.002267
# 3 -0.006656 -0.004564 0.012244 -0.002011 -0.005130 -0.004137
# 4 0.006180 0.008241 -0.002011 0.032089 0.006355 0.001778
# 5 0.008122 0.000884 -0.005130 0.006355 0.026221 0.008437
# 6 0.000524 0.002267 -0.004137 0.001778 0.008437 0.027380
#
#
# Mechanical properties :
#
#
# Convention : Reuss Voigt Hill
#
# Bulk Modulus (GPa) = 50.51328 73.54251 62.02789
# Shear Modulus (GPa) = 33.38908 44.83434 39.11171
#
# Velocity S-wave (km/s) = 3.75457 4.35074 4.06360
# Velocity P-wave (km/s) = 6.33422 7.50254 6.94300
#
# Compressibility (1/GPa) = 0.01979677
#
# Stress axis : x y z
#
# Youngs Moduli (GPa) = 75.46378 76.14092 81.67523
#
# Poissons Ratio (x) = -0.13742 0.54365
# Poissons Ratio (y) = -0.13620 0.37280
# Poissons Ratio (z) = 0.50230 0.34754
#
# Static dielectric constant tensor:
#      x y z
#    x 1.873630 0.035200 0.088780 
#    y 0.035200 1.871510 -0.006730 
#    z 0.088780 -0.006730 1.827630 
# 
# From -- ./inp_files/153604.got.cif
#   From: 2010.05.17/outbox.cif.g08.bks.cpg/sg2_77_cif.got.tgz:153604.got - 2010.06.03 11:33:40.
